#------------------------------------------------------------------------------
#$Date: 2019-11-26 01:05:04 +0200 (Tue, 26 Nov 2019) $
#$Revision: 242230 $
#$URL: file:///home/coder/svn-repositories/cod/cif/4/13/22/4132209.cif $
#------------------------------------------------------------------------------
#
# This file is available in the Crystallography Open Database (COD),
# http://www.crystallography.net/
#
# All data on this site have been placed in the public domain by the
# contributors.
#
data_4132209
loop_
_publ_author_name
'Saha, Subhankar'
'Desiraju, Gautam R.'
_publ_section_title
;
 Acid&#x00B7;&#x00B7;&#x00B7;Amide Supramolecular Synthon in Cocrystals:
 From Spectroscopic Detection to Property Engineering.
;
_journal_issue                   20
_journal_name_full               'Journal of the American Chemical Society'
_journal_page_first              6361
_journal_page_last               6373
_journal_paper_doi               10.1021/jacs.8b02435
_journal_volume                  140
_journal_year                    2018
_chemical_formula_sum            'C15 H13 N3 O8'
_chemical_formula_weight         363.28
_space_group_crystal_system      triclinic
_space_group_IT_number           2
_space_group_name_Hall           '-P 1'
_space_group_name_H-M_alt        'P -1'
_atom_sites_solution_hydrogens   geom
_audit_creation_method           SHELXL-2014
_cell_angle_alpha                80.37(3)
_cell_angle_beta                 85.46(4)
_cell_angle_gamma                71.51(3)
_cell_formula_units_Z            2
_cell_length_a                   7.467(7)
_cell_length_b                   9.997(9)
_cell_length_c                   11.538(11)
_cell_measurement_reflns_used    2181
_cell_measurement_temperature    296(2)
_cell_measurement_theta_max      33.7
_cell_measurement_theta_min      1.8
_cell_volume                     805.0(13)
_computing_cell_refinement
;
CrystalClear-SM Expert 2.0 rc14 (Rigaku, 2009)
;
_computing_data_collection
;
CrystalClear-SM Expert 2.0 rc14 (Rigaku, 2009)
;
_computing_data_reduction
;
CrystalClear-SM Expert 2.0 rc14 (Rigaku, 2009)
;
_computing_structure_refinement  'SHELXL-14 (Sheldrick, 2014)'
_computing_structure_solution    'SHELXL-14 (Sheldrick, 2014)'
_diffrn_ambient_temperature      296(2)
_diffrn_detector_area_resol_mean 13.6612
_diffrn_measured_fraction_theta_full 0.997
_diffrn_measured_fraction_theta_max 0.997
_diffrn_measurement_device
;
XtaLABmini: Fixed Chi 2 circle
;
_diffrn_measurement_device_type
;
Rigaku Mercury375R (2x2 bin mode)
;
_diffrn_measurement_method       'profile data from \w-scans'
_diffrn_radiation_type           MoK\a
_diffrn_radiation_wavelength     0.71073
_diffrn_reflns_av_R_equivalents  0.1265
_diffrn_reflns_av_unetI/netI     0.0926
_diffrn_reflns_Laue_measured_fraction_full 0.997
_diffrn_reflns_Laue_measured_fraction_max 0.997
_diffrn_reflns_limit_h_max       9
_diffrn_reflns_limit_h_min       -9
_diffrn_reflns_limit_k_max       12
_diffrn_reflns_limit_k_min       -12
_diffrn_reflns_limit_l_max       14
_diffrn_reflns_limit_l_min       -14
_diffrn_reflns_number            7535
_diffrn_reflns_point_group_measured_fraction_full 0.997
_diffrn_reflns_point_group_measured_fraction_max 0.997
_diffrn_reflns_theta_full        25.242
_diffrn_reflns_theta_max         25.996
_diffrn_reflns_theta_min         1.791
_exptl_absorpt_coefficient_mu    0.124
_exptl_absorpt_correction_T_max  1.000
_exptl_absorpt_correction_T_min  0.785
_exptl_absorpt_correction_type   multi-scan
_exptl_absorpt_process_details   'Jacobson, R. (1998) Private communication'
_exptl_crystal_colour            Colourless
_exptl_crystal_density_diffrn    1.499
_exptl_crystal_description       Block
_exptl_crystal_F_000             376
_exptl_crystal_size_max          0.170
_exptl_crystal_size_mid          0.170
_exptl_crystal_size_min          0.160
_refine_diff_density_max         0.237
_refine_diff_density_min         -0.262
_refine_diff_density_rms         0.055
_refine_ls_extinction_method     none
_refine_ls_goodness_of_fit_ref   1.102
_refine_ls_hydrogen_treatment    constr
_refine_ls_matrix_type           full
_refine_ls_number_parameters     236
_refine_ls_number_reflns         3157
_refine_ls_number_restraints     0
_refine_ls_restrained_S_all      1.102
_refine_ls_R_factor_all          0.0756
_refine_ls_R_factor_gt           0.0625
_refine_ls_shift/su_max          0.004
_refine_ls_shift/su_mean         0.001
_refine_ls_structure_factor_coef Fsqd
_refine_ls_weighting_details
'w=1/[\s^2^(Fo^2^)+(0.0707P)^2^+0.1113P] where P=(Fo^2^+2Fc^2^)/3'
_refine_ls_weighting_scheme      calc
_refine_ls_wR_factor_gt          0.1633
_refine_ls_wR_factor_ref         0.1873
_reflns_Friedel_coverage         0.000
_reflns_number_gt                2548
_reflns_number_total             3157
_reflns_threshold_expression     'I > 2\s(I)'
_cod_data_source_file            ja8b02435_si_004.cif
_cod_data_source_block           1A
_cod_original_cell_volume        805.0(12)
_cod_database_code               4132209
_shelx_space_group_comment
;
The symmetry employed for this shelxl refinement is uniquely defined
by the following loop, which should always be used as a source of
symmetry information in preference to the above space-group names.
They are only intended as comments.
;
_shelx_estimated_absorpt_t_min   0.979
_shelx_estimated_absorpt_t_max   0.980
_shelxl_version_number           2014-3
_shelx_res_file
;
TITL dataP-1 in P-1
CELL  0.71073   7.4670   9.9970  11.5380   80.373   85.457   71.513
ZERR     2.00   0.0000   0.0000   0.0000    0.000    0.000    0.000
LATT   1
SFAC  C    H    N    O
UNIT  30   26   6    16
MERG   2
OMIT    -2.00  52.00
FMAP   2
PLAN   25
ACTA
BOND  $H
CONF
HTAB
TEMP  23
SIZE  0.16 0.17 0.17
L.S.   4
WGHT    0.070700    0.111300
FVAR       0.99549
C11   1   -0.628116    0.707402    0.294075    11.00000    0.04763    0.03540 =
         0.04798   -0.00053    0.00211   -0.01044
AFIX  43
H11   2   -0.601772    0.615403    0.335340    11.00000   -1.20000
AFIX   0
C12   1   -0.927939    1.207036    0.290673    11.00000    0.09889    0.03991 =
         0.07946   -0.02200    0.00097    0.00050
AFIX 137
H12A  2   -0.811324    1.229100    0.275941    11.00000   -1.50000
H12B  2   -1.008796    1.269045    0.341550    11.00000   -1.50000
H12C  2   -0.989093    1.220318    0.217624    11.00000   -1.50000
AFIX   0
C101  1   -0.091956    0.620639    0.290818    11.00000    0.04626    0.03438 =
         0.03861   -0.01019    0.00390   -0.00760
AFIX  43
H101  2   -0.044186    0.521919    0.296154    11.00000   -1.20000
AFIX   0
C103  1   -0.273694    0.827955    0.379572    11.00000    0.04674    0.04223 =
         0.04292   -0.01363    0.00646   -0.00932
AFIX  43
H103  2   -0.344134    0.867518    0.442559    11.00000   -1.20000
AFIX   0
C105  1   -0.201215    0.682881    0.381443    11.00000    0.04752    0.03657 =
         0.03615   -0.00710    0.00537   -0.00920
C106  1   -0.055002    0.708347    0.191784    11.00000    0.03986    0.04266 =
         0.03673   -0.01125    0.00406   -0.01322
C108  1   -0.130211    0.855472    0.184488    11.00000    0.04761    0.03948 =
         0.04036   -0.00400    0.00233   -0.01489
AFIX  43
H108  2   -0.109807    0.915215    0.117309    11.00000   -1.20000
AFIX   0
C109  1   -0.557082    0.728514    0.179743    11.00000    0.04048    0.03606 =
         0.04524   -0.01151    0.00054   -0.01140
C111  1   -0.737230    0.821524    0.346869    11.00000    0.05244    0.04523 =
         0.04211   -0.00298    0.01049   -0.01222
AFIX  43
H111  2   -0.782751    0.806306    0.423723    11.00000   -1.20000
AFIX   0
C112  1    0.064255    0.642601    0.092585    11.00000    0.04725    0.04673 =
         0.03967   -0.01256    0.00820   -0.01690
C114  1   -0.235674    0.911398    0.278617    11.00000    0.04548    0.03249 =
         0.04799   -0.01085    0.00084   -0.00648
C115  1   -0.779127    0.958633    0.285731    11.00000    0.04923    0.04051 =
         0.04633   -0.01386    0.00504   -0.00905
C116  1   -0.600441    0.867030    0.120105    11.00000    0.05655    0.04014 =
         0.03783   -0.00608    0.00793   -0.01110
AFIX  43
H116  2   -0.553516    0.882772    0.043670    11.00000   -1.20000
AFIX   0
C120  1   -0.431316    0.612032    0.118341    11.00000    0.04609    0.04036 =
         0.05538   -0.01705   -0.00591   -0.00790
C122  1   -0.711822    0.982230    0.171687    11.00000    0.06193    0.03314 =
         0.04566   -0.00330    0.00423   -0.00840
AFIX  43
H122  2   -0.740906    1.074204    0.130129    11.00000   -1.20000
AFIX   0
N1    3   -0.246236    0.586959    0.482726    11.00000    0.06513    0.04492 =
         0.03933   -0.00440    0.01240   -0.00967
N2    3   -0.316858    1.066780    0.271250    11.00000    0.06922    0.03462 =
         0.06823   -0.01071    0.00963   -0.00986
N3    3   -0.413525    0.477006    0.164057    11.00000    0.07343    0.03717 =
         0.09095   -0.02249    0.00326   -0.00772
AFIX  93
H3A   2   -0.338825    0.408539    0.130713    11.00000   -1.20000
H3B   2   -0.476748    0.458368    0.226894    11.00000   -1.20000
AFIX   0
O1    4    0.133163    0.503548    0.119195    11.00000    0.07874    0.04694 =
         0.05183   -0.01845    0.02278   -0.00684
AFIX  83
H1    2    0.197318    0.470736    0.063482    11.00000   -1.50000
AFIX   0
O2    4    0.093690    0.711830    0.001885    11.00000    0.07998    0.06351 =
         0.04621   -0.01296    0.02221   -0.02771
O3    4   -0.330914    0.638550    0.566143    11.00000    0.12067    0.06160 =
         0.05142   -0.01303    0.04230   -0.01415
O4    4   -0.196672    0.460243    0.477780    11.00000    0.13597    0.04108 =
         0.06737   -0.00495    0.04079   -0.02036
O5    4   -0.302745    1.139637    0.178176    11.00000    0.12741    0.03788 =
         0.08681    0.00093    0.01455   -0.01757
O6    4   -0.393729    1.115116    0.357831    11.00000    0.13973    0.05071 =
         0.09813   -0.02953    0.04460   -0.00343
O7    4   -0.342548    0.642346    0.028242    11.00000    0.07233    0.05868 =
         0.05985   -0.02705    0.01998   -0.00828
O8    4   -0.890336    1.062880    0.345317    11.00000    0.08632    0.04536 =
         0.06020   -0.01758    0.01894   -0.00091
HKLF    4

REM  dataP-1 in P-1
REM R1 =  0.0625 for    2548 Fo > 4sig(Fo)  and  0.0756 for all    3157 data
REM    236 parameters refined using      0 restraints

END

WGHT      0.0694      0.1167

REM Instructions for potential hydrogen bonds
EQIV $1 x-1, y+1, z
HTAB C12 O4_$1
EQIV $2 -x-1, -y+2, -z
HTAB C12 O2_$2
EQIV $3 -x, -y+1, -z
HTAB N3 O2_$3
EQIV $4 x, y-1, z
HTAB N3 O5_$4
HTAB O1 O7_$3

REM Highest difference peak  0.237,  deepest hole -0.262,  1-sigma level  0.055
Q1    1  -0.3241  0.5036  0.4572  11.00000  0.05    0.24
Q2    1  -0.6119  0.7137  0.2477  11.00000  0.05    0.19
Q3    1  -0.5959  0.8071  0.1475  11.00000  0.05    0.18
Q4    1  -0.5378  0.7008  0.1628  11.00000  0.05    0.18
Q5    1  -0.1839  1.1118  0.1994  11.00000  0.05    0.18
Q6    1  -0.9754  1.0025  0.4277  11.00000  0.05    0.17
Q7    1  -0.6995  0.8888  0.3302  11.00000  0.05    0.17
Q8    1  -0.8481  0.8016  0.4028  11.00000  0.05    0.17
Q9    1  -0.4749  1.0166  0.4637  11.00000  0.05    0.16
Q10   1  -0.0887  0.7761  0.1833  11.00000  0.05    0.16
Q11   1  -1.0292  1.0692  0.4016  11.00000  0.05    0.16
Q12   1  -0.8911  0.8801  0.4603  11.00000  0.05    0.15
Q13   1  -0.1744  0.7474  0.3999  11.00000  0.05    0.15
Q14   1  -0.7440  0.9766  0.2514  11.00000  0.05    0.15
Q15   1  -0.5172  0.6420  0.3842  11.00000  0.05    0.15
Q16   1  -0.5696  0.8788  0.1009  11.00000  0.05    0.15
Q17   1  -0.5412  0.4564  0.2002  11.00000  0.05    0.14
Q18   1   0.0493  0.8160 -0.0067  11.00000  0.05    0.14
Q19   1  -1.0591  1.1000  0.4559  11.00000  0.05    0.14
Q20   1  -0.5549  1.0443  0.3601  11.00000  0.05    0.14
Q21   1  -0.4142  0.6190  0.5179  11.00000  0.05    0.14
Q22   1  -1.0852  1.1321  0.2792  11.00000  0.05    0.13
Q23   1  -0.5408  0.9165  0.4415  11.00000  0.05    0.13
Q24   1  -0.5810  1.1050  0.1780  11.00000  0.05    0.13
Q25   1  -1.0234  1.0485  0.3371  11.00000  0.05    0.13
;
_shelx_res_checksum              55059
_shelx_hkl_file
;
   0   0  -1    0.01    0.06
   0   0   1    0.20    0.11
   0   0  -1   -0.18    0.09
   0   0  -1   -0.24    0.11
   0   0   1   -0.02    0.07
   0   0   2 1750.58    8.52
   0   0  -3    2.16    0.28
   0   0  -3    4.47    0.63
   0   0   3    3.26    0.53
   0   0  -4  187.96    3.49
   0   0  -4  299.68    5.96
   0   0   4  283.84    5.73
   0   0  -5   60.60    1.73
   0   0  -5  114.18    7.57
   0   0   5   91.62    3.05
   0   0  -6  933.51   13.94
   0   0  -6 1539.12   24.11
   0   0   6 1405.53   22.16
   0   0  -7  179.45    3.66
   0   0  -7  304.73    7.13
   0   0   7  261.11    6.42
   0   0  -8   19.19    1.16
   0   0  -8   30.17    2.32
   0   0   8   27.34    2.32
   0   0  -9   52.65    3.43
   0   0   9   49.17    3.10
   0   0 -10  134.39    5.56
   0   0  10  115.19    5.02
   0   0 -11  258.28    7.48
   0   0  11  211.52    6.78
   0   0 -12   16.95    3.32
   0   0  12   16.16    2.63
   0   0 -13   34.03    4.54
   0   0  13   22.43    5.44
   0   0 -14    2.93    1.48
   0   0  14    1.12    1.39
   0   0 -15    2.70    1.51
   0   0  15    3.86    1.41
   0   0 -16   -0.37    1.39
   0   0  16    2.28    1.48
   0   0  17    0.61    1.48
   0  -1  17   -0.10    1.26
   0   1 -16    0.54    1.32
   0  -1  16    1.78    1.16
   0   1 -15    2.84    1.54
   0  -1  15    1.99    1.82
   0   1 -14    0.63    1.26
   0  -1  14    0.43    1.36
   0   1 -13    7.84    2.01
   0  -1  13   10.77    2.61
   0   1 -12    1.53    1.39
   0  -1  12   -0.52    1.26
   0   1 -11   27.59    2.78
   0  -1  11   28.16    3.38
   0   1 -10   -0.35    1.20
   0  -1  10    0.54    1.24
   0   1  -9   14.45    1.07
   0   1  -9   32.96    4.59
   0  -1   9   30.83    2.90
   0   1  -8   53.95    2.06
   0   1  -8   90.63    3.98
   0  -1   8   91.08    4.05
   0   1  -7    7.72    0.75
   0   1  -7   15.51    3.61
   0  -1   7   14.85    1.56
   0   1  -6    2.97    0.47
   0   1  -6    9.12    2.14
   0  -1   6    7.44    1.24
   0   1  -5  265.43    5.03
   0   1  -5  410.97    8.01
   0  -1   5  407.85    8.19
   0   1  -4  396.17    3.87
   0   1  -4  572.95    6.17
   0  -1   4  593.00    6.44
   0   1  -3  547.40    4.28
   0   1  -3  724.69    5.77
   0  -1   3  779.48    6.57
   0   1  -2 8652.20   15.28
   0   1   0   -0.02    0.12
   0  -1   0    0.02    0.10
   0  -1   0    0.11    0.09
   0   1   2 3040.41   11.66
   0  -1  -3 3495.93   15.99
   0   1   3 3026.88   13.71
   0   1   4   11.66    1.96
   0  -1  -4   11.87    0.98
   0   1   4   11.73    0.98
   0   1   5   26.37    2.38
   0  -1  -5   30.55    1.77
   0   1   5   24.71    1.44
   0   1   6  109.73    2.68
   0  -1  -6  140.19    4.41
   0   1   6  120.09    3.74
   0   1   7   11.69    2.71
   0  -1  -7   13.21    1.64
   0   1   7   11.94    1.40
   0   1   8    0.84    0.32
   0  -1  -8    1.18    1.23
   0   1   8    1.46    0.95
   0   1   9   53.63    6.83
   0  -1  -9   89.81   12.50
   0   1   9   66.38    3.43
   0  -1 -10  201.90    7.12
   0   1  10  156.96    5.50
   0  -1 -11  377.15   10.54
   0   1  11  312.58    9.80
   0  -1 -12   26.55    3.10
   0   1  12   26.59    3.09
   0  -1 -13   -0.27    1.39
   0   1  13    2.16    1.37
   0  -1 -14    2.60    2.06
   0   1  14    2.09    1.77
   0  -1 -15   -0.06    1.52
   0   1  15   -0.59    1.00
   0  -1 -16   -0.72    1.60
   0   1  16    1.86    1.35
   0  -1 -17    0.24    1.36
   0   1  17    0.61    1.19
   0  -2  17    2.03    1.56
   0  -2  16    7.57    2.48
   0   2 -15    4.41    2.01
   0  -2  15    2.02    1.50
   0   2 -14    4.53    1.22
   0  -2  14    2.73    2.34
   0   2 -13   -0.07    1.13
   0  -2  13    1.58    2.02
   0   2 -12    0.66    1.13
   0  -2  12    0.75    1.26
   0   2 -11    4.66    1.98
   0  -2  11    1.72    1.50
   0   2 -10   79.59   12.40
   0  -2  10   82.14    4.41
   0   2  -9    1.08    0.60
   0   2  -9    0.73    0.59
   0  -2   9    1.28    1.14
   0   2  -8   13.75    1.13
   0   2  -8   25.47    2.24
   0  -2   8   24.99    2.42
   0   2  -7   15.10    1.11
   0   2  -7   22.19    1.96
   0  -2   7   22.64    2.09
   0   2  -6   19.35    1.31
   0   2  -6   27.06    3.79
   0  -2   6   28.13    2.12
   0   2  -5 1264.86   18.93
   0   2  -5 1707.38   26.39
   0  -2   5 1843.69   28.10
   0   2  -4  481.31    5.70
   0  -2   4  544.80    6.65
   0   2  -3 1412.47    9.38
   0  -2   3 1666.27   11.12
   0   2  -2    5.75    0.59
   0  -2   2    5.72    0.56
   0  -2   2    7.36    0.69
   0   2  -1  542.98    4.76
   0  -2   1  395.88    3.34
   0  -2   1  588.45    4.80
   0   2   0   87.56    2.22
   0  -2   0   62.37    1.54
   0  -2   0   84.23    2.07
   0   2   1 2237.22   10.79
   0  -2  -2   29.16    1.23
   0   2   2   26.18    1.00
   0   2   3 1064.57    7.04
   0  -2  -3  931.07    7.43
   0   2   3  748.17    6.17
   0   2   4 1695.91    9.64
   0   2   4 1298.78    8.87
   0   2   5 1058.85    7.53
   0  -2  -5 1025.24    9.51
   0   2   5  873.67    7.93
   0   2   6  117.48    4.75
   0  -2  -6  125.42    4.22
   0   2   6  107.65    3.51
   0   2   7   17.28    2.47
   0  -2  -7   19.23    1.87
   0   2   7   16.20    1.47
   0   2   8   63.04    4.82
   0  -2  -8   69.61    3.79
   0   2   8   53.43    2.88
   0   2   9   23.12    3.39
   0  -2  -9   28.29    2.87
   0   2   9   23.06    2.24
   0  -2 -10   16.47    2.39
   0   2  10   17.62    2.48
   0  -2 -11  138.33    6.12
   0   2  11  114.44    4.86
   0  -2 -12    0.22    1.44
   0   2  12    0.57    1.14
   0  -2 -13   37.14    3.81
   0   2  13   29.96    3.39
   0  -2 -14    1.93    1.55
   0   2  14    1.22    1.07
   0  -2 -15    2.43    1.52
   0   2  15    2.76    1.81
   0  -2 -16    6.51    2.31
   0   2  16    2.01    1.35
   0  -2 -17    0.38    1.37
   0  -3  15    8.32    2.64
   0   3 -14    3.49    1.35
   0  -3  14    3.71    2.26
   0   3 -13    3.91    1.33
   0  -3  13    5.21    1.11
   0   3 -12    4.39    1.19
   0  -3  12    6.76    1.94
   0   3 -11   10.66    2.32
   0  -3  11    4.73    1.81
   0   3 -10    7.50    1.15
   0   3 -10    9.25    2.43
   0  -3  10    8.97    2.01
   0   3  -9    1.13    0.70
   0   3  -9    2.20    1.07
   0  -3   9    2.10    1.13
   0   3  -8   54.61    2.37
   0   3  -8   94.03    4.12
   0  -3   8   89.46    4.28
   0   3  -7  232.20    5.78
   0   3  -7  325.98   10.45
   0  -3   7  354.74    9.32
   0   3  -6   54.64    2.26
   0   3  -6   72.18    9.37
   0  -3   6   80.23    3.49
   0   3  -5   37.93    1.81
   0   3  -5   54.98    6.44
   0  -3   5   60.99    2.86
   0   3  -4   12.05    1.12
   0   3  -4   14.37    2.04
   0  -3   4   17.90    1.69
   0   3  -3  938.67    8.25
   0  -3   3  845.11    6.92
   0  -3   3 1171.99    9.78
   0   3  -2   75.12    2.67
   0  -3   2   58.88    1.89
   0  -3   2   81.16    3.07
   0   3  -1  587.65    5.97
   0  -3   1  418.80    4.10
   0  -3   1  618.08    5.71
   0   3   0    0.42    0.39
   0  -3   0    0.19    0.32
   0  -3   0    0.79    0.35
   0   3   1   22.18    4.05
   0  -3  -1   17.07    1.24
   0   3   2 1625.95   10.29
   0  -3  -2 1251.90    8.60
   0   3   2 1090.50    6.97
   0   3   3  994.29    8.00
   0  -3  -3  825.61    7.47
   0   3   3  665.82    5.63
   0   3   4 3282.53   16.78
   0  -3  -4 2760.95   16.21
   0   3   4 2251.41   12.60
   0   3   5  927.04   14.48
   0  -3  -5  812.27   13.86
   0   3   5  655.47   10.98
   0   3   6 1198.80   18.31
   0  -3  -6 1095.39   18.24
   0   3   6  888.64   14.64
   0   3   7   15.27    2.70
   0  -3  -7   10.30    1.40
   0   3   7   11.09    1.36
   0   3   8    1.82    0.57
   0  -3  -8    0.01    1.12
   0   3   8   -0.47    0.72
   0   3   9    2.69    0.80
   0  -3  -9    4.28    2.51
   0   3   9    3.31    1.14
   0   3  10   60.88    5.74
   0  -3 -10   55.88    3.65
   0   3  10   48.09    2.99
   0  -3 -11  177.91    6.72
   0   3  11  150.95    5.52
   0  -3 -12    1.46    1.52
   0   3  12    0.94    0.97
   0  -3 -13    1.02    1.43
   0   3  13    1.21    1.04
   0  -3 -14   -0.22    1.45
   0   3  14    6.79    2.37
   0  -3 -15   -0.27    1.51
   0   3  15    2.23    1.25
   0  -3 -16    1.45    1.69
   0   3  16    5.06    1.99
   0  -3 -17    2.82    1.69
   0  -4  16    0.39    1.43
   0  -4  15    2.12    2.20
   0  -4  14    5.75    2.24
   0   4 -13    3.79    2.04
   0  -4  13    6.04    2.12
   0   4 -12    1.84    1.12
   0  -4  12    3.60    1.78
   0   4 -11   21.24    4.54
   0  -4  11   22.47    3.16
   0   4 -10   27.74    4.53
   0  -4  10   26.61    3.34
   0   4  -9    9.80    1.32
   0   4  -9   15.55    2.26
   0  -4   9   22.98    3.18
   0   4  -8   78.75    3.29
   0   4  -8  114.63    4.27
   0  -4   8  116.83    4.94
   0   4  -7    7.34    1.28
   0   4  -7    6.80    1.41
   0  -4   7    7.87    2.06
   0   4  -6   78.86    3.23
   0   4  -6   92.05    6.45
   0  -4   6  110.38    4.48
   0   4  -5   23.54    1.73
   0   4  -5   32.41    5.75
   0  -4   5   37.62    2.59
   0   4  -4  178.41    4.84
   0   4  -4  186.65    4.62
   0  -4   4  229.82    6.74
   0   4  -3    9.93    1.46
   0  -4   3    6.86    0.83
   0  -4   3   11.67    1.16
   0   4  -2  985.43    9.25
   0  -4   2  743.43    6.57
   0  -4   2 1117.09    9.63
   0   4  -1   11.04    1.17
   0  -4   1    8.50    0.78
   0  -4   1   13.68    2.96
   0   4   0  842.46    8.98
   0  -4   0  551.16    5.42
   0  -4   0  810.87    7.05
   0   4   1  574.62    6.70
   0  -4  -1  386.43    4.72
   0  -4  -1  481.21    4.98
   0   4   2  222.87    5.15
   0  -4  -2  161.44    3.92
   0  -4  -2  170.87    4.07
   0   4   3 1184.59   10.33
   0  -4  -3  936.93    8.59
   0   4   3  795.88    6.72
   0   4   4   21.91    4.50
   0  -4  -4   15.27    1.35
   0   4   4   13.32    1.04
   0   4   5  255.77    5.87
   0  -4  -5  204.37    5.57
   0   4   5  168.96    4.20
   0   4   6   32.06    5.60
   0  -4  -6   26.85    1.92
   0   4   6   18.82    1.42
   0   4   7  177.48    5.41
   0  -4  -7  149.60    5.16
   0   4   7  117.76    3.73
   0   4   8  216.02    4.55
   0  -4  -8  183.72    6.07
   0   4   8  145.24    6.16
   0   4   9  189.12    5.26
   0  -4  -9  178.19    5.98
   0   4   9  144.32    4.61
   0   4  10   25.59    4.88
   0  -4 -10   29.18    3.51
   0   4  10   23.92    2.41
   0  -4 -11   48.50    8.90
   0   4  11   48.39    3.49
   0  -4 -12    9.76    2.22
   0   4  12    7.99    1.82
   0  -4 -13    8.87    2.27
   0   4  13    9.50    2.00
   0  -4 -14    8.34    2.55
   0   4  14    5.22    1.73
   0  -4 -15    0.81    1.53
   0   4  15    1.13    1.04
   0  -4 -16    3.74    2.18
   0   4  16    0.80    1.04
   0  -4 -17    2.99    1.80
   0  -5  15    2.02    1.69
   0  -5  14    1.82    1.12
   0  -5  13    1.93    1.09
   0   5 -12    3.08    1.57
   0  -5  12    2.41    1.58
   0   5 -11    1.13    0.48
   0  -5  11    1.35    1.58
   0   5 -10    2.10    0.96
   0   5 -10    3.21    1.21
   0  -5  10    3.63    1.48
   0   5  -9   16.52    1.80
   0   5  -9   24.32    5.58
   0  -5   9   29.14    3.52
   0   5  -8   31.76    2.40
   0   5  -8   48.61    3.27
   0  -5   8   51.18    3.77
   0   5  -7   41.00    2.43
   0   5  -7   48.86    7.65
   0  -5   7   64.73    3.96
   0   5  -6    2.72    0.76
   0   5  -6    4.25    0.80
   0  -5   6    6.57    1.50
   0   5  -5   70.73    3.39
   0   5  -5   74.09    5.57
   0  -5   5   89.68   12.43
   0   5  -4  283.61    6.79
   0  -5   4  361.38    8.26
   0   5  -3   95.73    3.46
   0  -5   3   74.59    4.92
   0  -5   3  117.24    3.70
   0   5  -2   40.00    6.43
   0  -5   2   25.71    1.40
   0  -5   2   41.05    2.11
   0   5  -1    0.75    0.74
   0  -5   1    1.22    0.47
   0  -5   1    1.49    0.59
   0   5   0  750.11   13.34
   0  -5   0  502.76    8.79
   0  -5   0  748.75   12.60
   0   5   1  948.01   15.89
   0  -5  -1  641.56   10.83
   0  -5  -1  836.46   13.70
   0   5   2  190.86    5.56
   0  -5  -2  141.97    4.01
   0  -5  -2  166.85    3.97
   0   5   3  216.10    5.55
   0  -5  -3  164.51    4.49
   0   5   3  153.30    3.81
   0   5   4  183.77    4.97
   0  -5  -4  142.30    4.33
   0   5   4  120.91    3.96
   0  -5  -5   38.85    2.19
   0   5   5   32.84    1.77
   0   5   6  175.07    4.89
   0  -5  -6  153.32    4.86
   0   5   6  119.09    4.35
   0   5   7    3.98    0.91
   0  -5  -7    3.59    1.30
   0   5   7    2.06    0.87
   0   5   8    2.11    0.69
   0  -5  -8   -0.05    1.34
   0   5   8    0.77    0.63
   0   5   9  142.93    6.47
   0  -5  -9  124.86    6.47
   0   5   9  104.10    5.17
   0   5  10   10.37    1.11
   0  -5 -10   14.43    2.59
   0   5  10    7.08    1.47
   0  -5 -11   87.01    5.04
   0   5  11   78.14    3.83
   0  -5 -12   -0.76    1.42
   0   5  12    0.04    0.73
   0  -5 -13    4.27    2.22
   0   5  13   -0.40    0.87
   0  -5 -14    0.95    0.69
   0   5  14    0.23    0.84
   0  -5 -15    6.31    2.34
   0   5  15    3.55    1.62
   0  -5 -16   13.48    2.99
   0  -5 -17    1.98    1.58
   0  -6  15    7.69    3.00
   0  -6  14    4.80    2.35
   0  -6  13    0.50    1.45
   0  -6  12    2.02    2.00
   0  -6  11    0.36    1.34
   0   6 -10    2.21    0.85
   0  -6  10    3.66    1.74
   0   6  -9    3.83    1.12
   0   6  -9    5.91    1.51
   0  -6   9    5.49    1.85
   0   6  -8    1.24    0.61
   0  -6   8    0.02    1.23
   0   6  -7    6.81    1.51
   0   6  -7    6.69    1.50
   0  -6   7    9.70    2.04
   0   6  -6    1.60    0.92
   0   6  -6    4.14    0.89
   0  -6   6    1.03    1.30
   0   6  -5  113.94    4.60
   0   6  -5  119.01   11.55
   0  -6   5  138.11    5.12
   0   6  -4  260.56    6.09
   0  -6   4  219.48    4.61
   0  -6   4  303.99   10.05
   0   6  -3  130.20    5.45
   0  -6   3  100.18    3.43
   0  -6   3  149.19    4.95
   0   6  -2    3.64    1.20
   0  -6   2   -0.03    0.50
   0  -6   2    1.14    1.23
   0   6  -1  104.39    3.78
   0  -6   1   78.03    2.61
   0  -6   1  119.43    3.41
   0   6   0  122.06    6.07
   0  -6   0   84.05    2.72
   0  -6   0  119.87    4.97
   0   6   1  117.44    4.18
   0  -6  -1   76.61    2.60
   0  -6  -1  115.73    3.17
   0   6   2  166.66    5.09
   0  -6  -2  114.89    3.70
   0  -6  -2  138.18    3.79
   0   6   3    0.50    0.45
   0  -6  -3    1.89    0.80
   0  -6  -3    0.04    0.51
   0   6   4  240.89    6.45
   0  -6  -4  174.34    5.00
   0   6   4  161.95    4.04
   0   6   5  134.31    4.79
   0  -6  -5  104.89    4.23
   0   6   5   83.35    3.52
   0   6   6    2.43    0.53
   0  -6  -6    0.83    1.04
   0   6   6    1.05    0.61
   0   6   7   16.06    2.37
   0  -6  -7   16.37    1.97
   0   6   7    9.83    1.18
   0   6   8    4.00    1.13
   0  -6  -8    2.57    1.03
   0   6   8    2.33    0.74
   0   6   9   66.39    3.12
   0  -6  -9   58.09    3.77
   0   6   9   46.45    2.80
   0   6  10    2.68    1.13
   0  -6 -10    2.41    1.56
   0   6  10    2.64    1.02
   0   6  11    2.19    0.58
   0  -6 -11    0.68    0.94
   0   6  11    0.74    0.72
   0  -6 -12   13.95    3.97
   0   6  12    9.51    1.59
   0  -6 -13    7.66    2.30
   0   6  13    9.42    1.81
   0  -6 -14    3.26    1.54
   0   6  14    0.19    0.89
   0  -6 -15    0.65    1.40
   0  -6 -16    0.32    1.44
   0  -6 -17    7.80    2.72
   0  -7  14    2.15    1.99
   0  -7  13    1.38    1.69
   0  -7  12    2.96    1.66
   0  -7  11    9.90    4.34
   0  -7  10   15.87    2.66
   0   7  -9    1.32    1.04
   0   7  -9    3.44    0.84
   0  -7   9    5.67    2.07
   0   7  -8    9.45    1.95
   0   7  -8   10.02    2.40
   0  -7   8   12.27    2.40
   0   7  -7    1.12    0.85
   0   7  -7    0.27    0.34
   0  -7   7    4.13    1.51
   0   7  -6    4.53    1.48
   0   7  -6    3.32    0.78
   0  -7   6    6.33    1.86
   0   7  -5  291.89   11.82
   0   7  -5  258.41   10.48
   0  -7   5  369.42   14.53
   0   7  -4   -0.50    1.28
   0  -7   4    1.25    1.05
   0  -7   4    0.73    1.35
   0   7  -3  239.23   10.51
   0  -7   3  207.73    4.82
   0  -7   3  313.40    7.20
   0   7  -2  103.05    7.44
   0  -7   2   84.49    3.00
   0  -7   2  130.10    4.09
   0   7  -1    1.03    1.08
   0  -7   1    0.32    0.56
   0  -7   1    2.06    0.96
   0   7   0    8.91    2.12
   0  -7   0    3.66    0.78
   0  -7   0    6.18    1.23
   0   7   1   24.58    4.79
   0  -7  -1   15.22    1.50
   0  -7  -1   21.89    3.14
   0   7   2  172.94    7.89
   0  -7  -2  119.47    4.16
   0  -7  -2  168.65   13.41
   0   7   3  214.11    6.81
   0  -7  -3  149.00    4.92
   0  -7  -3  177.50    4.90
   0   7   4    9.67    1.45
   0  -7  -4    6.13    1.29
   0  -7  -4    6.52    1.35
   0   7   5   93.34    4.60
   0  -7  -5   67.87    3.26
   0   7   6 1074.91   14.59
   0  -7  -6  815.08   13.21
   0   7   6  709.51    9.84
   0   7   7  195.22    8.64
   0  -7  -7  156.22    7.70
   0   7   7  127.76    5.60
   0   7   8    7.29    1.42
   0  -7  -8    7.34    1.92
   0   7   8    4.81    1.13
   0   7   9   16.72    3.55
   0  -7  -9   14.97    1.95
   0   7   9   10.60    1.58
   0   7  10    9.06    1.96
   0  -7 -10   13.72    2.58
   0   7  10    7.33    1.44
   0   7  11    0.90    0.76
   0  -7 -11    2.43    1.56
   0   7  11    1.95    1.05
   0  -7 -12    5.60    1.95
   0   7  12    7.40    1.66
   0  -7 -13    1.82    1.33
   0  -7 -14   -0.46    1.47
   0  -7 -15    3.05    2.19
   0  -7 -16   28.02    4.02
   0  -8  13    1.15    2.39
   0  -8  12    0.80    1.47
   0  -8  11    6.85    2.25
   0  -8  10   15.13    2.76
   0   8  -9    4.14    1.54
   0  -8   9    5.70    2.00
   0   8  -8    7.52    1.68
   0  -8   8   10.60    2.52
   0   8  -7    2.88    1.19
   0  -8   7    3.66    1.45
   0   8  -6    5.02    1.44
   0   8  -6    7.20    1.74
   0  -8   6    8.35    2.09
   0   8  -5    6.41    1.88
   0   8  -5    2.64    0.57
   0  -8   5    7.43    1.84
   0   8  -4   -1.40    1.08
   0  -8   4    0.02    0.63
   0  -8   4    0.10    1.18
   0   8  -3  112.81    7.06
   0  -8   3   86.34    4.28
   0  -8   3  142.67    6.81
   0   8  -2    9.97    2.15
   0  -8   2    9.31    1.25
   0  -8   2   14.51    1.79
   0   8  -1    2.43    1.01
   0  -8   1    0.03    0.56
   0  -8   1    2.17    0.95
   0   8   0   20.12    3.66
   0  -8   0   15.56    1.67
   0  -8   0   21.27    4.46
   0   8   1 1034.62   15.49
   0  -8  -1  687.03   10.20
   0  -8  -1  971.01   15.09
   0   8   2    0.45    0.76
   0  -8  -2    1.96    0.87
   0  -8  -2    2.32    1.08
   0   8   3  297.86    7.73
   0  -8  -3  199.00    5.53
   0  -8  -3  242.62    7.65
   0   8   4  371.24    8.83
   0  -8  -4  255.12    6.38
   0  -8  -4  306.93    6.30
   0   8   5   23.74    4.80
   0  -8  -5   19.81    2.40
   0  -8  -5   15.62    3.97
   0   8   6   16.24    2.25
   0  -8  -6   12.53    1.67
   0  -8  -6   11.85    1.90
   0   8   7  196.26    8.06
   0  -8  -7  155.37    5.89
   0   8   7  139.88    4.38
   0   8   8    6.55    1.62
   0  -8  -8    5.03    1.72
   0   8   8    4.20    1.22
   0   8   9   11.76    1.91
   0  -8  -9    8.34    2.01
   0   8   9    8.51    1.47
   0   8  10   24.60    3.01
   0  -8 -10   24.61    2.82
   0   8  10   19.29    2.07
   0   8  11    1.51    1.01
   0  -8 -11    1.59    1.27
   0  -8 -12    0.72    1.23
   0  -8 -13   11.36    2.49
   0  -8 -14   17.99    3.07
   0  -8 -15   10.35    2.80
   0  -8 -16    4.95    2.46
   0  -9  11    2.38    1.92
   0  -9  10   10.33    2.79
   0  -9   9    4.90    2.24
   0   9  -8    1.92    1.41
   0  -9   8    0.19    1.23
   0   9  -7    0.48    0.91
   0  -9   7    0.55    1.09
   0   9  -6    2.39    1.19
   0  -9   6    1.96    1.21
   0   9  -5    1.58    1.32
   0  -9   5    2.12    1.15
   0   9  -4   17.02    3.80
   0  -9   4   24.22    3.94
   0   9  -3    1.04    1.22
   0  -9   3    1.02    0.80
   0  -9   3    3.11    1.63
   0   9  -2    0.02    1.20
   0  -9   2    0.32    0.51
   0  -9   2   -0.74    0.93
   0   9  -1    6.43    1.75
   0  -9   1    3.83    1.01
   0  -9   1    5.80    1.33
   0   9   0  120.96    5.63
   0  -9   0   92.33    3.63
   0  -9   0  134.20    4.47
   0   9   1   14.37    2.96
   0  -9  -1   12.69    1.77
   0  -9  -1   15.62    2.99
   0   9   2  161.03    8.99
   0  -9  -2  109.95    3.98
   0  -9  -2  160.00    4.69
   0   9   3    7.39    1.68
   0  -9  -3    3.42    1.06
   0  -9  -3    4.15    1.28
   0   9   4  129.34    6.75
   0  -9  -4   87.76    4.11
   0  -9  -4   91.36   11.60
   0   9   5    8.78    2.30
   0  -9  -5    4.60    1.36
   0  -9  -5    9.29    1.31
   0   9   6   21.06    4.46
   0  -9  -6   17.75    2.24
   0  -9  -6   12.77    3.69
   0   9   7   47.58    3.65
   0  -9  -7   32.30    3.03
   0  -9  -7   22.58    4.53
   0   9   8    3.56    1.38
   0  -9  -8    2.64    1.26
   0   9   9    9.92    1.59
   0  -9  -9    6.67    1.71
   0   9  10   -0.20    0.85
   0  -9 -10    1.01    1.18
   0   9  11    4.03    1.63
   0  -9 -11    3.38    1.80
   0  -9 -12   19.94    3.03
   0  -9 -13   18.08    3.16
   0  -9 -14    0.27    1.37
   0  -9 -15    2.13    1.59
   0 -10  10   -0.94    1.35
   0 -10   9    2.43    2.04
   0  10  -8    1.65    1.15
   0 -10   8    3.44    2.10
   0  10  -7    3.15    1.55
   0 -10   7    2.22    1.70
   0  10  -6   -0.64    0.96
   0 -10   6    2.14    1.54
   0  10  -5    5.41    1.42
   0 -10   5   10.84    2.15
   0  10  -4    8.45    1.77
   0 -10   4    8.36    1.69
   0  10  -3   -0.43    1.03
   0 -10   3    0.39    1.04
   0  10  -2    5.60    1.64
   0 -10   2    6.38    1.51
   0  10  -1    3.18    1.38
   0 -10   1    2.35    0.90
   0 -10   1    4.77    1.23
   0  10   0    1.36    1.32
   0 -10   0    1.70    1.06
   0 -10   0    2.31    0.94
   0  10   1    2.99    1.37
   0 -10  -1    1.54    0.90
   0 -10  -1    3.82    1.06
   0  10   2    1.95    0.87
   0 -10  -2    0.94    0.94
   0 -10  -2    2.88    0.59
   0  10   3   11.85    2.19
   0 -10  -3    7.86    1.44
   0 -10  -3   10.14    2.52
   0  10   4   42.79    4.14
   0 -10  -4   27.87    3.00
   0 -10  -4   24.92    6.40
   0 -10  -5    1.45    0.94
   0 -10  -5    2.67    0.95
   0  10   6    4.22    1.06
   0 -10  -6    2.05    1.08
   0  10   7   12.57    2.56
   0 -10  -7   11.24    2.10
   0  10   8    7.36    1.54
   0 -10  -8    5.03    1.73
   0  10   9    4.27    1.43
   0 -10  -9    7.06    2.20
   0  10  10    8.38    1.83
   0 -10 -10    8.00    2.13
   0 -10 -11    6.21    1.89
   0 -10 -12   17.65    3.09
   0 -10 -13    3.43    1.59
   0 -10 -14   -0.46    1.31
   0  11  -7    0.30    1.11
   0 -11   7    1.08    1.36
   0  11  -6    4.06    2.10
   0 -11   6    5.32    2.04
   0  11  -5    2.32    1.19
   0 -11   5    1.81    1.36
   0  11  -4    0.35    1.44
   0 -11   4    1.07    0.80
   0  11  -3   32.63    3.99
   0 -11   3   29.42    4.13
   0  11  -2    1.00    1.24
   0 -11   2    0.52    0.96
   0  11  -1   24.62    5.43
   0 -11   1   22.52    2.33
   0  11   0    1.72    1.02
   0 -11   0    0.65    0.98
   0  11   1    4.01    2.04
   0 -11  -1    8.31    1.63
   0  11   2   10.51    2.58
   0 -11  -2    7.18    1.50
   0  11   3    0.89    1.25
   0 -11  -3    1.10    0.79
   0  11   4   23.63    4.50
   0 -11  -4   16.33    2.06
   0  11   5   11.58    2.45
   0 -11  -5    4.03    1.33
   0  11   6   15.27    3.99
   0 -11  -6   15.43    2.55
   0  11   7    1.36    1.31
   0 -11  -7    3.23    1.57
   0  11   8    5.42    1.74
   0 -11  -8    1.29    1.04
   0  11   9    7.67    2.14
   0 -11  -9    6.99    3.19
   0  11  10    2.94    2.01
   0 -11 -10    2.96    1.89
   0 -11 -11    8.26    2.08
   0 -11 -12    8.43    2.41
   0  12  -5    3.57    1.59
   0  12  -4    0.92    1.22
   0  12  -3    6.13    2.33
   0  12  -2    0.49    1.25
   0  12  -1   26.19    3.85
   0  12   0   22.38    5.40
   0  12   1    3.87    2.18
   0  12   2   20.06    4.47
   0  12   3    4.99    1.46
   0  12   4    7.98    2.17
   0  12   5    1.67    1.49
   0 -12  -5    1.42    1.42
   0  12   6    3.06    2.60
   0 -12  -6    0.96    1.07
   0  12   7    0.95    0.69
   0 -12  -7    1.51    1.18
   0  12   8   32.39    4.14
   0 -12  -8   16.46    2.95
   0  12   9    2.28    1.14
   0 -12  -9    0.36    1.17
   0  13  -4    0.72    1.19
   0  13  -3   -0.87    1.22
   0  13  -2    5.88    2.34
   0  13  -1   10.82    3.21
   0  13   0    2.16    2.20
   0  13   1    2.58    1.62
   0  13   2   43.81    5.00
   0  13   3    0.53    1.54
   0  13   4    5.31    2.43
   0  13   5    2.89    1.55
   0  13   6   -0.54    1.26
   0  13   7   -1.55    1.18
   0  13   8    2.94    1.86
   0  14  -1    0.28    1.33
   0  14   0    8.74    3.00
   0  14   1   53.93    5.40
   0  14   2    7.07    2.85
   0  14   3    9.16    3.05
   0  14   4   14.53    3.30
   0  14   5    2.59    1.41
   0  14   6    0.31    1.38
  -1  14   4    8.78    3.05
  -1  14   3    4.40    1.67
  -1  14   2    8.45    2.81
  -1  14   1    2.26    1.69
  -1  14   0    5.11    1.95
  -1  13   7    0.69    0.85
  -1  13   6    1.40    1.36
  -1  13   5    4.37    2.50
  -1  13   4    5.14    2.24
  -1  13   3    6.10    4.64
  -1  13   2    5.06    2.40
  -1  13   1   31.80    4.51
  -1  13   0    3.61    2.41
  -1  13  -1    3.16    2.13
  -1  13  -2    2.34    1.86
  -1  13  -3    1.56    1.42
  -1  13  -4    1.01    1.33
  -1  12   8   13.07    3.10
  -1  12   7    5.95    1.99
  -1  12   6    2.40    1.44
  -1  12   5   20.55    4.28
  -1  12   4    1.96    0.98
  -1  12   3    7.76    2.09
  -1  12   2    5.96    2.49
  -1  12   1    1.02    1.38
  -1  12   0    0.96    1.30
  -1  12  -1   27.63    4.28
  -1  12  -2    0.06    1.26
  -1  12  -3    8.47    2.20
  -1  12  -4    1.02    1.26
  -1  12  -5    0.35    1.29
  -1  11   9    1.52    1.22
   1 -11  -9   -0.05    1.05
  -1  11   8    7.59    2.12
   1 -11  -8    2.93    1.60
  -1  11   7   44.68    4.11
   1 -11  -7   26.88    3.06
  -1  11   6    4.90    1.57
   1 -11  -6    4.40    1.42
  -1  11   5  134.62    6.39
  -1  11   4   16.87    4.54
  -1  11   3    6.37    2.07
   1 -11  -3    5.80    1.20
  -1  11   2    1.56    1.50
   1 -11  -2    3.11    1.02
  -1  11   1    2.61    1.55
   1 -11  -1    2.79    1.23
  -1  11   0   22.56    3.95
   1 -11   0   23.12    2.60
  -1  11  -1    2.47    2.01
   1 -11   1    4.49    2.03
  -1  11  -2    1.66    1.39
   1 -11   2    0.60    1.20
  -1  11  -3    0.36    1.22
   1 -11   3    1.51    1.37
  -1  11  -4   29.83    3.54
   1 -11   4   35.55    3.61
  -1  11  -5    1.37    1.25
   1 -11   5   -0.32    1.31
  -1  11  -6   42.82    4.35
   1 -11   6   55.74    4.75
  -1  11  -7    2.92    1.47
   1 -11   7    8.15    2.62
   1 -10 -13    1.84    1.45
   1 -10 -12    2.56    2.20
   1 -10 -11    0.51    1.20
   1 -10 -10    1.38    1.33
  -1  10   9    5.59    1.62
   1 -10  -9    3.51    1.49
  -1  10   8    2.65    1.61
   1 -10  -8    0.66    0.89
  -1  10   7   38.13    3.45
   1 -10  -7   24.95    2.74
  -1  10   6   48.44    3.88
   1 -10  -6   35.64    3.19
   1 -10  -6   41.46    3.05
  -1  10   5    3.87    1.67
   1 -10  -5    1.53    0.81
   1 -10  -5    3.00    0.81
  -1  10   4   11.72    2.32
   1 -10  -4    7.82    1.42
   1 -10  -4   11.10    2.70
  -1  10   3    2.66    1.92
   1 -10  -3    1.05    0.70
   1 -10  -3    1.13    0.88
  -1  10   2    8.40    2.12
   1 -10  -2    9.89    1.90
  -1  10   1    1.36    0.86
   1 -10  -1    1.82    0.50
  -1  10   0    0.97    1.32
   1 -10   0    0.54    0.62
  -1  10  -1    1.91    1.31
   1 -10   1    0.67    1.40
  -1  10  -2    1.93    1.36
   1 -10   2    1.43    1.35
  -1  10  -3    1.46    1.27
   1 -10   3    4.20    1.34
  -1  10  -4   24.33    3.26
   1 -10   4   35.44    3.67
  -1  10  -5    7.20    1.74
   1 -10   5   14.48    3.90
  -1  10  -6    4.12    2.09
   1 -10   6    6.73    1.89
  -1  10  -7    7.95    2.62
   1 -10   7   14.95    3.08
  -1  10  -8    1.44    1.19
   1 -10   8    2.36    1.68
   1 -10   9    0.92    1.46
   1  -9 -14    8.70    2.40
   1  -9 -13    1.43    1.45
   1  -9 -12    2.12    1.19
   1  -9 -11   11.16    2.61
  -1   9  10   18.63    3.91
   1  -9 -10   24.22    3.04
  -1   9   9   10.54    1.94
   1  -9  -9    8.57    1.89
  -1   9   8    0.10    0.36
   1  -9  -8    2.95    1.38
  -1   9   7   11.49    2.22
   1  -9  -7   10.90    1.88
   1  -9  -7    9.86    2.03
  -1   9   6  104.62    6.58
   1  -9  -6   72.61    5.08
   1  -9  -6   59.38   11.18
  -1   9   5    6.46    2.40
   1  -9  -5    5.07    1.19
  -1   9   4    6.61    1.85
   1  -9  -4    7.03    1.44
   1  -9  -4    6.20    1.41
  -1   9   3    1.60    1.32
   1  -9  -3    0.70    0.67
   1  -9  -3    1.14    0.39
  -1   9   2   21.43    4.05
   1  -9  -2   12.61    1.41
   1  -9  -2   17.21    3.45
  -1   9   1   19.61    2.27
   1  -9  -1   11.88    1.46
   1  -9  -1   24.85    3.42
  -1   9   0   89.42   14.48
   1  -9   0   80.82    7.32
  -1   9  -1    2.03    1.17
   1  -9   1    2.26    1.55
  -1   9  -2    1.36    1.22
   1  -9   2    4.20    1.68
  -1   9  -3   32.54    3.48
   1  -9   3   37.09    3.42
  -1   9  -4    6.12    1.13
   1  -9   4    7.94    1.66
  -1   9  -5    1.84    1.15
   1  -9   5   -0.81    1.18
  -1   9  -6    1.17    1.39
   1  -9   6    4.75    1.99
  -1   9  -7    0.33    0.93
   1  -9   7    1.36    1.84
  -1   9  -8    4.10    1.47
   1  -9   8   10.92    2.78
   1  -9   9   15.76    3.07
   1  -9  10    3.09    1.59
   1  -9  11    0.75    1.49
   1  -8 -15    5.58    2.17
   1  -8 -14    1.77    1.51
   1  -8 -13    9.62    2.61
   1  -8 -12    1.87    0.59
   1  -8 -11    4.39    1.76
  -1   8  11    3.47    1.25
  -1   8  10   -0.59    0.86
   1  -8 -10    1.37    1.16
  -1   8  10    1.52    1.02
  -1   8   9    1.73    0.83
   1  -8  -9    1.01    1.21
  -1   8   9    0.62    0.73
  -1   8   8   24.18    2.67
   1  -8  -8   16.41    2.39
  -1   8   8   19.23    2.30
  -1   8   7  118.65    4.88
   1  -8  -7  102.08    4.53
  -1   8   7   90.26    3.90
  -1   8   6   34.23    6.62
   1  -8  -6   29.79    2.62
   1  -8  -6   27.07    6.34
  -1   8   5    2.77    1.11
   1  -8  -5    1.30    0.96
   1  -8  -5    1.07    0.77
  -1   8   4   22.58    4.80
   1  -8  -4   13.53    1.73
  -1   8   3   70.37    4.33
   1  -8  -3   54.05    2.84
   1  -8  -3   71.89    5.93
  -1   8   2   29.00    6.61
   1  -8  -2   16.60    1.50
   1  -8  -2   26.03    3.73
  -1   8   1  110.65   11.77
   1  -8  -1   73.09    3.66
   1  -8  -1  101.98   14.10
  -1   8   0  133.59    7.08
   1  -8   0   88.23    4.24
   1  -8   0  138.43   13.82
  -1   8  -1   -0.66    1.20
   1  -8   1    0.45    0.48
   1  -8   1    0.63    0.71
  -1   8  -2   25.62    2.74
   1  -8   2   31.50    2.77
  -1   8  -3   31.19    3.17
   1  -8   3   36.82    3.09
  -1   8  -4   29.47    2.73
   1  -8   4   38.85    3.13
  -1   8  -5   65.67    4.07
   1  -8   5   95.26    4.87
  -1   8  -6    8.72    1.83
   1  -8   6    6.84    2.13
  -1   8  -7    3.77    1.70
   1  -8   7    3.76    1.40
  -1   8  -8    2.48    1.07
   1  -8   8   -0.20    1.29
  -1   8  -9    2.68    1.79
   1  -8   9    4.91    2.05
   1  -8  10    2.60    1.74
   1  -8  11    8.19    2.74
   1  -8  12    4.11    2.44
   1  -7 -16   19.11    3.48
   1  -7 -15    1.93    2.34
   1  -7 -14    4.25    2.13
   1  -7 -13   14.36    2.61
  -1   7  13    9.81    1.88
   1  -7 -12    0.58    1.31
  -1   7  12    1.17    1.21
   1  -7 -11    4.70    1.94
  -1   7  11    3.69    1.44
  -1   7  10    0.75    0.66
   1  -7 -10    1.93    1.27
  -1   7  10    1.03    0.74
  -1   7   9    6.19    1.37
   1  -7  -9    1.68    1.14
  -1   7   9    0.71    0.70
  -1   7   8  176.09    7.73
   1  -7  -8  156.20    5.77
  -1   7   8  126.82    4.40
  -1   7   7   59.59    8.46
   1  -7  -7   55.63    3.40
  -1   7   7   44.33    2.68
  -1   7   6    2.94    1.06
   1  -7  -6    1.92    1.75
  -1   7   6    0.52    0.44
  -1   7   5 1047.65   15.87
   1  -7  -5  856.24   12.57
  -1   7   4    1.44    1.33
   1  -7  -4    1.37    0.94
   1  -7  -4    1.41    0.42
  -1   7   3    6.23    1.58
   1  -7  -3    4.66    0.99
   1  -7  -3    4.47    1.26
  -1   7   2  572.50   12.03
   1  -7  -2  421.23    6.40
   1  -7  -2  539.44    8.27
  -1   7   1    3.67    1.28
   1  -7  -1    0.73    0.88
   1  -7  -1    3.44    0.76
  -1   7   0  288.06    7.24
   1  -7   0  292.03    6.96
  -1   7  -1   12.08    2.14
   1  -7   1   10.28    1.10
   1  -7   1   16.95    3.86
  -1   7  -2    6.13    1.37
   1  -7   2    4.82    0.90
   1  -7   2    6.80    1.43
  -1   7  -3   66.50    4.11
   1  -7   3   54.54    2.22
   1  -7   3   80.98    3.85
  -1   7  -4   27.83    4.64
  -1   7  -4   16.90    2.75
   1  -7   4   30.21    2.70
  -1   7  -5  205.63    6.53
   1  -7   5  283.71    7.62
  -1   7  -6   -0.04    0.96
   1  -7   6   -1.59    1.37
  -1   7  -7   -0.21    0.89
   1  -7   7    2.12    1.86
  -1   7  -8   11.05    2.02
   1  -7   8   13.71    2.57
  -1   7  -9    0.54    0.89
   1  -7   9    0.86    1.47
  -1   7 -10    1.09    1.21
   1  -7  10    0.69    1.54
   1  -7  11    0.72    1.55
   1  -7  12    0.99    1.50
   1  -7  13    0.91    1.45
   1  -7  14    3.85    2.03
   1  -6 -16   -0.45    1.53
   1  -6 -15    7.21    1.32
   1  -6 -14    5.05    1.86
  -1   6  14    6.26    1.94
   1  -6 -13    5.39    1.93
  -1   6  13    3.92    1.45
   1  -6 -12    2.09    0.97
  -1   6  12    1.50    0.92
   1  -6 -11   -0.40    1.37
  -1   6  11    1.90    1.10
  -1   6  10    5.84    1.28
   1  -6 -10    9.04    1.75
  -1   6  10    4.83    1.22
  -1   6   9    4.29    0.85
   1  -6  -9    3.63    1.96
  -1   6   9    3.55    1.21
  -1   6   8    7.84    1.89
   1  -6  -8    7.64    1.72
  -1   6   8    7.89    1.52
  -1   6   7   37.94    6.19
   1  -6  -7   29.92    2.77
  -1   6   7   27.43    2.22
  -1   6   6  706.44   10.07
   1  -6  -6  594.27   14.94
  -1   6   6  514.77    7.95
  -1   6   5  151.10    5.02
   1  -6  -5  131.24    4.20
  -1   6   5  109.46    4.75
  -1   6   4   12.56    1.62
   1  -6  -4    9.50    1.15
  -1   6   4    9.85    1.25
  -1   6   3   62.22   10.29
   1  -6  -3   45.59    2.36
   1  -6  -3   52.03    3.44
  -1   6   2  114.73    4.06
   1  -6  -2   93.08    2.93
  -1   6   1   -0.14    0.96
   1  -6  -1    0.56    0.51
   1  -6  -1   -0.17    0.79
  -1   6   0  455.60   10.96
   1  -6   0  320.80    6.87
   1  -6   0  464.76   10.99
  -1   6  -1   19.81    4.50
   1  -6   1   13.82    1.13
   1  -6   1   21.51    4.79
  -1   6  -2   46.02    3.35
   1  -6   2   33.59    1.58
   1  -6   2   53.78   10.20
  -1   6  -3    7.33    1.44
   1  -6   3    6.66    0.91
   1  -6   3   12.22    1.95
  -1   6  -4   65.66    3.83
  -1   6  -4   57.98    4.25
   1  -6   4   80.58    3.83
  -1   6  -5  188.64    5.86
   1  -6   5  281.90    7.56
  -1   6  -6  350.48   14.07
   1  -6   6  453.55   19.59
  -1   6  -7   21.72    2.49
  -1   6  -7   19.63    3.96
   1  -6   7   27.48    2.83
  -1   6  -8    1.38    0.75
   1  -6   8    4.23    1.79
  -1   6  -9    2.11    1.14
   1  -6   9    3.13    1.38
  -1   6 -10    2.60    1.17
   1  -6  10    6.04    2.38
   1  -6  11    2.11    1.58
   1  -6  12    2.31    1.62
   1  -6  13   -0.47    1.51
   1  -6  14    3.40    2.17
   1  -5 -17    0.48    1.47
   1  -5 -16    1.73    2.25
   1  -5 -15    3.63    2.13
  -1   5  15    0.41    0.96
   1  -5 -14    3.19    2.00
  -1   5  14    5.15    1.74
   1  -5 -13    0.97    1.47
  -1   5  13   -0.48    0.83
   1  -5 -12   13.78    2.73
  -1   5  12   11.00    2.16
   1  -5 -11   16.69    2.58
  -1   5  11   13.20    1.89
   1  -5 -10   25.51    2.72
  -1   5  10   19.03    2.38
  -1   5   9    1.22    0.61
   1  -5  -9    1.23    1.29
  -1   5   9    2.10    1.21
  -1   5   8   22.07    3.90
   1  -5  -8   22.49    2.46
  -1   5   8   15.41    1.56
  -1   5   7  141.25    3.82
   1  -5  -7  137.57    4.76
  -1   5   7  101.97    3.77
  -1   5   6   41.07    2.20
   1  -5  -6   35.32    2.42
  -1   5   6   31.57    2.06
  -1   5   5  103.10    5.64
   1  -5  -5   90.22    5.36
  -1   5   5   76.12    2.94
  -1   5   4  210.59    5.43
   1  -5  -4  185.09    5.09
  -1   5   4  165.86    4.43
  -1   5   3   18.50    1.66
   1  -5  -3   14.48    1.38
  -1   5   3   10.75    1.11
  -1   5   2  490.17    9.71
   1  -5  -2  391.27    7.44
   1  -5  -2  438.77    8.53
  -1   5   1    4.67    0.99
   1  -5  -1    4.07    0.61
   1  -5  -1    4.39    0.77
  -1   5   0  362.79    8.04
   1  -5   0  259.71    5.08
   1  -5   0  364.14    7.70
  -1   5  -1   40.45    8.38
   1  -5   1   24.23    1.23
   1  -5   1   45.15    3.33
  -1   5  -2  260.43    7.51
   1  -5   2  208.92    4.06
   1  -5   2  313.58    7.10
  -1   5  -3  101.38    3.80
   1  -5   3   85.40    2.20
   1  -5   3  133.06    4.38
  -1   5  -4   13.38    1.57
  -1   5  -4   12.89    1.41
   1  -5   4   17.18    2.06
  -1   5  -5   82.23    3.75
  -1   5  -5   93.97    2.95
   1  -5   5  120.84    4.69
  -1   5  -6    5.92    1.35
  -1   5  -6    5.90    1.40
   1  -5   6    5.98    1.19
  -1   5  -7    1.20    0.84
  -1   5  -7    4.41    1.28
   1  -5   7    4.49    1.35
  -1   5  -8   41.62    2.83
  -1   5  -8   64.05    2.87
   1  -5   8   66.23    4.53
  -1   5  -9    2.57    0.99
  -1   5  -9    3.16    0.86
   1  -5   9    4.53    1.89
  -1   5 -10    1.03    0.64
  -1   5 -10    2.82    0.85
   1  -5  10    4.04    1.87
   1  -5  11    0.43    1.54
   1  -5  12   -0.71    1.37
   1  -5  13    1.38    1.47
   1  -5  14    1.71    1.58
   1  -5  15    2.55    2.05
   1  -4 -17    0.44    1.45
   1  -4 -16    1.37    1.61
  -1   4  16    0.53    1.17
   1  -4 -15    3.91    1.93
  -1   4  15    7.65    2.23
   1  -4 -14    0.21    1.54
   1  -4 -13   47.64    4.11
  -1   4  13   35.05    3.35
   1  -4 -12    4.05    2.36
  -1   4  12    0.19    0.88
   1  -4 -11   29.60    3.25
  -1   4  11   16.90    2.26
   1  -4 -10  229.67    7.15
  -1   4  10  197.19    6.29
  -1   4   9  380.47    7.08
  -1   4   9  299.14    7.05
  -1   4   8  390.28    8.10
   1  -4  -8  401.29    8.59
  -1   4   8  309.65    6.53
  -1   4   7   61.82    2.30
   1  -4  -7   60.02    3.08
  -1   4   7   44.59    2.56
  -1   4   6   11.18    1.15
   1  -4  -6   14.14    1.75
  -1   4   6    9.14    1.38
  -1   4   5   39.62    1.92
   1  -4  -5   42.43    6.34
  -1   4   5   27.26    1.69
  -1   4   4  165.89    4.43
   1  -4  -4  150.47    4.28
  -1   4   4  114.63    3.54
  -1   4   3   -0.44    0.75
   1  -4  -3    0.46    0.43
  -1   4   3    0.44    0.55
  -1   4   2 1141.59   18.25
   1  -4  -2  972.24   15.08
  -1   4   2  858.97   13.98
  -1   4   1  793.98    8.70
  -1   4   0  507.25    8.09
   1  -4   0  372.41    3.99
   1  -4   0  511.86    6.41
  -1   4  -1 1122.72   18.39
   1  -4   1  848.48   12.66
   1  -4   1 1256.45   19.84
  -1   4  -2  172.38    4.96
   1  -4   2  146.09    3.16
   1  -4   2  208.63    6.78
  -1   4  -3  102.32    3.77
   1  -4   3  123.60    4.16
  -1   4  -4  344.85    7.45
  -1   4  -4  373.39    6.57
   1  -4   4  479.47    9.52
  -1   4  -5    9.36    1.34
  -1   4  -5   11.66    2.53
   1  -4   5   17.58    1.76
  -1   4  -6   10.27    1.47
  -1   4  -6   13.01    2.61
   1  -4   6   19.17    3.04
  -1   4  -7    6.60    1.20
  -1   4  -7   12.71    1.90
   1  -4   7   18.65    2.67
  -1   4  -8    1.15    0.79
  -1   4  -8    2.81    0.85
   1  -4   8    2.85    1.62
  -1   4  -9   89.99    3.83
  -1   4  -9  118.67    4.75
   1  -4   9  145.49    6.25
  -1   4 -10    0.55    0.61
  -1   4 -10    0.96    0.90
   1  -4  10   -0.40    1.73
  -1   4 -11   62.78    3.50
   1  -4  11   78.71    5.41
  -1   4 -12    4.19    1.74
   1  -4  12    9.99    2.69
   1  -4  13    8.95    2.58
   1  -4  14    0.44    1.54
   1  -4  15    4.89    1.87
   1  -4  16    1.78    1.75
   1  -3 -17    4.57    2.53
   1  -3 -16    5.67    2.38
  -1   3  16    7.41    2.07
   1  -3 -15    6.63    2.29
  -1   3  15    5.73    1.80
   1  -3 -14   99.57    6.35
  -1   3  14   66.71    4.85
   1  -3 -13    3.06    2.10
  -1   3  13    3.87    1.58
   1  -3 -12   12.14    2.44
  -1   3  12   10.46    2.18
   1  -3 -11    6.27    2.28
  -1   3  11    4.84    1.24
   1  -3 -10  273.69   11.74
  -1   3  10  202.57    8.84
   1  -3  -9   76.76    4.26
  -1   3   9   61.37    3.32
  -1   3   8  119.34    3.38
   1  -3  -8  133.71    5.57
  -1   3   8   99.55    4.20
  -1   3   7   99.68    2.90
   1  -3  -7  105.12    4.13
  -1   3   7   78.33    3.25
  -1   3   6   15.75    3.45
   1  -3  -6   16.55    1.81
  -1   3   6   13.20    1.37
  -1   3   5   73.39    2.41
   1  -3  -5   69.38    2.94
  -1   3   5   52.92    2.44
  -1   3   4  882.30   14.45
   1  -3  -4  854.76   14.07
  -1   3   4  642.92   11.24
  -1   3   3    8.50    0.86
   1  -3  -3    8.99    1.05
  -1   3   3    8.11    1.02
  -1   3   2    4.63    1.07
   1  -3  -2    4.40    0.67
  -1   3   2    4.05    0.87
  -1   3   1 1709.48   11.36
   1  -3  -1 1531.75    8.69
   1  -3  -1 1562.72   12.05
  -1   3   0  149.47    3.90
   1  -3   0  113.16    2.43
   1  -3   0  146.54    3.69
  -1   3  -1 1056.75    9.08
   1  -3   1  817.45    4.93
   1  -3   1 1157.09   11.30
  -1   3  -2  330.73    6.90
   1  -3   2  298.61    5.09
   1  -3   2  414.14    8.37
  -1   3  -3  981.66   15.93
  -1   3  -3 1064.68   15.73
   1  -3   3 1303.91   20.51
  -1   3  -4  385.28    7.81
  -1   3  -4  462.25    7.93
   1  -3   4  542.86   10.41
  -1   3  -5    1.74    0.56
  -1   3  -5    4.40    1.17
   1  -3   5    2.59    0.88
  -1   3  -6  109.24    3.67
  -1   3  -6  153.33    4.14
   1  -3   6  173.31    5.49
  -1   3  -7  152.80    4.91
  -1   3  -7  213.98    5.68
   1  -3   7  219.91    7.03
  -1   3  -8   32.42    2.17
  -1   3  -8   48.63    6.56
   1  -3   8   58.12    3.75
  -1   3  -9  117.53    5.43
  -1   3  -9  191.43    8.27
   1  -3   9  199.39    9.23
  -1   3 -10  113.79    4.00
  -1   3 -10  183.78    5.43
   1  -3  10  201.03    7.05
  -1   3 -11    8.62    1.27
  -1   3 -11   17.78    2.54
   1  -3  11   17.05    2.75
  -1   3 -12   -0.46    0.86
   1  -3  12    3.43    1.73
  -1   3 -13    1.86    1.09
   1  -3  13    2.45    1.65
   1  -3  14    4.48    1.67
   1  -3  15    1.82    1.63
   1  -3  16   -0.07    1.37
   1  -2 -17    3.39    2.34
   1  -2 -16    0.63    1.72
  -1   2  16    1.61    1.40
   1  -2 -15   13.39    2.76
  -1   2  15   10.78    2.17
   1  -2 -14    0.57    1.56
  -1   2  14   -0.70    1.17
   1  -2 -13    2.44    1.59
  -1   2  13    2.30    1.14
   1  -2 -12    3.20    1.64
  -1   2  12    1.56    1.16
   1  -2 -11    2.32    1.57
  -1   2  11   -1.56    1.06
   1  -2 -10    4.24    1.78
  -1   2  10    2.14    1.18
   1  -2  -9   27.25    4.23
  -1   2   9   17.36    2.08
  -1   2   8   40.21    1.51
   1  -2  -8   47.78    3.15
  -1   2   8   37.09    2.40
  -1   2   7  102.47    2.18
   1  -2  -7  107.40    4.08
  -1   2   7   76.95    3.07
  -1   2   6  368.08    6.94
   1  -2  -6  372.93    8.10
  -1   2   6  290.00    6.62
  -1   2   5 2114.21   30.05
   1  -2  -5 2228.75   13.80
  -1   2   5 1674.72   26.29
  -1   2   4  232.98    4.56
   1  -2  -4  237.88    5.36
  -1   2   4  184.91    4.47
  -1   2   3   38.45    1.51
   1  -2  -3   39.55    1.77
  -1   2   3   28.58    1.43
  -1   2   2  158.78    3.42
   1  -2  -2  160.70    3.49
  -1   2   2  123.21    3.05
  -1   2   1  131.99    3.10
   1  -2  -1  134.71    2.79
  -1   2   1  104.66    2.66
   1  -2   0 2082.67   11.55
  -1   2  -1   32.32    1.47
   1  -2   1   27.04    0.70
   1  -2   1   37.48    1.57
  -1   2  -2  403.38    4.95
  -1   2  -2  452.07    3.18
   1  -2   2  514.02    5.85
  -1   2  -3    5.92    0.80
  -1   2  -3    7.04    1.06
   1  -2   3    8.10    0.97
  -1   2  -4    5.78    0.78
  -1   2  -4    8.62    1.73
   1  -2   4    9.19    1.16
  -1   2  -5    1.10    0.67
  -1   2  -5    0.79    0.53
   1  -2   5    2.17    0.58
  -1   2  -6  392.77    7.51
  -1   2  -6  596.38   10.79
   1  -2   6  639.86   11.90
  -1   2  -7   12.29    1.31
  -1   2  -7   18.11    3.48
   1  -2   7   17.94    1.83
  -1   2  -8   22.10    1.72
  -1   2  -8   32.38    2.27
   1  -2   8   31.02    2.73
  -1   2  -9    0.77    0.61
  -1   2  -9   -0.28    0.85
   1  -2   9    2.21    1.35
  -1   2 -10    0.57    0.57
  -1   2 -10    0.84    0.98
   1  -2  10    2.04    1.33
  -1   2 -11    0.16    0.47
  -1   2 -11    1.00    0.68
   1  -2  11    0.78    1.36
  -1   2 -12    2.82    0.73
   1  -2  12   -0.53    1.40
  -1   2 -13    1.27    1.08
   1  -2  13    0.22    0.72
  -1   2 -14    1.71    1.13
   1  -2  14    0.61    1.46
   1  -2  15    6.07    2.19
   1  -2  16    0.00    1.25
   1  -1 -17    4.89    2.42
  -1   1  17    3.99    2.45
   1  -1 -16    1.14    1.52
  -1   1  16    1.43    1.37
   1  -1 -15    3.50    1.87
  -1   1  15    1.05    1.62
   1  -1 -14    4.21    2.35
  -1   1  14   -0.03    1.13
   1  -1 -13    8.79    2.13
  -1   1  13    3.63    2.06
   1  -1 -12   22.49    2.80
  -1   1  12   24.52    3.11
   1  -1 -11    2.51    1.57
  -1   1  11    0.15    1.19
   1  -1 -10  151.60    7.63
  -1   1  10  119.11    6.36
   1  -1  -9   12.52    1.93
  -1   1   9   12.30    1.82
   1  -1  -8  239.61    7.08
  -1   1   8  192.24    6.11
   1  -1  -7  306.06    7.25
  -1   1   7  265.71    6.40
  -1   1   6    1.57    0.32
   1  -1  -6    2.96    0.46
  -1   1   6    1.89    0.80
  -1   1   5  355.50    6.01
   1  -1  -5  366.95    7.65
  -1   1   5  284.96    6.27
  -1   1   4  139.23    2.71
   1  -1  -4  145.80    3.89
  -1   1   4  116.74    3.31
  -1   1   3   99.15    2.05
   1  -1  -3  108.89    3.07
  -1   1   3   81.24    2.45
  -1   1   2   22.64    0.96
   1  -1  -2   26.74    1.23
  -1   1   2   18.72    1.04
  -1   1   1  551.34    4.13
  -1   1   1  474.64    4.23
  -1   1   0    2.48    0.39
  -1   1   0    3.09    0.55
   1  -1   0    3.78    0.23
   1  -1   0    3.88    0.64
  -1   1  -1  422.99    4.13
   1  -1   1  525.33    4.62
  -1   1  -2  115.70    2.83
  -1   1  -2  159.08    2.82
   1  -1   2  158.22    3.77
  -1   1  -3   21.05    1.21
  -1   1  -3   28.26    1.30
   1  -1   3   31.51    1.57
  -1   1  -4  132.27    3.35
  -1   1  -4  199.05    4.43
   1  -1   4  208.18    4.90
  -1   1  -5  249.16    5.25
  -1   1  -5  387.50    7.35
   1  -1   5  404.72    8.06
  -1   1  -6   48.42    2.14
  -1   1  -6   79.29    3.06
   1  -1   6   77.13    3.20
  -1   1  -7  135.08    3.77
  -1   1  -7  209.11    5.27
   1  -1   7  220.78    5.92
  -1   1  -8    2.03    0.67
  -1   1  -8    1.60    0.99
   1  -1   8    3.57    1.24
  -1   1  -9   26.62    1.79
  -1   1  -9   46.89    3.13
   1  -1   9   43.10    3.13
  -1   1 -10    7.50    1.16
  -1   1 -10    8.55    1.70
   1  -1  10    9.52    2.04
  -1   1 -11    6.93    1.12
  -1   1 -11   11.79    2.61
   1  -1  11   13.09    2.43
  -1   1 -12   -0.09    1.08
   1  -1  12    2.61    1.72
  -1   1 -13    5.59    1.58
   1  -1  13    5.06    2.10
  -1   1 -14    1.12    1.19
   1  -1  14    1.30    1.35
  -1   1 -15    1.38    1.18
   1  -1  15    4.11    1.88
   1  -1  16    3.44    2.02
   1  -1  17   -0.07    1.22
   1   0 -17    5.62    2.99
  -1   0  17    0.26    1.41
   1   0 -16    3.42    2.36
  -1   0  16    4.22    1.75
   1   0 -15    6.47    2.63
  -1   0  15    7.74    2.38
   1   0 -14    5.15    1.61
  -1   0  14    2.07    1.42
   1   0 -13    7.54    2.80
  -1   0  13    2.29    1.35
   1   0 -12   34.66    3.96
  -1   0  12   25.95    3.24
   1   0 -11   34.83    3.54
  -1   0  11   25.89    2.90
   1   0 -10  702.35   26.21
  -1   0  10  610.91   22.35
   1   0  -9   37.89    6.18
  -1   0   9   28.73    2.42
   1   0  -8   12.01    1.81
  -1   0   8    9.61    1.65
   1   0  -7  137.81    4.32
  -1   0   7  115.71    3.86
   1   0  -6  297.08    5.61
  -1   0   6  248.15    6.01
  -1   0   5  463.73    1.74
   1   0  -4 1367.07   10.35
  -1   0   4 1168.51    9.28
   1   0  -3  873.49    7.11
  -1   0   3  742.62    6.53
  -1   0   2   12.24    0.37
   1   0  -2   19.85    2.97
  -1   0   2   14.64    0.85
  -1   0   1  148.22    2.54
   1   0  -1  197.76    3.64
  -1   0   1  164.80    3.15
  -1   0   0    5.50    0.41
  -1   0   0    5.03    0.30
  -1   0  -1   77.81    1.85
   1   0   1   96.21    1.73
  -1   0  -1   89.28    1.65
   1   0   1  112.21    2.47
  -1   0  -2   16.98    0.90
  -1   0  -2   23.58    0.86
   1   0   2   26.02    1.04
  -1   0  -3  159.27    3.47
  -1   0  -3  241.67    4.51
   1   0   3  262.29    5.07
  -1   0  -4    4.32    0.57
  -1   0  -4    6.51    0.72
   1   0   4    8.01    0.88
  -1   0  -5    3.77    0.61
  -1   0  -5    7.52    1.43
   1   0   5    7.99    1.01
  -1   0  -6  198.31    4.48
  -1   0  -6  310.73    7.80
   1   0   6  315.95    6.91
  -1   0  -7    0.24    0.51
  -1   0  -7    0.41    0.61
   1   0   7    1.28    0.81
  -1   0  -8   27.77    1.62
  -1   0  -8   45.56    2.71
   1   0   8   44.48    2.67
  -1   0  -9   85.97    2.86
  -1   0  -9  145.55    8.76
   1   0   9  130.15    4.80
  -1   0 -10   10.29    1.21
  -1   0 -10   17.20    2.04
   1   0  10   14.06    1.99
  -1   0 -11  113.33    3.56
  -1   0 -11  187.77    5.95
   1   0  11  162.41   12.09
  -1   0 -12    7.98    1.66
   1   0  12    7.99    2.07
  -1   0 -13   12.11    2.36
   1   0  13    8.49    1.96
  -1   0 -14    2.81    1.57
   1   0  14    2.52    1.43
  -1   0 -15    3.23    1.82
   1   0  15    2.25    1.56
  -1   0 -16    1.95    1.37
   1   0  16    1.13    1.55
  -1  -1  17    0.90    1.41
   1   1 -16   14.41    2.87
  -1  -1  16    7.75    2.45
   1   1 -15    6.78    1.94
  -1  -1  15    4.03    1.49
   1   1 -14    0.39    1.52
  -1  -1  14    1.36    1.41
   1   1 -13    1.99    1.54
  -1  -1  13    2.21    1.20
   1   1 -12    1.34    0.76
  -1  -1  12    2.19    0.96
   1   1 -11   18.48    4.19
  -1  -1  11   16.62    2.75
   1   1 -10   20.16    3.45
  -1  -1  10   13.94    2.46
   1   1  -9  381.32    8.12
  -1  -1   9  323.33    7.62
   1   1  -8   68.49    9.80
  -1  -1   8   60.29    3.37
   1   1  -7  360.18    9.04
  -1  -1   7  324.52    7.56
   1   1  -6   46.02    1.23
   1   1  -6   72.48    3.25
  -1  -1   6   65.86    3.04
   1   1  -5    1.58    0.25
   1   1  -5    1.92    0.37
  -1  -1   5    2.56    0.90
   1   1  -4  213.34    3.49
   1   1  -4  294.58    7.28
  -1  -1   4  283.38    6.56
   1   1  -3    5.46    1.09
  -1  -1   3    3.72    0.60
   1   1  -1  488.46    3.15
  -1  -1   1  375.68    3.50
  -1  -1   1  424.56    3.43
   1   1   0  229.84    3.93
  -1  -1   0  172.31    2.86
  -1  -1  -1  271.55    4.69
  -1  -1  -1  317.90    5.29
   1   1   1  425.53    6.40
  -1  -1  -2  273.03    4.90
  -1  -1  -2  362.33    6.16
   1   1   2  432.38    6.90
  -1  -1  -3   32.76    1.30
  -1  -1  -3   50.46    1.82
   1   1   3   53.83    1.63
  -1  -1  -4  217.12    4.43
  -1  -1  -4  340.72    6.52
   1   1   4  355.64    6.57
  -1  -1  -5   55.42    1.99
  -1  -1  -5   92.63    3.03
   1   1   5   94.95    2.98
  -1  -1  -6  493.93    8.67
  -1  -1  -6  749.68   12.90
   1   1   6  727.72   12.45
  -1  -1  -7  156.10    3.84
  -1  -1  -7  240.36    5.98
   1   1   7  232.00    5.68
  -1  -1  -8   32.75    1.75
  -1  -1  -8   52.19    2.84
   1   1   8   45.42    2.68
  -1  -1  -9   33.68    1.85
  -1  -1  -9   48.98    3.09
   1   1   9   44.72    5.05
   1   1  10   53.67    2.46
  -1  -1 -10   61.28    3.45
   1   1  10   64.47    9.72
   1   1  11   10.47    2.28
  -1  -1 -11   14.89    2.39
   1   1  11   19.71    2.49
  -1  -1 -13    4.41    1.48
   1   1  13    3.61    1.52
  -1  -1 -14    8.31    2.34
   1   1  14    6.21    1.92
   1   1  15    2.82    1.82
  -1  -1 -16    2.34    1.51
   1   1  16    0.79    1.22
  -1  -2  17    1.92    1.52
   1   2 -16    1.36    0.87
  -1  -2  16    4.01    2.11
   1   2 -15   13.58    3.68
  -1  -2  15    8.85    2.70
   1   2 -14    1.67    1.37
  -1  -2  14    8.07    2.73
   1   2 -13   38.31    5.75
  -1  -2  13   32.13    3.98
   1   2 -12    1.72    1.42
  -1  -2  12    1.22    1.41
   1   2 -11    7.86    1.62
  -1  -2  11   11.92    2.10
   1   2 -10    4.76    1.57
  -1  -2  10    5.96    1.75
   1   2  -9   23.65    5.49
  -1  -2   9   19.86    2.33
   1   2  -8    0.94    0.64
  -1  -2   8   -0.31    1.02
   1   2  -7   76.84    1.85
   1   2  -7  135.79    8.44
  -1  -2   7  116.50    4.03
   1   2  -6   17.00    0.88
   1   2  -6   29.78    6.50
  -1  -2   6   24.51    1.89
   1   2  -5  545.51    8.55
   1   2  -5  708.16   12.57
  -1  -2   5  703.55   12.41
   1   2  -4  102.44    2.40
   1   2  -4  116.66    5.52
  -1  -2   4  114.03    3.40
   1   2  -3  220.25    4.09
   1   2  -3  211.38    4.66
  -1  -2   3  226.20    4.85
   1   2  -2  470.17    3.77
  -1  -2   2  337.55    6.23
  -1  -2   2  434.17    7.51
   1   2  -1  244.74    4.43
  -1  -2   1  151.69    3.30
  -1  -2   1  212.03    3.89
   1   2   0 1454.28    8.03
  -1  -2   0  940.06    6.30
  -1  -2   0 1323.74    5.77
   1   2   1 1000.45    6.87
  -1  -2  -1  726.34    5.50
   1   2   2   16.74    2.88
  -1  -2  -2   13.28    0.87
   1   2   2   14.58    0.71
   1   2   3  544.47    5.29
   1   2   3  528.62    4.45
   1   2   4  172.23    4.33
  -1  -2  -4  180.16    4.27
   1   2   4  178.75    3.75
   1   2   5    5.37    1.09
  -1  -2  -5    3.74    0.79
   1   2   5    4.65    0.76
   1   2   6   49.06    2.34
  -1  -2  -6   52.40    2.39
   1   2   6   54.61    2.66
   1   2   7  126.86    6.41
  -1  -2  -7  145.14    4.57
   1   2   7  124.03    3.44
   1   2   8    2.01    0.42
  -1  -2  -8    1.49    1.15
   1   2   8    1.41    0.86
   1   2   9   72.43    5.71
  -1  -2  -9   56.17    3.19
   1   2   9   55.81    2.88
   1   2  10   31.69    5.70
  -1  -2 -10   44.08    3.23
   1   2  10   32.61    2.61
   1   2  11   27.39    4.84
  -1  -2 -11   48.44    3.47
   1   2  11   38.43    3.25
  -1  -2 -12   18.32    2.54
   1   2  12   17.63    2.92
  -1  -2 -13    7.76    1.57
   1   2  13    3.47    1.26
  -1  -2 -14    7.21    2.04
   1   2  14    4.30    1.35
  -1  -2 -15    0.90    1.38
   1   2  15    1.00    1.12
  -1  -2 -16   -0.39    1.35
   1   2  16   -0.58    1.05
  -1  -2 -17    5.59    2.41
  -1  -3  16    0.16    1.50
   1   3 -15    3.71    2.35
  -1  -3  15    1.62    2.36
   1   3 -14   -0.42    1.21
  -1  -3  14    0.88    1.40
   1   3 -13   21.68    3.06
  -1  -3  13   17.85    3.18
   1   3 -12    1.48    1.28
  -1  -3  12    2.35    1.57
   1   3 -11    2.39    1.35
  -1  -3  11    2.56    1.58
   1   3 -10    4.51    0.88
  -1  -3  10    4.79    1.80
   1   3  -9   10.85    1.91
  -1  -3   9    9.38    1.81
   1   3  -8    0.14    0.34
   1   3  -8   -0.40    0.75
  -1  -3   8   -0.10    1.16
   1   3  -7    5.44    0.77
   1   3  -7    6.49    1.19
  -1  -3   7    9.35    1.40
   1   3  -6   14.70    1.06
   1   3  -6   19.58    3.23
  -1  -3   6   23.27    1.94
   1   3  -5   15.54    1.78
   1   3  -5   20.89    3.19
  -1  -3   5   19.60    1.53
   1   3  -4 1858.33   26.83
   1   3  -4 1853.96   28.90
  -1  -3   4 2111.89   31.35
   1   3  -3   39.03    1.60
  -1  -3   3   30.65    1.74
  -1  -3   3   39.81    1.94
   1   3  -2  264.88    5.21
  -1  -3   2  196.09    4.36
  -1  -3   2  273.38    5.42
   1   3  -1   16.00    1.10
  -1  -3   1    8.33    0.82
  -1  -3   1   15.35    2.46
   1   3   0    0.34    0.32
  -1  -3   0    0.04    0.41
  -1  -3   0    0.27    0.26
   1   3   1  127.72    3.16
  -1  -3  -1   82.71    2.41
  -1  -3  -1  117.47    2.11
   1   3   2  708.57    6.49
  -1  -3  -2  499.30    5.38
   1   3   2  476.14    3.07
   1   3   3  259.48    5.55
  -1  -3  -3  210.93    4.76
   1   3   3  180.89    3.32
   1   3   4  145.63    4.29
  -1  -3  -4  125.61    3.61
   1   3   4  110.62    2.60
   1   3   5  252.00    5.50
  -1  -3  -5  225.29    5.60
   1   3   5  205.21    7.24
   1   3   6   43.32    4.81
  -1  -3  -6   37.02    2.40
   1   3   6   31.09    1.77
   1   3   7  465.50   10.21
  -1  -3  -7  473.37    9.54
   1   3   7  423.10    9.79
   1   3   8  105.35    7.29
  -1  -3  -8   95.57    4.14
   1   3   8   86.75    3.51
   1   3   9    6.01    0.82
  -1  -3  -9    4.70    1.19
   1   3   9    4.41    1.07
   1   3  10    9.61    1.48
  -1  -3 -10    7.78    1.67
   1   3  10    7.19    1.19
   1   3  11   44.11    8.19
  -1  -3 -11   50.73    3.91
   1   3  11   56.26    3.46
  -1  -3 -12    1.14    1.37
   1   3  12    1.38    0.61
  -1  -3 -13    1.08    1.37
   1   3  13    1.04    0.99
  -1  -3 -14    0.73    1.31
   1   3  14    1.23    0.98
  -1  -3 -15    1.07    1.43
   1   3  15    3.39    1.47
  -1  -3 -16    1.88    1.50
   1   3  16    0.47    1.00
  -1  -3 -17    1.82    1.43
  -1  -4  16    1.08    2.01
  -1  -4  15    2.73    1.62
   1   4 -14    3.15    2.01
  -1  -4  14    0.47    1.30
   1   4 -13    1.12    0.52
  -1  -4  13   -0.33    1.35
   1   4 -12    1.51    0.50
  -1  -4  12    1.81    1.42
   1   4 -11    0.59    1.05
  -1  -4  11    1.84    1.29
   1   4 -10    1.22    1.18
  -1  -4  10    3.83    1.68
   1   4  -9    5.62    1.00
  -1  -4   9    5.60    1.46
   1   4  -8  210.32    4.45
   1   4  -8  307.93   14.63
  -1  -4   8  335.13    8.44
   1   4  -7  306.42    5.13
   1   4  -7  390.63   10.19
  -1  -4   7  429.58    8.51
   1   4  -6    5.11    0.89
   1   4  -6    7.50    1.72
  -1  -4   6    9.25    1.55
   1   4  -5  316.25    6.25
   1   4  -5  331.91    7.52
  -1  -4   5  386.28    8.23
   1   4  -4  174.78    5.67
  -1  -4   4  160.38    4.57
  -1  -4   4  208.82    5.46
   1   4  -3    2.44    0.70
  -1  -4   3    1.29    0.78
  -1  -4   3    1.70    0.69
   1   4  -2  470.26    5.71
  -1  -4   2  330.16    4.78
  -1  -4   2  491.40    5.78
   1   4  -1 2339.27   14.40
  -1  -4   1 1576.26   10.90
  -1  -4   1 2346.41   13.28
   1   4   0  536.61    6.65
  -1  -4   0  339.30    4.64
  -1  -4   0  514.68    4.95
   1   4   1  742.54    8.89
  -1  -4  -1  457.50    5.51
  -1  -4  -1  654.09    4.66
   1   4   2    7.77    1.03
  -1  -4  -2    4.59    0.81
   1   4   3  893.79    8.70
  -1  -4  -3  634.66    7.14
   1   4   3  584.83    4.36
   1   4   4   23.04    1.56
  -1  -4  -4   17.41    1.61
   1   4   4   16.43    0.99
   1   4   5   93.59    3.43
  -1  -4  -5   77.18    3.13
   1   4   5   65.54    2.15
   1   4   6  163.95    4.60
  -1  -4  -6  141.21    4.59
   1   4   6  109.23    3.18
   1   4   7    3.69    0.82
  -1  -4  -7    3.95    1.22
   1   4   7    3.56    0.73
   1   4   8    3.99    0.96
  -1  -4  -8    2.38    1.04
   1   4   8    2.85    0.75
   1   4   9    4.14    0.84
  -1  -4  -9    3.01    0.88
   1   4   9    0.40    0.62
   1   4  10  129.39    5.77
  -1  -4 -10  110.35    5.99
   1   4  10   93.16    4.75
   1   4  11   20.74    2.76
  -1  -4 -11   21.19    2.74
   1   4  11   16.53    2.07
  -1  -4 -12   39.38    3.90
   1   4  12   26.89    2.66
  -1  -4 -13    4.61    1.93
   1   4  13    2.13    1.16
  -1  -4 -14    3.41    1.60
   1   4  14    0.69    0.96
  -1  -4 -15    4.54    2.12
   1   4  15    0.85    0.97
  -1  -4 -16   14.21    2.71
  -1  -4 -17    0.91    1.40
  -1  -5  15    4.58    2.35
  -1  -5  14    2.29    1.54
   1   5 -13    9.86    1.92
  -1  -5  13    7.56    2.32
   1   5 -12    2.22    1.77
  -1  -5  12    2.07    0.80
   1   5 -11   13.80    3.23
  -1  -5  11   16.43    2.94
   1   5 -10   33.08    3.14
  -1  -5  10   36.23    4.06
   1   5  -9  243.99   10.89
  -1  -5   9  261.29    8.16
   1   5  -8   16.53    1.75
   1   5  -8   23.55    2.57
  -1  -5   8   30.25    3.51
   1   5  -7  244.74    5.39
   1   5  -7  282.58   10.65
  -1  -5   7  325.03    7.97
   1   5  -6    9.66    1.28
   1   5  -6    9.48    1.29
  -1  -5   6    9.63    1.62
   1   5  -5   60.40    2.99
   1   5  -5   58.68    2.97
  -1  -5   5   67.83    3.25
   1   5  -4   26.31    3.84
  -1  -5   4   19.02    1.60
  -1  -5   4   26.45    2.05
   1   5  -3   11.15    2.27
  -1  -5   3    8.89    1.08
  -1  -5   3   13.52    1.31
   1   5  -2  881.78   14.95
  -1  -5   2  629.66   11.06
  -1  -5   2  902.25   15.16
   1   5  -1   83.01    4.76
  -1  -5   1   51.71    2.26
  -1  -5   1   80.83    2.56
   1   5   0  586.61   10.75
  -1  -5   0  364.23    7.17
  -1  -5   0  550.06    9.05
  -1  -5  -1 1561.73   10.95
   1   5   2  191.32    5.06
  -1  -5  -2  129.35    3.96
  -1  -5  -2  152.79    3.21
   1   5   3  200.31    6.44
  -1  -5  -3  141.03    4.33
  -1  -5  -3  147.89    3.15
   1   5   4 1019.41   17.24
  -1  -5  -4  724.63   12.93
   1   5   4  639.14   10.03
   1   5   5   30.60    5.32
  -1  -5  -5   17.62    1.64
   1   5   5   16.31    0.98
   1   5   6  247.87    7.01
  -1  -5  -6  197.40    5.64
   1   5   6  160.80    3.80
   1   5   7   29.77    5.19
  -1  -5  -7   20.32    1.87
   1   5   7   19.04    1.48
   1   5   8   59.38    7.70
  -1  -5  -8   52.17    3.23
   1   5   8   41.26    2.26
   1   5   9   70.29   10.63
  -1  -5  -9   71.06    3.97
   1   5   9   48.92    8.58
   1   5  10  211.38    9.86
  -1  -5 -10  184.62    6.43
   1   5  10  148.34    4.56
   1   5  11  118.34   12.79
  -1  -5 -11  123.08   18.60
   1   5  11  110.40    4.46
  -1  -5 -12   68.36    5.66
   1   5  12   49.64    3.89
  -1  -5 -13    3.39    1.16
   1   5  13    2.23    1.22
  -1  -5 -14    2.59    1.74
   1   5  14    2.40    1.54
  -1  -5 -15   23.75    3.55
  -1  -5 -16    0.00    1.42
  -1  -5 -17    2.72    2.22
  -1  -6  15    0.33    1.86
  -1  -6  14   17.36    3.37
  -1  -6  13    1.36    1.50
   1   6 -12    7.75    2.11
  -1  -6  12    5.41    2.05
   1   6 -11    2.11    1.10
  -1  -6  11   -0.89    1.25
   1   6 -10    0.89    0.81
  -1  -6  10    1.83    1.37
   1   6  -9    0.93    0.81
   1   6  -9    1.24    0.59
  -1  -6   9    2.90    2.15
   1   6  -8    5.62    1.29
   1   6  -8    9.09    1.90
  -1  -6   8    6.70    1.84
   1   6  -7    2.81    1.07
   1   6  -7    3.75    0.62
  -1  -6   7    1.92    1.65
   1   6  -6  112.76    4.01
   1   6  -6  111.49    6.30
  -1  -6   6  133.87    5.07
   1   6  -5   13.75    1.76
  -1  -6   5   19.83    2.19
   1   6  -4   16.80    1.67
  -1  -6   4   14.89    1.64
  -1  -6   4   20.17    1.81
   1   6  -3   20.18    1.68
  -1  -6   3   14.88    1.62
  -1  -6   3   18.40    1.68
   1   6  -2  102.39    3.72
  -1  -6   2   66.97    2.73
  -1  -6   2  104.27    3.32
   1   6  -1  397.91    8.89
  -1  -6   1  250.99    5.75
  -1  -6   1  397.25    7.33
   1   6   0  470.59    9.37
  -1  -6   0  308.93    6.58
  -1  -6   0  458.16    7.77
   1   6   1  104.30    3.99
  -1  -6  -1   59.60    2.60
  -1  -6  -1   88.07    2.76
   1   6   2  518.65   10.59
  -1  -6  -2  329.89    7.25
  -1  -6  -2  436.14    7.63
   1   6   3    5.40    1.06
  -1  -6  -3    3.21    0.77
  -1  -6  -3    3.67    1.00
   1   6   4   72.71    4.41
  -1  -6  -4   48.53    2.50
  -1  -6  -4   51.53    3.91
   1   6   5    1.87    0.94
  -1  -6  -5    1.82    1.30
   1   6   5    0.99    0.33
   1   6   6   75.38    3.53
  -1  -6  -6   56.55    3.31
   1   6   6   48.29    2.06
   1   6   7   61.96    9.58
  -1  -6  -7   42.15    2.90
   1   6   7   37.82    1.96
   1   6   8    8.47    1.75
  -1  -6  -8    5.40    1.51
   1   6   8    5.20    0.97
   1   6   9   88.38    3.78
  -1  -6  -9   74.62    7.63
   1   6   9   60.43    2.81
   1   6  10    2.14    0.81
  -1  -6 -10    1.25    1.18
   1   6  10    2.14    0.94
   1   6  11   21.49    4.68
  -1  -6 -11   18.09    2.64
   1   6  11   19.49    2.01
   1   6  12    6.14    1.46
  -1  -6 -12    8.03    1.92
   1   6  12    7.74    1.52
  -1  -6 -13    0.56    1.39
   1   6  13    1.76    1.04
  -1  -6 -14    7.55    2.37
  -1  -6 -15    3.58    2.02
  -1  -6 -16    1.76    1.49
  -1  -6 -17    0.48    1.34
  -1  -7  14    6.11    3.01
  -1  -7  13    5.20    1.99
  -1  -7  12    1.41    1.46
  -1  -7  11    3.89    2.13
   1   7 -10    1.14    0.73
  -1  -7  10    2.65    1.76
   1   7  -9    0.22    0.37
  -1  -7   9    1.41    1.26
   1   7  -8    4.48    1.27
   1   7  -8    6.55    2.05
  -1  -7   8    8.94    1.89
   1   7  -7    8.22    1.42
   1   7  -7    8.48    1.69
  -1  -7   7   10.67    1.92
   1   7  -6    2.50    1.03
   1   7  -6    7.52    1.29
  -1  -7   6    4.09    1.40
   1   7  -5   37.77    2.84
  -1  -7   5   44.61    3.38
   1   7  -4 1016.83   13.92
  -1  -7   4  865.66   10.52
  -1  -7   4 1121.87   18.08
   1   7  -3  319.59    7.04
  -1  -7   3  252.73    5.52
  -1  -7   3  355.98    7.08
   1   7  -2    5.01    1.45
  -1  -7   2    5.22    1.06
  -1  -7   2    5.60    0.95
   1   7  -1   22.70    3.43
  -1  -7   1   17.21    1.62
  -1  -7   1   28.41    1.76
   1   7   0   18.34    1.92
  -1  -7   0   14.84    1.60
  -1  -7   0   18.88    1.37
   1   7   1   31.44    6.07
  -1  -7  -1   18.04    1.72
  -1  -7  -1   25.84    1.63
   1   7   2  505.58   11.86
  -1  -7  -2  321.55    7.91
  -1  -7  -2  438.06    8.93
   1   7   3    8.33    1.87
  -1  -7  -3    6.64    1.21
  -1  -7  -3    5.96    1.48
   1   7   4   80.15   12.42
  -1  -7  -4   51.60    3.04
   1   7   5   45.50    8.35
  -1  -7  -5   30.84    2.30
  -1  -7  -5   29.02    2.65
   1   7   6   72.09    3.81
  -1  -7  -6   54.69    3.51
   1   7   6   44.38    5.48
   1   7   7   80.75   13.97
  -1  -7  -7   53.59    3.34
   1   7   7   44.76    2.14
   1   7   8  216.09    9.18
  -1  -7  -8  171.77    8.48
   1   7   8  123.14    5.34
   1   7   9   15.67    3.86
  -1  -7  -9   10.79    1.99
   1   7   9    8.73    1.25
   1   7  10    0.59    0.70
  -1  -7 -10    0.05    1.34
   1   7  10    1.13    0.76
   1   7  11    1.89    0.82
  -1  -7 -11    1.50    1.39
   1   7  11    0.54    0.29
   1   7  12    8.26    2.17
  -1  -7 -12    8.50    1.86
  -1  -7 -13    2.86    2.01
  -1  -7 -14    0.76    1.38
  -1  -7 -15    0.47    1.38
  -1  -7 -16    3.77    2.24
  -1  -7 -17    0.42    1.30
  -1  -8  13    2.36    1.80
  -1  -8  12    4.80    2.29
  -1  -8  11    3.82    1.67
  -1  -8  10    3.10    1.65
   1   8  -9   -0.02    0.73
  -1  -8   9    1.82    1.36
   1   8  -8    7.11    1.56
   1   8  -8    5.49    1.38
  -1  -8   8   12.38    2.52
   1   8  -7    2.03    0.99
   1   8  -7    2.13    0.70
  -1  -8   7    0.21    1.09
   1   8  -6   62.14    4.03
   1   8  -6   53.22    8.02
  -1  -8   6   76.92    4.37
   1   8  -5    3.12    1.26
  -1  -8   5    3.20    0.99
  -1  -8   5    3.87    1.59
   1   8  -4    1.77    1.24
  -1  -8   4   -0.33    0.79
  -1  -8   4    1.26    1.12
   1   8  -3  286.83   11.80
  -1  -8   3  228.67    9.24
  -1  -8   3  340.57   13.06
   1   8  -2   41.26    3.44
  -1  -8   2   28.06    2.13
  -1  -8   2   43.45    4.45
   1   8  -1   95.78    4.25
  -1  -8   1   66.27    3.24
  -1  -8   1  105.96    3.76
   1   8   0   16.40    3.70
  -1  -8   0   13.36    1.70
  -1  -8   0   15.64    1.46
   1   8   1   20.92    2.20
  -1  -8  -1   14.67    1.63
  -1  -8  -1   21.55    1.63
   1   8   2  283.12    7.08
  -1  -8  -2  183.26    5.11
  -1  -8  -2  250.91    4.50
   1   8   3    1.36    0.64
  -1  -8  -3    1.05    0.95
  -1  -8  -3    1.25    0.45
   1   8   4  262.96    8.85
  -1  -8  -4  225.38    4.29
   1   8   5   13.60    2.88
  -1  -8  -5    7.63    1.70
   1   8   6    2.10    1.45
  -1  -8  -6    2.19    1.37
  -1  -8  -6    0.83    0.47
   1   8   7  737.74   19.57
  -1  -8  -7  554.07   10.60
   1   8   8   11.53    3.00
  -1  -8  -8    5.71    1.79
   1   8   9   23.10    2.76
  -1  -8  -9   18.10    2.97
   1   8  10   19.59    5.42
  -1  -8 -10   14.65    2.75
   1   8  11    2.17    1.25
  -1  -8 -11    1.85    1.45
  -1  -8 -12    0.53    1.17
  -1  -8 -13    1.35    1.29
  -1  -8 -14    2.82    1.99
  -1  -8 -16    2.53    1.74
  -1  -9  12    2.93    2.45
  -1  -9  11    1.78    1.43
  -1  -9  10    0.67    1.46
  -1  -9   9   16.92    3.09
   1   9  -8    3.98    1.58
  -1  -9   8    4.52    2.14
   1   9  -7    7.64    1.62
   1   9  -7    5.11    0.91
  -1  -9   7   13.19    2.59
   1   9  -6    4.25    1.11
   1   9  -6    6.18    1.28
  -1  -9   6    8.45    1.78
   1   9  -5    3.61    1.14
  -1  -9   5    2.28    0.79
  -1  -9   5    2.70    1.12
   1   9  -4   20.33    3.79
  -1  -9   4   12.83    1.75
  -1  -9   4   19.93    2.21
   1   9  -3  140.52    5.76
  -1  -9   3  105.26    4.07
  -1  -9   3  150.34    5.30
   1   9  -2    4.88    1.50
  -1  -9   2    4.47    1.20
  -1  -9   2    7.14    1.61
   1   9  -1   74.50   12.50
  -1  -9   1   47.53    2.80
  -1  -9   1   70.56    3.16
   1   9   0   52.29    9.15
  -1  -9   0   41.59    3.08
  -1  -9   0   51.11    2.65
   1   9   1   18.33    4.45
  -1  -9  -1   12.12    1.97
  -1  -9  -1   15.63    1.63
   1   9   2  104.81    6.18
  -1  -9  -2   64.14    4.20
  -1  -9  -2  104.88    4.80
   1   9   3  175.07    8.46
  -1  -9  -3  118.39    5.98
  -1  -9  -3  155.00    6.53
   1   9   4    6.75    1.19
  -1  -9  -4    3.02    0.96
  -1  -9  -4    4.76    0.84
   1   9   5  103.42    6.72
  -1  -9  -5   86.77    4.46
   1   9   6   11.53    2.81
  -1  -9  -6    7.27    1.59
   1   9   7    4.40    1.97
  -1  -9  -7    1.00    1.25
   1   9   8    2.03    1.34
  -1  -9  -8    2.50    1.39
   1   9   9   90.32    5.30
  -1  -9  -9   64.68    4.69
   1   9  10    3.30    1.17
  -1  -9 -10    3.03    1.86
   1   9  11    2.40    1.07
  -1  -9 -11    0.75    1.28
  -1  -9 -12   -0.07    1.18
  -1  -9 -13    2.69    1.91
  -1  -9 -14   -0.23    1.28
  -1  -9 -15    4.72    2.23
  -1  -9 -16    1.34    1.87
  -1 -10  10   -0.29    1.32
  -1 -10   9   -1.63    1.26
  -1 -10   8    0.69    1.34
   1  10  -7   18.93    2.69
  -1 -10   7   23.53    3.25
   1  10  -6    7.85    1.81
  -1 -10   6    5.75    1.76
   1  10  -5   13.45    2.39
  -1 -10   5   16.01    2.66
   1  10  -4    4.20    1.74
  -1 -10   4    1.57    0.91
  -1 -10   4    4.46    1.53
   1  10  -3    3.92    1.36
  -1 -10   3    2.91    1.00
  -1 -10   3    3.18    1.01
   1  10  -2    7.26    2.01
  -1 -10   2    5.85    1.27
  -1 -10   2    8.40    1.63
   1  10  -1   41.79    7.62
  -1 -10   1   22.23    2.18
  -1 -10   1   41.89    2.95
   1  10   0    7.04    2.10
  -1 -10   0    0.99    0.62
  -1 -10   0    6.44    1.20
   1  10   1    4.81    1.79
  -1 -10  -1    1.48    0.80
  -1 -10  -1    6.65    1.09
   1  10   2   93.89    5.58
  -1 -10  -2   60.67    3.43
   1  10   3   17.27    2.10
  -1 -10  -3    6.88    1.56
   1  10   4    7.91    2.77
  -1 -10  -4    4.36    1.45
   1  10   5    1.89    1.39
  -1 -10  -5    2.90    1.46
   1  10   6    7.42    1.86
  -1 -10  -6    3.71    1.17
   1  10   7   14.91    2.68
  -1 -10  -7    7.56    2.02
   1  10   8   29.55    5.05
  -1 -10  -8   25.51    3.40
   1  10   9    1.33    0.94
  -1 -10  -9    0.89    1.16
   1  10  10    1.11    0.85
  -1 -10 -10    0.65    1.21
   1  10  11    1.02    0.70
  -1 -10 -11    2.16    1.40
  -1 -10 -12    9.01    2.63
  -1 -10 -13    7.13    2.63
  -1 -10 -14    2.49    1.61
  -1 -10 -15   -0.89    1.32
  -1 -11   7    0.87    1.24
   1  11  -6    6.36    1.73
  -1 -11   6    8.06    2.29
   1  11  -5    5.02    1.84
  -1 -11   5    3.05    1.65
   1  11  -4   15.22    2.64
  -1 -11   4   16.60    2.39
   1  11  -3    2.17    0.86
  -1 -11   3    0.64    0.95
   1  11  -2   13.53    2.61
  -1 -11   2   11.08    1.90
  -1 -11   2   17.56    2.13
   1  11  -1    0.88    1.17
  -1 -11   1    0.54    0.71
  -1 -11   1   -0.10    0.67
   1  11   0    6.51    1.28
  -1 -11   0    4.00    1.16
   1  11   1   -1.10    1.38
  -1 -11  -1    1.21    0.79
   1  11   2    1.07    1.47
  -1 -11  -2    0.29    0.71
   1  11   3    1.61    1.56
  -1 -11  -3    0.58    0.83
   1  11   4    7.16    2.29
  -1 -11  -4    3.14    1.42
   1  11   5    1.16    0.95
  -1 -11  -5    0.61    0.94
   1  11   6    4.50    1.85
  -1 -11  -6    7.48    2.00
   1  11   7    1.23    1.35
  -1 -11  -7   -0.97    1.00
   1  11   8   14.84    4.40
  -1 -11  -8   14.99    2.63
   1  11   9   12.45    2.19
  -1 -11  -9    9.47    2.03
   1  11  10    2.66    1.92
  -1 -11 -10    0.03    1.10
  -1 -11 -11    3.61    1.93
  -1 -11 -12    3.43    2.06
  -1 -11 -13    0.66    1.27
   1  12  -5    8.67    2.69
   1  12  -4   85.58    5.80
   1  12  -3    3.30    1.94
   1  12  -2   15.87    3.12
   1  12  -1    2.74    2.12
   1  12   0    2.09    1.08
   1  12   1   -1.98    1.38
  -1 -12  -1   -0.67    0.75
   1  12   2   19.22    2.86
  -1 -12  -2   12.12    2.26
   1  12   3    1.60    1.49
  -1 -12  -3    1.17    1.00
   1  12   4    2.51    1.51
  -1 -12  -4    1.49    1.09
   1  12   5   10.46    2.32
  -1 -12  -5    4.93    1.49
   1  12   6    7.94    2.20
  -1 -12  -6    2.66    1.49
   1  12   7  136.96   47.70
  -1 -12  -7   78.60    5.05
   1  12   8    1.12    1.41
  -1 -12  -8    1.31    1.30
   1  12   9    8.83    2.92
  -1 -12  -9    3.64    1.82
   1  12  10    0.73    1.19
  -1 -12 -11    1.87    1.42
   1  13  -4   -1.24    1.26
   1  13  -3    0.97    1.43
   1  13  -2    3.67    2.05
   1  13  -1   18.95    3.43
   1  13   0    2.02    1.09
   1  13   1   19.11    3.92
   1  13   2    4.96    2.06
   1  13   3    1.97    1.08
   1  13   4    1.43    1.51
   1  13   5   13.19    4.33
   1  13   6    0.67    0.65
   1  13   7   10.82    3.27
   1  13   8    8.91    2.72
   1  13   9    5.23    2.26
   1  14  -2    2.61    2.12
   1  14  -1    1.85    1.43
   1  14   0   -0.03    0.69
   1  14   1    2.25    1.64
   1  14   2    8.05    3.48
   1  14   3   30.79    7.13
   1  14   4    0.71    1.52
   1  14   5    2.37    1.92
   1  14   6    5.82    2.51
   1  14   7    2.63    0.92
   1  15   1    0.69    0.90
   1  15   2    5.89    2.18
   1  15   3    2.64    2.78
   1  15   4   10.97    3.27
  -2  13   5    1.47    1.42
  -2  13   4    3.56    2.05
  -2  13   3   -0.01    1.35
  -2  13   2   20.06    3.73
  -2  13   1    9.83    1.87
  -2  13   0    8.59    3.28
  -2  13  -1   11.60    2.84
  -2  13  -2    3.36    2.13
  -2  12   7    1.72    1.68
  -2  12   6    3.33    1.44
  -2  12   5   -0.84    1.26
  -2  12   4    2.48    1.42
  -2  12   3   -0.38    1.27
  -2  12   2    6.42    2.19
  -2  12   1    0.82    1.57
  -2  12   0   46.69    9.69
  -2  12  -1    1.43    1.55
  -2  12  -2    0.10    1.30
  -2  12  -3    3.21    2.08
  -2  12  -4    0.39    1.31
  -2  12  -5   -0.08    1.10
  -2  11   7    3.42    1.77
  -2  11   6   30.47    3.60
  -2  11   5   -0.40    1.25
  -2  11   4    2.29    1.45
   2 -11  -4    3.40    1.31
  -2  11   3    2.27    1.53
   2 -11  -3    2.43    1.26
  -2  11   2    8.34    1.89
   2 -11  -2    6.16    1.35
  -2  11   1    3.81    2.22
   2 -11  -1    6.85    1.38
  -2  11   0    3.57    1.57
   2 -11   0    4.44    2.06
  -2  11  -1   10.39    2.26
   2 -11   1    8.96    2.43
  -2  11  -2    7.07    2.58
   2 -11   2    4.22    1.80
  -2  11  -3   16.09    3.15
   2 -11   3   21.20    3.21
  -2  11  -4    0.67    1.29
   2 -11   4    0.29    1.30
  -2  11  -5    0.79    1.39
   2 -11   5    1.94    1.70
  -2  11  -6   -0.07    1.29
   2 -11   6    1.06    1.37
  -2  10   8    0.54    0.91
   2 -10  -8    0.88    1.01
  -2  10   7   10.10    2.03
   2 -10  -7    4.73    1.68
  -2  10   6    1.27    1.15
  -2  10   5    4.03    1.82
   2 -10  -5    1.44    0.84
  -2  10   4    6.76    1.92
   2 -10  -4    5.11    0.92
  -2  10   3   12.72    2.41
   2 -10  -3    8.80    3.26
  -2  10   2   29.62    3.40
   2 -10  -2   18.81    4.56
  -2  10   1    2.45    1.43
   2 -10  -1    7.03    1.37
  -2  10   0    7.04    1.69
   2 -10   0    9.82    1.99
  -2  10  -1   18.26    2.98
   2 -10   1   17.09    4.58
  -2  10  -2    5.60    1.62
   2 -10   2    5.52    1.79
  -2  10  -3   11.40    2.12
   2 -10   3   20.27    2.75
  -2  10  -4    1.22    1.36
   2 -10   4    2.96    1.69
  -2  10  -5   10.45    2.57
   2 -10   5   12.48    2.65
  -2  10  -6    2.70    1.34
   2 -10   6    2.81    2.33
  -2  10  -7    0.14    1.23
   2 -10   7    1.82    2.35
   2 -10   8    6.11    2.19
   2 -10   9    3.67    2.24
   2  -9 -12    2.22    1.70
   2  -9 -11    1.13    1.17
   2  -9 -10   36.05    3.93
  -2   9   9   14.26    3.10
   2  -9  -9   11.19    1.96
  -2   9   9   14.98    2.46
  -2   9   8    0.70    0.66
   2  -9  -8    0.48    1.04
   2  -9  -8    1.85    0.52
  -2   9   7    5.74    0.88
   2  -9  -7    6.47    1.92
   2  -9  -7    2.23    0.87
  -2   9   6    3.71    1.05
   2  -9  -6    3.46    1.27
   2  -9  -6    1.66    1.13
  -2   9   5   16.81    3.15
   2  -9  -5   14.92    2.03
  -2   9   4    5.99    1.82
   2  -9  -4    3.88    1.06
   2  -9  -4    5.81    1.58
  -2   9   3    5.61    1.83
   2  -9  -3    6.42    1.54
  -2   9   2   76.20    5.58
   2  -9  -2   68.26    9.60
  -2   9   1   13.13    2.32
   2  -9  -1   13.96    2.33
  -2   9   0    6.85    1.92
   2  -9   0    8.57    2.25
  -2   9  -1   -0.18    1.20
   2  -9   1    0.19    0.70
  -2   9  -2   10.81    2.73
   2  -9   2   10.05    1.97
  -2   9  -3    1.33    1.22
   2  -9   3    3.48    1.80
  -2   9  -4    7.62    1.97
   2  -9   4    9.74    2.17
  -2   9  -5   -0.29    1.16
   2  -9   5    4.21    2.45
  -2   9  -6    1.98    1.55
   2  -9   6    0.88    1.46
  -2   9  -7    3.82    1.98
   2  -9   7    4.18    2.72
  -2   9  -8   -0.05    1.01
   2  -9   8    4.41    2.15
  -2   9  -9    0.07    1.14
   2  -9   9    1.67    2.01
   2  -9  10    2.83    2.05
   2  -9  11    8.46    3.49
   2  -8 -14    5.57    2.33
   2  -8 -13    1.21    1.46
   2  -8 -12    1.65    1.84
   2  -8 -11   24.18    3.11
  -2   8  11   20.28    2.81
   2  -8 -10   29.63    5.96
  -2   8  10   20.86    2.45
  -2   8   9    1.14    0.89
   2  -8  -9    2.54    1.44
  -2   8   9    2.77    1.02
  -2   8   8    3.30    1.39
   2  -8  -8    2.81    1.07
  -2   8   8    2.27    1.08
  -2   8   7   14.84    2.87
   2  -8  -7   17.30    2.37
  -2   8   7   17.72    2.20
  -2   8   6   11.74    1.74
   2  -8  -6   10.79    1.86
   2  -8  -6    8.00    1.75
  -2   8   5   67.91    4.18
   2  -8  -5   58.50    3.32
   2  -8  -5   53.36    6.87
  -2   8   4    6.70    1.50
   2  -8  -4    4.54    1.10
   2  -8  -4    5.41    1.51
  -2   8   3   -0.08    1.08
   2  -8  -3    0.73    0.79
   2  -8  -3   -0.77    0.95
  -2   8   2   83.45    4.55
   2  -8  -2   52.23    2.40
   2  -8  -2   70.02   11.63
  -2   8   1    0.37    1.16
   2  -8  -1    3.17    0.87
  -2   8   0   93.29    7.47
   2  -8   0  110.80    5.81
  -2   8  -1   10.37    2.36
   2  -8   1   15.54    2.71
  -2   8  -2   53.62    9.49
   2  -8   2   58.37    9.09
  -2   8  -3    1.37    1.25
   2  -8   3    2.87    1.20
  -2   8  -4    2.07    1.10
   2  -8   4    1.71    1.34
  -2   8  -5   -0.46    1.07
   2  -8   5    2.14    1.63
  -2   8  -6    1.49    1.13
   2  -8   6    1.97    1.50
  -2   8  -7   -0.13    0.89
   2  -8   7    1.81    0.85
  -2   8  -8    0.38    1.08
   2  -8   8    1.14    1.26
  -2   8  -9    1.55    0.95
   2  -8   9    2.17    1.56
   2  -8  10    0.38    1.59
   2  -8  11    1.41    1.71
   2  -8  12    1.52    1.74
   2  -7 -15   10.59    3.03
   2  -7 -14    1.71    1.66
   2  -7 -13    6.78    1.77
  -2   7  13    9.05    2.00
   2  -7 -12   30.13    7.75
  -2   7  12   17.26    2.46
   2  -7 -11   22.44    5.17
  -2   7  11   24.10    2.67
   2  -7 -10    1.19    0.73
  -2   7  10    1.27    0.88
  -2   7   9    4.69    0.98
   2  -7  -9    3.06    1.31
  -2   7   9    3.61    1.10
  -2   7   8   39.32    7.32
   2  -7  -8   37.98    3.09
  -2   7   8   30.58    4.59
  -2   7   7   39.36    6.79
   2  -7  -7   42.20    3.00
  -2   7   7   33.18    2.69
  -2   7   6   19.99    3.50
   2  -7  -6   16.48    2.19
  -2   7   6   14.10    1.87
  -2   7   5  337.68   13.50
   2  -7  -5  308.79   11.91
  -2   7   4   14.31    2.02
   2  -7  -4   12.02    1.28
   2  -7  -4   12.40    3.56
  -2   7   3    1.06    0.84
   2  -7  -3    1.55    0.71
   2  -7  -3    1.34    0.67
  -2   7   2  116.99    5.00
   2  -7  -2   98.56    3.25
   2  -7  -2  116.61    4.37
  -2   7   1  307.94    7.92
   2  -7  -1  217.50    4.32
   2  -7  -1  312.65    9.99
  -2   7   0    1.58    1.47
   2  -7   0    1.75    0.73
  -2   7  -1  647.00   23.52
   2  -7   1  745.40   65.53
  -2   7  -2   12.85    2.43
   2  -7   2   18.42    2.99
  -2   7  -3   10.39    1.87
   2  -7   3   14.58    2.27
  -2   7  -4   10.88    2.33
   2  -7   4    7.75    1.85
  -2   7  -5   20.52    2.72
   2  -7   5   24.82    2.58
  -2   7  -6    1.91    1.56
   2  -7   6    4.78    2.12
  -2   7  -7    2.24    1.38
   2  -7   7    5.56    2.13
  -2   7  -8    0.95    0.97
   2  -7   8    1.50    1.49
  -2   7  -9    0.57    0.88
   2  -7   9    0.65    1.42
  -2   7 -10    1.93    1.08
   2  -7  10    9.31    2.89
   2  -7  11    4.27    1.90
   2  -7  12    7.87    2.65
   2  -7  13   -0.20    1.41
   2  -6 -16    7.30    2.78
   2  -6 -15    6.59    2.32
   2  -6 -14   39.24    9.67
  -2   6  14   43.81    4.20
   2  -6 -13    4.15    1.96
  -2   6  13    0.92    0.93
   2  -6 -12    1.84    1.59
  -2   6  12    2.09    1.06
   2  -6 -11   -0.69    1.26
  -2   6  11    0.89    0.91
   2  -6 -10   37.22    3.19
  -2   6  10   28.28    2.79
  -2   6   9    0.63    0.57
   2  -6  -9    1.43    1.28
  -2   6   9    0.67    1.07
  -2   6   8   29.64    2.16
   2  -6  -8   27.69    5.66
  -2   6   8   22.93    2.42
  -2   6   7   27.29    5.98
   2  -6  -7   26.20    2.39
  -2   6   7   20.76    2.37
  -2   6   6   75.68   11.26
   2  -6  -6   61.35    5.90
  -2   6   6   57.34    3.41
  -2   6   5  297.71   14.26
   2  -6  -5  246.53    7.40
  -2   6   5  211.24    6.03
  -2   6   4  757.52   11.25
   2  -6  -4  689.49    8.97
  -2   6   3  160.58    6.20
   2  -6  -3  141.87    3.95
   2  -6  -3  156.13    4.90
  -2   6   2  126.46    4.57
   2  -6  -2  105.29    2.99
   2  -6  -2  135.44    7.31
  -2   6   1  213.76    5.94
   2  -6  -1  161.07    3.33
   2  -6  -1  219.15    5.76
  -2   6   0  294.90    6.89
   2  -6   0  214.13    3.36
   2  -6   0  321.71    6.95
  -2   6  -1    1.97    0.97
   2  -6   1    0.78    0.45
  -2   6  -2   11.67    2.18
   2  -6   2   12.38    2.68
  -2   6  -3   -0.75    0.98
   2  -6   3   -0.74    1.09
  -2   6  -4  167.31    7.93
   2  -6   4  235.43   10.09
  -2   6  -5  172.88    6.17
   2  -6   5  262.53    7.54
  -2   6  -6    0.62    1.22
   2  -6   6   -0.89    1.80
  -2   6  -7   54.31    3.80
   2  -6   7   72.65    4.74
  -2   6  -8    6.12    1.68
   2  -6   8    5.89    1.66
  -2   6  -9    0.76    0.75
   2  -6   9    0.67    0.88
  -2   6 -10    2.68    1.04
   2  -6  10   11.46    2.86
   2  -6  11    4.73    2.21
   2  -6  12    6.60    2.75
   2  -6  14    6.31    2.47
   2  -5 -16    1.23    1.73
   2  -5 -15   21.52    3.68
  -2   5  15   21.49    3.23
   2  -5 -14    2.38    2.28
  -2   5  14    0.66    1.09
   2  -5 -13    1.66    0.86
  -2   5  13    4.07    1.58
   2  -5 -12    7.87    1.46
  -2   5  12    5.75    1.75
   2  -5 -11   23.31    4.68
  -2   5  11   21.46    2.38
   2  -5 -10   30.12    3.26
  -2   5  10   27.84    2.83
  -2   5   9    3.55    0.80
   2  -5  -9    4.74    1.70
  -2   5   9    3.88    1.30
  -2   5   8    0.50    0.63
  -2   5   8   -0.36    0.80
  -2   5   7   59.29    3.27
   2  -5  -7   70.90    9.70
  -2   5   7   51.52    3.29
  -2   5   6   29.65    4.88
   2  -5  -6   29.40    2.43
  -2   5   6   21.87    2.00
  -2   5   5    2.12    0.64
   2  -5  -5    4.28    1.27
  -2   5   5    1.96    0.90
  -2   5   4    7.45    1.39
   2  -5  -4   10.43    1.34
  -2   5   4    5.50    1.07
  -2   5   3   96.48    3.94
   2  -5  -3   94.60    3.30
  -2   5   3   83.99    3.59
  -2   5   2   93.14    3.65
   2  -5  -2   84.69    2.64
   2  -5  -2   95.04    6.08
  -2   5   1   22.21    2.17
   2  -5  -1   16.19    1.11
  -2   5   0    0.96    1.14
   2  -5   0    0.66    0.42
  -2   5  -1   53.89    3.87
   2  -5   1   63.74    3.08
  -2   5  -2    4.82    1.34
   2  -5   2    5.47    1.24
  -2   5  -3   95.53    4.28
   2  -5   3  117.99    4.81
  -2   5  -4    0.36    0.94
   2  -5   4    1.73    1.18
  -2   5  -5   55.70    3.70
   2  -5   5   89.39    4.87
  -2   5  -6  211.22    9.32
   2  -5   6  341.18   13.71
  -2   5  -7   28.51    2.83
   2  -5   7   37.74    3.23
  -2   5  -8    0.56    0.96
   2  -5   8    6.99    2.42
  -2   5  -9    1.12    1.16
   2  -5   9    2.72    2.03
  -2   5 -10    0.87    0.82
   2  -5  10   -0.67    1.48
  -2   5 -11    3.52    1.28
   2  -5  11   11.85    2.95
   2  -5  12    0.99    1.53
   2  -5  13    1.43    1.49
   2  -5  14    2.61    2.21
   2  -5  15    0.12    1.52
   2  -4 -17    1.76    2.11
   2  -4 -16    0.94    1.61
  -2   4  15    0.57    1.18
   2  -4 -14   13.11    3.65
  -2   4  14    8.77    1.91
   2  -4 -13   25.11    3.61
  -2   4  13   20.45    2.72
   2  -4 -12    1.26    1.55
  -2   4  12    4.06    1.93
   2  -4 -11   -1.14    1.52
  -2   4  11    0.29    1.05
   2  -4 -10    3.23    2.27
  -2   4  10    1.00    1.09
   2  -4  -9   94.28    5.84
  -2   4   9   69.90    4.57
  -2   4   8    4.43    0.92
   2  -4  -8    6.26    1.36
  -2   4   8    5.14    1.29
  -2   4   7  176.72    3.78
   2  -4  -7  208.35    5.83
  -2   4   7  144.69    4.61
  -2   4   6   41.00    2.05
   2  -4  -6   42.67    3.00
  -2   4   6   29.71    2.10
  -2   4   5   36.74    5.61
   2  -4  -5   37.15    2.26
  -2   4   5   27.92    1.94
  -2   4   4  105.34    3.49
   2  -4  -4  116.68    3.37
  -2   4   4   92.07    3.36
  -2   4   3    5.23    0.89
   2  -4  -3    6.55    0.94
  -2   4   3    3.06    0.77
  -2   4   2   65.15    2.80
   2  -4  -2   63.08    2.30
  -2   4   1  159.69    4.78
   2  -4  -1  143.11    3.93
   2  -4  -1  164.01    6.43
  -2   4   0  307.71    7.13
   2  -4   0  254.00    4.47
   2  -4   0  335.59    7.39
  -2   4  -1  607.59   11.59
   2  -4   1  702.39   13.05
  -2   4  -2  138.83    4.45
   2  -4   2  183.15    8.12
  -2   4  -3    0.01    0.81
   2  -4   3   -0.17    0.58
  -2   4  -4   12.52    1.64
   2  -4   4   18.45    1.86
  -2   4  -5   36.27    2.57
   2  -4   5   62.02    3.39
  -2   4  -6   66.43    3.48
  -2   4  -6   68.76    8.08
   2  -4   6  101.79    4.56
  -2   4  -7    6.50    1.59
  -2   4  -7    6.55    1.05
   2  -4   7   11.75    1.92
  -2   4  -8    1.81    1.20
  -2   4  -8    0.88    0.51
   2  -4   8    1.75    1.48
  -2   4  -9    7.96    1.62
   2  -4   9   17.89    2.89
  -2   4 -10    2.74    0.96
   2  -4  10    6.19    2.42
  -2   4 -11   -0.21    0.70
   2  -4  11    2.51    1.75
   2  -4  12    1.12    1.62
   2  -4  13    2.24    1.81
   2  -4  14    1.18    1.57
   2  -4  15    0.21    1.51
   2  -3 -17    1.75    1.57
   2  -3 -16    2.13    2.08
  -2   3  16    0.56    1.06
   2  -3 -15   12.97    3.06
  -2   3  15    5.23    1.99
   2  -3 -14    4.97    2.01
  -2   3  14    4.05    1.81
   2  -3 -13    3.68    1.88
  -2   3  13    2.71    1.31
   2  -3 -12   13.41    2.60
  -2   3  12   12.06    2.42
   2  -3 -11   24.78    2.97
  -2   3  11   20.26    2.51
   2  -3 -10   42.58    5.16
  -2   3  10   31.02    2.97
   2  -3  -9  140.34   20.02
  -2   3   9   98.99    5.54
   2  -3  -8    5.38    1.90
  -2   3   8    6.27    1.70
  -2   3   7  366.62    7.61
   2  -3  -7  427.53   11.79
  -2   3   7  329.09    8.59
  -2   3   6  294.44    5.94
   2  -3  -6  341.08   10.07
  -2   3   6  268.85    6.63
  -2   3   5  167.98    4.00
   2  -3  -5  182.09    5.05
  -2   3   5  139.14    4.33
  -2   3   4   12.85    2.27
   2  -3  -4   15.14    2.83
  -2   3   4   11.37    1.18
  -2   3   3  485.98    8.78
   2  -3  -3  556.25    9.69
  -2   3   3  418.69    8.36
  -2   3   2    1.21    0.49
   2  -3  -2    0.00    0.51
  -2   3   2    1.41    0.77
  -2   3   1  485.88    6.47
   2  -3  -1  502.28    4.58
   2  -3  -1  472.99    7.34
  -2   3   0  295.87    6.70
   2  -3   0  269.19    4.59
   2  -3   0  309.26    6.82
  -2   3  -1  380.96    7.84
   2  -3   1  420.99    8.82
  -2   3  -2   91.98    3.48
   2  -3   2  121.25    4.67
  -2   3  -3    0.90    0.78
  -2   3  -3    0.94    0.18
   2  -3   3    0.65    0.61
  -2   3  -4  367.84    7.79
  -2   3  -4  489.51    6.99
   2  -3   4  558.32   10.55
  -2   3  -5    6.35    1.53
  -2   3  -5    9.24    0.87
   2  -3   5   11.64    1.87
  -2   3  -6   52.65    2.86
  -2   3  -6   73.32    2.59
   2  -3   6   90.93    4.38
  -2   3  -7    1.96    1.19
  -2   3  -7    0.94    0.41
   2  -3   7    1.15    1.24
  -2   3  -8   75.19    4.24
  -2   3  -8   98.84    5.36
   2  -3   8  117.32    9.67
  -2   3  -9   -0.30    0.72
  -2   3  -9    0.91    0.40
   2  -3   9    2.23    1.65
  -2   3 -10   32.49    2.65
  -2   3 -10   46.61    2.89
   2  -3  10   65.33    5.01
  -2   3 -11    7.06    1.50
  -2   3 -11    8.29    1.63
   2  -3  11   13.77    2.93
   2  -3  12    1.93    1.69
   2  -3  13    3.60    1.99
   2  -3  14   -0.22    1.33
   2  -3  15    5.84    2.45
   2  -3  16    2.04    2.11
   2  -2 -17    0.75    1.64
   2  -2 -16    0.41    1.53
  -2   2  16    0.25    0.99
   2  -2 -15   13.13    3.13
  -2   2  15   12.38    2.72
   2  -2 -14    9.01    2.69
  -2   2  14    9.95    2.26
   2  -2 -13   13.78    2.93
  -2   2  13    7.62    1.78
   2  -2 -12    2.31    2.13
  -2   2  12    0.14    1.13
   2  -2 -11    1.12    0.77
  -2   2  11    2.11    1.53
   2  -2 -10   50.63    4.08
  -2   2  10   38.95    3.05
   2  -2  -9  442.90    9.71
  -2   2   9  323.25    8.06
   2  -2  -8   92.15    4.12
  -2   2   8   73.84   12.37
   2  -2  -7   34.11    7.33
  -2   2   7   27.06    2.21
  -2   2   6   15.50    2.65
   2  -2  -6   21.67    2.07
  -2   2   6   18.58    1.85
  -2   2   5    0.36    0.22
   2  -2  -5   -0.21    1.09
  -2   2   5   -0.68    0.76
  -2   2   4 1633.82   23.77
   2  -2  -4 2012.10   30.09
  -2   2   4 1473.11   22.88
  -2   2   3  304.65    5.91
   2  -2  -3  375.72    7.28
  -2   2   3  269.55    6.06
   2  -2  -2 2178.38   12.20
  -2   2   1  384.23    4.98
   2  -2  -1  477.46    4.20
  -2   2   1  357.40    5.17
  -2   2   0  679.40    6.99
   2  -2   0  816.99    4.49
   2  -2   0  749.72    7.59
  -2   2  -1    1.30    0.75
   2  -2   1    2.45    0.54
  -2   2  -2    2.42    0.74
   2  -2   2    3.20    0.73
  -2   2  -3  155.55    4.38
  -2   2  -3  188.71    3.18
   2  -2   3  229.35    9.14
  -2   2  -4  217.13    5.51
  -2   2  -4  296.25    5.03
   2  -2   4  338.98    7.52
  -2   2  -5  259.33    6.23
  -2   2  -5  339.23    6.35
   2  -2   5  396.67   10.00
  -2   2  -6    5.15    1.07
  -2   2  -6    7.39    1.38
   2  -2   6    9.34    1.78
  -2   2  -7   39.92    2.53
  -2   2  -7   56.84    6.93
   2  -2   7   61.78    4.30
  -2   2  -8   19.10    1.85
  -2   2  -8   26.63    1.80
   2  -2   8   29.63    2.71
  -2   2  -9   47.64    2.72
  -2   2  -9   76.89    3.30
   2  -2   9   83.34    4.67
  -2   2 -10   17.74    1.99
  -2   2 -10   29.82    2.49
   2  -2  10   31.93    3.54
  -2   2 -11    6.87    1.38
  -2   2 -11    7.64    1.42
   2  -2  11    8.13    2.39
  -2   2 -12    2.81    1.25
  -2   2 -12    2.95    1.23
   2  -2  12    8.29    2.49
  -2   2 -13    4.67    1.55
   2  -2  13    4.11    1.96
   2  -2  14    1.08    1.33
   2  -2  15    3.02    1.63
   2  -1 -17    2.12    2.00
  -2   1  17    0.19    1.22
   2  -1 -16    2.87    2.50
  -2   1  16    0.61    1.84
   2  -1 -15    5.61    2.95
  -2   1  15   12.49    2.35
   2  -1 -14    4.77    1.43
  -2   1  14    8.35    2.42
   2  -1 -13   14.62    2.66
  -2   1  13   14.46    2.48
   2  -1 -12    1.04    1.62
  -2   1  12    2.51    1.21
   2  -1 -11  104.37    5.56
  -2   1  11   80.98    4.50
   2  -1 -10   22.28    3.46
  -2   1  10   18.92    2.42
   2  -1  -9  266.06    7.72
  -2   1   9  213.46    6.61
   2  -1  -8   40.65    3.08
  -2   1   8   26.94    2.20
   2  -1  -7   49.17    3.13
  -2   1   7   38.58    2.40
   2  -1  -6   64.88    3.10
  -2   1   6   50.58    2.63
  -2   1   5    0.55    0.27
   2  -1  -5    1.09    0.64
  -2   1   5    0.57    0.86
   2  -1  -4  444.80    8.73
  -2   1   3  853.13    5.86
   2  -1  -3 1168.65    9.36
  -2   1   3  875.86    8.29
  -2   1   2 1273.92    7.90
  -2   1   2 1286.53    9.76
  -2   1   1  742.33    6.13
   2  -1  -1 1009.70    6.58
  -2   1   1  752.39    6.88
  -2   1   0   24.97    1.34
   2  -1   0   31.35    1.14
  -2   1  -1 1518.80   10.31
  -2   1  -2  114.62    3.26
  -2   1  -2  109.06    1.89
   2  -1   2  154.87    3.94
  -2   1  -3   65.55    2.44
  -2   1  -3   81.74    1.80
   2  -1   3  102.73    3.59
  -2   1  -4    4.02    0.79
  -2   1  -4    6.54    1.26
   2  -1   4    7.01    1.08
  -2   1  -5  181.22    4.91
  -2   1  -5  259.58    3.71
   2  -1   5  293.59    7.17
  -2   1  -6  113.46    3.77
  -2   1  -6  168.31    4.06
   2  -1   6  195.61    7.39
  -2   1  -7  313.36    7.86
  -2   1  -7  471.52    6.37
   2  -1   7  526.18   12.05
  -2   1  -8    4.08    0.92
  -2   1  -8    7.39    1.26
   2  -1   8    6.15    1.21
  -2   1  -9   14.05    1.56
  -2   1  -9   19.75    1.94
   2  -1   9   22.04    2.22
  -2   1 -10    6.84    1.38
  -2   1 -10   12.20    1.79
   2  -1  10   11.99    1.99
  -2   1 -11    0.52    0.62
  -2   1 -11   -0.57    0.91
   2  -1  11    3.21    1.58
  -2   1 -12   10.42    1.59
  -2   1 -12   14.64    2.18
   2  -1  12   13.73    2.45
  -2   1 -13    0.38    0.90
  -2   1 -14    0.57    0.87
   2  -1  14    3.09    2.00
   2  -1  15    1.01    0.64
   2  -1  16    1.62    1.45
  -2   0  17    2.33    1.98
   2   0 -16    5.25    2.04
  -2   0  16    5.61    1.92
   2   0 -15   11.87    3.22
  -2   0  15    4.76    1.87
   2   0 -14    0.99    1.62
  -2   0  14    3.15    2.21
   2   0 -13    1.47    1.58
  -2   0  13    2.77    1.42
   2   0 -12    8.16    1.49
  -2   0  12    9.17    2.48
   2   0 -11    8.00    2.21
  -2   0  11    8.12    1.93
   2   0 -10   96.83    6.46
  -2   0  10   78.58    5.13
   2   0  -9  632.19   13.32
  -2   0   9  503.69   10.37
   2   0  -8   73.40    3.87
  -2   0   8   62.14    3.54
   2   0  -7   76.06    3.38
  -2   0   7   56.82    2.85
   2   0  -6   35.27    2.38
  -2   0   6   28.76    2.21
   2   0  -5   89.98    3.35
  -2   0   5   79.91    3.09
   2   0  -4  375.41    8.05
  -2   0   4  311.07    6.70
  -2   0   3  143.71    2.66
   2   0  -3  214.10    5.16
  -2   0   3  177.08    4.67
  -2   0   2   -0.33    0.29
   2   0  -2    0.51    0.27
  -2   0   2   -0.24    0.51
  -2   0   1 2711.90   12.29
   2   0  -1 3653.70   16.10
  -2   0   0 1548.15    7.80
  -2   0   0 1544.28    9.25
  -2   0  -1  838.14    6.86
  -2   0  -1  899.69    5.10
   2   0   1 1129.51    8.41
  -2   0  -2  195.87    4.40
  -2   0  -2  201.32    3.68
   2   0   2  277.69    5.57
  -2   0  -3  244.87    5.33
  -2   0  -3  318.44    5.57
   2   0   3  398.42    7.49
  -2   0  -4  952.53    8.70
  -2   0  -4 1305.85    8.58
   2   0   4 1571.89   11.41
  -2   0  -5   77.51    2.85
  -2   0  -5  113.54    3.11
   2   0   5  135.31    3.94
  -2   0  -6   12.92    1.41
  -2   0  -6   21.49    3.57
   2   0   6   21.32    1.80
  -2   0  -7   53.84    2.51
  -2   0  -7   76.92    2.87
   2   0   7   82.86    3.34
  -2   0  -8    4.36    1.01
  -2   0  -8    3.89    1.08
   2   0   8    6.03    1.12
  -2   0  -9    2.00    0.84
  -2   0  -9    1.39    0.95
   2   0   9    1.58    1.43
  -2   0 -10    3.00    0.97
  -2   0 -10    3.49    0.85
   2   0  10    4.62    1.72
  -2   0 -11    1.36    1.11
  -2   0 -11    1.98    1.55
   2   0  11    0.91    1.46
  -2   0 -12    3.12    1.34
  -2   0 -12    3.46    0.85
   2   0  12    3.33    1.72
   2   0  13    2.35    0.90
  -2   0 -14    0.84    1.08
   2   0  14    2.71    1.69
  -2   0 -15    1.90    1.18
   2   0  15    0.52    1.20
   2   0  16    4.59    2.11
  -2  -1  17    5.82    2.54
   2   1 -16    3.51    1.82
  -2  -1  16    0.50    1.39
   2   1 -15   20.27    3.38
  -2  -1  15   16.43    3.05
   2   1 -14    4.92    2.26
  -2  -1  14    5.05    1.68
   2   1 -13    0.59    1.49
  -2  -1  13    1.81    1.40
   2   1 -12   -0.25    1.44
  -2  -1  12    5.41    2.08
   2   1 -11   77.62    4.89
  -2  -1  11   64.18    4.36
   2   1 -10  139.47    5.67
  -2  -1  10  119.26    5.53
   2   1  -9  688.34   13.47
  -2  -1   9  576.27   11.26
   2   1  -8   92.73    5.08
  -2  -1   8   77.29    3.57
   2   1  -7    2.44    0.74
  -2  -1   7    2.55    1.50
   2   1  -6    4.94    1.30
  -2  -1   6    2.49    0.78
   2   1  -5  139.21    4.69
  -2  -1   5  115.48    4.04
   2   1  -4 2473.27   18.45
  -2  -1   4 2210.79   14.57
   2   1  -3  154.12    2.77
   2   1  -3  148.66    3.90
  -2  -1   3  127.61    3.46
  -2  -1   2    0.44    0.20
  -2  -1   2    0.80    0.35
  -2  -1   2    0.39    0.52
  -2  -1   1    0.87    0.32
  -2  -1   1    0.97    0.34
  -2  -1   1    2.05    0.43
  -2  -1   0 2660.66   12.53
  -2  -1   0 2980.60   10.35
  -2  -1   0 3030.70   13.21
  -2  -1  -1  252.45    4.70
   2   1   1  313.84    5.49
  -2  -1  -4   15.62    1.42
  -2  -1  -4   15.91    1.04
   2   1   4   18.75    1.26
  -2  -1  -5    0.49    0.70
  -2  -1  -5    3.39    0.61
   2   1   5    0.78    0.60
  -2  -1  -6  192.03    4.90
  -2  -1  -6  270.36    6.05
   2   1   6  314.15    6.82
  -2  -1  -7   58.69    2.65
  -2  -1  -7   80.80    3.03
   2   1   7   88.44    3.27
  -2  -1  -8  118.00    4.09
  -2  -1  -8  171.36    6.62
   2   1   8  193.49    5.94
  -2  -1  -9   60.31    2.74
  -2  -1  -9   95.16    4.02
   2   1   9   98.29    3.95
  -2  -1 -10    8.59    1.18
  -2  -1 -10   17.39    4.27
   2   1  10   19.90    2.79
  -2  -1 -11   46.48    2.75
  -2  -1 -11   66.67    3.99
   2   1  11   76.58    4.27
  -2  -1 -12   53.95    4.22
   2   1  12   60.55    5.24
  -2  -1 -13   38.97    3.20
   2   1  13   36.49    3.33
  -2  -1 -14    0.79    1.03
   2   1  14    2.03    1.61
  -2  -1 -15    4.30    1.69
   2   1  15    3.40    1.53
   2   1  16    1.92    1.23
   2   2 -16    0.43    1.56
  -2  -2  16    1.38    1.50
   2   2 -15    5.96    2.57
  -2  -2  15    3.64    1.87
   2   2 -14    0.78    0.69
  -2  -2  14    2.84    2.15
   2   2 -13    3.54    1.30
  -2  -2  13    1.43    1.58
   2   2 -12    9.30    1.81
  -2  -2  12    7.60    1.77
   2   2 -11   56.84    4.01
  -2  -2  11   47.49    4.01
   2   2 -10    3.35    1.29
  -2  -2  10    3.87    1.65
   2   2  -9  117.08    5.14
  -2  -2   9   95.58    4.86
   2   2  -8    2.52    0.62
  -2  -2   8    2.49    0.62
   2   2  -7  142.03   11.67
  -2  -2   7  109.45    7.65
   2   2  -6  512.90   12.75
  -2  -2   6  496.25    9.79
   2   2  -5  124.48    2.51
   2   2  -5  145.52    5.69
  -2  -2   5  139.04    4.47
   2   2  -4   48.41    1.69
   2   2  -4   46.62    2.27
  -2  -2   4   43.62    2.22
   2   2  -3  693.19    5.40
  -2  -2   3  508.44    6.27
  -2  -2   3  538.03    6.14
   2   2  -2  433.64    7.24
  -2  -2   2  320.99    6.43
  -2  -2   2  347.16    6.51
   2   2  -1 1117.91    7.25
  -2  -2   1  883.81    7.33
  -2  -2   1  952.85    6.52
  -2  -2  -2    4.07    0.85
  -2  -2  -2    3.07    1.84
   2   2   2    4.45    0.82
  -2  -2  -3  148.26    3.87
  -2  -2  -3  173.40    4.09
   2   2   3  234.52    4.29
  -2  -2  -4  423.86    5.58
  -2  -2  -4  546.24    6.23
   2   2   4  670.33    5.70
  -2  -2  -5  478.05    8.85
  -2  -2  -5  638.09   11.20
   2   2   5  726.49   11.74
  -2  -2  -6    4.27    1.26
  -2  -2  -6    6.64    1.37
   2   2   6    7.42    0.96
  -2  -2  -7    3.17    0.86
  -2  -2  -7    5.10    0.97
   2   2   7    3.67    1.01
  -2  -2  -8    0.60    0.68
  -2  -2  -8   -0.84    0.99
   2   2   8    0.54    0.70
  -2  -2  -9    7.74    1.71
   2   2   9    5.48    1.35
   2   2  10    1.14    0.60
  -2  -2 -10    0.40    1.13
   2   2  10    1.38    1.32
   2   2  11   32.52    7.04
  -2  -2 -11   45.43    3.62
   2   2  11   40.65    6.91
   2   2  12   90.13    7.20
  -2  -2 -12  121.99    5.66
   2   2  12  108.96    5.07
  -2  -2 -13   85.72    4.80
   2   2  13   91.55    4.94
  -2  -2 -14    4.06    0.85
   2   2  14    7.04    1.95
  -2  -2 -15   -0.32    0.98
   2   2  15    0.84    1.03
  -2  -2 -16    0.38    1.08
   2   2  16    5.52    1.72
  -2  -3  16    1.08    1.48
   2   3 -15    2.86    1.67
  -2  -3  15    2.37    1.65
   2   3 -14   19.95    3.32
  -2  -3  14   21.04    3.19
   2   3 -13    9.00    3.08
  -2  -3  13    9.49    2.22
   2   3 -12    5.95    2.54
  -2  -3  12    0.81    2.15
   2   3 -11    5.25    1.71
  -2  -3  11    3.94    0.88
   2   3 -10    4.03    1.70
  -2  -3  10    5.32    1.68
   2   3  -9   24.83    5.34
  -2  -3   9   26.30    2.79
   2   3  -8   61.13   10.04
  -2  -3   8   55.82    3.49
   2   3  -7    3.62    1.00
  -2  -3   7   -0.27    0.98
   2   3  -6   25.25    1.08
   2   3  -6   28.18    7.50
  -2  -3   6   33.37    2.45
   2   3  -5   17.10    2.02
   2   3  -5   18.61    3.03
  -2  -3   5   17.98    1.84
   2   3  -4   97.37    2.60
  -2  -3   4   85.75    3.16
   2   3  -3 1200.32    8.20
  -2  -3   3  886.19    8.90
  -2  -3   3 1006.32    8.91
   2   3  -2  716.56    6.80
  -2  -3   2  490.32    6.15
  -2  -3   2  570.94    5.76
   2   3  -1  818.66    6.81
  -2  -3   1  540.67    6.12
  -2  -3   1  662.23    5.37
   2   3   0   20.27    3.49
  -2  -3   0   11.26    0.99
  -2  -3   0   13.85    0.68
   2   3   1  440.93    5.34
  -2  -3  -1  309.66    6.14
  -2  -3  -1  314.28    4.81
   2   3   2   21.46    3.38
  -2  -3  -2   12.61    1.05
   2   3   3  153.59    4.00
  -2  -3  -3  122.80    3.50
   2   3   3  151.07    2.71
   2   3   4  101.64    4.12
  -2  -3  -4   95.37    3.18
   2   3   4  108.73    2.46
   2   3   5  208.19    7.70
  -2  -3  -5  194.31    5.09
   2   3   5  222.28    4.56
   2   3   6  198.64    7.10
  -2  -3  -6  191.14    5.34
   2   3   6  196.06    5.73
   2   3   7  382.89   12.19
  -2  -3  -7  418.28    8.81
   2   3   7  384.34    9.93
   2   3   8    1.04    0.47
  -2  -3  -8   -0.15    0.61
   2   3   8    1.25    0.80
  -2  -3  -9    0.35    1.05
   2   3   9    0.62    0.66
   2   3  10   24.72    3.94
  -2  -3 -10   35.54    2.79
   2   3  10   28.10    2.36
   2   3  11    0.17    0.54
  -2  -3 -11   -1.54    1.25
   2   3  11    1.30    1.25
   2   3  12    8.93    2.41
  -2  -3 -12   10.20    2.11
   2   3  12   10.44    1.75
  -2  -3 -13   29.80    3.29
   2   3  13   21.95    2.51
  -2  -3 -14    0.26    1.31
   2   3  14    2.25    1.55
  -2  -3 -15    1.79    1.25
   2   3  15    4.36    1.82
  -2  -3 -16    0.96    1.25
  -2  -4  16   -0.04    1.39
   2   4 -15    2.34    2.01
  -2  -4  15    3.36    1.73
   2   4 -14    1.42    1.49
  -2  -4  14    2.83    2.43
  -2  -4  13   13.65    2.51
   2   4 -12    5.49    1.55
  -2  -4  12    9.26    2.49
   2   4 -11   12.01    2.77
  -2  -4  11    9.51    2.23
   2   4 -10   15.61    4.04
  -2  -4  10   13.58    2.32
   2   4  -9    0.88    0.59
  -2  -4   9   -0.25    1.22
   2   4  -8    4.97    1.11
  -2  -4   8    4.58    1.58
   2   4  -7    0.51    0.39
   2   4  -7    0.19    0.63
  -2  -4   7    1.50    1.63
   2   4  -6   89.36    3.58
   2   4  -6  104.66    4.59
  -2  -4   6  102.89    4.22
   2   4  -5  531.28    9.62
   2   4  -5  531.29   10.91
  -2  -4   5  574.41   11.19
   2   4  -4  219.09    5.08
  -2  -4   4  164.98    4.86
  -2  -4   4  206.68    5.36
   2   4  -3   32.75    6.09
  -2  -4   3   25.02    1.80
  -2  -4   3   30.92    1.77
   2   4  -2  205.62    4.79
  -2  -4   2  138.02    4.03
  -2  -4   2  171.92    4.06
   2   4  -1  366.95    7.30
  -2  -4   1  231.12    5.46
  -2  -4   1  296.41    5.55
   2   4   0   35.52    1.77
  -2  -4   0   22.50    1.50
  -2  -4   0   26.96    1.05
   2   4   1  491.29    6.09
  -2  -4  -1  323.28    4.93
  -2  -4  -1  370.97    5.68
   2   4   2   74.78    2.66
  -2  -4  -2   52.44    2.11
   2   4   3    1.21    0.34
  -2  -4  -3   -0.40    0.78
   2   4   4  265.39    7.41
  -2  -4  -4  198.83    5.20
   2   4   4  193.49    3.48
   2   4   5  452.91    9.37
  -2  -4  -5  375.38    8.05
   2   4   5  377.97    6.40
   2   4   6  995.68   11.43
  -2  -4  -6  907.87   10.96
   2   4   7  275.68    7.25
  -2  -4  -7  268.26    7.14
   2   4   7  247.61    5.22
   2   4   8  188.99    7.84
  -2  -4  -8  182.53    6.08
   2   4   8  167.07    4.83
   2   4   9    2.20    0.78
  -2  -4  -9    0.67    1.14
   2   4   9    0.36    0.61
   2   4  10    3.94    0.92
  -2  -4 -10    5.30    1.54
   2   4  10    4.53    1.04
   2   4  11    1.53    1.04
  -2  -4 -11    0.83    1.38
   2   4  12   16.91    3.27
  -2  -4 -12   17.68    2.53
   2   4  12   14.61    1.91
  -2  -4 -13   28.89    3.42
   2   4  13   22.71    2.51
  -2  -4 -14    1.60    1.33
   2   4  14    2.75    1.65
  -2  -4 -15   -0.74    1.28
   2   4  15    0.66    1.02
  -2  -4 -16    4.83    2.14
  -2  -4 -17    1.28    1.33
  -2  -5  15    3.12    2.15
   2   5 -14    2.88    1.72
  -2  -5  14   -0.89    1.27
   2   5 -13    4.96    2.20
  -2  -5  13    1.23    1.43
   2   5 -12   14.61    4.54
  -2  -5  12   15.86    2.78
   2   5 -11    2.83    1.46
  -2  -5  11    6.61    2.06
   2   5 -10   11.59    2.34
  -2  -5  10    7.87    1.98
   2   5  -9   91.76   12.85
  -2  -5   9   85.03    4.58
   2   5  -8   60.36   12.49
  -2  -5   8   67.76    4.19
   2   5  -7    6.92    1.11
   2   5  -7    6.70    1.39
  -2  -5   7    8.92    2.19
   2   5  -6  138.65    3.64
   2   5  -6  146.47    5.58
  -2  -5   6  158.62    4.90
   2   5  -5   22.14    2.92
  -2  -5   5   19.17    1.92
   2   5  -4    5.73    1.21
  -2  -5   4    3.86    0.85
  -2  -5   4    4.56    1.09
   2   5  -3   68.82    2.62
  -2  -5   3   53.92    2.73
  -2  -5   3   67.43    2.52
   2   5  -2   32.96    6.17
  -2  -5   2   23.94    1.97
  -2  -5   2   31.09    1.61
   2   5  -1   21.90    4.55
  -2  -5   1   10.77    1.33
  -2  -5   1   16.22    1.11
   2   5   0  452.69    9.16
  -2  -5   0  278.94    6.37
  -2  -5   0  377.83    6.33
   2   5   1   51.30    5.72
  -2  -5  -1   33.59    2.16
  -2  -5  -1   40.41    1.03
   2   5   2  804.20   13.97
  -2  -5  -2  513.39    9.80
   2   5   3   64.78    3.51
  -2  -5  -3   50.69    2.59
   2   5   4    5.06    1.18
  -2  -5  -4    2.71    0.91
   2   5   4    2.61    0.39
   2   5   5  550.68   12.55
  -2  -5  -5  422.37    8.75
   2   5   5  384.27    5.84
   2   5   6    1.01    0.53
  -2  -5  -6   -0.59    1.03
   2   5   6   -0.19    0.29
   2   5   7   63.16    8.20
  -2  -5  -7   47.72    3.02
   2   5   7   42.55    1.82
   2   5   8   10.06    1.27
  -2  -5  -8    5.64    1.30
   2   5   8    5.74    0.90
   2   5   9   68.11    3.33
  -2  -5  -9   54.65    3.41
   2   5   9   48.07    2.35
   2   5  10   36.63    5.23
  -2  -5 -10   31.26    3.02
   2   5  10   26.71    2.21
   2   5  11   34.41    5.82
  -2  -5 -11   29.60    2.79
   2   5  11   31.80    2.52
   2   5  12   49.67    3.64
  -2  -5 -12   48.77    4.56
   2   5  12   41.72    3.64
  -2  -5 -13    4.01    1.55
   2   5  13    1.86    0.90
  -2  -5 -14    2.61    1.68
   2   5  14    0.43    0.76
  -2  -5 -15    1.15    1.24
  -2  -5 -17    0.37    1.41
  -2  -6  15    2.14    2.61
  -2  -6  14    0.19    1.65
   2   6 -13    0.87    1.23
  -2  -6  13    0.54    1.43
   2   6 -12    4.13    1.39
  -2  -6  12    1.72    1.83
   2   6 -11    2.57    0.80
  -2  -6  11    3.73    1.99
   2   6 -10    0.81    0.60
  -2  -6  10    1.96    1.24
   2   6  -9    0.83    0.87
  -2  -6   9    0.91    1.24
   2   6  -8    1.25    0.63
   2   6  -8    5.10    1.00
  -2  -6   8    5.27    1.82
   2   6  -7   83.15    3.88
   2   6  -7  111.25    5.94
  -2  -6   7   98.41    4.44
   2   6  -6   33.59    2.19
   2   6  -6   34.56    4.73
  -2  -6   6   39.29    2.77
   2   6  -5   72.50    3.09
  -2  -6   5   58.51    3.36
  -2  -6   5   72.35    3.36
   2   6  -4   22.51    4.98
  -2  -6   4   21.07    2.14
  -2  -6   4   28.51    2.24
   2   6  -3  273.16    9.04
  -2  -6   3  203.00    6.06
  -2  -6   3  270.09    6.81
   2   6  -2  159.90    7.66
  -2  -6   2  119.36    4.13
  -2  -6   2  161.69    4.21
   2   6  -1  224.57    6.57
  -2  -6   1  152.02    4.69
  -2  -6   1  210.30    4.51
   2   6   0   95.80    3.66
  -2  -6   0   61.25    2.93
  -2  -6   0   86.53    2.15
   2   6   1   17.14    1.63
  -2  -6  -1   11.20    1.35
  -2  -6  -1   13.74    0.77
   2   6   2  702.20   12.41
  -2  -6  -2  427.32    8.51
  -2  -6  -2  592.00    8.03
   2   6   3  375.60    8.28
  -2  -6  -3  238.63    6.13
   2   6   4   47.80    7.91
  -2  -6  -4   30.38    2.27
   2   6   5  101.34    3.74
  -2  -6  -5   72.31    3.42
   2   6   6   92.21   11.11
  -2  -6  -6   60.02    3.55
   2   6   6   47.68    1.73
   2   6   7   95.71    3.78
  -2  -6  -7   72.92    3.88
   2   6   7   59.94    2.05
   2   6   8   68.00    3.36
  -2  -6  -8   57.51    3.63
   2   6   8   46.26    2.16
   2   6   9    1.18    0.93
  -2  -6  -9    0.48    1.19
   2   6   9    0.00    0.45
   2   6  10   35.84    2.74
  -2  -6 -10   21.44    2.63
   2   6  10   17.08    1.96
   2   6  11   13.63    2.56
  -2  -6 -11   18.19    2.73
   2   6  11   11.11    1.53
   2   6  12    5.76    1.75
  -2  -6 -12    3.07    1.52
   2   6  12    3.25    1.15
  -2  -6 -13   28.29    3.45
  -2  -6 -14    0.74    1.36
  -2  -6 -15    1.07    1.46
  -2  -6 -16    0.17    1.30
  -2  -6 -17   -0.91    1.46
  -2  -7  14    6.11    2.32
  -2  -7  13   10.09    2.76
   2   7 -12    1.17    1.62
  -2  -7  12    3.66    1.49
   2   7 -11    3.22    0.93
  -2  -7  11    7.36    2.57
   2   7 -10    2.45    0.83
  -2  -7  10    0.49    1.21
   2   7  -9    1.49    0.56
  -2  -7   9    0.67    0.72
   2   7  -8    7.24    1.32
   2   7  -8   10.24    2.38
  -2  -7   8   12.68    2.19
   2   7  -7    1.55    0.95
   2   7  -7    1.06    0.74
  -2  -7   7    1.39    1.08
   2   7  -6   13.77    1.77
   2   7  -6   12.05    1.82
  -2  -7   6   13.09    2.04
   2   7  -5   23.12    2.09
  -2  -7   5   18.20    2.23
  -2  -7   5   25.48    2.49
   2   7  -4   17.53    1.96
  -2  -7   4   17.05    2.17
  -2  -7   4   15.70    1.93
   2   7  -3  104.79    4.26
  -2  -7   3   79.74    3.69
  -2  -7   3  101.77    3.63
   2   7  -2  126.55    4.84
  -2  -7   2   88.00    3.91
  -2  -7   2  116.38    3.91
   2   7  -1   59.33    9.87
  -2  -7   1   36.01    2.32
  -2  -7   1   51.72    2.09
   2   7   0    4.35    0.92
  -2  -7   0    1.90    0.85
  -2  -7   0    2.65    0.63
   2   7   1   38.72    2.84
  -2  -7  -1   23.05    2.04
  -2  -7  -1   32.21    2.78
   2   7   2  222.90    7.10
  -2  -7  -2  142.49    4.95
  -2  -7  -2  186.65    4.14
   2   7   3   54.89    9.43
  -2  -7  -3   31.40    2.46
   2   7   4  286.06    9.61
  -2  -7  -4  187.31    6.02
   2   7   5   58.87    9.92
  -2  -7  -5   34.55    2.59
   2   7   6  107.25    5.04
  -2  -7  -6   75.39    3.90
   2   7   7  118.58    5.42
  -2  -7  -7   87.16    4.50
   2   7   8    9.49    2.21
  -2  -7  -8    5.68    1.66
   2   7   9    2.78    1.05
  -2  -7  -9    1.15    1.32
   2   7  10    3.55    1.10
  -2  -7 -10    2.01    1.45
   2   7  11   26.03    5.75
  -2  -7 -11   22.08    3.20
   2   7  12    1.70    1.13
  -2  -7 -12    1.20    1.39
  -2  -7 -13    1.01    1.35
  -2  -7 -14    5.82    2.19
  -2  -7 -15    3.39    1.57
  -2  -7 -16    0.63    1.40
  -2  -7 -17   -0.94    1.45
  -2  -8  13    3.33    1.79
  -2  -8  12   10.51    2.50
  -2  -8  11    0.73    1.47
   2   8 -10    1.89    0.92
  -2  -8  10    5.13    1.80
   2   8  -9   10.05    2.82
  -2  -8   9   10.82    2.29
   2   8  -8   12.43    3.16
  -2  -8   8   14.86    2.20
   2   8  -7    1.71    0.90
   2   8  -7    1.54    0.91
  -2  -8   7    2.83    1.31
   2   8  -6   13.04    1.83
   2   8  -6   11.86    2.89
  -2  -8   6   18.01    2.45
   2   8  -5   20.10    4.28
  -2  -8   5   15.09    1.88
  -2  -8   5   19.14    2.18
   2   8  -4    5.04    1.08
  -2  -8   4    2.75    1.19
  -2  -8   4    2.17    0.85
   2   8  -3  548.83   22.22
  -2  -8   3  427.04   16.11
  -2  -8   3  576.86   20.47
   2   8  -2    0.58    0.84
  -2  -8   2    0.60    1.15
  -2  -8   2    1.04    1.30
   2   8  -1  113.97    4.77
  -2  -8   1   77.18    3.68
  -2  -8   1  116.08    3.47
   2   8   0    7.46    1.22
  -2  -8   0    5.17    1.18
  -2  -8   0    6.88    1.05
   2   8   1    1.21    0.43
  -2  -8  -1    0.64    0.87
  -2  -8  -1    0.79    0.54
   2   8   2    2.71    1.24
  -2  -8  -2    0.42    0.88
  -2  -8  -2    0.41    0.14
   2   8   3    4.68    1.29
  -2  -8  -3    0.93    1.02
   2   8   4   25.06    4.84
  -2  -8  -4   16.41    1.98
   2   8   5   74.56   10.84
  -2  -8  -5   51.42    3.53
   2   8   6   21.23    2.22
  -2  -8  -6   10.71    1.77
   2   8   7   29.18    5.41
  -2  -8  -7   18.50    2.36
   2   8   8  471.85   12.32
  -2  -8  -8  361.67    9.38
   2   8   9   46.15    7.21
  -2  -8  -9   34.73    3.21
   2   8  10    1.06    0.78
  -2  -8 -10    1.52    1.38
   2   8  11    3.28    0.97
  -2  -8 -11    2.35    1.36
   2   8  12    1.23    0.71
  -2  -8 -12    1.82    1.27
  -2  -8 -13    1.69    1.33
  -2  -8 -14   -1.65    1.27
  -2  -8 -15    4.26    2.18
  -2  -8 -16    0.87    1.33
  -2  -9  11    2.32    1.99
  -2  -9  10    0.93    1.42
   2   9  -9    6.53    3.00
  -2  -9   9   13.23    2.38
   2   9  -8   20.24    4.39
  -2  -9   8   27.72    3.17
   2   9  -7    4.63    1.35
   2   9  -7    5.79    1.09
  -2  -9   7    8.40    2.06
   2   9  -6    7.66    1.57
   2   9  -6    8.94    1.97
  -2  -9   6   10.23    1.74
   2   9  -5   32.56    3.14
  -2  -9   5   28.31    2.78
  -2  -9   5   31.78    3.06
   2   9  -4    8.30    1.91
  -2  -9   4    6.63    1.44
  -2  -9   4    4.72    1.36
   2   9  -3    5.90    1.34
  -2  -9   3    3.96    1.28
  -2  -9   3    5.12    1.32
   2   9  -2   10.87    2.72
  -2  -9   2    7.13    1.48
  -2  -9   2   12.20    1.62
   2   9  -1  157.26    8.96
  -2  -9   1  118.50    6.27
  -2  -9   1  167.41    6.96
   2   9   0    1.60    1.20
  -2  -9   0    0.59    0.97
  -2  -9   0    0.60    0.73
   2   9   1   36.72    3.11
  -2  -9  -1   22.09    2.42
   2   9   2    1.48    1.52
  -2  -9  -2    1.16    1.08
   2   9   3  721.39   30.52
  -2  -9  -3  440.15   16.61
   2   9   4   29.96    6.07
  -2  -9  -4   16.94    2.07
   2   9   5  109.92    5.05
  -2  -9  -5   68.22    4.24
   2   9   6  300.29   29.57
  -2  -9  -6  212.21    6.76
   2   9   7   88.64   14.27
  -2  -9  -7   69.84    4.23
   2   9   8    7.42    1.63
  -2  -9  -8    2.70    1.67
   2   9   9   45.17    8.01
  -2  -9  -9   36.81    3.54
   2   9  10   -0.33    1.01
  -2  -9 -10    0.30    1.32
   2   9  11    0.90    0.90
  -2  -9 -11    3.22    1.96
   2   9  12    9.88    1.74
  -2  -9 -12    8.86    2.49
  -2  -9 -13    0.49    1.36
  -2  -9 -14    1.36    1.37
  -2  -9 -15    0.84    1.43
  -2  -9 -16    1.38    1.54
  -2 -10  10    1.45    1.42
  -2 -10   9    1.33    1.75
  -2 -10   8   12.63    2.48
   2  10  -7    2.63    1.41
   2  10  -7    4.97    1.08
  -2 -10   7    6.15    1.89
   2  10  -6    4.23    1.55
   2  10  -6    1.21    1.12
  -2 -10   6    6.07    1.79
   2  10  -5    0.85    1.03
  -2 -10   5    2.43    1.03
  -2 -10   5    0.57    0.96
   2  10  -4    1.17    1.07
  -2 -10   4    0.05    0.76
  -2 -10   4    0.40    0.85
   2  10  -3   12.47    2.57
  -2 -10   3    9.42    1.74
  -2 -10   3   14.41    1.96
   2  10  -2   11.07    2.78
  -2 -10   2    6.30    1.47
  -2 -10   2   11.12    1.61
   2  10  -1    0.86    0.66
  -2 -10   1    3.16    1.64
  -2 -10   1    1.57    0.89
   2  10   0    1.39    0.89
  -2 -10   0    1.27    1.03
   2  10   1    6.71    1.94
  -2 -10  -1    2.22    1.05
   2  10   2  166.39   22.80
  -2 -10  -2  111.55    4.94
   2  10   3    6.96    2.19
  -2 -10  -3    0.81    1.07
   2  10   4  171.34    6.75
  -2 -10  -4  116.35    5.10
   2  10   5    1.21    0.86
  -2 -10  -5    2.56    1.32
   2  10   6   97.41    6.66
  -2 -10  -6   60.88    5.05
   2  10   7   25.37    3.28
  -2 -10  -7   15.35    2.87
   2  10   8   21.20    5.11
  -2 -10  -8   19.74    3.26
   2  10   9    4.73    2.55
  -2 -10  -9    4.14    1.71
   2  10  10    2.54    1.25
  -2 -10 -10    3.15    1.51
   2  10  11    0.69    1.09
  -2 -10 -11    1.14    1.25
   2  10  12    2.11    1.62
  -2 -10 -12    0.08    1.23
  -2 -10 -13    2.70    1.60
  -2 -10 -14   11.10    2.85
  -2 -10 -15    2.48    2.03
   2  11  -6    2.27    1.19
   2  11  -5    3.15    1.96
  -2 -11   5    0.37    0.89
  -2 -11   5    0.20    0.88
   2  11  -4    1.04    1.11
  -2 -11   4    1.55    1.02
  -2 -11   4    1.13    1.01
   2  11  -3    9.17    1.83
  -2 -11   3   10.02    2.14
   2  11  -2   14.02    2.45
  -2 -11   2   10.65    1.96
   2  11  -1   -0.67    1.23
  -2 -11   1    1.03    0.76
   2  11   0    4.16    1.07
  -2 -11   0    1.34    0.93
   2  11   1   12.92    3.54
  -2 -11  -1    8.22    1.92
   2  11   2    0.89    1.26
  -2 -11  -2    0.41    0.92
   2  11   3   11.30    2.39
  -2 -11  -3    6.24    1.75
   2  11   4    2.01    0.90
  -2 -11  -4    1.19    1.12
   2  11   5    2.35    1.22
  -2 -11  -5    2.76    1.29
   2  11   6    7.34    1.63
  -2 -11  -6    3.32    1.73
   2  11   7    1.05    0.66
  -2 -11  -7    2.53    1.42
   2  11   8   -0.78    1.26
  -2 -11  -8   -0.63    1.07
   2  11   9    4.52    2.23
  -2 -11  -9    5.62    2.02
   2  11  10    1.95    1.36
  -2 -11 -10    2.43    1.38
   2  11  11    0.70    0.89
  -2 -11 -11    0.80    1.16
  -2 -11 -12    4.81    2.34
  -2 -11 -13    0.89    1.50
  -2 -11 -14    5.33    1.88
   2  12  -5   -0.44    1.14
   2  12  -4    2.04    1.79
   2  12  -3    3.17    1.15
   2  12  -2    0.42    0.83
  -2 -12   2    2.59    1.84
   2  12  -1   20.77    4.73
  -2 -12   1   15.93    2.47
   2  12   0    1.97    1.19
  -2 -12   0    1.07    0.90
   2  12   1   11.38    2.45
  -2 -12  -1   11.31    2.09
   2  12   2   -2.09    1.47
  -2 -12  -2    0.62    1.01
   2  12   3    2.21    0.90
  -2 -12  -3    0.96    1.05
   2  12   4    1.88    2.06
  -2 -12  -4    1.99    1.37
   2  12   5    2.07    1.52
  -2 -12  -5    1.28    1.02
   2  12   6   14.92    2.96
  -2 -12  -6    8.52    1.97
   2  12   7    1.92    1.49
  -2 -12  -7    1.34    1.26
   2  12   8   16.28    4.85
  -2 -12  -8    4.49    1.71
   2  12   9    0.77    0.79
  -2 -12  -9    0.19    1.19
   2  12  10    2.69    1.53
  -2 -12 -10    1.66    1.36
  -2 -12 -11    1.48    1.43
  -2 -12 -12    0.00    1.19
  -2 -12 -13    1.34    1.48
   2  13  -4    5.90    2.52
   2  13  -3    1.73    0.80
   2  13  -2    4.11    1.29
   2  13  -1    9.98    3.65
   2  13   0    0.78    1.47
   2  13   1   13.87    3.10
   2  13   2   20.20    4.68
  -2 -13  -2   18.81    3.09
   2  13   3    0.81    0.61
  -2 -13  -3    0.14    0.90
   2  13   4   11.88    4.24
  -2 -13  -4   11.75    2.28
   2  13   5    1.02    1.56
  -2 -13  -5   -0.09    0.89
   2  13   6    0.20    1.43
  -2 -13  -6    3.93    1.75
   2  13   7   -0.63    1.34
  -2 -13  -7    1.94    1.31
   2  13   8   -0.38    1.32
  -2 -13  -8    1.70    1.33
   2  13   9    1.87    1.47
  -2 -13  -9    1.35    1.29
  -2 -13 -10    9.92    2.68
   2  14  -2    4.32    1.54
   2  14  -1    1.14    0.69
   2  14   0    7.02    2.11
   2  14   1    1.61    1.58
   2  14   2    0.73    0.67
   2  14   3    1.04    1.59
   2  14   4   14.16    5.26
   2  14   5    3.65    1.78
   2  14   6    1.48    0.94
   2  14   8    0.67    0.89
   2  15   1   -1.10    1.42
   2  15   2    1.55    1.67
   2  15   3   42.08    5.03
   2  15   4    1.25    1.48
   2  15   5    5.77    2.69
   2  15   6    1.55    1.48
  -3  12   5    1.51    1.75
  -3  12   4    1.80    1.32
  -3  12   3    2.77    1.82
  -3  12   2    1.15    1.36
  -3  12   1   10.02    2.75
  -3  12   0    2.45    1.61
  -3  12  -1   16.51    3.39
  -3  12  -2    4.38    2.30
  -3  12  -3    1.61    1.49
  -3  12  -4    3.49    1.94
  -3  11   6    9.96    2.54
  -3  11   5    5.03    2.46
  -3  11   4    4.75    1.99
  -3  11   3   11.52    3.07
   3 -11  -3    7.99    2.59
  -3  11   2   -0.55    1.20
   3 -11  -2    2.49    1.54
  -3  11   1    3.25    1.51
   3 -11  -1    2.72    0.76
  -3  11   0    8.16    2.28
   3 -11   0    7.40    1.80
  -3  11  -1    3.94    2.02
   3 -11   1    4.20    2.01
  -3  11  -2    1.55    1.45
   3 -11   2    1.89    1.45
  -3  11  -3    7.86    2.01
   3 -11   3    9.67    2.17
  -3  11  -4    1.04    1.37
   3 -11   4    3.11    1.00
  -3  11  -5    3.41    2.01
  -3  11  -6    3.41    1.94
  -3  10   7    3.12    1.52
   3 -10  -7    0.63    0.74
  -3  10   6   10.95    2.77
   3 -10  -6   16.42    2.70
  -3  10   5   64.47    6.71
   3 -10  -5   57.54    5.55
  -3  10   4    7.77    2.17
   3 -10  -4    4.84    1.16
  -3  10   3   65.50    5.00
   3 -10  -3   48.58    9.15
  -3  10   2   15.64    3.60
   3 -10  -2   12.32    2.85
  -3  10   1    2.26    1.47
   3 -10  -1    1.05    1.16
  -3  10   0   -0.99    1.20
   3 -10   0    1.92    0.61
  -3  10  -1   -0.06    1.16
   3 -10   1    2.00    0.78
  -3  10  -2    9.61    2.69
   3 -10   2    8.34    1.72
  -3  10  -3    1.35    1.46
   3 -10   3    0.48    1.30
  -3  10  -4    1.79    1.87
   3 -10   4   -1.21    1.37
  -3  10  -5   -0.55    1.26
   3 -10   5    2.65    2.33
  -3  10  -6   15.14    3.42
   3 -10   6   27.65    4.19
  -3  10  -7    0.98    1.30
   3 -10   7    1.46    1.54
   3 -10   8    8.91    3.43
  -3   9   8   10.80    2.06
   3  -9  -8    7.53    1.90
  -3   9   7    1.41    1.09
   3  -9  -7    0.29    0.56
  -3   9   6    4.95    1.61
   3  -9  -6    5.59    1.45
  -3   9   5   22.73    2.78
  -3   9   4   51.16   12.24
   3  -9  -4   50.68    3.74
  -3   9   3    1.01    1.14
   3  -9  -3    1.94    0.93
  -3   9   2    6.35    1.89
   3  -9  -2    4.39    1.86
  -3   9   1    1.33    1.54
   3  -9  -1    0.89    0.86
  -3   9   0    3.80    1.65
   3  -9   0    5.38    1.31
  -3   9  -1    2.32    1.34
   3  -9   1    1.79    1.14
  -3   9  -2    0.04    1.14
   3  -9   2    1.75    1.42
  -3   9  -3    0.57    1.12
   3  -9   3    1.46    1.91
  -3   9  -4    0.72    1.27
   3  -9   4    0.59    1.36
  -3   9  -5    2.93    1.45
   3  -9   5    8.20    2.68
  -3   9  -6   13.30    2.76
   3  -9   6   10.87    2.32
  -3   9  -7    6.58    2.00
   3  -9   7   18.46    3.31
  -3   9  -8   -0.29    1.16
   3  -9   8    0.64    1.49
   3  -9   9    6.44    2.10
   3  -9  10    1.65    1.90
   3  -8 -12    0.81    1.21
   3  -8 -11    1.94    1.24
  -3   8  11    0.49    1.18
   3  -8 -10    1.76    1.09
  -3   8  10    2.32    1.32
   3  -8  -9    8.82    2.00
  -3   8   9    7.67    1.52
  -3   8   8   23.95    2.36
   3  -8  -8   24.39    2.72
  -3   8   8   20.00    2.28
  -3   8   7   29.76    2.75
   3  -8  -7   29.04    2.68
   3  -8  -6    3.62    1.30
   3  -8  -6    0.51    0.52
  -3   8   5   11.93    2.08
   3  -8  -5    9.23    1.40
   3  -8  -5   11.54    2.52
  -3   8   4   66.87    5.01
   3  -8  -4   51.90   10.24
  -3   8   3    0.49    1.11
   3  -8  -3    0.52    1.05
  -3   8   2    2.93    1.75
   3  -8  -2    4.47    0.83
  -3   8   1    2.04    1.21
   3  -8  -1    3.44    0.73
  -3   8   0   17.72    2.89
   3  -8   0   21.51    3.26
  -3   8  -1   19.00    2.82
   3  -8   1   22.51    4.35
  -3   8  -2   15.28    2.38
   3  -8   2   23.83    4.14
  -3   8  -3    3.24    1.38
   3  -8   3    4.56    1.47
  -3   8  -4    9.82    2.37
   3  -8   4   12.63    2.29
  -3   8  -5    6.77    2.37
   3  -8   5    9.14    2.69
  -3   8  -6    0.45    1.24
   3  -8   6    3.68    2.24
  -3   8  -7    0.78    1.27
   3  -8   7    3.05    2.31
  -3   8  -8    3.78    1.95
   3  -8   8    1.83    1.24
  -3   8  -9    1.90    1.56
   3  -8   9   -0.16    1.46
   3  -8  10    2.93    1.86
   3  -8  11    4.40    2.50
   3  -7 -14    2.74    1.65
   3  -7 -13    4.94    1.77
   3  -7 -12    0.06    1.37
  -3   7  12    0.02    0.89
   3  -7 -11   10.43    2.04
  -3   7  11    7.22    1.78
   3  -7 -10    3.43    1.75
  -3   7  10    2.93    1.46
   3  -7  -9   12.68    3.06
  -3   7   9   10.14    1.86
  -3   7   8    1.06    1.05
   3  -7  -8   -0.23    0.91
  -3   7   8    1.33    0.92
  -3   7   7    2.44    1.30
   3  -7  -7    1.81    0.98
  -3   7   7    1.19    1.28
  -3   7   6   26.14    2.90
   3  -7  -6   23.59    3.83
  -3   7   6   19.84    2.23
  -3   7   5   39.76    3.12
   3  -7  -5   31.30    2.28
   3  -7  -5   33.52    5.07
  -3   7   4   53.95    3.62
   3  -7  -4   45.33    2.57
   3  -7  -4   45.25    9.99
  -3   7   3    4.43    1.63
   3  -7  -3    0.75    0.57
   3  -7  -3    2.33    0.82
  -3   7   2   26.17    2.62
   3  -7  -2   27.24    2.71
  -3   7   1   18.02    2.97
   3  -7  -1   14.63    3.48
  -3   7   0   15.41    2.33
   3  -7   0   16.47    3.27
  -3   7  -1    8.17    2.01
   3  -7   1   11.37    1.71
  -3   7  -2   30.07    3.22
   3  -7   2   37.19    5.63
  -3   7  -3    7.60    1.91
   3  -7   3    9.42    2.02
  -3   7  -4   -0.49    1.16
   3  -7   4    6.35    2.17
  -3   7  -5    7.64    2.05
   3  -7   5    9.41    2.24
  -3   7  -6   18.44    2.53
   3  -7   6   26.36    3.21
  -3   7  -7    4.87    1.83
   3  -7   7   10.05    2.60
  -3   7  -8    2.61    1.81
   3  -7   8    2.14    1.67
  -3   7  -9    0.91    1.01
   3  -7   9    3.08    1.97
  -3   7 -10    0.61    0.99
   3  -7  10    6.74    6.51
   3  -7  11    1.03    1.63
   3  -7  12    3.39    2.31
   3  -6 -15   26.66    3.88
   3  -6 -14   48.18    4.74
   3  -6 -13    0.72    1.38
  -3   6  13    1.82    1.22
   3  -6 -12   -0.80    1.45
  -3   6  12    1.95    1.22
  -3   6  11   17.10    2.38
   3  -6 -10    1.88    1.28
  -3   6  10    1.15    1.33
   3  -6  -9    2.56    1.08
  -3   6   9    3.06    1.30
  -3   6   8    2.35    1.10
  -3   6   8    1.45    0.96
  -3   6   7    1.11    0.87
   3  -6  -7    0.11    0.90
  -3   6   7    0.37    0.99
  -3   6   6  344.42    7.96
   3  -6  -6  386.45    7.70
  -3   6   6  301.44    7.68
  -3   6   5   96.70    4.21
   3  -6  -5  100.74    3.79
  -3   6   5   86.68    4.10
  -3   6   4   -1.36    1.10
   3  -6  -4    0.68    0.35
   3  -6  -4   -0.52    1.18
  -3   6   3  569.25   20.93
   3  -6  -3  521.03   18.07
   3  -6  -3  611.17   22.54
  -3   6   2    2.53    1.30
   3  -6  -2    0.93    1.02
  -3   6   1    4.65    1.26
   3  -6  -1    6.14    1.66
  -3   6   0  381.69    8.87
   3  -6   0  441.13   20.98
  -3   6  -1   28.61    2.98
   3  -6   1   35.97    6.36
  -3   6  -2   85.57    5.17
   3  -6   2  131.48   15.95
  -3   6  -3    0.11    1.15
   3  -6   3    2.38    1.20
  -3   6  -4    1.35    1.72
   3  -6   4    2.51    2.06
  -3   6  -5    2.43    1.48
   3  -6   5    2.00    2.03
  -3   6  -6   -0.30    1.15
   3  -6   6    3.53    1.80
  -3   6  -7   77.23    4.55
   3  -6   7  133.60    6.32
  -3   6  -8    0.68    1.05
   3  -6   8    2.29    1.79
  -3   6  -9    1.80    1.33
   3  -6   9    0.97    1.53
  -3   6 -10    0.98    0.89
   3  -6  10    3.23    1.56
  -3   6 -11   -0.72    0.95
   3  -6  11    1.52    2.23
   3  -6  12    2.00    1.66
   3  -6  13    0.46    1.59
   3  -5 -16    2.01    1.66
   3  -5 -15    4.34    2.46
   3  -5 -14    2.09    1.77
  -3   5  14    0.03    1.08
   3  -5 -13    5.50    1.41
  -3   5  13    4.02    1.89
   3  -5 -12   26.95    3.61
  -3   5  12   21.81    2.86
   3  -5 -11   12.65    2.40
  -3   5  11   11.37    1.88
   3  -5 -10   24.28    2.91
  -3   5  10   18.77    2.63
   3  -5  -9    1.14    1.30
  -3   5   9    2.75    1.41
  -3   5   8    2.08    0.45
   3  -5  -8    0.74    1.13
  -3   5   8    1.02    1.01
  -3   5   7    8.22    1.71
   3  -5  -7   10.80    1.60
  -3   5   7    6.70    1.58
  -3   5   6   11.60    2.11
   3  -5  -6   12.88    2.16
  -3   5   6   12.72    1.86
  -3   5   5   32.00    5.42
   3  -5  -5   38.55    2.39
  -3   5   5   31.35    4.57
  -3   5   4  814.99   10.32
   3  -5  -4  852.13    9.47
  -3   5   4  708.64   11.23
  -3   5   3   76.14    3.55
   3  -5  -3   78.30    2.66
   3  -5  -2    0.93    0.52
   3  -5  -2    1.03    0.57
  -3   5   1   88.43    3.84
   3  -5  -1  109.75    4.35
  -3   5   0   47.51    3.06
   3  -5   0   58.47    3.61
  -3   5  -1    3.21    1.19
   3  -5   1    4.20    0.94
  -3   5  -2   68.74    3.50
   3  -5   2   94.66    4.34
  -3   5  -3    2.77    1.25
   3  -5   3    5.89    1.48
  -3   5  -4   13.62    1.91
   3  -5   4   18.73    3.80
  -3   5  -5    1.33    1.51
   3  -5   5    3.65    1.41
  -3   5  -6   78.96    4.57
   3  -5   6  124.70    5.94
  -3   5  -7   46.53    3.74
   3  -5   7   75.07    4.99
  -3   5  -8   49.64    4.08
   3  -5   8   69.27    5.48
  -3   5  -9    5.31    1.73
   3  -5   9    5.04    1.88
  -3   5 -10   -0.45    0.85
   3  -5  10    1.78    1.35
  -3   5 -11    1.10    1.22
   3  -5  11    2.22    1.80
   3  -5  12    4.16    1.90
   3  -5  13    0.08    1.44
   3  -5  14    2.16    1.68
   3  -4 -16    3.37    1.84
   3  -4 -15    2.34    1.69
  -3   4  15    1.52    1.19
   3  -4 -14    6.29    2.46
  -3   4  14    3.94    1.93
   3  -4 -13    0.42    1.56
  -3   4  13    1.44    1.21
   3  -4 -12   11.60    2.47
  -3   4  12    5.72    1.49
   3  -4 -11    1.13    1.63
  -3   4  11    0.09    1.04
   3  -4 -10   38.54    3.84
  -3   4  10   19.60    2.56
   3  -4  -9   63.45    4.13
  -3   4   9   53.69    3.81
   3  -4  -8   22.88    2.49
  -3   4   8   18.52    2.52
  -3   4   7    2.91    0.77
   3  -4  -7    2.39    1.26
  -3   4   7    5.17    1.42
  -3   4   6   18.18    3.08
   3  -4  -6   29.44    2.65
  -3   4   6   20.34    1.98
  -3   4   5   26.53    1.89
   3  -4  -5   38.52    2.61
  -3   4   5   28.86    2.46
  -3   4   4   25.89    4.82
   3  -4  -4   30.01    2.25
  -3   4   4   22.98    2.26
  -3   4   3   49.59    3.44
   3  -4  -3   59.23    2.34
  -3   4   3   47.50    3.02
  -3   4   2   64.37    3.15
   3  -4  -2   70.34    2.19
   3  -4  -2   66.12    3.10
  -3   4   1   45.44    2.72
   3  -4  -1   37.47    3.97
   3  -4  -1   46.88    6.91
  -3   4   0  249.70    6.48
  -3   4  -1   13.91    1.65
   3  -4   1   19.07    3.10
  -3   4  -2  101.59    4.31
   3  -4   2  151.28    7.26
  -3   4  -3   11.39    1.61
   3  -4   3   20.50    4.26
  -3   4  -4   11.85    1.80
   3  -4   4   20.94    3.29
  -3   4  -5   17.13    1.93
   3  -4   5   26.57    3.03
  -3   4  -6    4.40    1.21
   3  -4   6    5.08    1.64
  -3   4  -7   62.77    3.73
   3  -4   7   93.96    4.81
  -3   4  -8    1.43    0.92
   3  -4   8    1.36    1.59
  -3   4  -9   -1.29    0.90
   3  -4   9    1.56    1.66
  -3   4 -10    7.34    1.84
   3  -4  10   17.21    4.48
  -3   4 -11    1.05    0.96
   3  -4  11    3.74    2.29
   3  -4  12    1.45    1.63
   3  -4  13    1.59    1.60
   3  -4  14    1.23    1.61
   3  -4  15    0.96    2.05
   3  -3 -16    2.28    1.71
  -3   3  16    2.50    1.46
   3  -3 -15    0.53    1.62
  -3   3  15    4.58    1.97
   3  -3 -14    0.92    1.83
  -3   3  14    0.84    1.12
   3  -3 -13   11.69    2.84
  -3   3  13    9.05    2.50
   3  -3 -12    3.42    2.25
  -3   3  12    0.34    1.16
   3  -3 -11   30.71    3.66
  -3   3  11   22.44    2.71
   3  -3 -10    4.13    2.00
  -3   3  10    1.79    1.05
   3  -3  -9   73.87   11.91
  -3   3   9   46.45    3.55
   3  -3  -8  266.87   11.09
  -3   3   8  198.81    8.90
  -3   3   7  324.78    7.69
  -3   3   6  320.10    4.77
   3  -3  -6  417.67    7.54
  -3   3   6  319.72    7.17
  -3   3   5   32.18    1.83
   3  -3  -5   41.77    2.54
  -3   3   5   26.45    2.13
  -3   3   4  111.47    3.08
   3  -3  -4  157.01    4.54
  -3   3   4  111.93    4.13
  -3   3   3   40.31    2.04
   3  -3  -3   55.30    2.31
  -3   3   3   48.57    5.64
  -3   3   2    4.19    0.87
   3  -3  -2    3.62    0.59
  -3   3   2    2.86    0.82
  -3   3   1    1.84    0.61
   3  -3  -1    1.87    0.47
   3  -3  -1    2.38    0.51
  -3   3   0  233.98    5.95
   3  -3   0  249.97    4.14
   3  -3   0  261.74    8.78
  -3   3  -1  532.58   10.18
   3  -3   1  627.65   14.82
  -3   3  -2   64.97    3.24
   3  -3   2   83.90    4.16
  -3   3  -3   78.88    3.65
   3  -3   3  105.26    3.82
  -3   3  -4   23.75    2.38
   3  -3   4   32.95    6.37
  -3   3  -5   33.19    2.70
   3  -3   5   50.56    3.02
  -3   3  -6   44.11    2.83
   3  -3   6   72.57    3.85
  -3   3  -7    6.37    1.61
   3  -3   7    9.76    1.88
  -3   3  -8    3.06    1.27
   3  -3   8    6.20    1.85
  -3   3  -9    1.57    0.96
   3  -3   9    3.25    2.09
  -3   3 -10    3.98    1.41
   3  -3  10    1.11    1.50
  -3   3 -11   20.68    2.73
   3  -3  11   28.64    3.65
  -3   3 -12    0.62    0.87
   3  -3  12    4.46    1.92
   3  -3  13    7.15    2.13
   3  -3  14    0.63    1.47
   3  -3  15    1.52    1.47
   3  -2 -16    1.80    2.37
  -3   2  16    3.30    1.82
   3  -2 -15    0.28    1.75
  -3   2  15    1.92    1.85
   3  -2 -14   26.23    5.89
  -3   2  14   19.30    2.99
   3  -2 -13    4.52    2.59
  -3   2  13    0.44    1.21
   3  -2 -12  149.45    7.17
  -3   2  12  115.55    5.97
   3  -2 -11    1.49    1.66
  -3   2  11    0.79    1.20
   3  -2 -10   49.17    3.96
  -3   2  10   39.25    3.74
   3  -2  -9    3.07    2.02
  -3   2   9   -0.60    1.17
   3  -2  -8  655.56   12.16
  -3   2   8  493.54   10.07
   3  -2  -7  164.50    5.38
  -3   2   7  120.27    4.69
  -3   2   6    5.39    0.65
   3  -2  -6   10.12    1.53
  -3   2   6    9.07    1.53
  -3   2   5  120.04    3.04
   3  -2  -5  183.33    5.24
  -3   2   5  132.07    4.49
  -3   2   4    1.50    0.50
   3  -2  -4    1.08    1.29
  -3   2   4    2.04    0.72
  -3   2   3  175.12    4.33
   3  -2  -3  259.67    5.83
  -3   2   3  191.07    5.33
  -3   2   2  357.27    7.10
   3  -2  -2  506.11    8.71
  -3   2   2  370.39    7.94
  -3   2   1  283.76    6.18
   3  -2  -1  385.21    6.64
  -3   2   1  303.64    6.82
  -3   2   0   21.10    1.72
   3  -2   0   26.49    2.64
   3  -2   0   28.26    4.54
  -3   2  -1  297.01    6.76
  -3   2  -2  209.05    5.69
   3  -2   2  292.76    6.93
  -3   2  -3  266.45    6.63
   3  -2   3  365.00   10.92
  -3   2  -4   19.41    1.85
   3  -2   4   32.39    6.92
  -3   2  -5  160.82    5.46
   3  -2   5  250.70    7.18
  -3   2  -6   44.72    2.99
  -3   2  -6   50.30    4.35
   3  -2   6   73.91    4.05
  -3   2  -7    0.59    1.20
  -3   2  -7    0.03    0.42
   3  -2   7    1.57    1.26
  -3   2  -8   34.92    2.55
  -3   2  -8   36.78    6.86
   3  -2   8   75.04    4.34
  -3   2  -9   40.78    3.05
  -3   2  -9   49.03    2.42
   3  -2   9   59.67    4.84
  -3   2 -10   35.82    2.88
  -3   2 -10   49.96    2.65
   3  -2  10   63.10    4.56
  -3   2 -11   13.64    2.05
   3  -2  11   22.43    2.93
  -3   2 -12   33.86    3.15
   3  -2  12   52.74    5.01
   3  -2  13    5.97    2.34
   3  -2  14    2.81    2.06
   3  -2  15    1.71    1.93
   3  -1 -16    2.91    1.92
  -3   1  16    2.74    2.23
   3  -1 -15    4.24    1.35
  -3   1  15    4.58    2.11
   3  -1 -14    3.70    1.20
  -3   1  14    2.21    0.76
   3  -1 -13   48.67    5.01
  -3   1  13   31.45    5.46
   3  -1 -12    2.94    1.70
  -3   1  12    1.78    1.34
   3  -1 -11    3.98    2.60
  -3   1  11   -0.28    1.14
   3  -1 -10   16.02    3.04
  -3   1  10    9.39    2.10
   3  -1  -9    3.84    1.66
  -3   1   9   -0.19    1.06
   3  -1  -8   17.77    2.53
  -3   1   8   14.35    2.24
   3  -1  -7   18.95    2.25
  -3   1   7   17.08    2.05
   3  -1  -6   42.73    8.44
  -3   1   6   29.36    2.23
  -3   1   5  101.53    2.36
   3  -1  -5  163.04    4.80
  -3   1   5  122.90    4.24
  -3   1   4  178.10    3.84
   3  -1  -4  270.67    6.71
  -3   1   4  199.73    5.48
  -3   1   3  714.55   11.42
   3  -1  -3 1037.33   16.94
  -3   1   3  787.89   13.75
  -3   1   2  234.82    4.91
   3  -1  -2  342.80    8.30
  -3   1   2  259.71    5.96
  -3   1   1   24.47    1.58
   3  -1  -1   31.29    1.54
  -3   1   1   25.70    1.95
  -3   1   0    2.24    0.85
   3  -1   0    2.28    0.32
  -3   1  -1    6.21    0.93
   3  -1   1    9.91    0.85
   3  -1   1   11.45    2.26
   3  -1   2  534.70   11.40
  -3   1  -3   91.56    3.58
  -3   1  -3   87.40    1.84
   3  -1   3  140.24    4.67
  -3   1  -4  310.38    7.30
  -3   1  -4  322.17    5.37
   3  -1   4  484.42   10.02
  -3   1  -5   32.01    2.13
  -3   1  -5   34.64    1.50
   3  -1   5   48.32    2.71
  -3   1  -6    8.08    1.27
  -3   1  -6    9.52    0.83
   3  -1   6   12.43    1.62
  -3   1  -7    1.78    1.19
  -3   1  -7   -0.31    0.45
   3  -1   7    4.14    1.57
  -3   1  -8   12.88    1.62
  -3   1  -8   18.20    1.42
   3  -1   8   28.19    2.83
  -3   1  -9    3.32    1.16
  -3   1  -9    2.46    0.66
   3  -1   9    4.93    1.28
  -3   1 -10   38.34    2.72
  -3   1 -10   40.40    5.72
   3  -1  10   66.65    4.46
  -3   1 -11    2.46    1.22
  -3   1 -11    3.45    0.79
   3  -1  11    7.49    1.89
  -3   1 -12    0.65    0.75
  -3   1 -12    0.47    0.40
   3  -1  12    1.17    1.37
   3  -1  13   -0.27    1.30
   3  -1  14    1.61    1.32
   3  -1  15    0.06    1.18
   3  -1  16    0.96    1.32
   3   0 -16    0.20    1.13
  -3   0  16    1.18    1.48
   3   0 -15   11.62    3.77
  -3   0  15    3.97    2.19
   3   0 -14    5.54    2.54
  -3   0  14    0.59    1.33
   3   0 -13    4.37    2.20
  -3   0  13    2.46    1.42
   3   0 -12    2.83    1.63
  -3   0  12    5.96    1.92
   3   0 -11   58.04    5.08
  -3   0  11   40.67    3.96
   3   0 -10   56.37    4.00
  -3   0  10   34.23    3.38
   3   0  -9   22.77    3.06
  -3   0   9   18.33    2.34
   3   0  -8  227.26    6.69
  -3   0   8  187.20    6.25
   3   0  -7    0.74    0.40
  -3   0   7    0.17    1.05
   3   0  -6  162.85    5.72
  -3   0   6  126.82    5.20
   3   0  -5  362.71    7.88
  -3   0   5  289.31    6.82
  -3   0   4  100.00    2.32
   3   0  -4  156.51    6.37
  -3   0   4  127.94    4.16
  -3   0   3  278.96    5.04
   3   0  -3  429.92    8.27
  -3   0   3  344.07    7.21
  -3   0   2   90.59    2.50
   3   0  -2  128.65    3.91
  -3   0   2  106.59    3.34
  -3   0   1   49.48    1.89
   3   0  -1   61.80    2.83
  -3   0   1   55.80    2.30
  -3   0   0  153.01    3.88
  -3   0   0  182.09    3.81
  -3   0   0  176.33    4.37
  -3   0  -1    0.64    0.77
  -3   0  -1    0.37    0.21
   3   0   1    1.04    0.45
  -3   0  -2   20.45    1.74
   3   0   2   28.02    5.53
  -3   0  -3    8.51    1.26
  -3   0  -3    9.71    0.70
   3   0   3   13.63    3.00
  -3   0  -4    6.58    1.08
  -3   0  -4    7.28    0.75
   3   0   4   15.02    2.45
  -3   0  -5    0.10    0.71
  -3   0  -5    0.00    0.44
   3   0   5    0.17    0.77
  -3   0  -6    9.04    1.30
  -3   0  -6   12.55    1.19
   3   0   6   16.14    1.84
  -3   0  -7  121.70    4.55
  -3   0  -7  154.99    5.13
   3   0   7  197.50    6.41
  -3   0  -8    0.87    0.84
  -3   0  -8    1.62    0.84
   3   0   8    3.28    1.02
  -3   0  -9   12.93    1.91
  -3   0  -9   15.03    1.69
   3   0   9   21.38    2.21
  -3   0 -10    1.29    0.78
  -3   0 -10    1.39    0.90
   3   0  10    3.93    1.41
  -3   0 -11    4.76    1.17
  -3   0 -11    6.68    1.30
   3   0  11   13.37    2.20
  -3   0 -12    2.41    1.03
  -3   0 -12    5.47    1.48
   3   0  12    6.34    1.87
  -3   0 -13    0.77    0.93
   3   0  13    1.82    1.27
   3   0  14    1.76    1.38
   3   0  15    0.21    1.18
   3   0  16    0.98    1.24
   3   1 -16    5.25    2.26
  -3  -1  16    4.47    1.81
  -3  -1  15    5.91    2.54
   3   1 -14    9.14    5.45
  -3  -1  14   -0.70    1.36
   3   1 -13    1.27    0.73
  -3  -1  13    0.72    1.28
   3   1 -12    7.70    2.34
  -3  -1  12    4.16    1.75
   3   1 -11    8.62    2.19
  -3  -1  11    7.37    2.29
   3   1 -10   42.98    7.76
  -3  -1  10   30.21    2.94
   3   1  -9   52.62    9.24
  -3  -1   9   35.52    2.98
   3   1  -8 1045.44   21.62
  -3  -1   8  869.49   13.85
   3   1  -7   22.35    4.63
  -3  -1   7   20.15    2.38
   3   1  -6    1.40    0.55
  -3  -1   6    2.12    1.45
   3   1  -5   59.65    2.76
  -3  -1   5   51.61    2.73
   3   1  -4  290.95    4.84
   3   1  -4  336.60    7.72
  -3  -1   4  289.89    6.58
  -3  -1   3  256.82    4.59
   3   1  -3  344.64    7.85
  -3  -1   3  306.96    6.59
  -3  -1   2  193.04    4.03
  -3  -1   2  227.23    5.21
  -3  -1   1  349.59    4.36
  -3  -1   1  434.43    5.24
  -3  -1   1  413.07    5.27
  -3  -1   0  406.47    5.05
  -3  -1   0  453.96    5.01
  -3  -1   0  460.96    5.31
  -3  -1  -1  183.12    4.43
  -3  -1  -1  193.16    4.13
   3   1   1  245.20    5.27
  -3  -1  -2  194.62    4.80
  -3  -1  -2  196.82    4.13
   3   1   2  256.58    5.45
  -3  -1  -3   -0.02    0.90
  -3  -1  -3   -0.07    0.47
   3   1   3    0.40    0.32
  -3  -1  -4    1.81    0.94
  -3  -1  -4    1.36    0.47
   3   1   4    2.05    0.79
  -3  -1  -5   23.88    1.94
  -3  -1  -5   24.39    1.53
   3   1   5   31.21    3.95
  -3  -1  -6    0.95    0.76
  -3  -1  -6    3.04    0.61
   3   1   6    2.27    1.08
  -3  -1  -7   13.18    1.54
  -3  -1  -7   18.03    2.51
   3   1   7   21.78    3.65
  -3  -1  -8   43.30    2.64
  -3  -1  -8   57.37    7.90
   3   1   8   62.98    3.13
  -3  -1  -9    2.23    1.25
  -3  -1  -9   -0.15    0.76
   3   1   9    4.10    1.38
  -3  -1 -10    6.14    1.19
  -3  -1 -10    8.82    1.39
   3   1  10   11.41    1.82
  -3  -1 -11    1.54    0.85
  -3  -1 -11    5.05    1.42
   3   1  11    6.36    1.86
  -3  -1 -12    1.55    1.08
  -3  -1 -12    0.70    0.95
   3   1  12    1.11    1.12
  -3  -1 -13   26.86    2.43
  -3  -1 -13   35.06    3.21
   3   1  13   44.33    3.93
  -3  -1 -14   -0.07    0.94
   3   1  14    3.03    1.94
   3   1  15    2.14    1.71
   3   2 -16    0.79    1.84
  -3  -2  16    2.89    1.73
   3   2 -15    4.41    1.96
  -3  -2  15    1.65    1.63
   3   2 -14   35.83    9.23
  -3  -2  14   32.95    4.34
   3   2 -13   16.78    3.36
  -3  -2  13   12.40    2.52
   3   2 -12    1.79    1.48
  -3  -2  12    1.99    1.50
   3   2 -11    3.66    1.86
  -3  -2  11    3.34    1.79
   3   2 -10    9.22    2.12
  -3  -2  10    6.69    1.89
   3   2  -9   -0.49    1.30
  -3  -2   9    0.46    1.32
   3   2  -8   21.14    4.47
  -3  -2   8   16.49    2.41
   3   2  -7  216.61    7.77
  -3  -2   7  185.38    5.51
   3   2  -6   48.25    7.08
  -3  -2   6   41.30    2.68
   3   2  -5  306.70    7.23
  -3  -2   5  259.34    6.36
   3   2  -4   12.28    1.29
   3   2  -4   12.40    2.39
  -3  -2   4    9.96    1.37
   3   2  -3   42.17    1.58
  -3  -2   3   36.66    2.15
  -3  -2   3   38.41    2.07
   3   2  -2    0.41    0.20
  -3  -2   2    0.89    0.75
  -3  -2   2    1.15    0.69
  -3  -2   1   24.84    1.41
  -3  -2   1   26.92    1.65
  -3  -2   1   23.08    1.30
  -3  -2   0  613.97    6.34
  -3  -2   0  653.25    6.71
  -3  -2   0  664.61    5.88
  -3  -2  -1   35.34    1.77
  -3  -2  -1   41.70    1.90
  -3  -2  -1   42.38    1.56
  -3  -2  -2  162.37    4.29
  -3  -2  -2  174.66    4.16
   3   2   2  221.43    4.45
  -3  -2  -3  120.64    3.70
  -3  -2  -3  137.19    3.59
   3   2   3  189.82    4.47
  -3  -2  -4  129.02    4.09
  -3  -2  -4  141.67    3.85
   3   2   4  209.68    4.63
  -3  -2  -5   16.10    1.50
  -3  -2  -5   25.18    1.84
   3   2   5   31.04    1.71
  -3  -2  -6  137.91    4.40
  -3  -2  -6  177.10    5.12
   3   2   6  219.25    5.31
  -3  -2  -7    0.21    0.89
  -3  -2  -7    0.57    0.56
   3   2   7    0.66    0.66
  -3  -2  -8   82.24    3.41
  -3  -2  -8  114.28    3.92
   3   2   8  137.69    4.15
  -3  -2  -9   16.34    1.95
  -3  -2  -9   29.19    2.29
   3   2   9   29.54    2.40
  -3  -2 -10    4.16    1.11
  -3  -2 -10    9.02    1.60
   3   2  10    9.14    1.60
  -3  -2 -11    0.91    0.80
  -3  -2 -11    3.49    1.35
   3   2  11    3.99    1.37
   3   2  12   41.64    3.36
  -3  -2 -12   45.76    3.79
   3   2  12   47.53    4.06
   3   2  13    1.00    1.02
  -3  -2 -13    2.11    1.35
   3   2  13    2.94    1.59
  -3  -2 -14    1.53    1.13
   3   2  14    5.25    1.67
  -3  -2 -15    0.61    1.01
   3   2  15    1.18    1.10
  -3  -3  16    0.87    1.47
   3   3 -15    1.62    1.60
  -3  -3  15    1.20    1.44
   3   3 -14    3.57    2.03
  -3  -3  14    0.10    1.28
   3   3 -13   35.17    3.71
  -3  -3  13   24.47    3.59
   3   3 -12   14.27    3.06
  -3  -3  12    8.08    1.88
   3   3 -11   62.82   14.81
  -3  -3  11   56.07    4.45
   3   3 -10    6.56    1.55
  -3  -3  10    4.36    1.40
   3   3  -9    5.05    1.80
  -3  -3   9    2.59    1.76
   3   3  -8   17.50    2.05
  -3  -3   8   17.96    2.48
   3   3  -7    4.59    1.14
  -3  -3   7    1.90    1.13
   3   3  -6   12.71    2.53
  -3  -3   6   13.67    1.67
   3   3  -5  145.50    3.08
   3   3  -5  152.67    9.81
  -3  -3   5  128.09    4.93
   3   3  -4  117.06    3.11
  -3  -3   4   91.02    3.51
   3   3  -3  952.34   14.63
  -3  -3   3  708.61   12.73
  -3  -3   3  736.50   12.55
   3   3  -2    4.11    0.69
  -3  -3   2    2.53    0.82
  -3  -3   2    1.79    0.47
   3   3  -1   93.44    2.88
  -3  -3   1   72.15    2.73
  -3  -3   1   73.83    2.30
   3   3   0   48.92    2.04
  -3  -3   0   40.96    1.96
  -3  -3   0   42.00    1.48
   3   3   1   55.88    2.95
  -3  -3  -1   46.80    1.38
   3   3   2  665.89    8.30
  -3  -3  -2  543.75    6.56
   3   3   2  691.63    5.39
  -3  -3  -3  135.54    4.03
   3   3   3  181.93    3.70
  -3  -3  -4   24.61    1.73
  -3  -3  -4   29.63    1.84
   3   3   4   40.90    1.43
  -3  -3  -5   37.58    2.40
  -3  -3  -5   44.55    2.50
   3   3   5   54.96    3.92
  -3  -3  -6   56.80    2.80
  -3  -3  -6   67.38    2.88
   3   3   6   84.46    2.57
  -3  -3  -7   11.12    1.54
   3   3   7   14.74    1.34
  -3  -3  -8    7.01    1.60
   3   3   8    7.18    1.31
   3   3   9   11.91    1.53
  -3  -3  -9   19.48    2.02
   3   3   9   18.52    1.78
   3   3  10    7.31    1.28
  -3  -3 -10   10.40    2.27
   3   3  10    5.53    1.29
   3   3  11   11.56    2.50
  -3  -3 -11   10.40    1.76
   3   3  11   16.47    2.12
   3   3  12    0.55    0.69
  -3  -3 -12    0.24    1.08
   3   3  12    0.58    0.52
   3   3  13   12.89    2.47
  -3  -3 -13   18.18    2.82
   3   3  13   19.35    2.54
  -3  -3 -14    0.82    1.05
   3   3  14    0.57    1.06
  -3  -3 -15   -0.02    1.08
  -3  -3 -16    1.30    1.45
  -3  -4  16    2.77    1.75
   3   4 -15    0.74    1.42
  -3  -4  15    1.45    1.48
   3   4 -14   -0.44    1.39
  -3  -4  14    2.26    1.89
   3   4 -13   -0.63    1.49
  -3  -4  13    2.39    1.47
   3   4 -12   -0.45    1.34
  -3  -4  12    0.40    1.33
   3   4 -11   19.82    4.43
  -3  -4  11   14.52    2.54
   3   4 -10    5.01    1.14
  -3  -4  10    1.17    1.44
   3   4  -9    4.02    1.54
  -3  -4   9    2.28    1.50
   3   4  -8    3.64    2.65
  -3  -4   8    2.06    1.05
   3   4  -7    5.38    1.05
  -3  -4   7    2.89    1.15
   3   4  -6    3.16    0.53
   3   4  -6    3.97    0.80
  -3  -4   6    3.18    1.06
   3   4  -5   20.07    1.62
   3   4  -5   22.16    3.63
  -3  -4   5   18.47    1.75
   3   4  -4  173.58    4.14
  -3  -4   4  121.96    4.50
  -3  -4   4  143.21    4.32
   3   4  -3  206.18    5.08
  -3  -4   3  144.12    5.00
  -3  -4   3  159.51    4.41
   3   4  -2 1434.51   21.87
  -3  -4   2 1019.06   17.05
  -3  -4   2 1107.83   17.44
   3   4  -1   33.65    5.56
  -3  -4   1   24.30    1.89
  -3  -4   1   25.63    1.21
   3   4   0  267.83    6.14
  -3  -4   0  190.71    5.04
  -3  -4   0  193.31    3.85
   3   4   1    0.69    0.44
  -3  -4  -1   -0.80    0.85
  -3  -4  -1    0.16    0.11
   3   4   2   98.48    3.55
  -3  -4  -2   70.72    2.78
   3   4   2   92.76    1.79
   3   4   3  128.62    4.21
  -3  -4  -3   99.37    3.47
   3   4   4    0.63    0.52
  -3  -4  -4    1.04    1.16
   3   4   4    0.24    0.16
   3   4   5   31.51    5.79
  -3  -4  -5   27.38    2.06
   3   4   5   28.61    1.15
   3   4   6   23.68    3.21
  -3  -4  -6   20.02    1.91
   3   4   6   20.48    1.23
   3   4   7  121.94    5.03
  -3  -4  -7  105.98    4.34
   3   4   7  108.03    4.82
   3   4   8   20.23    4.46
  -3  -4  -8   19.47    2.21
   3   4   8   17.84    2.69
   3   4   9   21.63    2.91
  -3  -4  -9   15.29    1.87
   3   4   9   16.32    1.53
   3   4  10    6.17    1.26
  -3  -4 -10    8.82    2.03
   3   4  10    6.22    1.12
   3   4  11    0.99    0.70
  -3  -4 -11    1.99    1.22
   3   4  11    1.39    0.89
   3   4  12    2.15    0.89
  -3  -4 -12    0.44    1.25
   3   4  12    0.99    0.84
   3   4  13   13.26    2.30
  -3  -4 -13   18.84    2.73
   3   4  13   13.76    2.06
  -3  -4 -14    1.86    1.33
   3   4  14    0.55    0.90
  -3  -4 -15    1.46    1.22
  -3  -4 -16    0.41    1.03
  -3  -5  15    0.78    1.54
   3   5 -14    0.17    1.28
  -3  -5  14    0.16    1.39
   3   5 -13    2.82    1.58
  -3  -5  13    1.17    1.86
   3   5 -12    0.84    0.80
  -3  -5  12    1.67    1.88
   3   5 -11    1.54    1.23
  -3  -5  11   -1.15    1.30
   3   5 -10    1.72    0.78
  -3  -5  10   -0.41    1.17
   3   5  -9    1.43    1.23
  -3  -5   9    1.82    1.29
   3   5  -8    5.59    1.39
  -3  -5   8    4.35    1.30
   3   5  -7    2.24    0.54
  -3  -5   7    3.25    1.41
   3   5  -6  179.51    4.90
   3   5  -6  179.87    7.49
  -3  -5   6  185.00    5.71
   3   5  -5  226.31    4.73
  -3  -5   5  202.62    5.78
  -3  -5   5  225.61    5.59
   3   5  -4   70.03    4.56
  -3  -5   4   54.80    3.34
  -3  -5   4   65.77    3.14
   3   5  -3  147.24    4.44
  -3  -5   3  104.53    3.72
  -3  -5   3  126.87    3.89
   3   5  -2   49.85    2.18
  -3  -5   2   31.01    2.05
  -3  -5   2   34.79    1.75
   3   5  -1   31.44    1.99
  -3  -5   1   24.19    1.92
  -3  -5   1   23.20    1.26
   3   5   0   32.63    2.09
  -3  -5   0   18.22    1.71
  -3  -5   0   23.88    1.04
   3   5   1  918.17   16.20
  -3  -5  -1  612.87   11.53
  -3  -5  -1  587.76    8.56
   3   5   2   28.06    5.20
  -3  -5  -2   19.30    1.72
   3   5   3   89.59    4.12
  -3  -5  -3   63.24    3.04
   3   5   4   16.11    2.20
  -3  -5  -4   11.35    1.58
   3   5   5   24.31    4.52
  -3  -5  -5   13.64    1.85
   3   5   6    6.52    1.40
  -3  -5  -6    5.57    1.37
   3   5   6    4.31    0.60
   3   5   7   12.81    3.03
  -3  -5  -7   10.59    1.59
   3   5   7   10.09    1.26
   3   5   8    1.32    0.57
  -3  -5  -8    1.76    1.10
   3   5   8    0.41    0.43
   3   5   9   12.44    2.46
   3   5   9   11.12    1.26
   3   5  10    0.55    0.33
  -3  -5 -10    0.93    1.25
   3   5  10    0.57    0.47
   3   5  11    0.26    0.38
  -3  -5 -11    1.04    1.70
   3   5  11    0.29    0.61
   3   5  12   14.71    2.05
  -3  -5 -12   14.90    2.42
   3   5  12   17.08    2.12
   3   5  13    2.63    1.10
  -3  -5 -13    2.48    1.90
  -3  -5 -14    2.92    2.02
  -3  -5 -15    2.29    1.48
  -3  -5 -16    0.63    1.15
  -3  -6  14    2.00    2.10
   3   6 -13   12.81    3.50
  -3  -6  13   11.04    2.66
   3   6 -12    2.80    1.57
  -3  -6  12    1.24    1.31
   3   6 -11   12.60    3.67
  -3  -6  11   12.76    2.19
   3   6 -10    2.80    0.79
  -3  -6  10    0.83    1.23
   3   6  -9    1.54    0.81
  -3  -6   9    3.18    1.65
   3   6  -8   56.33    6.86
  -3  -6   8   52.43    3.74
   3   6  -7  365.96   10.15
  -3  -6   7  378.81    8.76
   3   6  -6  131.86    5.74
   3   6  -6  132.20   18.37
  -3  -6   6  127.44    6.26
   3   6  -5  257.49    8.62
  -3  -6   5  241.33    6.79
  -3  -6   5  247.73    6.25
   3   6  -4   36.06    2.33
  -3  -6   4   32.06    2.84
  -3  -6   4   28.85    2.18
   3   6  -3   88.55    5.45
  -3  -6   3   67.99    3.62
  -3  -6   3   74.97    3.06
   3   6  -2   57.17    8.66
  -3  -6   2   40.06    2.74
  -3  -6   2   39.04    1.89
   3   6  -1   89.01    3.25
  -3  -6   1   57.47    3.02
  -3  -6   1   66.41    2.17
   3   6   0  606.67   11.58
  -3  -6   0  384.87    8.39
  -3  -6   0  423.03    6.60
   3   6   1    5.09    1.10
  -3  -6  -1    5.22    1.28
   3   6   2  355.55    8.08
  -3  -6  -2  237.55    6.32
   3   6   3  645.82   12.37
  -3  -6  -3  416.56    8.87
   3   6   4    6.03    1.15
  -3  -6  -4    4.19    1.18
   3   6   5    6.70    1.18
  -3  -6  -5    4.13    1.21
   3   6   6  154.09    7.29
  -3  -6  -6  118.87    4.47
   3   6   7   10.68    2.59
  -3  -6  -7   11.49    2.10
   3   6   8   55.48    8.24
  -3  -6  -8   37.32    3.14
   3   6   9   14.98    1.96
  -3  -6  -9   12.59    2.02
   3   6  10   49.09    7.57
  -3  -6 -10   50.71    4.02
   3   6  11   43.93    3.80
  -3  -6 -11   41.28    4.46
   3   6  12   40.79    8.05
  -3  -6 -12   50.29    4.30
   3   6  13   17.51    2.25
  -3  -6 -13   21.79    3.56
  -3  -6 -14    4.60    1.97
  -3  -6 -15   -0.11    1.22
  -3  -6 -16    1.73    1.73
  -3  -7  13    0.85    1.40
   3   7 -12   17.83    4.27
  -3  -7  12   34.81    4.52
   3   7 -11    1.13    1.02
  -3  -7  11   -0.82    1.22
   3   7 -10   13.53    2.57
  -3  -7  10   15.41    2.59
   3   7  -9    2.86    1.04
  -3  -7   9    1.24    1.62
   3   7  -8   22.95    5.77
  -3  -7   8   23.71    3.12
   3   7  -7    0.16    0.54
   3   7  -7   -0.93    1.12
  -3  -7   7    0.53    1.19
   3   7  -6   10.25    1.30
   3   7  -6   12.89    2.40
  -3  -7   6   12.77    1.90
   3   7  -5    0.87    0.97
  -3  -7   5    0.54    1.24
  -3  -7   5    1.76    1.36
   3   7  -4  105.03    8.99
  -3  -7   4   90.69    4.40
  -3  -7   4  103.77    3.93
   3   7  -3    5.36    1.82
  -3  -7   3    4.40    1.17
  -3  -7   3    3.59    0.92
   3   7  -2   22.22    5.20
  -3  -7   2   17.29    2.01
  -3  -7   2   18.08    1.47
   3   7  -1    1.37    0.71
  -3  -7   1    1.99    1.02
  -3  -7   1    0.46    0.37
   3   7   0   64.83    4.18
  -3  -7   0   44.95    2.93
  -3  -7   0   53.89    1.75
   3   7   1  258.36    7.52
  -3  -7  -1  151.78    5.26
   3   7   2   43.45    8.40
  -3  -7  -2   20.66    1.97
   3   7   3   33.74    4.07
  -3  -7  -3   21.41    2.18
   3   7   4  252.96    8.51
  -3  -7  -4  168.80    5.88
   3   7   5   14.55    2.27
  -3  -7  -5    8.37    1.62
   3   7   6    1.25    0.84
  -3  -7  -6    0.62    1.15
   3   7   7   21.06    3.22
  -3  -7  -7   13.69    1.78
   3   7   8    0.49    0.97
  -3  -7  -8    0.71    1.24
   3   7   9    2.35    0.70
  -3  -7  -9    2.26    1.33
   3   7  10    0.36    0.68
  -3  -7 -10    0.75    1.33
   3   7  11   36.70    3.33
  -3  -7 -11   28.64    3.43
   3   7  12    1.55    1.53
  -3  -7 -12    1.46    1.80
   3   7  13   17.73    2.92
  -3  -7 -13   24.85    3.56
  -3  -7 -14    1.57    1.99
  -3  -7 -15    0.69    1.42
  -3  -7 -16    1.34    1.34
  -3  -8  12    3.20    2.18
   3   8 -11    3.63    1.07
  -3  -8  11    6.00    2.27
   3   8 -10    2.13    1.06
  -3  -8  10    6.14    1.82
   3   8  -9    1.77    0.92
  -3  -8   9    4.18    1.58
   3   8  -8    1.31    0.89
  -3  -8   8    2.29    1.11
   3   8  -7    1.34    1.06
  -3  -8   7    0.97    0.97
   3   8  -6   13.03    1.72
  -3  -8   6   12.19    1.72
   3   8  -5    9.09    1.96
  -3  -8   5    6.99    1.67
  -3  -8   5    7.12    1.32
   3   8  -4    2.67    0.78
  -3  -8   4    1.71    1.47
  -3  -8   4    0.40    0.55
   3   8  -3   25.67    6.88
  -3  -8   3   21.90    2.65
  -3  -8   3   23.59    1.94
  -3  -8   2  681.98   11.71
   3   8  -1  195.80    6.96
  -3  -8   1  143.46    5.20
  -3  -8   1  162.05    3.81
   3   8   0    0.82    1.06
  -3  -8   0    0.86    1.02
  -3  -8   0   -0.38    0.33
   3   8   1    2.96    1.33
  -3  -8  -1    2.53    1.09
   3   8   2    5.13    1.51
  -3  -8  -2    2.59    1.09
   3   8   3   10.30    1.51
  -3  -8  -3    5.97    1.55
   3   8   4  101.03    4.50
  -3  -8  -4   63.56    3.52
   3   8   5   13.83    2.68
  -3  -8  -5    7.46    2.01
   3   8   6    6.08    1.60
  -3  -8  -6    3.69    1.43
   3   8   7   32.21    3.15
  -3  -8  -7   23.29    2.95
   3   8   8   90.47   10.88
  -3  -8  -8   61.63    4.40
   3   8   9    8.54    1.79
  -3  -8  -9    4.64    1.51
   3   8  10   20.75    4.51
  -3  -8 -10   19.28    2.87
   3   8  11    2.84    1.32
  -3  -8 -11    4.27    2.02
   3   8  12    0.41    0.83
  -3  -8 -12    1.45    1.83
   3   8  13    0.34    0.58
  -3  -8 -13   -0.29    1.22
  -3  -8 -14    3.11    1.54
  -3  -8 -15    0.93    1.38
  -3  -8 -16    2.52    2.16
  -3  -9  11    1.43    1.44
   3   9 -10    3.98    1.23
  -3  -9  10   -0.36    1.22
   3   9  -9    3.43    1.31
  -3  -9   9    3.36    1.87
   3   9  -8    0.62    1.24
  -3  -9   8    1.79    1.29
   3   9  -7   -0.32    0.83
  -3  -9   7    1.54    0.63
   3   9  -6   10.58    1.69
  -3  -9   6   14.17    1.97
   3   9  -5    0.14    0.84
  -3  -9   5    2.28    1.55
  -3  -9   5    0.30    0.84
   3   9  -4  113.87    5.31
  -3  -9   4   96.23    4.78
  -3  -9   4  111.18    4.33
   3   9  -3   20.77    4.40
  -3  -9   3   24.01    2.63
  -3  -9   3   21.72    1.86
   3   9  -2    1.73    1.31
  -3  -9   2    0.61    1.17
  -3  -9   2    1.46    0.93
   3   9  -1  191.10    6.52
  -3  -9   1  130.40    5.26
  -3  -9   1  136.19    3.56
   3   9   0   12.33    2.78
  -3  -9   0    6.14    1.53
   3   9   1   40.91    8.39
  -3  -9  -1   27.79    2.70
   3   9   2    7.66    2.43
  -3  -9  -2    3.52    1.15
   3   9   4  136.90   20.93
  -3  -9  -4   88.23    5.24
   3   9   5    1.36    0.64
  -3  -9  -5    0.56    1.24
   3   9   6   52.87    9.82
  -3  -9  -6   29.12    3.03
   3   9   7   19.11    3.10
  -3  -9  -7    8.36    1.98
   3   9   8    7.23    2.02
  -3  -9  -8    5.31    2.05
   3   9   9  243.96    8.09
  -3  -9  -9  142.81    6.60
   3   9  10    5.46    1.04
  -3  -9 -10    1.68    1.49
   3   9  11    5.11    1.14
  -3  -9 -11    4.11    1.52
   3   9  12    1.16    0.65
  -3  -9 -12    1.64    1.99
  -3  -9 -13    2.54    2.03
  -3  -9 -14    2.75    2.04
  -3  -9 -15    1.27    1.29
  -3  -9 -16    1.42    1.63
   3  10  -8    1.30    0.99
  -3 -10   8    2.88    1.67
   3  10  -7    6.45    2.29
  -3 -10   7    6.80    2.38
   3  10  -6    5.39    1.47
  -3 -10   6    4.34    1.30
   3  10  -5    9.44    1.77
  -3 -10   5    6.08    1.84
  -3 -10   5    7.47    2.79
   3  10  -4    8.25    2.02
  -3 -10   4    8.22    1.74
  -3 -10   4    7.12    1.26
   3  10  -3    1.99    0.73
  -3 -10   3    2.88    1.65
  -3 -10   3    0.39    0.69
   3  10  -2   26.96    5.92
  -3 -10   2   21.45    2.79
   3  10  -1   62.06   12.90
  -3 -10   1   44.63    3.65
   3  10   0    2.15    0.60
  -3 -10   0    0.76    1.08
   3  10   1   66.28    4.08
  -3 -10  -1   41.09    3.41
   3  10   2   38.26    6.13
  -3 -10  -2   27.60    2.82
   3  10   3   24.85    2.82
  -3 -10  -3   17.46    2.62
   3  10   4   13.14    2.87
  -3 -10  -4   10.81    2.05
   3  10   5   72.75   11.17
  -3 -10  -5   48.27    3.72
   3  10   6    0.60    1.44
  -3 -10  -6    0.69    1.41
   3  10   7   47.08    6.78
  -3 -10  -7   34.97    3.99
   3  10   8   12.21    2.91
  -3 -10  -8    7.30    2.25
   3  10   9    4.08    1.08
  -3 -10  -9    2.97    1.60
   3  10  10    4.42    1.35
  -3 -10 -10    1.80    1.36
   3  10  11   17.13    4.14
  -3 -10 -11   14.06    2.70
   3  10  12    0.44    1.08
  -3 -10 -12   -1.10    1.24
  -3 -10 -13    1.58    1.43
  -3 -10 -14    2.62    2.37
  -3 -10 -15    1.15    1.39
   3  11  -6    0.77    1.48
   3  11  -6    1.05    0.91
   3  11  -5   12.29    3.02
  -3 -11   5   16.65    2.49
   3  11  -4    1.23    1.12
  -3 -11   4    0.35    0.90
   3  11  -3   24.04    3.25
  -3 -11   3   16.51    2.26
   3  11  -2    0.65    0.71
  -3 -11   2   -0.22    0.93
   3  11  -1    3.10    1.20
  -3 -11   1    3.27    1.48
   3  11   0    4.89    1.16
  -3 -11   0    2.20    1.17
   3  11   1   10.39    2.46
  -3 -11  -1    7.23    2.14
   3  11   2    8.57    2.46
  -3 -11  -2    5.63    1.76
   3  11   3   20.59    2.90
  -3 -11  -3   13.16    2.42
   3  11   4   23.80    5.63
  -3 -11  -4   16.97    2.43
   3  11   5    5.68    1.97
  -3 -11  -5    5.04    1.77
   3  11   6   -0.92    1.32
   3  11   7    3.18    1.60
  -3 -11  -7    0.59    1.19
   3  11   8    2.65    0.73
  -3 -11  -8   -0.69    1.17
   3  11   9    7.43    2.12
  -3 -11  -9    2.86    1.63
   3  11  10    1.28    1.10
  -3 -11 -10    5.45    2.37
   3  11  11   -0.57    1.14
  -3 -11 -11    0.98    1.36
   3  11  12    2.25    1.69
  -3 -11 -12    2.50    1.55
  -3 -11 -13    1.38    1.35
  -3 -11 -14    4.52    2.18
   3  12  -5    1.29    0.75
   3  12  -4    5.61    1.52
  -3 -12   4    2.91    1.44
   3  12  -3    0.04    1.17
  -3 -12   3    1.12    1.03
   3  12  -2    8.56    2.36
  -3 -12   2    4.73    1.74
   3  12  -1    2.89    1.54
  -3 -12   1    0.99    1.01
   3  12   0    3.64    1.90
  -3 -12   0    2.17    1.45
   3  12   1    1.70    1.58
  -3 -12  -1    1.63    1.42
   3  12   2    5.62    2.04
  -3 -12  -2    2.05    1.13
   3  12   3    1.47    0.81
  -3 -12  -3    2.55    1.65
   3  12   4    3.55    1.58
  -3 -12  -4    0.66    1.06
   3  12   5    0.66    1.03
  -3 -12  -5    0.74    1.16
   3  12   6    0.55    1.38
  -3 -12  -6    0.00    1.12
   3  12   7   -0.56    1.37
  -3 -12  -7    1.54    1.75
   3  12   8    1.56    0.96
  -3 -12  -8    0.96    1.23
   3  12   9    1.67    0.89
  -3 -12  -9    3.26    1.75
   3  12  10    2.98    1.92
  -3 -12 -10    1.82    1.28
   3  12  11    2.25    1.31
  -3 -12 -11    1.26    1.42
  -3 -12 -12    0.35    1.32
  -3 -12 -13    1.26    1.46
   3  13  -3    0.66    1.87
   3  13  -2   66.45    5.44
   3  13  -1   14.21    3.22
  -3 -13   1    3.10    1.64
   3  13   0    7.97    2.78
  -3 -13   0    1.25    0.98
   3  13   1    1.68    2.06
  -3 -13  -1    1.07    0.97
   3  13   2    2.51    1.40
  -3 -13  -2    1.53    1.09
   3  13   3    1.83    1.68
  -3 -13  -3    1.91    1.61
   3  13   4    7.02    1.76
  -3 -13  -4    2.57    2.05
   3  13   5    3.33    1.96
  -3 -13  -5    0.40    1.24
   3  13   6    2.35    1.45
  -3 -13  -6    0.80    1.21
   3  13   7    3.65    1.90
  -3 -13  -7    5.75    2.12
   3  13   8    1.36    0.93
  -3 -13  -8    2.28    1.43
   3  13   9   42.95    7.08
  -3 -13  -9   27.29    3.88
   3  13  10    1.84    1.45
  -3 -13 -10    0.04    1.36
  -3 -13 -11    0.86    1.37
   3  14  -2   -0.36    1.26
   3  14  -1   -0.08    1.26
   3  14   0    1.83    1.51
   3  14   1    7.00    2.80
   3  14   2    0.60    1.28
   3  14   3    9.15    2.40
  -3 -14  -3    8.49    2.48
   3  14   4    1.72    1.08
  -3 -14  -4    1.71    1.21
   3  14   5    4.31    1.94
  -3 -14  -5    1.90    1.17
   3  14   6    0.90    1.54
  -3 -14  -6    0.19    1.09
   3  14   7    8.46    3.19
  -3 -14  -7    5.25    1.65
   3  14   8    4.03    1.72
  -3 -14  -8    0.32    1.20
   3  14   9    1.62    1.49
   3  15   0    2.56    1.58
   3  15   1    1.24    1.11
   3  15   2    3.57    2.31
   3  15   3    3.36    2.39
   3  15   4    6.68    2.65
   3  15   5   10.63    3.83
   3  15   6   -0.66    1.63
  -4  12   0   13.35    3.48
  -4  11   4    8.74    2.44
  -4  11   3   -0.69    0.99
  -4  11   2    2.40    1.76
  -4  11   1    0.88    1.33
  -4  11   0    7.57    2.56
  -4  11  -1    3.87    2.15
   4 -11   1   -0.22    1.52
  -4  11  -2   30.99    4.51
  -4  11  -3    1.96    2.02
  -4  11  -4    2.24    1.52
  -4  10   6    8.28    2.29
   4 -10  -6   13.13    2.79
  -4  10   5    0.81    1.10
   4 -10  -5    2.47    1.08
  -4  10   4   15.58    2.79
   4 -10  -4   11.65    3.83
  -4  10   3   -0.85    1.21
   4 -10  -3    3.12    1.24
  -4  10   2    3.68    1.94
   4 -10  -2    1.95    1.69
  -4  10   1    1.39    1.49
   4 -10  -1    5.56    1.84
  -4  10   0    2.90    1.33
   4 -10   0    7.24    1.51
  -4  10  -1    1.13    1.36
   4 -10   1    2.83    1.25
  -4  10  -2    3.95    2.16
   4 -10   2    0.64    1.43
  -4  10  -3    0.80    1.32
   4 -10   3    1.43    1.57
  -4  10  -4    3.13    2.02
   4 -10   4    1.58    1.48
  -4  10  -5    5.74    2.28
   4 -10   5    9.04    2.47
  -4  10  -6    0.17    1.32
   4 -10   6    0.92    1.55
   4  -9  -9    8.80    2.43
   4  -9  -8   18.36    5.50
   4  -9  -7   29.18    8.79
  -4   9   6    2.21    1.09
   4  -9  -6   -0.17    1.01
  -4   9   5    3.15    1.53
  -4   9   4    1.23    1.07
   4  -9  -4    1.28    0.70
  -4   9   3    3.21    1.62
   4  -9  -3    6.08    1.84
  -4   9   2    3.95    1.83
   4  -9  -2    2.45    1.42
  -4   9   1   10.00    2.62
   4  -9  -1    8.02    1.35
  -4   9   0   15.94    2.91
   4  -9   0   16.31    2.32
  -4   9  -1    4.60    1.56
   4  -9   1    5.97    1.44
   4  -9   2    4.18    2.67
  -4   9  -3   11.97    2.50
   4  -9   3   19.37    3.28
  -4   9  -4    4.56    1.82
   4  -9   4    9.85    2.84
  -4   9  -5    2.81    2.01
   4  -9   5    6.53    2.29
  -4   9  -6   -0.69    1.25
   4  -9   6    1.33    1.54
  -4   9  -7    0.09    1.33
   4  -9   7    4.81    2.06
   4  -9   8    3.84    2.20
  -4   8  10    0.05    1.02
  -4   8   9    2.76    1.80
  -4   8   7    9.25    1.81
   4  -8  -7    8.27    2.55
  -4   8   6    1.02    0.95
   4  -8  -6    1.44    0.64
  -4   8   5    5.91    1.51
   4  -8  -5    3.66    1.12
  -4   8   4    1.15    0.95
  -4   8   3    8.22    1.83
   4  -8  -3   12.34    2.31
  -4   8   2    3.81    1.74
   4  -8  -2    1.34    1.07
  -4   8   1    5.81    1.79
   4  -8  -1    8.98    1.75
  -4   8   0   33.06    3.54
   4  -8   0   42.26    7.08
  -4   8  -1    2.72    1.36
   4  -8   1    1.82    0.78
   4  -8   2   11.86    2.36
   4  -8   3    1.71    1.23
  -4   8  -4    7.01    1.95
   4  -8   4   13.54    3.12
  -4   8  -5    2.27    1.94
   4  -8   5    0.98    1.58
  -4   8  -6    3.20    1.62
   4  -8   6    1.63    1.72
  -4   8  -7    2.93    1.44
   4  -8   7    1.05    1.63
  -4   8  -8    0.32    1.18
   4  -8   8    0.61    1.59
  -4   8  -9    0.15    1.01
   4  -8   9    3.76    2.38
   4  -8  10    0.62    1.63
  -4   7  12   -0.17    0.97
   4  -7 -11   -0.14    1.19
  -4   7  11    3.24    1.55
   4  -7 -10    2.18    1.07
  -4   7  10    0.42    0.43
   4  -7  -9   25.79    5.79
  -4   7   9   30.56    3.41
   4  -7  -8   39.92    3.17
  -4   7   8   29.47    3.17
  -4   7   7    3.41    1.43
   4  -7  -7    2.96    1.16
  -4   7   7    0.41    1.16
  -4   7   6    8.18    1.84
   4  -7  -6    3.94    1.51
  -4   7   5   16.37    2.16
   4  -7  -5   11.27    2.83
  -4   7   4   10.58    2.07
   4  -7  -4    9.25    2.68
  -4   7   3   24.85    2.93
   4  -7  -3   25.81    5.68
  -4   7   2    0.84    1.09
   4  -7  -2    1.63    1.24
  -4   7   1    0.24    1.13
   4  -7  -1    1.19    0.63
  -4   7   0   12.72    2.22
   4  -7   0   13.16    2.35
  -4   7  -1    1.76    1.32
   4  -7   1    3.52    1.33
  -4   7  -2   32.71    3.69
   4  -7   2   50.43    8.68
  -4   7  -3    6.38    2.26
   4  -7   3    6.05    1.66
  -4   7  -4    8.16    2.24
   4  -7   4   12.97    4.57
  -4   7  -5    2.28    1.29
   4  -7   5    0.25    1.53
  -4   7  -6    0.14    1.08
   4  -7   6    0.02    1.50
  -4   7  -7    1.65    1.31
   4  -7   7    1.12    1.11
  -4   7  -8    1.80    1.66
   4  -7   8    1.56    2.24
  -4   7  -9    3.18    1.79
   4  -7   9    2.60    0.85
  -4   7 -10    0.40    1.03
   4  -7  10    1.00    1.60
   4  -7  11    3.08    2.32
   4  -6 -13   28.48    3.94
  -4   6  13   19.34    3.24
   4  -6 -12    1.58    1.89
  -4   6  12    1.39    1.25
   4  -6 -11    5.29    2.20
  -4   6  11    6.25    1.94
   4  -6 -10   44.56    3.91
  -4   6  10   32.34    3.71
   4  -6  -9   32.34    3.14
  -4   6   9   21.24    2.87
   4  -6  -8    2.53    1.69
  -4   6   7    2.85    0.95
   4  -6  -7    4.98    1.33
  -4   6   7    5.87    1.73
  -4   6   6   14.19    1.92
   4  -6  -6   14.82    2.28
  -4   6   6   12.59    1.85
  -4   6   5   18.51    2.39
   4  -6  -5   21.71    2.88
  -4   6   5   23.60    2.62
  -4   6   4    9.73    2.06
   4  -6  -4    7.62    1.31
   4  -6  -4    7.61    1.90
  -4   6   3  264.08    7.22
   4  -6  -3  278.98    9.09
  -4   6   2    2.50    1.20
   4  -6  -2    0.26    0.47
  -4   6   1    0.63    1.12
   4  -6  -1   -0.41    1.21
  -4   6   0   10.66    1.96
   4  -6   0   15.48    3.54
  -4   6  -1  151.69    5.92
   4  -6   1  198.99    8.32
  -4   6  -2    0.34    1.33
   4  -6   2    1.88    0.92
  -4   6  -3  205.29    7.15
   4  -6   3  283.34   24.03
  -4   6  -4    2.01    1.31
   4  -6   4    2.01    0.95
  -4   6  -5   18.89    2.91
   4  -6   5   17.63    2.69
  -4   6  -6    1.90    1.32
   4  -6   6    4.24    2.83
  -4   6  -7    2.27    1.31
   4  -6   7    1.20    1.42
  -4   6  -8    0.65    1.10
   4  -6   8    0.68    1.65
  -4   6  -9    2.42    1.35
  -4   6 -10   -0.06    0.94
   4  -6  10    1.57    0.85
   4  -6  11    0.90    1.09
   4  -6  12    2.66    1.75
   4  -5 -14   17.88    3.53
  -4   5  14   12.82    2.60
   4  -5 -13    8.80    2.70
  -4   5  13    6.89    2.33
   4  -5 -12   46.15    9.58
  -4   5  12   45.32    4.10
   4  -5 -11   12.72    2.52
  -4   5  11    8.79    1.88
   4  -5 -10   10.32    2.59
  -4   5  10   10.67    2.06
   4  -5  -9    4.52    1.62
  -4   5   9    4.25    1.53
   4  -5  -8   27.60    3.09
  -4   5   8   21.66    3.02
  -4   5   7    1.26    0.72
   4  -5  -7    3.96    1.10
  -4   5   7    3.28    1.28
  -4   5   6   16.97    2.00
   4  -5  -6   20.31    1.91
  -4   5   6   20.39    3.37
  -4   5   5    6.40    1.39
   4  -5  -5    9.44    2.66
  -4   5   5   11.13    2.11
  -4   5   4  127.34    6.05
   4  -5  -4  147.89    6.25
  -4   5   4  125.32    6.52
  -4   5   3  131.98    6.55
   4  -5  -3  145.30    5.88
   4  -5  -3  151.03    7.81
  -4   5   2  164.82    7.55
   4  -5  -2  192.68    9.22
  -4   5   1   90.25    5.21
   4  -5  -1  114.27   10.71
  -4   5   0  152.82    7.39
   4  -5   0  187.72    9.17
  -4   5  -1   78.15    4.78
   4  -5   1  115.04   12.14
  -4   5  -2  143.26    7.26
   4  -5   2  193.59    9.21
  -4   5  -3    5.81    1.86
   4  -5   3    5.28    1.14
  -4   5  -4    7.42    1.96
   4  -5   4   10.66    1.43
  -4   5  -5    1.12    1.26
   4  -5   5    4.48    1.62
  -4   5  -6   69.05    5.21
   4  -5   6  103.34    7.01
  -4   5  -7   47.65    3.84
   4  -5   7   82.32    5.29
  -4   5  -8    2.07    1.29
   4  -5   8    3.06    2.54
  -4   5  -9    4.30    1.62
   4  -5   9    7.15    2.33
  -4   5 -10    1.55    1.46
   4  -5  10    3.76    1.92
  -4   5 -11    0.87    1.04
   4  -5  11    0.85    1.45
   4  -5  12    1.37    1.61
   4  -5  13    2.21    2.32
   4  -4 -15    2.49    1.72
  -4   4  14   -0.10    1.24
   4  -4 -13   45.20    4.79
  -4   4  13   28.81    3.87
   4  -4 -12    0.53    1.47
  -4   4  12    5.20    2.11
   4  -4 -11    0.65    1.47
  -4   4  11    2.58    1.79
   4  -4 -10   25.00    3.03
  -4   4  10   16.41    2.46
   4  -4  -9   28.14    3.27
  -4   4   9   21.06    2.93
   4  -4  -8   24.52    2.59
  -4   4   8   20.15    2.59
  -4   4   7    0.43    0.51
   4  -4  -7    0.15    1.09
  -4   4   7    0.83    1.01
  -4   4   6   11.35    1.38
   4  -4  -6   17.49    1.95
  -4   4   6   13.98    2.00
  -4   4   5   31.76    2.19
   4  -4  -5   43.99    2.58
  -4   4   5   31.12    5.17
  -4   4   4    2.93    0.93
   4  -4  -4    7.24    1.49
  -4   4   4    4.06    1.17
  -4   4   3   62.20    3.08
   4  -4  -3   78.69    3.00
  -4   4   3   67.16    3.61
  -4   4   2    2.30    1.03
   4  -4  -2    0.80    0.47
   4  -4  -2    2.33    0.70
  -4   4   1   47.54    3.06
   4  -4  -1   53.43   11.73
  -4   4   0    3.05    1.22
  -4   4  -1    2.19    1.20
   4  -4   1    2.53    1.30
  -4   4  -2   12.24    2.04
   4  -4   2   19.96    2.85
  -4   4  -3    3.35    1.30
   4  -4   3    8.50    1.65
  -4   4  -4    1.81    1.56
   4  -4   4    4.12    0.89
  -4   4  -5   14.12    2.01
   4  -4   5   22.28    3.48
  -4   4  -6    7.33    1.79
   4  -4   6   11.17    2.51
  -4   4  -7    5.20    1.77
   4  -4   7   15.12    2.81
  -4   4  -8   83.90    5.00
   4  -4   8  138.17    6.44
  -4   4  -9    0.75    1.03
   4  -4   9    6.12    2.84
  -4   4 -10    0.99    0.95
   4  -4  10    0.11    1.62
  -4   4 -11    1.12    0.98
   4  -4  11    2.36    1.24
   4  -4  12    3.49    1.65
   4  -4  13    6.28    2.55
   4  -4  14    2.97    2.12
   4  -3 -16    0.90    1.49
   4  -3 -15    4.04    2.36
  -4   3  15    1.46    1.20
   4  -3 -14    6.59    2.57
  -4   3  14    2.80    1.85
   4  -3 -13    3.64    2.06
  -4   3  13    0.50    1.04
   4  -3 -12    2.13    1.84
  -4   3  12    4.41    1.86
   4  -3 -11   28.97    3.46
  -4   3  11   21.13    2.93
   4  -3 -10    4.23    1.92
  -4   3  10    3.03    1.85
   4  -3  -9    7.94    2.08
  -4   3   9    9.85    1.95
   4  -3  -8    3.92    1.98
  -4   3   8    2.47    1.61
   4  -3  -7   29.21    2.89
  -4   3   7   23.38    2.59
  -4   3   6    0.47    0.61
   4  -3  -6    0.73    1.20
  -4   3   6    1.51    1.66
  -4   3   5   31.93    2.02
   4  -3  -5   44.81    3.04
  -4   3   5   34.18    2.61
  -4   3   4   29.16    1.95
   4  -3  -4   44.12    2.79
  -4   3   4   32.07    2.61
  -4   3   3    9.14    1.17
   4  -3  -3   15.18    1.44
  -4   3   3    8.56    1.38
  -4   3   2    8.36    1.14
   4  -3  -2   11.68    2.60
  -4   3   2   10.81    1.69
  -4   3   1   30.56    2.28
   4  -3  -1   37.92    1.52
   4  -3  -1   38.58    6.94
  -4   3   0    3.45    1.12
   4  -3   0    5.50    1.25
  -4   3  -1   14.83    2.01
   4  -3   1   19.59    2.20
  -4   3  -2  103.65    4.55
   4  -3   2  180.05   17.09
  -4   3  -3  152.69    5.10
   4  -3   3  206.04    7.64
  -4   3  -4   11.76    1.77
   4  -3   4   16.41    3.94
  -4   3  -5    2.12    1.53
   4  -3   5    1.36    1.24
  -4   3  -6    6.57    1.48
   4  -3   6    9.22    1.97
  -4   3  -7   24.35    2.53
   4  -3   7   38.06    3.99
  -4   3  -8    4.22    1.50
   4  -3   8    4.45    1.90
  -4   3  -9    2.91    1.08
   4  -3   9    3.94    2.05
  -4   3 -10    1.70    1.11
   4  -3  10    3.41    0.92
  -4   3 -11    0.62    1.32
   4  -3  11    2.09    1.64
  -4   3 -12    1.26    1.01
   4  -3  12    0.64    1.37
   4  -3  13    0.86    1.31
   4  -3  14    0.43    1.49
   4  -2 -16    2.69    2.30
   4  -2 -15    4.50    2.55
  -4   2  15    1.57    1.41
   4  -2 -14    1.36    1.85
  -4   2  14    1.61    1.37
   4  -2 -13   27.77    6.93
  -4   2  13   20.71    3.38
   4  -2 -12    8.81    2.57
  -4   2  12    9.02    2.16
   4  -2 -11    1.95    1.75
  -4   2  11    0.78    1.32
   4  -2 -10   13.85    2.22
  -4   2  10   13.79    2.57
   4  -2  -9    7.90    2.02
  -4   2   9    6.14    1.81
   4  -2  -8   54.71   10.76
  -4   2   8   35.28    3.23
   4  -2  -7  151.36    7.28
  -4   2   7  116.82    6.28
  -4   2   6   23.60    1.39
   4  -2  -6   42.67    8.10
  -4   2   6   29.83    2.71
  -4   2   5  217.25    4.10
   4  -2  -5  347.19    6.68
  -4   2   5  245.06    6.23
  -4   2   4   52.01    2.40
   4  -2  -4   80.52    6.67
  -4   2   4   61.60    3.63
  -4   2   3   25.94    1.92
   4  -2  -3   32.98    2.07
  -4   2   3   24.82    2.14
  -4   2   2   -0.04    0.67
   4  -2  -2    1.47    0.57
  -4   2   2    2.99    1.55
  -4   2   1  244.61    6.01
   4  -2  -1  335.93    6.07
  -4   2   1  260.70    6.63
  -4   2   0    5.19    0.98
   4  -2   0    7.24    1.29
   4  -2   0   12.48    2.23
  -4   2  -1  100.66    3.89
  -4   2  -2   80.03    3.60
   4  -2   2  110.81    4.53
  -4   2  -3   62.67    3.42
   4  -2   3   79.43    8.40
  -4   2  -4    1.12    0.99
   4  -2   4    0.49    0.76
  -4   2  -5    1.82    1.01
   4  -2   5    3.91    0.88
  -4   2  -6   58.03    3.58
   4  -2   6   89.94    4.32
  -4   2  -7    6.65    1.51
   4  -2   7   10.85    1.73
  -4   2  -8    1.60    0.90
   4  -2   8    1.13    1.31
  -4   2  -9    0.87    1.02
   4  -2   9    3.50    1.13
  -4   2 -10   22.19    2.69
   4  -2  10   37.57    3.93
  -4   2 -11    0.32    0.95
   4  -2  11    2.79    2.05
  -4   2 -12    5.70    1.70
   4  -2  12    7.37    2.28
   4  -2  13    3.04    1.39
   4  -2  14    0.03    1.34
   4  -2  15    2.28    2.07
   4  -1 -16   -0.40    1.55
  -4   1  16   -0.65    1.32
   4  -1 -15    2.62    1.82
  -4   1  15    1.55    1.45
   4  -1 -14    0.85    1.84
  -4   1  14    2.50    1.45
   4  -1 -13   12.94    3.29
  -4   1  13    7.38    3.22
   4  -1 -12   22.99    4.36
  -4   1  12   15.90    2.77
   4  -1 -11   27.80    3.60
  -4   1  11   15.50    2.51
   4  -1 -10    1.55    1.09
  -4   1  10    0.44    1.19
   4  -1  -9    1.88    1.46
  -4   1   9   -0.93    1.19
   4  -1  -8  187.77    8.87
  -4   1   8  138.93    7.01
   4  -1  -7  343.35    8.71
  -4   1   7  264.01    7.29
   4  -1  -6  114.92    4.47
  -4   1   6   84.99    4.00
  -4   1   5   58.00    2.17
   4  -1  -5   94.16    4.20
  -4   1   5   71.14    3.61
  -4   1   4   42.30    1.89
   4  -1  -4   63.94    5.85
  -4   1   4   48.58    2.91
  -4   1   3    3.68    0.78
   4  -1  -3    5.32    1.10
  -4   1   3    3.54    1.05
  -4   1   2  684.17   11.27
   4  -1  -2 1008.12   15.35
  -4   1   2  780.05    9.65
  -4   1   1    3.35    0.85
   4  -1  -1    5.17    0.84
  -4   1   1    5.52    1.33
  -4   1   0  201.74    5.32
   4  -1   0  271.83    4.04
   4  -1   0  259.25    6.69
  -4   1  -1   63.66    2.80
   4  -1   1   73.74    2.38
   4  -1   1   81.87    3.34
  -4   1  -2   25.91    1.94
   4  -1   2   36.00    6.68
  -4   1  -3    2.64    1.11
   4  -1   3    4.60    1.17
  -4   1  -4    2.45    1.07
   4  -1   4    3.59    0.83
  -4   1  -5   19.47    2.21
   4  -1   5   35.89    7.22
  -4   1  -6   45.71    2.90
   4  -1   6   84.32    4.06
  -4   1  -7   21.87    2.38
   4  -1   7   29.96    6.71
  -4   1  -8    8.75    1.59
   4  -1   8   18.58    2.33
  -4   1  -9   26.98    2.51
   4  -1   9   45.37    5.58
  -4   1 -10    6.45    1.49
   4  -1  10    9.13    2.11
  -4   1 -11   13.35    1.98
   4  -1  11   18.21    2.79
  -4   1 -12    3.73    1.42
   4  -1  12    3.49    1.43
  -4   1 -13   -0.20    0.90
   4  -1  13    1.66    1.52
   4  -1  14    1.34    1.40
   4  -1  15    3.30    1.97
   4   0 -16    2.95    1.89
  -4   0  16    3.54    2.20
   4   0 -15   -0.95    1.65
  -4   0  15    2.21    2.11
   4   0 -14    5.23    2.74
  -4   0  14    1.64    2.06
   4   0 -13   10.03    2.54
  -4   0  13   10.12    2.82
   4   0 -12    2.57    1.14
  -4   0  12    2.73    2.05
   4   0 -11   18.84    3.64
  -4   0  11   14.58    2.60
   4   0 -10    2.47    2.18
  -4   0  10    2.25    2.03
   4   0  -9   56.73    6.59
  -4   0   9   46.70    3.64
   4   0  -8   81.77    8.52
  -4   0   8   62.65    6.70
   4   0  -7  165.85    6.11
  -4   0   7  131.52    5.23
   4   0  -6   68.54    9.67
  -4   0   6   55.68    3.29
  -4   0   5    9.14    0.79
   4   0  -5   14.39    2.53
  -4   0   5   10.98    1.51
  -4   0   4   22.96    1.31
   4   0  -4   36.12    5.42
  -4   0   4   26.45    1.99
  -4   0   3   72.43    2.27
   4   0  -3  106.75    7.02
  -4   0   3   88.03    3.39
  -4   0   2   79.35    2.75
   4   0  -2  119.47    3.74
  -4   0   2   91.12    3.50
  -4   0   1  378.10    7.61
   4   0  -1  502.86    9.57
  -4   0   1  429.78    8.81
  -4   0   0  185.86    4.16
  -4   0   0  218.07    3.53
  -4   0   0  213.83    4.67
  -4   0  -1  181.87    4.37
  -4   0  -1  195.62    4.23
   4   0   1  237.18    5.00
  -4   0  -2   19.03    1.83
  -4   0  -2   18.73    1.03
   4   0   2   26.37    1.80
  -4   0  -3  282.19    6.80
  -4   0  -3  284.67    4.96
   4   0   3  404.39    8.91
  -4   0  -4   18.23    2.09
  -4   0  -4   17.34    1.02
   4   0   4   27.16    4.90
  -4   0  -5   27.32    2.42
  -4   0  -5   25.25    1.39
   4   0   5   31.41    8.13
  -4   0  -6    1.89    1.24
  -4   0  -6    1.32    0.60
   4   0   6    0.00    0.90
  -4   0  -7    6.16    1.59
  -4   0  -7    3.28    0.66
   4   0   7    4.54    1.41
  -4   0  -8   29.31    2.46
  -4   0  -8   35.48    2.21
   4   0   8   46.48    3.05
  -4   0  -9   35.97    2.75
  -4   0  -9   45.10    4.43
   4   0   9   58.97   11.77
  -4   0 -10    7.50    1.83
  -4   0 -10    5.42    1.09
   4   0  10    8.54    1.76
  -4   0 -11    0.65    0.86
  -4   0 -11    4.20    1.11
   4   0  11    7.98    1.99
  -4   0 -12    3.26    1.32
   4   0  12    7.90    2.28
  -4   0 -13    0.60    0.92
   4   0  13    0.66    1.29
   4   0  14    1.91    1.42
   4   0  15    0.66    1.61
   4   1 -16    3.88    2.01
  -4  -1  16   -0.05    1.37
   4   1 -15    1.40    1.81
  -4  -1  15   -0.01    1.36
   4   1 -14    5.55    2.65
   4   1 -13   12.68    2.56
  -4  -1  13   14.35    3.10
   4   1 -12    4.15    1.57
  -4  -1  12    2.60    1.54
   4   1 -11   16.07    3.25
  -4  -1  11   10.61    2.17
   4   1 -10   63.15    4.40
  -4  -1  10   46.65    3.73
   4   1  -9   19.89    4.57
  -4  -1   9   11.21    1.81
   4   1  -8  201.87   10.63
  -4  -1   8  165.81    9.71
   4   1  -7  372.88   11.74
  -4  -1   7  304.58    8.12
   4   1  -6   10.37    1.87
  -4  -1   6    4.94    1.30
   4   1  -5   28.67    5.14
  -4  -1   5   20.19    2.08
  -4  -1   4   21.54    1.11
   4   1  -4   36.82    7.20
  -4  -1   4   28.48    2.18
  -4  -1   3   15.81    1.12
   4   1  -3   24.62    4.30
  -4  -1   3   19.49    1.72
  -4  -1   2   95.08    2.89
   4   1  -2  134.32    4.08
  -4  -1   2  108.11    3.66
  -4  -1   1   65.18    2.58
  -4  -1   1   83.39    2.96
  -4  -1   1   80.23    3.15
  -4  -1   0   10.57    1.07
  -4  -1   0   14.70    1.25
  -4  -1   0   12.87    1.20
  -4  -1  -1  581.18   10.75
  -4  -1  -1  636.04   10.60
   4   1   1  706.15   12.74
  -4  -1  -2  145.36    4.48
  -4  -1  -2  155.59    3.85
  -4  -1  -3  290.52    7.20
  -4  -1  -3  294.73    5.83
   4   1   3  395.26    8.51
  -4  -1  -4   51.65    2.77
  -4  -1  -4   47.53    1.89
   4   1   4   66.89    3.98
  -4  -1  -5   50.28    3.00
  -4  -1  -5   52.65    2.10
   4   1   5   77.51    4.55
  -4  -1  -6   43.98    2.82
  -4  -1  -6   48.11    2.22
   4   1   6   72.76    3.39
  -4  -1  -7    0.00    0.82
  -4  -1  -7    1.22    0.81
   4   1   7    0.29    0.79
  -4  -1  -8    4.09    1.34
  -4  -1  -8    5.78    1.07
   4   1   8    5.31    1.47
  -4  -1  -9   12.17    1.75
  -4  -1  -9   17.55    1.77
   4   1   9   24.95    2.55
  -4  -1 -10    2.81    1.49
  -4  -1 -10    5.18    1.14
   4   1  10    7.04    1.63
  -4  -1 -11    1.31    0.89
  -4  -1 -11    0.95    0.99
   4   1  11    1.78    1.36
  -4  -1 -12    2.17    1.11
  -4  -1 -12    1.22    1.08
   4   1  12    0.43    1.00
  -4  -1 -13    1.59    1.01
  -4  -1 -13    4.65    1.27
   4   1  13   10.69    2.24
   4   1  14    1.00    1.15
   4   1  15    1.32    1.31
   4   2 -16    8.49    3.67
  -4  -2  16    2.46    1.63
   4   2 -15   18.88    4.37
  -4  -2  15    6.54    2.69
   4   2 -14    3.67    1.79
  -4  -2  14    0.89    1.48
   4   2 -13   23.69    3.74
  -4  -2  13   21.90    3.15
   4   2 -12    2.84    1.67
  -4  -2  12    1.07    1.40
   4   2 -11    2.34    1.17
  -4  -2  11    1.63    1.51
   4   2 -10   -1.88    1.45
  -4  -2  10    2.05    1.89
   4   2  -9   82.69   15.70
  -4  -2   9   77.94    4.32
   4   2  -8  325.78   17.31
  -4  -2   8  274.58   11.47
   4   2  -7  587.39   26.50
  -4  -2   7  487.89    9.94
   4   2  -6   54.78   10.01
  -4  -2   6   44.91    2.78
   4   2  -5    0.48    0.20
   4   2  -5    0.59    0.77
  -4  -2   5    4.17    2.28
   4   2  -4    1.25    0.35
   4   2  -4    1.09    0.81
  -4  -2   4    1.27    0.88
   4   2  -3    3.22    0.69
  -4  -2   3    2.07    0.65
  -4  -2   2  619.95   10.51
  -4  -2   2  718.51   12.82
  -4  -2   2  683.64   12.08
  -4  -2   1   65.94    2.64
  -4  -2   1   72.83    2.91
  -4  -2   1   68.78    2.66
  -4  -2   0   13.28    1.38
  -4  -2   0   13.32    1.41
  -4  -2   0   14.02    1.29
  -4  -2  -1   10.25    1.32
  -4  -2  -1   10.88    1.17
  -4  -2  -2 1326.40   21.31
  -4  -2  -2 1387.42   21.39
  -4  -2  -3   54.30    4.41
  -4  -2  -3   68.93    2.68
   4   2   3   93.24    3.53
  -4  -2  -4 4575.04   20.12
  -4  -2  -5  107.15    5.32
  -4  -2  -5  127.60    3.86
   4   2   5  184.08    4.89
  -4  -2  -6   -1.38    1.06
  -4  -2  -6    1.43    0.92
   4   2   6   -0.31    0.61
  -4  -2  -7    0.32    0.90
  -4  -2  -7   -0.56    0.61
  -4  -2  -8   40.98    2.96
  -4  -2  -8   45.11    2.75
   4   2   8   51.93    2.70
  -4  -2  -9   22.46    2.20
  -4  -2  -9   29.15    2.38
   4   2   9   35.93    2.83
  -4  -2 -10    2.92    1.18
  -4  -2 -10    3.56    0.92
   4   2  10    5.46    1.31
  -4  -2 -11    9.51    2.07
  -4  -2 -11    8.79    1.62
   4   2  11    8.94    1.73
  -4  -2 -12    0.36    0.83
  -4  -2 -12    3.09    1.53
   4   2  12    0.87    1.20
  -4  -2 -13   24.22    3.03
   4   2  13   24.34    2.71
  -4  -2 -14    5.30    1.31
   4   2  14   10.17    2.71
   4   3 -15   10.42    3.27
  -4  -3  15    8.59    2.21
   4   3 -14    4.14    2.69
  -4  -3  14    1.15    1.43
   4   3 -12    1.44    1.34
  -4  -3  12    0.70    1.41
   4   3 -11    0.55    0.70
  -4  -3  11   -0.06    1.26
   4   3 -10   38.46    7.36
  -4  -3  10   31.03    3.66
   4   3  -9   63.17    9.65
  -4  -3   9   52.65    3.78
   4   3  -8   20.62    3.87
  -4  -3   8   17.49    2.53
   4   3  -7  141.30    5.78
  -4  -3   7  133.02    5.18
   4   3  -6    0.70    0.81
  -4  -3   6   -0.32    1.05
   4   3  -5   78.62    2.57
   4   3  -5   82.37   12.69
  -4  -3   5   66.16    3.39
   4   3  -4  546.10    8.71
  -4  -3   4  416.98   10.07
   4   3  -3  206.53    5.02
  -4  -3   3  164.02    4.98
  -4  -3   3  169.60    4.65
   4   3  -2   35.28    1.78
  -4  -3   2   28.12    2.15
  -4  -3   2   30.94    1.86
   4   3  -1  103.04    3.58
  -4  -3   1   93.71    3.56
  -4  -3   1   87.36    2.88
   4   3   0    0.91    0.83
  -4  -3   0    1.22    0.87
  -4  -3   0    0.85    0.55
  -4  -3  -1  452.40    9.00
  -4  -3  -1  463.54    9.00
  -4  -3  -1  492.00    8.45
  -4  -3  -2 1016.43   17.99
  -4  -3  -2 1058.33   17.52
  -4  -3  -3 3023.82   17.22
  -4  -3  -4    7.98    1.72
  -4  -3  -4    7.34    1.49
   4   3   4   10.01    2.44
  -4  -3  -5   20.10    2.23
  -4  -3  -5   19.43    1.72
   4   3   5   32.65    1.80
  -4  -3  -6   45.04    2.81
  -4  -3  -6   43.81    2.55
   4   3   6   61.23    2.47
  -4  -3  -7  117.49    4.49
  -4  -3  -7  129.75    4.26
  -4  -3  -8    1.32    1.58
  -4  -3  -8   -0.02    0.76
   4   3   8    1.46    0.69
  -4  -3  -9    8.32    1.75
  -4  -3  -9    6.96    1.42
   4   3   9    8.37    1.47
  -4  -3 -10    1.82    1.08
  -4  -3 -10    1.32    0.77
   4   3  10    1.76    0.97
   4   3  11    5.39    1.43
  -4  -3 -11    5.07    1.35
   4   3  11    4.90    1.21
   4   3  12    1.43    0.95
  -4  -3 -12    1.00    0.87
   4   3  12    1.59    1.11
   4   3  13   15.54    3.95
  -4  -3 -13   12.61    2.23
   4   3  13   19.93    2.59
  -4  -3 -14   25.65    2.89
   4   4 -15    0.94    1.68
  -4  -4  15    3.61    2.21
   4   4 -14    1.88    0.91
  -4  -4  14    0.90    1.45
   4   4 -13    4.87    2.12
  -4  -4  13    4.17    1.72
   4   4 -12   28.11    6.80
  -4  -4  12   27.64    3.19
   4   4 -11   15.66    4.36
  -4  -4  11   13.10    2.46
   4   4 -10    1.39    0.97
  -4  -4  10    1.04    1.37
   4   4  -9    8.31    1.36
  -4  -4   9    4.68    1.64
   4   4  -8   24.72    5.76
  -4  -4   8   22.09    2.39
   4   4  -7   59.71   12.18
  -4  -4   7   52.28    3.32
   4   4  -6    0.70    0.85
  -4  -4   6    2.45    1.45
   4   4  -5    0.15    0.34
   4   4  -5    1.35    0.59
  -4  -4   5   -0.58    0.90
   4   4  -4   18.88    1.40
  -4  -4   4   15.39    2.26
  -4  -4   4   15.11    1.49
   4   4  -3   24.85    3.55
  -4  -4   3   15.98    1.68
  -4  -4   3   15.47    1.67
   4   4  -2    1.36    0.52
  -4  -4   2    0.12    0.96
  -4  -4   2    1.02    1.18
   4   4  -1   81.80    4.14
  -4  -4   1   64.52    2.92
  -4  -4   1   65.30    2.26
   4   4   0  171.38    6.34
  -4  -4   0  138.14    4.46
  -4  -4   0  135.27    3.37
   4   4   1    2.94    0.53
  -4  -4  -1    2.53    0.98
  -4  -4  -1    2.42    0.46
   4   4   2    4.67    1.10
  -4  -4  -2    3.09    1.05
   4   4   3   39.85    8.13
  -4  -4  -3   35.40    2.24
   4   4   3   41.35    2.32
   4   4   4    1.59    0.84
  -4  -4  -4    0.41    0.91
   4   4   4    0.26    0.23
   4   4   5    0.70    0.55
  -4  -4  -5    0.31    0.76
   4   4   5    0.74    0.37
   4   4   6   29.84    6.65
  -4  -4  -6   23.93    2.14
   4   4   6   31.31    1.63
   4   4   7    8.53    1.24
  -4  -4  -7   10.73    1.75
   4   4   7   10.61    1.25
   4   4   8    4.68    0.97
  -4  -4  -8    5.00    1.32
   4   4   8    5.37    0.96
   4   4   9   85.88   13.43
  -4  -4  -9   89.61    5.10
   4   4   9   95.13    4.56
   4   4  10    2.46    0.75
  -4  -4 -10    1.63    1.10
   4   4  10   -0.30    0.58
   4   4  11    1.31    0.64
  -4  -4 -11    3.52    1.68
   4   4  11    1.07    0.96
   4   4  12   12.51    2.97
  -4  -4 -12    9.88    1.83
   4   4  12   11.33    1.90
   4   4  13    3.06    1.11
  -4  -4 -13    2.70    1.08
  -4  -4 -14    3.24    1.27
  -4  -4 -15    3.06    1.66
  -4  -5  15    3.92    2.68
   4   5 -14    0.89    1.39
  -4  -5  14    2.36    1.58
   4   5 -13    1.10    0.74
  -4  -5  13    0.98    1.36
   4   5 -12    2.68    0.90
  -4  -5  12    4.19    2.05
   4   5 -11   20.56    3.55
  -4  -5  11   20.15    3.11
   4   5 -10    1.91    0.70
  -4  -5  10    1.56    1.25
   4   5  -9    8.05    1.68
  -4  -5   9    7.51    1.81
   4   5  -8    3.48    1.31
  -4  -5   8    3.23    1.40
   4   5  -7   14.99    2.88
  -4  -5   7   13.09    1.99
   4   5  -6    7.82    1.42
  -4  -5   6    6.33    1.62
   4   5  -5    0.11    0.30
  -4  -5   5    0.47    0.87
   4   5  -4   37.24    4.76
  -4  -5   4   28.38    2.68
  -4  -5   4   31.11    2.27
   4   5  -3  257.56    6.68
  -4  -5   3  194.19    6.36
  -4  -5   3  189.55    5.36
   4   5  -2  173.21    4.79
  -4  -5   2  122.87    4.45
  -4  -5   2  125.21    3.60
   4   5  -1   12.88    3.59
  -4  -5   1    9.71    1.43
  -4  -5   1   10.50    1.12
   4   5   0  163.40    4.82
  -4  -5   0  117.83    4.30
  -4  -5   0  110.59    2.73
   4   5   1    8.06    1.75
  -4  -5  -1    6.42    1.23
  -4  -5  -1    5.44    0.99
   4   5   2   18.70    4.27
  -4  -5  -2   11.98    1.51
   4   5   3   53.76    8.16
  -4  -5  -3   37.81    2.34
   4   5   4   53.90    5.00
  -4  -5  -4   40.92    2.65
   4   5   5    7.54    1.58
  -4  -5  -5    4.05    1.13
   4   5   6    9.47    1.98
  -4  -5  -6    5.25    1.33
   4   5   7   59.52    9.25
  -4  -5  -7   46.90    3.07
   4   5   8  176.44    9.31
  -4  -5  -8  153.78    7.35
   4   5   9   23.38    3.49
  -4  -5  -9   24.84    2.84
   4   5   9   19.77    1.65
   4   5  10   16.54    2.38
  -4  -5 -10   16.53    2.47
   4   5  10   13.97    1.65
   4   5  11    0.95    0.87
  -4  -5 -11    2.21    1.68
   4   5  12    0.09    0.57
  -4  -5 -12    2.94    1.23
   4   5  13    0.80    0.78
  -4  -5 -13   -0.13    0.93
  -4  -5 -14    0.95    1.06
  -4  -5 -15    2.73    1.77
  -4  -6  14    3.43    2.14
   4   6 -13    1.75    1.09
  -4  -6  13   -0.08    1.12
   4   6 -12    0.54    0.90
  -4  -6  12   -0.09    1.12
   4   6 -11    2.62    1.59
  -4  -6  11    1.88    1.90
   4   6 -10   15.89    3.71
  -4  -6  10   18.93    3.25
   4   6  -9    1.32    0.63
  -4  -6   9    1.27    1.52
   4   6  -8    5.33    1.89
  -4  -6   8    2.75    1.09
   4   6  -7  101.94   18.25
  -4  -6   7  102.93    4.79
   4   6  -6   30.25    3.65
   4   6  -6   32.56    5.36
  -4  -6   6   31.35    2.87
   4   6  -5    2.59    0.62
  -4  -6   5    2.58    1.45
  -4  -6   5    2.14    0.82
   4   6  -4  198.36    5.09
  -4  -6   4  156.41    5.62
  -4  -6   4  155.11    4.66
   4   6  -3   35.00    6.37
  -4  -6   3   26.65    2.75
  -4  -6   3   26.65    1.93
   4   6  -2    9.47    1.29
  -4  -6   2    8.10    1.74
  -4  -6   2    6.02    0.92
   4   6  -1   14.38    2.60
  -4  -6   1    9.45    1.47
  -4  -6   1    9.42    0.98
   4   6   0    3.49    1.18
  -4  -6   0    3.13    1.47
  -4  -6   0    0.51    0.25
   4   6   1   -0.44    0.87
  -4  -6  -1   -0.81    0.94
   4   6   2   47.75    6.86
  -4  -6  -2   29.89    2.40
   4   6   3   52.76    9.41
  -4  -6  -3   40.62    2.64
   4   6   4  158.19    6.93
  -4  -6  -4  114.60    4.63
   4   6   5    6.06    1.47
  -4  -6  -5    3.30    1.16
   4   6   6    8.59    2.00
  -4  -6  -6    7.70    1.87
   4   6   7  123.39    6.14
  -4  -6  -7  100.01    4.56
   4   6   8    3.22    1.03
  -4  -6  -8    3.32    1.17
   4   6   9   23.82    3.34
  -4  -6  -9   20.46    2.67
   4   6  10    3.97    2.74
  -4  -6 -10    1.46    1.31
   4   6  11   13.88    2.27
  -4  -6 -11   21.29    3.25
   4   6  12    5.69    1.91
  -4  -6 -12    6.34    2.09
   4   6  13    5.22    2.28
  -4  -6 -13    9.55    2.32
  -4  -6 -14   19.90    3.50
  -4  -6 -15    0.59    1.24
  -4  -6 -16    1.33    1.36
  -4  -7  13    2.18    1.44
   4   7 -12    8.03    2.63
  -4  -7  12    0.96    1.40
   4   7 -11    0.90    0.62
  -4  -7  11    0.69    1.30
   4   7 -10    5.70    1.50
  -4  -7  10    3.18    1.87
   4   7  -9   11.07    2.81
  -4  -7   9    5.56    1.74
   4   7  -8    1.02    0.91
  -4  -7   8    0.95    0.96
   4   7  -7    7.39    1.21
  -4  -7   7    6.95    1.61
   4   7  -6    1.82    0.95
   4   7  -6    1.12    1.28
  -4  -7   6    3.10    1.34
   4   7  -5  131.84    6.18
  -4  -7   5  109.58    5.16
  -4  -7   5  112.21    4.24
   4   7  -4    3.79    0.93
  -4  -7   4    2.58    1.32
  -4  -7   4    1.75    0.96
   4   7  -3   24.29    2.14
  -4  -7   3   17.56    2.36
  -4  -7   3   17.76    1.73
   4   7  -2    9.74    2.33
  -4  -7   2    4.72    0.80
   4   7  -1  252.91    6.51
  -4  -7   1  163.83    5.61
  -4  -7   1  167.06    3.44
   4   7   0    0.56    0.66
  -4  -7   0    1.57    1.55
   4   7   1  120.15    4.41
  -4  -7  -1   78.90    4.24
   4   7   2   69.05    3.63
  -4  -7  -2   47.46    2.90
   4   7   3   53.37    3.20
  -4  -7  -3   34.25    2.76
   4   7   4  118.55   10.32
  -4  -7  -4   78.05    3.75
   4   7   5   50.14    8.40
  -4  -7  -5   31.39    2.90
   4   7   6   16.49    3.81
  -4  -7  -6   11.06    1.99
   4   7   7   25.90    5.67
  -4  -7  -7   18.79    2.68
   4   7   8    7.94    1.87
  -4  -7  -8    9.66    2.14
   4   7   9   31.64    4.47
  -4  -7  -9   28.54    2.94
   4   7  10   17.06    3.86
  -4  -7 -10   23.44    3.27
   4   7  11    1.17    1.14
  -4  -7 -11    1.88    1.35
   4   7  12   15.07    2.73
  -4  -7 -12   13.67    2.41
   4   7  13    2.06    1.59
  -4  -7 -13    2.85    1.67
  -4  -7 -14    0.81    1.30
  -4  -7 -15    5.86    2.39
  -4  -7 -16    2.78    2.41
  -4  -8  12   25.09    4.05
   4   8 -11    5.06    1.72
  -4  -8  11    3.73    1.53
   4   8 -10    2.09    1.11
  -4  -8  10    1.02    0.95
   4   8  -8    1.32    0.70
  -4  -8   8    2.09    1.49
   4   8  -7   -0.07    1.06
  -4  -8   7   -0.33    0.90
   4   8  -6    2.15    0.96
  -4  -8   6    2.86    1.11
   4   8  -5   13.73    3.36
  -4  -8   5   14.45    2.03
  -4  -8   5   12.30    1.94
   4   8  -4   35.68    2.80
  -4  -8   4   24.87    2.76
  -4  -8   4   26.02    2.01
   4   8  -3   12.49    1.69
  -4  -8   3   12.17    2.25
  -4  -8   3   11.65    1.52
   4   8  -2   91.62    9.00
  -4  -8   2   66.14    4.80
  -4  -8   2   67.45    6.47
   4   8  -1   23.85    4.61
  -4  -8   1   16.57    2.73
  -4  -8   1   16.08    1.40
   4   8   0   51.33   10.37
  -4  -8   0   34.78    3.11
   4   8   1    5.01    1.24
  -4  -8  -1    4.07    1.32
   4   8   2    3.40    1.58
  -4  -8  -2    2.40    1.22
   4   8   3   17.96    3.44
  -4  -8  -3    9.20    1.64
   4   8   4   69.14   10.48
  -4  -8  -4   42.22    3.11
   4   8   5    4.77    1.81
  -4  -8  -5    1.83    1.22
   4   8   6  102.64    6.50
  -4  -8  -6   81.86    4.43
   4   8   7   41.70    8.68
  -4  -8  -7   29.41    2.88
   4   8   8    5.50    1.73
  -4  -8  -8    5.40    1.89
   4   8   9   53.14    7.60
  -4  -8  -9   37.08    4.20
   4   8  10   13.77    1.91
  -4  -8 -10    8.29    1.75
   4   8  11    1.69    1.13
  -4  -8 -11    2.09    1.42
   4   8  12    1.42    1.20
  -4  -8 -12    2.01    1.50
   4   8  13    3.42    1.47
  -4  -8 -13    2.54    1.45
  -4  -8 -14    2.23    1.96
  -4  -8 -15    0.85    1.30
  -4  -8 -16    0.97    1.48
   4   9 -10    7.82    2.06
  -4  -9  10    9.16    2.48
   4   9  -9    2.56    1.22
  -4  -9   9    0.53    1.10
   4   9  -8    5.86    2.39
  -4  -9   8    8.01    1.81
   4   9  -7    5.31    1.17
  -4  -9   7    4.91    1.39
   4   9  -6    3.39    1.15
  -4  -9   6    2.61    0.94
   4   9  -5   -0.49    0.77
  -4  -9   5    0.11    1.29
  -4  -9   5    1.60    1.11
   4   9  -4    8.53    2.05
  -4  -9   4    5.62    1.64
  -4  -9   4    7.42    1.33
   4   9  -3   32.82    6.54
  -4  -9   3   26.93    3.32
  -4  -9   3   23.56    2.32
   4   9  -2   30.72    3.01
  -4  -9   2   23.96    2.90
  -4  -9   2   17.74    1.52
   4   9  -1  343.10   12.15
  -4  -9   1  224.05    7.00
   4   9   0    1.85    1.20
  -4  -9   0    1.73    1.40
   4   9   1   29.59    5.34
  -4  -9  -1   18.37    2.33
   4   9   2    0.72    0.83
  -4  -9  -2    2.19    1.30
   4   9   3    7.36    1.54
  -4  -9  -3    2.26    1.31
   4   9   4    0.01    1.15
  -4  -9  -4    3.64    1.85
   4   9   5    7.01    1.68
  -4  -9  -5    6.00    1.74
   4   9   6    2.14    1.35
  -4  -9  -6    2.29    1.84
   4   9   7   11.35    2.22
  -4  -9  -7    5.54    1.55
   4   9   8   34.34    6.66
  -4  -9  -8   24.64    3.53
   4   9   9   12.28    2.09
  -4  -9  -9   10.57    2.64
   4   9  10   75.58   18.51
  -4  -9 -10   63.13    5.06
   4   9  11    6.47    1.33
  -4  -9 -11    3.62    1.51
   4   9  12    1.19    1.30
  -4  -9 -12    0.80    1.34
   4   9  13    0.62    1.25
  -4  -9 -13    0.78    1.30
  -4  -9 -14    2.21    1.49
  -4  -9 -15    2.88    1.68
   4  10  -9    3.94    1.31
   4  10  -8    2.95    1.74
   4  10  -7   13.76    4.33
  -4 -10   7   17.76    2.66
  -4 -10   6   22.74    2.56
   4  10  -5    9.94    2.16
  -4 -10   5    6.53    1.73
  -4 -10   5    7.46    1.75
   4  10  -4    1.59    0.69
  -4 -10   4    4.36    1.75
   4  10  -3   45.49    3.81
  -4 -10   3   35.77    3.63
   4  10  -2    0.76    0.44
  -4 -10   2    2.38    1.74
   4  10  -1    3.17    1.23
  -4 -10   1    1.63    1.33
   4  10   0   26.30    6.77
  -4 -10   0   14.53    2.44
   4  10   1   71.33    4.79
  -4 -10  -1   43.95    3.66
   4  10   2    0.83    0.78
  -4 -10  -2    1.16    1.24
   4  10   3   51.84   11.17
  -4 -10  -3   29.08    3.02
   4  10   4    8.41    2.25
  -4 -10  -4    4.54    1.37
   4  10   5  210.09   11.99
  -4 -10  -5  149.34    6.27
   4  10   6   35.41    7.26
  -4 -10  -6   22.80    2.95
   4  10   7    5.89    1.75
  -4 -10  -7    7.34    2.16
   4  10   8   62.97   11.99
  -4 -10  -8   50.10    4.68
   4  10   9   77.02    4.90
  -4 -10  -9   63.52    5.09
   4  10  10   -1.54    1.37
  -4 -10 -10    3.18    1.64
   4  10  11    8.60    1.89
  -4 -10 -11    1.89    1.40
   4  10  12    1.15    1.16
  -4 -10 -12    0.14    1.31
  -4 -10 -13    0.74    1.31
  -4 -10 -14   -0.62    1.14
  -4 -10 -15    1.68    1.65
   4  11  -7    2.48    0.96
   4  11  -5   13.14    2.17
  -4 -11   5   11.61    2.50
   4  11  -4    1.11    0.76
   4  11  -3   -0.70    0.94
  -4 -11   3    2.74    1.87
   4  11  -2    0.62    1.08
  -4 -11   2    0.54    1.15
   4  11  -1   17.03    3.10
  -4 -11   1   17.32    2.82
   4  11   0   -0.19    1.29
  -4 -11   0    0.87    0.95
   4  11   1    0.20    1.30
  -4 -11  -1    3.56    1.46
   4  11   2   10.93    2.60
  -4 -11  -2    7.41    2.24
   4  11   3   -1.33    1.60
  -4 -11  -3    0.67    1.21
   4  11   4  145.33   11.26
  -4 -11  -4   93.87    5.23
   4  11   5    1.85    1.00
  -4 -11  -5   -0.40    1.43
   4  11   6   55.63    9.70
  -4 -11  -6   37.84    3.58
   4  11   7    2.33    1.21
  -4 -11  -7    1.62    1.40
   4  11   8   34.63    6.86
  -4 -11  -8   19.25    3.07
   4  11   9   11.02    2.54
  -4 -11  -9    8.90    1.97
   4  11  10    7.76    2.11
  -4 -11 -10    9.08    2.49
   4  11  11    2.26    1.19
  -4 -11 -11    0.42    1.25
   4  11  12    1.47    0.86
  -4 -11 -12    1.46    1.35
  -4 -11 -13   -0.32    1.26
  -4 -11 -14   -0.33    1.23
  -4 -12   5    5.31    2.10
   4  12  -4   -0.11    1.03
  -4 -12   4    2.25    1.59
   4  12  -3    3.10    1.73
  -4 -12   3    0.59    1.16
   4  12  -2   -1.54    1.32
  -4 -12   2    2.11    1.40
   4  12  -1    1.96    1.60
  -4 -12   1    1.43    1.22
   4  12   0   10.04    2.80
  -4 -12   0    5.59    1.62
   4  12   1   -0.28    1.44
  -4 -12  -1    1.62    1.53
   4  12   2    1.87    1.24
  -4 -12  -2    2.24    1.36
   4  12   3   14.70    3.25
  -4 -12  -3    9.48    2.21
   4  12   4    1.63    1.52
  -4 -12  -4    1.81    1.71
   4  12   5   11.56    2.72
  -4 -12  -5    9.13    2.16
   4  12   6    1.20    1.54
  -4 -12  -6   -0.20    1.23
   4  12   7    0.66    0.70
  -4 -12  -7   -0.83    1.07
   4  12   8    3.22    2.30
  -4 -12  -8   -0.08    1.07
   4  12   9    1.96    1.25
  -4 -12  -9    0.90    1.22
   4  12  10    1.74    1.00
  -4 -12 -10   -0.42    1.29
   4  12  11    1.02    0.89
  -4 -12 -11    0.16    1.23
  -4 -12 -12    2.52    1.67
  -4 -12 -13    1.20    1.40
   4  13  -3    2.22    1.41
   4  13  -2    1.05    1.16
  -4 -13   2    3.67    1.79
   4  13  -1   11.16    2.88
  -4 -13   1    8.05    2.42
   4  13   0    0.47    0.46
  -4 -13   0    0.60    1.27
   4  13   1    8.98    2.26
  -4 -13  -1    4.21    1.80
   4  13   2   -1.86    1.43
   4  13   3    4.60    2.11
  -4 -13  -3    0.27    1.13
   4  13   4    2.18    1.59
  -4 -13  -4    0.92    1.14
   4  13   5    8.04    2.83
  -4 -13  -5    2.61    1.62
   4  13   6    0.82    0.61
  -4 -13  -6    4.14    1.79
   4  13   7    1.89    0.92
  -4 -13  -7   -0.07    1.08
   4  13   8    2.83    1.44
  -4 -13  -8   -0.39    1.22
   4  13   9    1.27    1.41
  -4 -13  -9   -0.56    1.26
   4  13  10    1.71    1.23
  -4 -13 -10    1.77    1.49
  -4 -13 -11    1.30    1.42
  -4 -13 -12    3.75    2.15
   4  14  -1    2.08    0.63
   4  14   0    3.24    2.10
   4  14   1    3.79    1.98
  -4 -14  -1    6.65    2.43
   4  14   2    1.03    1.10
  -4 -14  -2    1.64    1.28
   4  14   3    1.98    1.71
  -4 -14  -3    1.29    1.25
   4  14   4   11.02    2.88
  -4 -14  -4    3.53    1.84
   4  14   5    1.02    0.99
  -4 -14  -5    0.86    1.22
   4  14   6    5.64    1.86
  -4 -14  -6    2.06    1.41
   4  14   7    0.01    1.41
  -4 -14  -7    0.09    1.23
  -4 -14  -8    2.41    1.47
   4  14   9   -0.59    1.48
  -4 -14  -9    0.85    1.41
   4  15   1    1.60    1.88
   4  15   2    0.58    1.87
   4  15   3    1.09    1.45
   4  15   4    3.07    1.09
   4  15   5    0.05    0.91
   4  15   6    3.59    2.49
   4  15   7   -1.04    1.61
   5 -10  -4    4.01    1.01
  -5  10   3    1.32    1.23
   5 -10  -3    2.63    1.63
  -5  10   2    1.20    1.18
   5 -10  -2    0.74    0.97
  -5  10   1    8.38    2.30
   5 -10  -1    6.14    1.50
  -5  10   0    1.48    1.38
   5 -10   0    2.89    1.19
  -5  10  -1    0.99    1.37
   5 -10   1    3.76    1.25
  -5  10  -2    2.47    1.52
   5 -10   2    3.99    2.19
  -5  10  -3    1.27    1.46
   5 -10   3    1.15    1.55
  -5  10  -4    3.71    2.31
   5 -10   4    5.38    2.58
  -5  10  -5    1.19    1.37
   5  -9  -7   20.74    6.46
  -5   9   5    2.38    1.54
   5  -9  -5   -1.19    1.35
  -5   9   4    7.66    2.29
   5  -9  -4    8.83    3.67
  -5   9   3   37.16    3.88
   5  -9  -3   33.82    8.66
  -5   9   2    8.89    2.52
   5  -9  -2    3.13    1.26
  -5   9   1   18.12    3.14
   5  -9  -1   14.52    3.08
  -5   9   0    3.04    1.48
   5  -9   0    5.08    1.51
  -5   9  -1    0.03    1.18
   5  -9   1   -0.85    1.32
  -5   9  -2    0.75    1.40
   5  -9   2   -0.90    1.30
  -5   9  -3    2.28    2.02
   5  -9   3    2.69    1.03
  -5   9  -4    1.22    1.39
   5  -9   4    5.74    2.42
  -5   9  -5    1.53    1.36
   5  -9   5    0.82    1.66
  -5   9  -6    3.00    1.57
   5  -9   6    4.60    2.86
   5  -8  -8    4.52    0.83
   5  -8  -7    1.62    0.91
  -5   8   6    4.36    1.38
   5  -8  -6    7.94    2.75
  -5   8   5   -0.24    0.85
   5  -8  -5    0.93    1.34
  -5   8   4    7.63    2.01
  -5   8   3    3.40    1.25
   5  -8  -3    3.26    1.45
  -5   8   2   24.88    2.90
   5  -8  -2   29.23    8.86
  -5   8   1    1.44    1.29
   5  -8  -1    0.64    0.94
  -5   8   0    0.04    1.14
   5  -8   0    1.86    1.17
  -5   8  -1    0.33    1.25
   5  -8   1    4.62    1.78
  -5   8  -2    0.99    1.34
   5  -8   2    1.99    1.25
  -5   8  -3    0.46    1.21
   5  -8   3    1.90    1.58
  -5   8  -4    0.84    1.29
   5  -8   4   -0.06    1.50
  -5   8  -5   -0.14    1.32
   5  -8   5    2.06    2.03
  -5   8  -6    2.13    1.52
   5  -8   6    4.84    2.88
  -5   8  -7    2.92    2.02
   5  -8   7    7.83    2.80
  -5   8  -8    1.14    1.43
   5  -8   8    2.90    1.85
   5  -8   9    4.83    1.64
  -5   7  11    2.01    1.33
  -5   7  10    0.50    0.72
  -5   7   9    1.81    1.58
  -5   7   8    1.48    1.29
  -5   7   6   11.36    1.91
   5  -7  -6   10.68    3.22
  -5   7   5   19.90    2.55
   5  -7  -5   20.92    4.35
  -5   7   4    2.85    1.34
   5  -7  -4    0.67    1.40
  -5   7   3    0.36    0.88
  -5   7   2    8.24    1.92
   5  -7  -2   12.60    2.39
  -5   7   1    2.80    1.59
   5  -7  -1    0.74    0.78
  -5   7   0    1.59    1.26
   5  -7   0    1.30    0.99
  -5   7  -1    3.85    1.37
   5  -7   1    5.89    1.83
  -5   7  -2    8.01    2.29
   5  -7   2    5.95    1.90
  -5   7  -3    8.35    2.35
   5  -7   3   15.81    3.76
  -5   7  -4    1.82    1.92
   5  -7   4    0.69    1.00
  -5   7  -5    1.14    1.17
   5  -7   5    2.05    1.67
  -5   7  -6    0.83    1.23
   5  -7   6    1.82    1.70
  -5   7  -7    2.48    1.75
   5  -7   7    2.58    1.23
  -5   7  -8    2.67    1.86
   5  -7   8    5.60    2.90
  -5   7  -9    1.01    1.26
   5  -7   9   -0.23    1.59
   5  -7  10    3.88    2.51
  -5   6  12    0.45    1.19
  -5   6  11    8.25    2.29
  -5   6  10    2.56    1.60
   5  -6  -9    1.25    1.26
  -5   6   9    2.07    0.75
   5  -6  -8   -0.04    0.98
  -5   6   8    1.76    1.89
  -5   6   7   22.94    3.14
  -5   6   6    0.85    0.83
  -5   6   6    0.96    1.29
  -5   6   5    1.03    1.16
   5  -6  -5    1.39    0.72
  -5   6   4    3.77    1.40
   5  -6  -4    5.38    1.54
  -5   6   3    1.85    1.06
   5  -6  -3    0.50    1.09
  -5   6   2   11.41    2.04
  -5   6   1    1.25    1.20
  -5   6   0   12.22    2.21
   5  -6   0   13.48    3.01
  -5   6  -1    1.44    1.27
   5  -6   1    3.27    1.43
  -5   6  -2    0.67    1.20
   5  -6   2    1.84    1.08
  -5   6  -3    1.56    1.30
   5  -6   3   -0.49    1.57
  -5   6  -4   -0.47    1.22
   5  -6   4    7.02    2.60
  -5   6  -5    2.49    1.35
   5  -6   5    5.23    2.05
  -5   6  -6    1.37    1.25
   5  -6   6    1.70    1.67
  -5   6  -7   -0.05    1.15
   5  -6   7    0.92    1.58
  -5   6  -8    5.28    1.87
   5  -6   8    4.04    1.89
  -5   6  -9    3.39    1.80
   5  -6   9    0.25    1.52
  -5   6 -10    3.11    1.79
   5  -6  10   -0.11    1.43
   5  -6  11    1.16    1.67
  -5   5  13   18.61    3.16
   5  -5 -12   43.78   10.11
  -5   5  12   41.38    4.49
   5  -5 -11    2.31    1.35
  -5   5  11    1.03    1.18
   5  -5 -10    0.17    1.13
  -5   5  10    4.15    1.86
   5  -5  -9   23.77    3.04
  -5   5   9   17.86    2.83
   5  -5  -8    3.64    1.28
  -5   5   8    2.94    1.41
   5  -5  -7    1.64    0.93
  -5   5   7    2.07    0.99
  -5   5   6    3.74    1.12
   5  -5  -6    2.32    0.96
  -5   5   6    4.18    1.04
  -5   5   5    0.87    0.86
   5  -5  -5   -0.36    0.76
  -5   5   5    0.56    1.30
  -5   5   4  202.60    6.18
   5  -5  -4  259.51   17.09
  -5   5   3   54.99    3.57
   5  -5  -3   71.24   10.08
  -5   5   2    3.06    1.42
   5  -5  -2    5.94    1.70
  -5   5   1  138.40    5.51
   5  -5   0    3.20    1.07
  -5   5  -1   10.38    2.05
   5  -5   1   11.82    2.57
  -5   5  -2   90.96    5.19
   5  -5   2  122.18    9.10
  -5   5  -3   15.74    2.74
   5  -5   3   31.08    6.21
  -5   5  -4    5.90    2.03
   5  -5   4   11.96    2.55
  -5   5  -5    4.20    1.90
   5  -5   5    4.99    1.30
  -5   5  -6    1.66    1.31
   5  -5   6    0.69    1.63
  -5   5  -7    4.24    1.91
   5  -5   7    8.11    2.40
  -5   5  -8    4.04    1.95
   5  -5   8    2.46    2.16
  -5   5  -9   23.93    3.56
   5  -5   9   33.67    4.49
  -5   5 -10    0.94    1.25
   5  -5  10    1.50    1.82
  -5   5 -11    1.01    1.11
   5  -5  11    2.97    2.26
   5  -5  12    0.85    1.63
  -5   4  14    1.88    1.55
   5  -4 -13   11.32    2.83
  -5   4  13    9.62    2.46
   5  -4 -12    1.86    1.66
  -5   4  12    2.41    1.77
   5  -4 -11    2.81    1.73
  -5   4  11    3.25    2.05
   5  -4 -10   40.80    3.61
  -5   4  10   31.43    3.41
   5  -4  -9    7.14    1.98
  -5   4   9    8.13    2.44
   5  -4  -8   32.20    3.05
  -5   4   8   26.63    3.10
   5  -4  -7    0.84    1.10
  -5   4   7    0.89    1.25
  -5   4   6    8.63    1.38
   5  -4  -6   15.28    1.97
  -5   4   6   10.47    2.11
  -5   4   5    0.32    0.69
   5  -4  -5    1.84    0.84
  -5   4   5    2.02    1.30
  -5   4   4   23.29    2.21
   5  -4  -4   27.55    2.14
  -5   4   4   19.52    2.47
  -5   4   3    6.44    1.44
   5  -4  -3    6.22    1.02
  -5   4   2  404.39    8.41
   5  -4  -2  499.43   10.47
  -5   4   1   22.22    2.34
   5  -4  -1   33.80    4.78
  -5   4   0    1.89    1.21
  -5   4  -1   78.11    4.17
   5  -4   1   99.30   17.32
  -5   4  -2    6.52    2.00
   5  -4   2    1.62    1.42
  -5   4  -3   15.60    2.42
   5  -4   3   20.29    3.80
  -5   4  -4    3.89    1.28
   5  -4   4    8.95    1.70
  -5   4  -5    2.59    1.47
   5  -4   5    2.40    1.82
  -5   4  -6    2.88    1.51
   5  -4   6    7.39    2.19
  -5   4  -7    2.50    1.41
   5  -4   7    5.86    1.92
  -5   4  -8   38.88    3.62
   5  -4   8   48.37    9.80
  -5   4  -9    4.11    1.76
   5  -4   9   13.13    3.25
  -5   4 -10    7.72    2.08
   5  -4  10    7.85    2.25
  -5   4 -11    1.03    1.17
   5  -4  11    0.81    1.46
   5  -4  12    0.85    1.60
   5  -4  13    1.74    1.51
   5  -3 -14   -1.12    1.39
  -5   3  14    2.31    1.42
   5  -3 -13    1.54    1.55
  -5   3  13    0.81    1.30
   5  -3 -12    0.31    1.06
  -5   3  12    2.26    1.33
   5  -3 -11    6.44    2.40
  -5   3  11    0.24    1.21
   5  -3 -10   12.28    2.70
  -5   3  10   15.72    2.80
   5  -3  -9    0.99    1.39
  -5   3   9    1.15    1.40
   5  -3  -8   52.96    4.53
  -5   3   8   33.96    3.51
   5  -3  -7   89.10    4.72
  -5   3   7   67.19    4.38
  -5   3   6    5.82    1.10
   5  -3  -6   11.04    2.18
  -5   3   6    3.04    1.21
  -5   3   5    2.72    0.86
   5  -3  -5    3.15    1.14
  -5   3   5    1.48    1.31
  -5   3   4    6.57    1.41
   5  -3  -4    7.88    1.49
  -5   3   4    5.45    1.59
  -5   3   3    3.75    0.96
   5  -3  -3    6.91    1.11
  -5   3   3    5.51    1.50
  -5   3   2    2.63    1.05
   5  -3  -2    6.04    1.47
   5  -3  -2    5.61    1.23
  -5   3   1   14.27    1.86
   5  -3  -1   20.92    4.06
  -5   3   0   -1.28    0.88
   5  -3   0    0.84    0.87
  -5   3  -1   28.97    2.53
   5  -3   1   43.32    3.19
  -5   3  -2   29.81    2.97
   5  -3   2   32.57    6.74
  -5   3  -3   11.62    1.84
   5  -3   3   14.01    2.92
  -5   3  -4   14.81    2.53
   5  -3   4   21.33    2.72
  -5   3  -5    5.25    1.96
   5  -3   5    9.73    1.85
  -5   3  -6    2.14    1.67
   5  -3   6   -0.24    1.40
  -5   3  -7    7.10    1.92
   5  -3   7   11.98    2.37
  -5   3  -8    6.91    2.07
   5  -3   8   11.40    3.57
  -5   3  -9   14.15    2.68
   5  -3   9   28.12    3.95
  -5   3 -10    0.42    1.15
   5  -3  10    0.55    0.93
  -5   3 -11    1.39    1.23
   5  -3  11    1.14    1.36
  -5   3 -12    2.53    1.61
   5  -3  12    0.77    1.30
   5  -3  13    0.23    1.47
   5  -2 -15   -0.78    1.49
  -5   2  15    0.53    1.34
   5  -2 -14    2.08    2.41
  -5   2  14    0.96    1.31
   5  -2 -13   -0.40    1.35
  -5   2  13    1.36    1.39
   5  -2 -12    1.70    1.50
  -5   2  12    0.80    1.37
   5  -2 -11   22.68    3.63
  -5   2  11   14.34    2.29
   5  -2 -10    0.22    1.58
  -5   2  10    0.44    1.27
   5  -2  -9   13.49    2.68
  -5   2   9    8.06    2.39
   5  -2  -8   23.42    4.25
  -5   2   8   14.46    2.03
   5  -2  -7   46.27    3.20
  -5   2   7   35.45    3.51
  -5   2   6   59.67    2.49
   5  -2  -6  102.91    4.19
  -5   2   6   82.97    4.70
  -5   2   5   94.65    4.35
   5  -2  -5  156.28    7.11
  -5   2   5  116.10    6.18
  -5   2   4  114.90    3.72
   5  -2  -4  183.09    5.05
  -5   2   4  137.70    5.27
  -5   2   3    7.99    1.18
   5  -2  -3   13.47    1.60
  -5   2   3    7.63    1.99
  -5   2   2   45.74    2.49
   5  -2  -2   70.13    2.63
  -5   2   2   50.41    3.19
  -5   2   1   24.84    1.98
   5  -2  -1   40.87    1.77
   5  -2  -1   38.73    6.35
  -5   2   0    1.76    0.99
   5  -2   0    2.62    0.95
  -5   2  -1    4.23    1.51
  -5   2  -2   22.62    2.58
   5  -2   2   32.54    6.69
  -5   2  -3  158.31    5.54
   5  -2   3  211.83    9.04
  -5   2  -4    3.12    1.27
   5  -2   4    0.70    0.75
  -5   2  -5    7.19    1.74
   5  -2   5   11.75    2.27
  -5   2  -6    2.15    1.20
   5  -2   6    4.31    1.63
  -5   2  -7    4.29    1.51
   5  -2   7    6.45    1.77
  -5   2  -8    1.50    1.60
   5  -2   8    1.43    0.76
  -5   2  -9    0.51    1.10
   5  -2   9    4.08    1.69
  -5   2 -10   -0.19    0.94
   5  -2  10    3.82    1.59
  -5   2 -11    1.72    1.69
   5  -2  11    0.05    1.44
  -5   2 -12    2.81    1.45
   5  -2  12   -0.14    1.25
   5  -2  13    3.00    1.63
   5  -2  14   -0.32    1.22
   5  -1 -15    2.34    0.87
  -5   1  15    0.29    1.94
   5  -1 -14    3.45    1.91
  -5   1  14    1.70    1.45
   5  -1 -13    2.29    1.70
   5  -1 -12   52.32    4.72
  -5   1  12   42.99    4.25
   5  -1 -11    1.35    1.62
   5  -1 -10   73.52    4.65
  -5   1  10   55.69    4.38
   5  -1  -9    0.97    1.41
  -5   1   9    2.88    1.49
   5  -1  -8   30.22    3.21
  -5   1   8   24.82    3.03
   5  -1  -7   19.14    2.18
  -5   1   7   19.31    2.51
   5  -1  -6  532.21   19.56
  -5   1   6  402.45   15.80
  -5   1   5  111.72    3.26
   5  -1  -5  174.63    6.85
  -5   1   5  141.56    5.52
  -5   1   4    1.08    0.73
   5  -1  -4    1.18    0.80
  -5   1   4    1.94    1.27
  -5   1   3   24.26    1.80
   5  -1  -3   34.00    4.85
  -5   1   3   26.46    2.36
  -5   1   2    0.21    0.59
   5  -1  -2    0.01    0.47
  -5   1   2    2.16    1.20
  -5   1   1   62.67    3.19
   5  -1  -1   84.03    3.68
  -5   1   1   77.52    4.01
  -5   1   0   28.52    2.18
   5  -1   0   32.71    5.41
   5  -1   0   41.43    7.97
  -5   1  -1  173.14    5.82
   5  -1   1  206.33    5.26
   5  -1   1  216.16   10.24
  -5   1  -2   23.94    2.25
   5  -1   2   31.55    4.94
  -5   1  -3   21.87    2.44
   5  -1   3   30.56    6.14
  -5   1  -4   56.64    3.55
   5  -1   4   81.57   11.74
  -5   1  -5   39.94    3.20
   5  -1   5   56.45    3.81
  -5   1  -6    0.88    1.06
   5  -1   6    0.80    1.14
  -5   1  -7   29.77    3.00
   5  -1   7   50.28    3.72
  -5   1  -8    0.70    1.04
   5  -1   8    1.08    0.78
  -5   1  -9    1.41    1.09
   5  -1   9    1.36    1.27
  -5   1 -10    8.48    1.91
   5  -1  10   18.62    3.04
  -5   1 -11    5.55    1.67
   5  -1  11   11.37    2.77
  -5   1 -12   12.55    2.34
   5  -1  12   16.64    3.33
  -5   1 -13    0.42    1.01
   5  -1  13   -0.21    1.38
   5  -1  14   13.21    3.21
   5   0 -15    0.44    1.66
  -5   0  15    1.18    1.47
   5   0 -14    1.02    1.66
  -5   0  14    0.67    1.37
   5   0 -13   16.32    3.15
  -5   0  13   13.37    2.98
   5   0 -12    7.90    2.00
  -5   0  12    4.51    1.90
   5   0 -11   78.79    5.19
  -5   0  11   57.35    5.05
   5   0 -10    3.68    2.27
  -5   0  10    2.95    2.04
   5   0  -9   12.68    3.68
  -5   0   9   11.83    2.39
   5   0  -8   23.39    3.74
  -5   0   8   21.18    2.53
   5   0  -7    5.43    1.31
  -5   0   7    7.49    1.86
   5   0  -6   27.84    4.15
  -5   0   6   33.79    2.97
  -5   0   5   26.91    1.39
   5   0  -5   52.21    8.95
  -5   0   5   38.89    2.79
  -5   0   4    1.07    0.46
   5   0  -4    0.50    0.51
  -5   0   4    1.32    1.16
  -5   0   3   41.64    2.03
   5   0  -3   55.52   10.18
  -5   0   3   42.66    2.69
  -5   0   2   21.16    1.69
   5   0  -2   28.58    4.71
  -5   0   2   23.84    2.23
  -5   0   1   42.56    2.41
   5   0  -1   55.39    8.11
  -5   0   1   49.73    2.89
  -5   0   0   37.47    2.30
   5   0   0   45.69    6.73
  -5   0  -1   10.54    1.64
  -5   0  -1   12.33    1.05
   5   0   1   15.90    4.00
  -5   0  -2    2.70    1.06
  -5   0  -2    2.45    0.60
   5   0   2    3.39    1.05
  -5   0  -3    8.20    1.61
  -5   0  -3    5.70    0.73
   5   0   3   10.09    2.20
  -5   0  -4   16.85    1.99
  -5   0  -4   12.80    0.97
   5   0   4   20.58    5.31
  -5   0  -5   17.69    2.09
   5   0   5   30.85    6.98
  -5   0  -6   65.61    3.78
   5   0   6   95.06    4.26
  -5   0  -7   12.68    2.22
   5   0   7   16.54    2.36
  -5   0  -8    6.16    1.65
   5   0   8    7.83    1.90
   5   0   9    1.08    0.83
  -5   0 -10   -0.21    1.04
   5   0  10    0.79    0.68
  -5   0 -11    2.00    1.40
   5   0  11    1.17    1.23
  -5   0 -12    8.08    1.95
   5   0  12   12.26    2.41
  -5   0 -13   -0.28    0.87
   5   0  13    0.54    1.28
   5   0  14    2.74    1.36
   5   1 -15    0.45    1.68
  -5  -1  15    6.11    2.75
   5   1 -14    1.24    1.64
  -5  -1  14    2.90    1.94
   5   1 -13    2.89    2.54
  -5  -1  13    0.18    1.21
   5   1 -12    3.69    2.12
  -5  -1  12    4.25    1.95
   5   1 -11    1.58    1.47
  -5  -1  11    7.49    2.27
   5   1 -10    2.47    1.53
  -5  -1  10    2.19    1.49
   5   1  -9   67.44   12.88
  -5  -1   9   66.80    5.28
   5   1  -8   26.85    4.87
  -5  -1   8   16.30    2.12
   5   1  -7   78.31   11.84
  -5  -1   7   61.93    3.97
   5   1  -6   68.47    4.03
  -5  -1   6   53.95    3.75
  -5  -1   5    1.31    0.54
   5   1  -5    2.43    1.22
  -5  -1   5    0.66    1.11
  -5  -1   4   14.95    1.21
   5   1  -4   24.84    3.81
  -5  -1   4   17.08    1.94
  -5  -1   3   43.97    2.17
   5   1  -3   64.48   10.43
  -5  -1   3   51.99    3.02
  -5  -1   2  129.01    4.06
   5   1  -2  181.23    5.50
  -5  -1   2  160.17    5.29
  -5  -1   1  178.59    4.90
  -5  -1   1  216.35    5.30
  -5  -1   1  200.76    6.11
  -5  -1   0   29.60    2.19
  -5  -1   0   35.44    1.86
  -5  -1   0   33.17    2.21
  -5  -1  -1   18.30    1.80
  -5  -1  -1   23.03    1.64
   5   1   1   26.70    5.43
  -5  -1  -2   18.65    1.88
  -5  -1  -2   16.94    1.34
  -5  -1  -3   31.14    2.33
  -5  -1  -3   29.10    1.65
   5   1   3   44.17    2.90
  -5  -1  -4   24.89    2.23
   5   1   4   35.89    7.70
  -5  -1  -5    2.51    1.56
  -5  -1  -5    4.93    0.84
   5   1   5    8.54    1.72
  -5  -1  -6    3.02    1.01
  -5  -1  -6    6.04    0.85
   5   1   6    5.53    1.48
  -5  -1  -7    6.20    1.59
  -5  -1  -7    6.67    1.19
   5   1   7    4.36    1.04
  -5  -1  -8    0.62    0.96
  -5  -1  -8    1.17    0.78
   5   1   8    1.72    1.29
  -5  -1  -9   17.59    2.65
  -5  -1  -9   21.54    1.88
   5   1   9   32.53    4.25
  -5  -1 -10   -0.79    0.98
  -5  -1 -10    0.21    0.61
   5   1  10    1.18    0.99
  -5  -1 -11    0.26    0.92
   5   1  11    1.23    1.34
  -5  -1 -12    2.07    1.38
   5   1  12    1.79    1.11
  -5  -1 -13    2.16    1.23
   5   1  13    0.18    1.00
   5   1  14   -0.25    1.12
   5   2 -15   -1.06    1.56
  -5  -2  15    2.46    1.64
   5   2 -14   11.26    3.13
  -5  -2  14    9.51    3.32
   5   2 -13    5.71    2.62
  -5  -2  13    2.45    2.02
   5   2 -12    2.75    1.68
  -5  -2  12    3.69    2.04
   5   2 -11    2.30    1.86
  -5  -2  11    1.70    1.33
   5   2 -10    5.10    2.24
  -5  -2  10   -0.04    1.25
   5   2  -9    2.27    0.94
  -5  -2   9    3.93    1.71
   5   2  -8    0.71    0.81
  -5  -2   8    2.61    1.46
   5   2  -7   14.09    4.08
  -5  -2   7   17.47    2.61
   5   2  -6  471.02   22.90
  -5  -2   6  427.54   16.34
   5   2  -5    5.43    1.08
  -5  -2   5    4.77    1.31
   5   2  -4    0.13    0.20
   5   2  -4   -0.11    0.94
  -5  -2   4    0.26    0.91
  -5  -2   3   15.10    1.32
   5   2  -3   26.23    3.95
  -5  -2   3   22.12    2.06
  -5  -2   2   67.27    2.88
  -5  -2   2   79.65    3.55
  -5  -2   2   76.92    3.45
  -5  -2   1   74.97    2.85
  -5  -2   1   94.82    3.31
  -5  -2   1   89.31    3.24
  -5  -2   0    5.40    1.15
  -5  -2   0    4.37    0.98
  -5  -2   0    5.29    1.03
  -5  -2  -1   21.32    1.81
  -5  -2  -1   27.43    1.79
   5   2   1   30.38    5.94
  -5  -2  -2  120.40    4.38
  -5  -2  -2  126.96    3.87
   5   2   2  145.81    5.97
  -5  -2  -3   64.18    3.52
  -5  -2  -3   65.90    2.95
   5   2   3   82.60    3.37
  -5  -2  -4   83.44    4.01
  -5  -2  -4   86.74    3.19
   5   2   4  129.71    4.57
  -5  -2  -5    0.70    1.10
  -5  -2  -5   -0.50    0.57
   5   2   5   -0.04    0.67
  -5  -2  -6   -0.42    0.99
  -5  -2  -6    2.09    0.91
  -5  -2  -7   -0.23    0.99
  -5  -2  -7    1.59    0.76
   5   2   7    3.06    1.06
  -5  -2  -8    0.25    0.89
  -5  -2  -8   -0.66    0.60
   5   2   8    1.30    1.14
  -5  -2  -9    4.75    1.25
  -5  -2  -9    4.74    1.04
   5   2   9    5.46    1.08
  -5  -2 -10    3.44    1.19
  -5  -2 -10    3.10    0.87
   5   2  10    5.68    1.36
  -5  -2 -11    1.77    1.08
  -5  -2 -11    1.23    0.94
   5   2  11    1.73    1.17
  -5  -2 -12    0.06    0.88
  -5  -2 -12    0.81    0.77
   5   2  12    1.62    1.36
  -5  -2 -13   -0.24    0.78
   5   2  13    1.00    1.08
   5   3 -15   -0.85    1.82
  -5  -3  15   -0.69    1.50
   5   3 -14    5.16    2.66
  -5  -3  14    0.83    1.33
   5   3 -13    7.02    2.69
  -5  -3  13    1.92    2.01
   5   3 -12   55.09    5.12
  -5  -3  12   40.08    4.42
   5   3 -11   10.84    2.61
  -5  -3  11    6.64    2.30
   5   3 -10    3.12    1.12
  -5  -3  10    0.28    1.22
   5   3  -9   -0.40    1.45
  -5  -3   9    0.19    1.25
   5   3  -8    5.77    1.52
  -5  -3   8    4.41    1.90
   5   3  -7   30.13    4.28
  -5  -3   7   23.64    2.41
   5   3  -6   10.56    2.05
  -5  -3   6    9.35    1.81
   5   3  -5   44.34    7.92
  -5  -3   5   32.14    2.41
   5   3  -4   21.85    3.75
   5   3  -4   30.83    4.28
  -5  -3   4   19.43    2.07
   5   3  -3  157.04    4.80
  -5  -3   3  146.98    5.39
  -5  -3   3  140.87    4.83
   5   3  -2    0.25    0.37
  -5  -3   2    1.70    0.85
  -5  -3   2    0.21    0.79
  -5  -3   1   37.45    2.40
  -5  -3   1   36.21    2.23
  -5  -3   0   31.33    2.30
  -5  -3   0   29.36    2.09
  -5  -3   0   27.96    2.83
  -5  -3  -1    0.65    0.90
  -5  -3  -1    4.82    1.41
  -5  -3  -2  137.68    4.66
  -5  -3  -2  152.42    4.61
   5   3   2  171.18    7.35
  -5  -3  -3    1.65    1.70
  -5  -3  -3    1.20    0.62
   5   3   3    1.28    0.48
  -5  -3  -4   37.67    2.72
  -5  -3  -4   43.03    2.42
   5   3   4   48.67    3.11
  -5  -3  -5   14.08    1.94
  -5  -3  -5   13.64    1.42
   5   3   5   20.93    1.66
  -5  -3  -6   18.13    2.54
  -5  -3  -6   21.29    1.96
  -5  -3  -7    7.14    1.58
  -5  -3  -7    7.77    1.37
   5   3   7    8.48    1.32
  -5  -3  -8   32.41    2.98
  -5  -3  -8   33.04    2.50
   5   3   8   33.05    5.82
  -5  -3  -9    2.61    1.74
  -5  -3  -9    1.89    0.95
   5   3   9    2.12    0.96
  -5  -3 -10   12.70    2.25
  -5  -3 -10    9.59    1.88
   5   3  10   14.58    2.05
  -5  -3 -11    0.38    0.93
  -5  -3 -11    0.65    0.76
   5   3  11    0.27    0.71
  -5  -3 -12    1.31    0.90
   5   3  12    0.30    0.79
   5   3  13   -0.07    0.94
  -5  -3 -13    4.38    1.31
   5   3  14    8.79    2.43
   5   4 -14    0.50    1.18
  -5  -4  14    1.53    1.65
   5   4 -13    4.73    2.64
  -5  -4  13    5.30    2.22
   5   4 -12    2.32    1.10
  -5  -4  12    1.18    1.37
   5   4 -11    8.93    2.03
  -5  -4  11    4.71    2.06
   5   4 -10   12.28    2.13
  -5  -4  10    9.48    2.36
   5   4  -9   28.32    6.37
  -5  -4   9   25.91    3.15
   5   4  -8    8.23    1.58
  -5  -4   8    5.64    1.62
   5   4  -7    2.63    0.82
  -5  -4   7    2.49    1.03
   5   4  -6   10.67    2.53
  -5  -4   6   12.08    1.99
   5   4  -5    0.45    0.47
   5   4  -5    1.47    0.81
  -5  -4   5   -0.17    0.90
   5   4  -4    5.89    0.98
  -5  -4   4    5.19    1.55
  -5  -4   4    4.92    1.27
   5   4  -3   20.45    5.06
  -5  -4   3   18.65    2.17
  -5  -4   3   18.13    1.89
   5   4  -2   93.92    4.33
  -5  -4   2   82.95    3.88
  -5  -4   2   80.67    3.39
   5   4  -1  315.25    8.32
  -5  -4   1  269.05    7.51
  -5  -4   1  265.02    6.50
   5   4   0   31.73    6.21
  -5  -4   0   26.50    2.30
  -5  -4   0   23.30    1.66
   5   4   1   54.11    9.17
  -5  -4  -1   48.45    2.71
  -5  -4  -1   45.17    1.88
   5   4   2    1.00    0.87
  -5  -4  -2    0.47    0.85
   5   4   2    0.25    0.25
  -5  -4  -3   -0.12    0.82
   5   4   3    0.47    0.42
  -5  -4  -4   56.41    2.96
   5   4   4   72.50    4.26
  -5  -4  -5    5.27    1.24
  -5  -4  -5    7.07    1.39
   5   4   5    6.43    0.92
  -5  -4  -6   17.98    2.12
  -5  -4  -6   18.68    2.02
   5   4   6   24.46    1.62
  -5  -4  -7   -0.32    0.71
   5   4   7    0.78    0.63
  -5  -4  -8    2.10    0.82
   5   4   8    3.40    0.98
   5   4   9   20.26    2.46
  -5  -4  -9   12.32    2.08
   5   4   9   20.12    1.99
   5   4  10    0.97    0.61
  -5  -4 -10    2.38    1.37
   5   4  11    1.32    0.67
  -5  -4 -11    1.80    1.06
   5   4  11    0.08    0.59
   5   4  12    0.99    0.54
  -5  -4 -12    1.58    1.19
   5   4  13    2.59    1.52
  -5  -4 -13    1.77    1.20
   5   4  14    0.38    0.75
  -5  -4 -14    0.35    1.00
   5   5 -14    0.05    1.59
  -5  -5  14    0.19    1.38
   5   5 -13    3.73    2.33
  -5  -5  13    0.30    1.16
   5   5 -12    4.56    1.72
  -5  -5  12    2.50    1.48
   5   5 -11    1.41    1.70
  -5  -5  11    2.14    1.46
   5   5 -10    6.05    1.49
  -5  -5  10    5.04    1.93
   5   5  -9   11.32    2.26
  -5  -5   9    6.75    2.01
   5   5  -8    9.03    2.09
  -5  -5   8    7.59    1.71
   5   5  -7    6.66    1.60
  -5  -5   7    5.36    1.45
   5   5  -6    1.98    0.76
  -5  -5   6    0.95    0.94
   5   5  -5    0.33    0.25
  -5  -5   5    0.35    0.82
   5   5  -4    7.41    1.74
  -5  -5   4    8.58    1.94
  -5  -5   4    5.62    1.86
   5   5  -3    1.92    0.65
  -5  -5   3    3.55    1.59
  -5  -5   3    2.07    0.76
   5   5  -2  124.18    4.44
  -5  -5   2   90.55    3.98
  -5  -5   2   85.61    3.13
   5   5  -1   67.39   10.60
  -5  -5   1   56.16    3.42
  -5  -5   1   48.42    2.10
   5   5   0  216.38    6.85
  -5  -5   0  159.84    5.49
  -5  -5   0  156.75    4.15
   5   5   1    6.35    1.05
  -5  -5  -1    3.40    1.11
  -5  -5  -1    5.12    0.87
   5   5   2   41.16    6.03
  -5  -5  -2   27.88    2.31
   5   5   3   11.05    1.94
  -5  -5  -3    6.43    1.32
   5   5   4   22.52    4.43
  -5  -5  -4   16.53    1.80
   5   5   5   34.73    5.09
  -5  -5  -5   32.27    2.71
   5   5   6    4.57    1.05
  -5  -5  -6    7.37    1.58
   5   5   7   -0.43    0.96
  -5  -5  -7   -1.09    0.96
   5   5   8    3.41    0.73
  -5  -5  -8    5.33    1.40
   5   5   9   20.85    4.56
  -5  -5  -9   19.82    2.44
   5   5  10    9.53    1.72
  -5  -5 -10   10.09    1.90
   5   5  11    0.89    0.73
  -5  -5 -11    0.27    0.88
   5   5  12    1.52    1.14
  -5  -5 -12    3.27    1.57
   5   5  13   -0.07    0.98
  -5  -5 -13    0.75    0.94
   5   5  14    2.47    0.95
  -5  -5 -14    1.68    1.10
   5   6 -13    1.10    0.91
  -5  -6  13    0.85    1.28
   5   6 -12    1.75    1.43
  -5  -6  12    0.29    1.34
   5   6 -11    0.10    1.18
  -5  -6  11    1.43    1.30
   5   6 -10    1.36    0.58
  -5  -6  10    1.53    1.59
   5   6  -9    1.79    1.33
  -5  -6   9   -0.83    0.90
   5   6  -8    0.17    1.36
  -5  -6   8    0.05    0.87
   5   6  -7    0.69    0.82
  -5  -6   7    2.93    1.25
   5   6  -6    7.45    1.57
  -5  -6   6    4.91    1.63
   5   6  -5    7.94    2.03
  -5  -6   5    8.78    2.14
  -5  -6   5    8.96    1.63
   5   6  -4   47.45    2.91
  -5  -6   4   31.77    2.82
  -5  -6   4   31.39    2.32
   5   6  -3   47.37    7.39
  -5  -6   3   36.87    3.31
  -5  -6   3   36.11    2.66
   5   6  -2    9.68    1.73
  -5  -6   2    7.52    1.84
  -5  -6   2    8.54    1.20
   5   6  -1    2.54    0.86
  -5  -6   1    0.99    1.12
  -5  -6   1    1.15    0.53
   5   6   0    1.95    0.69
  -5  -6   0   -0.06    0.99
  -5  -6   0    1.35    0.62
   5   6   1   26.59    5.29
  -5  -6  -1   22.34    2.42
   5   6   2    1.46    0.69
  -5  -6  -2    2.29    1.02
   5   6   3   77.73   11.47
  -5  -6  -3   61.48    3.42
   5   6   4    4.22    1.04
  -5  -6  -4    8.99    1.56
   5   6   5   11.20    1.81
  -5  -6  -5    8.95    1.69
   5   6   6    2.94    0.81
  -5  -6  -6    1.85    1.50
   5   6   7    3.33    1.02
  -5  -6  -7    1.15    1.48
   5   6   8    1.10    0.89
   5   6   9    1.74    0.63
  -5  -6  -9    0.28    1.08
   5   6  10    1.67    0.87
  -5  -6 -10    1.61    1.61
   5   6  11    4.19    0.88
  -5  -6 -11    2.45    1.44
   5   6  12    0.70    0.82
  -5  -6 -12    0.40    0.93
   5   6  13    0.49    0.99
  -5  -6 -13    3.47    1.65
   5   6  14    1.18    0.90
  -5  -6 -14    0.39    1.15
  -5  -6 -15    0.67    1.15
   5   7 -12    2.46    1.07
  -5  -7  12    2.15    1.87
   5   7 -11   16.38    3.84
  -5  -7  11   12.84    2.75
   5   7 -10   -0.23    1.26
  -5  -7  10    2.28    1.65
   5   7  -9   11.03    2.43
  -5  -7   9   12.21    2.41
   5   7  -8    2.36    1.84
  -5  -7   8    2.31    1.40
   5   7  -7    2.53    0.88
  -5  -7   7    4.81    1.38
   5   7  -6   17.35    3.31
  -5  -7   6   12.65    2.22
   5   7  -5  290.77    6.28
  -5  -7   5  237.17    7.87
  -5  -7   5  222.68    6.13
   5   7  -4  143.79    4.82
  -5  -7   4  122.17    5.56
  -5  -7   4  115.73    4.24
   5   7  -3   69.62    4.61
  -5  -7   3   55.19    3.77
  -5  -7   3   50.59    2.69
   5   7  -2   50.23    3.07
  -5  -7   2   30.72    2.99
  -5  -7   2   24.99    5.33
   5   7  -1   21.26    3.74
  -5  -7   1   13.63    1.95
  -5  -7   1   14.60    1.37
   5   7   0   61.48    3.40
  -5  -7   0   38.40    3.03
   5   7   1   25.48    2.95
  -5  -7  -1   18.07    2.34
   5   7   2  151.95    6.99
  -5  -7  -2  115.09    4.86
   5   7   3    1.25    0.88
  -5  -7  -3   -0.26    1.01
   5   7   4   93.46   15.16
  -5  -7  -4   75.46    4.23
   5   7   5   49.55    9.38
  -5  -7  -5   40.78    3.30
   5   7   6   14.72    2.84
  -5  -7  -6   10.95    1.85
   5   7   7    0.39    0.63
   5   7   8   13.77    2.22
  -5  -7  -8    9.81    1.86
   5   7   9    0.60    0.82
  -5  -7  -9    0.00    1.15
   5   7  10    2.00    0.83
  -5  -7 -10    1.49    1.23
   5   7  11    5.64    1.94
  -5  -7 -11    5.63    1.80
   5   7  12   11.23    2.15
  -5  -7 -12    9.64    2.49
   5   7  13    7.19    2.60
  -5  -7 -13   13.79    2.82
  -5  -7 -14    3.74    1.93
  -5  -7 -15    1.64    1.82
   5   8 -11    1.42    0.88
  -5  -8  11    4.18    2.05
   5   8 -10   17.61    4.43
  -5  -8  10   17.90    3.26
   5   8  -9    0.41    0.50
  -5  -8   9    0.45    1.03
   5   8  -8   10.60    2.80
  -5  -8   8   10.43    2.16
   5   8  -7    2.09    1.05
  -5  -8   7    2.05    1.63
  -5  -8   6   46.55    3.34
   5   8  -5    0.82    0.57
  -5  -8   5    2.73    1.42
  -5  -8   5   -0.01    0.72
   5   8  -4   14.32    2.84
  -5  -8   4    8.81    2.01
  -5  -8   4   10.36    1.41
   5   8  -3    3.90    1.16
  -5  -8   3    0.95    1.36
  -5  -8   3    2.13    1.06
   5   8  -2   33.11    7.87
  -5  -8   2   23.27    2.64
  -5  -8   2   22.47    1.75
   5   8  -1    2.47    1.37
  -5  -8   1    0.30    1.22
   5   8   0    9.67    1.78
  -5  -8   0    4.98    1.35
   5   8   1    4.16    1.49
  -5  -8  -1    0.76    1.18
   5   8   2   12.90    2.06
  -5  -8  -2    5.93    1.34
   5   8   3   29.66    2.73
  -5  -8  -3   15.78    2.56
   5   8   4   14.46    2.08
  -5  -8  -4    8.92    1.76
   5   8   5   -0.06    1.11
  -5  -8  -5    2.50    1.43
   5   8   6   50.88    9.71
  -5  -8  -6   34.46    3.02
   5   8   7    2.66    1.13
  -5  -8  -7    3.22    1.81
   5   8   8    1.70    0.73
  -5  -8  -8    0.97    1.28
   5   8   9    9.06    2.31
  -5  -8  -9    7.94    2.27
   5   8  10    3.96    1.13
  -5  -8 -10    1.13    1.25
   5   8  11    3.34    1.30
  -5  -8 -11    2.91    1.81
   5   8  12    0.30    0.54
  -5  -8 -12   -0.67    1.09
   5   8  13    7.22    2.56
  -5  -8 -13    9.71    2.55
  -5  -8 -14    0.18    1.14
  -5  -8 -15    4.51    2.04
   5   9 -10    1.33    0.79
   5   9  -9    1.81    1.20
   5   9  -8    3.61    1.30
  -5  -9   8    2.23    1.46
   5   9  -7    1.20    0.87
  -5  -9   7    1.80    1.14
  -5  -9   6   -1.04    0.80
   5   9  -5    0.51    0.56
  -5  -9   5    1.96    1.31
  -5  -9   5    0.37    0.62
   5   9  -4    9.33    3.17
  -5  -9   4    7.05    1.83
  -5  -9   4    5.13    1.18
   5   9  -3    3.66    0.93
  -5  -9   3    1.49    1.41
   5   9  -2    3.27    1.41
  -5  -9   2    1.16    1.39
   5   9  -1   18.53    3.29
  -5  -9   1   13.58    2.72
   5   9   0  311.20   12.93
  -5  -9   0  218.26    7.31
   5   9   1   48.10    3.93
  -5  -9  -1   33.94    3.65
   5   9   2    7.14    2.23
  -5  -9  -2    3.41    1.26
   5   9   3    2.76    1.35
  -5  -9  -3    1.04    1.27
   5   9   4    0.83    1.23
  -5  -9  -4    2.48    1.71
   5   9   5    2.06    1.37
  -5  -9  -5    4.23    1.92
   5   9   6    9.18    2.23
  -5  -9  -6    6.76    2.07
   5   9   7    3.23    1.47
  -5  -9  -7    1.60    1.27
   5   9   8    0.91    1.27
  -5  -9  -8    0.66    1.19
   5   9   9   13.44    2.34
  -5  -9  -9   10.68    2.62
   5   9  10   28.25    6.28
  -5  -9 -10   17.49    3.09
   5   9  11    0.24    1.33
  -5  -9 -11    0.96    1.46
   5   9  12    0.77    1.29
  -5  -9 -12    3.43    2.12
   5   9  13    1.35    0.48
  -5  -9 -13    1.16    1.30
  -5  -9 -14    4.65    1.97
  -5  -9 -15    3.67    2.39
   5  10  -9    2.82    1.62
   5  10  -8    1.35    0.97
   5  10  -7    0.88    1.00
   5  10  -4    3.23    1.15
  -5 -10   4    3.57    1.87
   5  10  -3    0.94    0.54
  -5 -10   3    2.48    1.83
   5  10  -2   56.85   11.44
  -5 -10   2   58.38    4.79
   5  10  -1   59.46   12.04
  -5 -10   1   39.80    3.85
   5  10   0    5.05    1.45
  -5 -10   0    0.35    1.36
   5  10   1   48.19   10.85
  -5 -10  -1   36.63    4.13
   5  10   2    2.43    1.58
  -5 -10  -2    1.53    1.44
   5  10   3    9.24    2.17
  -5 -10  -3    6.69    1.85
   5  10   4   -0.30    1.28
  -5 -10  -4   -0.80    1.15
   5  10   5   -0.42    1.42
  -5 -10  -5    2.91    1.79
   5  10   6   31.30    3.70
  -5 -10  -6   16.97    2.65
   5  10   7    1.12    0.80
  -5 -10  -7   -2.00    1.27
   5  10   8    5.46    1.85
  -5 -10  -8    6.13    2.07
   5  10   9    8.00    2.28
  -5 -10  -9    4.66    2.18
   5  10  10    2.69    2.45
  -5 -10 -10    3.02    1.83
   5  10  11   30.98    7.29
  -5 -10 -11   17.22    2.87
   5  10  12    1.77    1.48
  -5 -10 -12   -0.80    1.27
  -5 -10 -13   -0.28    1.30
  -5 -10 -14    1.45    1.55
   5  11  -8    2.96    1.31
   5  11  -7    2.11    0.84
  -5 -11   5    2.19    1.43
   5  11  -4    1.11    1.12
  -5 -11   4    8.25    2.46
   5  11  -3    1.58    1.00
  -5 -11   3    3.77    1.50
   5  11  -2    6.52    1.64
  -5 -11   2    3.49    1.39
   5  11  -1    1.46    1.20
  -5 -11   1    1.37    1.20
   5  11   0   23.44    3.45
  -5 -11   0   17.98    2.66
   5  11   1    9.13    2.04
  -5 -11  -1    2.39    1.92
   5  11   2    5.75    1.42
  -5 -11  -2    2.29    1.47
   5  11   3   19.85    4.19
  -5 -11  -3   15.30    2.79
   5  11   4   12.66    2.42
  -5 -11  -4   13.89    2.80
   5  11   5   10.98    1.87
  -5 -11  -5    3.63    1.83
   5  11   6    0.91    0.86
  -5 -11  -6    3.05    1.95
   5  11   7   11.11    2.89
  -5 -11  -7   10.16    2.45
   5  11   8   -0.77    1.47
  -5 -11  -8    0.69    1.45
   5  11   9    8.72    2.45
  -5 -11  -9    5.60    2.03
   5  11  10    7.19    2.30
  -5 -11 -10    6.38    1.91
   5  11  11    3.10    1.53
  -5 -11 -11    3.49    1.89
   5  11  12    2.26    1.20
  -5 -11 -12    6.01    2.56
  -5 -11 -13    2.61    1.90
  -5 -11 -14    0.49    1.45
  -5 -12   5    0.89    1.30
  -5 -12   4    3.12    1.52
   5  12  -3    2.02    1.26
  -5 -12   3    4.12    1.80
   5  12  -2    1.82    1.23
  -5 -12   2    2.32    1.38
   5  12  -1   10.30    2.81
  -5 -12   1    5.35    1.51
   5  12   0    1.72    0.83
  -5 -12   0    0.74    1.29
   5  12   1    1.85    0.74
  -5 -12  -1    1.78    1.30
   5  12   2    1.01    0.88
  -5 -12  -2    0.57    1.21
  -5 -12  -3    0.51    1.28
   5  12   4    2.45    1.21
  -5 -12  -4    2.10    1.35
   5  12   5    6.21    1.86
  -5 -12  -5    3.26    1.49
   5  12   6    1.90    1.96
  -5 -12  -6    2.36    1.96
   5  12   7    3.90    1.26
  -5 -12  -7    1.75    1.41
   5  12   8   -0.49    1.53
  -5 -12  -8    0.94    1.32
  -5 -12  -9    1.06    1.43
   5  12  10    0.75    1.31
  -5 -12 -10    1.23    1.37
   5  12  11    1.22    1.35
  -5 -12 -11    1.61    1.45
  -5 -12 -12    2.66    2.15
  -5 -12 -13   -0.34    1.28
  -5 -13   4    4.04    1.95
  -5 -13   3   -0.39    1.16
   5  13  -2   -0.15    1.11
  -5 -13   2    2.64    2.20
   5  13  -1    2.25    1.51
  -5 -13   1   -0.72    1.13
   5  13   0    0.98    1.38
  -5 -13   0    1.71    1.36
   5  13   1    0.76    0.99
  -5 -13  -1    5.56    2.26
   5  13   2    3.70    1.89
  -5 -13  -2    1.41    1.07
   5  13   3    0.80    0.84
  -5 -13  -3    1.41    1.48
   5  13   4    0.67    1.04
  -5 -13  -4    1.47    1.21
   5  13   5    1.80    1.41
  -5 -13  -5    2.21    1.83
   5  13   6    1.07    1.69
  -5 -13  -6    1.44    1.23
   5  13   7   -0.19    1.44
  -5 -13  -7   -0.42    1.16
   5  13   8    0.54    0.86
  -5 -13  -8    4.35    2.18
   5  13   9    2.07    1.81
  -5 -13  -9   -1.50    1.27
   5  13  10    1.29    1.09
  -5 -13 -10    3.42    2.13
  -5 -13 -11   -0.39    1.21
  -5 -13 -12    1.10    1.24
   5  14  -1    1.81    0.99
   5  14   0   14.18    4.75
  -5 -14   0   13.79    2.74
   5  14   1    4.55    1.36
  -5 -14  -1    3.62    2.02
   5  14   2    3.18    1.68
  -5 -14  -2    3.08    1.93
   5  14   3    3.26    1.24
  -5 -14  -3    1.24    1.25
   5  14   4    2.56    1.34
  -5 -14  -4    0.63    1.29
   5  14   5    0.96    0.95
  -5 -14  -5    1.83    1.33
   5  14   6    2.12    1.09
  -5 -14  -6    0.86    1.34
   5  14   7    1.26    0.87
  -5 -14  -7    2.55    1.88
   5  14   8    2.42    0.97
  -5 -14  -8    3.43    1.64
   5  14   9    3.47    2.12
  -5 -14  -9    4.75    2.25
   5  15   2    2.21    1.55
   5  15   3    2.28    1.25
   5  15   4    2.63    1.78
   5  15   5    7.42    2.74
   5  15   6    3.64    1.45
   5  15   7    0.64    1.09
   6  -9  -5    1.10    1.17
   6  -9  -4    2.42    1.09
   6  -9  -3    0.90    1.11
  -6   9   2    5.59    1.99
   6  -9  -2    3.64    1.08
  -6   9   1    0.06    1.11
   6  -9  -1    2.06    0.84
  -6   9   0    1.62    1.33
   6  -9   0    1.53    1.44
  -6   9  -1    2.53    1.99
   6  -9   1    2.84    0.74
  -6   9  -2    0.99    1.95
   6  -9   2    0.45    0.77
  -6   9  -3   -1.13    1.19
   6  -9   3    1.25    1.20
  -6   9  -4    0.58    1.29
   6  -9   4    1.08    1.84
   6  -8  -8   10.31    3.56
   6  -8  -7   13.75    4.64
   6  -8  -6    9.92    3.51
  -6   8   4    1.86    1.18
   6  -8  -4    1.31    1.35
  -6   8   3    3.53    1.65
   6  -8  -3    1.41    1.20
  -6   8   2    3.08    1.86
   6  -8  -2    1.60    1.15
  -6   8   1    1.40    1.39
   6  -8  -1    6.13    1.86
  -6   8   0    1.39    1.27
   6  -8   0    4.04    1.68
  -6   8  -1    1.12    1.36
   6  -8   1    1.52    1.40
  -6   8  -2    2.36    1.40
   6  -8   2    4.60    1.53
  -6   8  -3    0.65    1.30
   6  -8   3    1.74    1.91
  -6   8  -4    2.13    1.58
   6  -8   4    9.14    2.37
  -6   8  -5    4.91    2.28
   6  -8   5    8.40    2.74
  -6   8  -6    0.39    1.32
   6  -8   6    5.34    2.02
  -6   8  -7    1.91    1.74
   6  -8   7    0.89    1.33
   6  -7  -8    4.48    1.60
   6  -7  -6   19.27    4.46
   6  -7  -5    6.30    2.33
  -6   7   4    2.53    1.11
   6  -7  -4    3.22    2.32
  -6   7   3    1.66    1.04
   6  -7  -3    0.89    1.39
  -6   7   2    0.42    0.99
   6  -7  -2    0.74    0.83
  -6   7   1    1.81    1.38
   6  -7  -1    2.78    1.13
  -6   7   0    0.51    1.14
   6  -7   0    1.59    1.51
  -6   7  -1    2.94    1.42
   6  -7   1    3.55    2.17
  -6   7  -2    5.09    2.06
   6  -7   2    6.57    1.26
  -6   7  -3    0.01    1.15
  -6   7  -4    1.81    1.45
   6  -7   4    7.89    2.11
  -6   7  -5    0.51    1.17
   6  -7   5    3.39    2.46
  -6   7  -6    3.06    1.92
   6  -7   6    5.69    2.07
  -6   7  -7    0.51    1.26
   6  -7   7    0.41    1.62
  -6   7  -8    1.32    1.35
   6  -7   8    3.31    1.82
   6  -7   9    1.46    1.55
  -6   6  11    6.40    2.33
  -6   6  10    0.53    1.31
  -6   6   9    1.58    1.38
  -6   6   8    3.46    1.80
  -6   6   7   17.85    2.59
   6  -6  -6   20.12    4.31
  -6   6   5    0.00    0.78
   6  -6  -5   -0.49    1.40
  -6   6   4    0.79    0.95
   6  -6  -4    2.91    1.30
  -6   6   3    3.34    1.28
   6  -6  -3    5.20    1.43
  -6   6   2    3.39    1.29
   6  -6  -2    2.12    1.59
  -6   6   1    4.27    1.63
   6  -6  -1    2.27    1.67
  -6   6   0    0.43    1.02
  -6   6  -1    0.90    1.13
   6  -6   1   -0.20    1.44
  -6   6  -2    0.60    1.15
   6  -6   2    3.16    1.06
  -6   6  -3    1.38    1.40
   6  -6   3   -1.08    1.53
  -6   6  -4    7.42    2.48
   6  -6   4   18.71    2.41
  -6   6  -5    1.65    1.63
   6  -6   5    4.52    2.58
  -6   6  -6    1.11    1.46
   6  -6   6    2.64    1.71
   6  -6   7    2.30    1.70
  -6   6  -8    1.35    1.46
   6  -6   8    2.17    1.27
  -6   6  -9    1.16    1.25
   6  -6   9    1.01    1.63
   6  -6  10    3.05    2.72
  -6   5  12    7.06    2.43
  -6   5  11   14.05    3.03
  -6   5  10   -0.07    1.24
  -6   5   9    1.56    0.64
  -6   5   8   22.86    4.20
  -6   5   7   14.46    2.60
  -6   5   6    1.35    1.32
  -6   5   5    0.07    0.60
  -6   5   4    3.72    1.61
   6  -5  -4    1.47    1.24
  -6   5   3    0.15    0.78
   6  -5  -3    1.03    0.66
  -6   5   2    1.38    1.45
   6  -5  -2    3.23    1.50
  -6   5   1   73.94    4.61
   6  -5  -1  115.50    5.76
  -6   5   0    1.01    1.21
   6  -5   0    2.90    1.68
   6  -5   1    4.89    1.61
  -6   5  -2    1.66    1.69
   6  -5   2   -1.13    1.47
  -6   5  -3   60.03    4.79
   6  -5   3   70.56   10.89
  -6   5  -4   -0.16    1.29
   6  -5   4   -0.22    1.60
  -6   5  -5   32.25    3.65
   6  -5   5   36.56    7.27
  -6   5  -6   -0.24    1.23
   6  -5   6    0.34    1.75
  -6   5  -7    3.80    1.61
   6  -5   7   10.61    3.09
  -6   5  -8    1.47    1.20
   6  -5   8    1.58    1.24
  -6   5  -9    1.45    1.34
   6  -5   9    3.49    1.87
  -6   5 -10    0.51    1.19
   6  -5  10   -0.54    1.49
   6  -5  11    0.54    1.50
  -6   4  13    1.20    1.40
  -6   4  12   33.98    4.44
  -6   4  11    2.12    1.49
   6  -4 -10   24.68    3.52
  -6   4  10   18.85    3.02
   6  -4  -9   10.56    2.28
  -6   4   9    8.45    2.39
   6  -4  -8    5.97    1.70
   6  -4  -7    3.28    1.52
  -6   4   7    3.40    1.63
   6  -4  -6    1.98    1.14
  -6   4   6    0.69    1.27
  -6   4   5    2.04    1.07
  -6   4   5    1.34    1.30
  -6   4   4    2.64    1.25
  -6   4   3    0.35    0.89
   6  -4  -3    1.38    1.38
  -6   4   2   99.08    4.68
   6  -4  -2  124.96    8.76
  -6   4   1   33.86    3.35
   6  -4  -1   46.61   10.59
  -6   4   0   23.06    3.04
   6  -4   0   20.46    2.95
  -6   4  -1   27.15    3.44
   6  -4   1   28.22    5.95
  -6   4  -2   81.76    6.00
   6  -4   2  100.39   17.12
  -6   4  -3   14.12    2.45
   6  -4   3   25.63    4.98
  -6   4  -4   35.39    3.85
   6  -4   4   46.73    7.60
  -6   4  -5    0.75    1.25
   6  -4   5    3.53    1.74
  -6   4  -6    4.79    1.89
   6  -4   6   10.10    2.96
  -6   4  -7    0.68    1.28
   6  -4   7    1.08    1.72
  -6   4  -8   15.96    2.66
   6  -4   8   14.51    3.03
  -6   4  -9    7.18    2.11
   6  -4   9    8.64    2.66
  -6   4 -10   -0.47    1.14
   6  -4  10   -0.37    1.55
  -6   4 -11   -0.18    1.05
   6  -4  11    1.60    2.06
   6  -4  12    0.82    1.45
  -6   3  13    3.04    1.68
   6  -3 -12    0.66    0.96
  -6   3  12    2.72    2.04
   6  -3 -11   38.59    4.72
  -6   3  11   32.84    4.74
   6  -3 -10    2.94    1.62
  -6   3  10    1.80    1.48
   6  -3  -9   -0.95    1.17
  -6   3   9    0.15    1.29
   6  -3  -8    5.38    1.83
  -6   3   8    7.75    2.40
   6  -3  -7    7.33    1.68
  -6   3   7    8.33    2.10
   6  -3  -6    5.99    1.49
  -6   3   6    2.77    2.02
  -6   3   5    0.86    1.03
  -6   3   5   -1.14    1.29
  -6   3   4   19.80    2.12
   6  -3  -4   35.79    2.82
  -6   3   4   29.89    3.35
  -6   3   3   14.72    1.87
  -6   3   2    2.17    1.13
   6  -3  -2    2.72    1.26
  -6   3   1   56.75    3.57
   6  -3  -1   75.38   14.48
  -6   3   0   11.40    1.90
  -6   3  -1    3.27    1.57
   6  -3   1    5.58    1.56
  -6   3  -2    0.93    1.17
   6  -3   2    1.15    0.67
  -6   3  -3   11.75    2.11
   6  -3   3   18.82    3.99
  -6   3  -4    3.98    1.70
   6  -3   4    4.17    1.12
  -6   3  -5    1.41    1.27
   6  -3   5    0.31    0.78
  -6   3  -6    3.17    1.67
   6  -3   6    1.84    1.54
  -6   3  -7    1.29    1.66
   6  -3   7   -1.08    1.44
  -6   3  -8    6.91    2.16
   6  -3   8   14.46    2.88
   6  -3   9    1.65    1.60
  -6   3 -10   14.40    2.65
   6  -3  10   21.45    4.15
  -6   3 -11    1.39    1.59
   6  -3  11    0.60    1.42
   6  -3  12    0.50    0.93
  -6   2  14    2.67    1.91
   6  -2 -13   -0.96    1.39
  -6   2  13   -0.30    1.24
   6  -2 -12    4.32    2.57
  -6   2  12    7.63    2.09
   6  -2 -11    1.92    2.02
  -6   2  11    1.15    1.40
   6  -2 -10    1.31    1.47
  -6   2  10    0.46    1.22
   6  -2  -9   10.52    2.31
  -6   2   9    6.60    2.21
   6  -2  -8   12.25    2.28
  -6   2   8    6.76    2.00
   6  -2  -7   15.95    2.73
  -6   2   7   13.17    2.57
   6  -2  -6    6.15    1.31
  -6   2   6    2.32    1.43
  -6   2   5    5.10    1.30
   6  -2  -5    7.86    2.01
  -6   2   5    6.54    1.38
  -6   2   4    1.11    0.95
   6  -2  -4    0.13    0.81
  -6   2   4    0.75    0.52
  -6   2   3   -0.93    0.67
   6  -2  -3    0.70    0.72
  -6   2   3    0.79    1.22
   6  -2  -2    0.18    0.54
  -6   2   1   -0.17    0.83
   6  -2  -1    1.98    0.99
  -6   2   0    1.30    1.08
   6  -2   0    0.56    0.46
  -6   2  -1    6.52    1.67
   6  -2   1    8.25    1.98
  -6   2  -2    4.18    1.48
   6  -2   2    3.37    1.78
  -6   2  -3    1.27    0.96
   6  -2   3    2.48    0.87
  -6   2  -4   17.86    2.41
   6  -2   4   27.20    5.20
  -6   2  -5   18.46    2.61
   6  -2   5   21.71    6.34
  -6   2  -6    1.86    1.27
   6  -2   6    5.71    1.68
  -6   2  -7    2.31    1.28
   6  -2   7    2.69    1.53
  -6   2  -8    0.66    1.19
   6  -2   8    3.26    1.68
  -6   2  -9   12.50    2.59
   6  -2   9   14.58    2.99
  -6   2 -10   -0.04    1.16
   6  -2  10   -0.62    1.33
  -6   2 -11    2.17    1.32
   6  -2  11    0.80    1.30
  -6   2 -12    0.12    0.99
   6  -2  12    1.69    1.07
   6  -2  13    0.66    1.70
   6  -1 -14    1.64    1.52
  -6   1  14    0.65    1.39
   6  -1 -13    4.35    2.49
  -6   1  13    1.86    1.48
  -6   1  12   -0.30    1.19
   6  -1 -11   26.37    3.59
  -6   1  11   12.69    2.54
   6  -1 -10    9.06    2.28
  -6   1  10   10.47    2.76
   6  -1  -9    0.63    0.84
  -6   1   9    1.68    1.37
   6  -1  -8    3.70    1.29
  -6   1   8    4.39    2.12
   6  -1  -7    2.33    1.69
  -6   1   7   -0.26    1.28
   6  -1  -6   24.77    4.86
  -6   1   6   18.29    2.47
  -6   1   5   33.72    2.08
   6  -1  -5   55.96    5.82
  -6   1   5   49.09    3.70
  -6   1   4    6.50    1.21
   6  -1  -4   11.11    2.15
  -6   1   4   10.33    1.90
  -6   1   3   47.55    2.74
   6  -1  -3   57.66   10.42
  -6   1   3   53.38    5.22
  -6   1   2    2.77    1.15
   6  -1  -2    0.63    0.63
  -6   1   2    3.57    1.68
  -6   1   1    1.80    0.73
   6  -1  -1    4.35    0.71
   6  -1  -1    3.31    0.65
  -6   1   0    0.44    0.98
   6  -1   0   -0.62    0.38
   6  -1   0    0.83    0.55
  -6   1  -1   39.90    2.85
   6  -1   1   43.86   10.54
  -6   1  -2    1.85    1.18
   6  -1   2    2.12    0.63
  -6   1  -3   16.68    2.18
   6  -1   3   31.23    6.09
  -6   1  -4   11.59    1.98
   6  -1   4   16.85    4.61
  -6   1  -5    5.53    1.90
   6  -1   5    5.31    1.29
  -6   1  -6    0.43    1.14
   6  -1   6    0.75    0.72
  -6   1  -7    0.15    1.01
   6  -1   7    1.66    1.25
  -6   1  -8    5.01    1.70
   6  -1   8    5.64    1.59
  -6   1  -9    2.50    1.62
   6  -1   9    2.13    1.40
  -6   1 -10    1.91    1.63
   6  -1  10    1.83    1.44
  -6   1 -11    1.09    1.30
   6  -1  11    1.18    1.51
  -6   1 -12    4.68    2.13
   6  -1  12    4.48    2.19
   6  -1  13    0.79    1.29
   6   0 -14    2.22    1.72
  -6   0  14    2.73    1.65
   6   0 -13   -0.03    1.56
  -6   0  13    0.99    1.42
   6   0 -12    2.86    0.95
  -6   0  12    0.83    1.32
   6   0 -11    4.12    1.14
  -6   0  11    3.52    1.59
   6   0 -10   18.04    2.97
  -6   0  10   10.02    2.58
   6   0  -9   13.38    2.15
  -6   0   9   11.36    2.31
   6   0  -8   -0.98    1.24
  -6   0   8    1.59    1.32
   6   0  -7    8.10    1.92
  -6   0   7    8.05    2.00
   6   0  -6  149.49    5.94
  -6   0   6  123.60    5.90
   6   0  -5  102.84   13.43
  -6   0   5   86.38    4.92
  -6   0   4   57.50    3.17
   6   0  -4   97.54   14.37
  -6   0   4   71.62    4.88
  -6   0   3   12.90    1.48
   6   0  -3   22.85    3.79
  -6   0   3   21.35    2.34
  -6   0   2   27.12    2.16
   6   0  -2   31.20    6.03
  -6   0   2   25.19    2.36
  -6   0   1   -0.36    0.82
   6   0  -1    0.74    0.36
  -6   0   1    1.10    1.06
  -6   0   0  203.78    5.92
   6   0   0  242.70    7.72
   6   0   0  232.43   11.08
  -6   0  -1    1.42    1.08
   6   0   1    1.64    0.50
   6   0   1    2.76    0.80
  -6   0  -2   11.06    1.73
   6   0   2   18.39    1.99
  -6   0  -3    6.03    1.70
   6   0   3    8.76    1.67
  -6   0  -4    3.28    1.15
   6   0   4    6.56    1.27
  -6   0  -5    3.45    1.74
   6   0   5    3.11    1.20
  -6   0  -6    5.03    1.63
   6   0   6    7.83    1.96
  -6   0  -7    2.91    1.31
   6   0   7    6.08    1.86
  -6   0  -8    3.02    1.66
   6   0   8    3.23    1.52
  -6   0  -9    1.62    1.19
   6   0   9    3.38    1.58
  -6   0 -10    4.49    1.67
   6   0  10   11.45    2.90
  -6   0 -11   14.21    2.75
   6   0  11   10.73    2.17
  -6   0 -12    3.95    1.87
   6   0  12    0.14    1.14
  -6   0 -13    2.88    1.32
   6   0  13    2.03    1.45
   6   1 -14    1.08    0.81
  -6  -1  14    2.32    1.54
   6   1 -13    0.17    1.56
  -6  -1  13    4.52    2.27
   6   1 -12    1.90    1.63
  -6  -1  12    3.01    1.86
   6   1 -11   13.75    2.37
  -6  -1  11   13.43    2.64
   6   1 -10   10.66    2.01
  -6  -1  10    1.76    1.41
   6   1  -9   -0.29    1.36
  -6  -1   9    4.31    2.01
   6   1  -8    1.44    1.31
  -6  -1   8   -0.18    1.18
   6   1  -7    2.39    0.92
  -6  -1   7    3.20    2.11
   6   1  -6   61.85    6.94
  -6  -1   6   52.52    3.86
   6   1  -5   64.21    9.44
  -6  -1   5   50.76    3.77
  -6  -1   4   12.73    1.44
   6   1  -4   21.12    6.27
  -6  -1   4   21.52    2.47
  -6  -1   3    3.79    0.95
   6   1  -3    5.16    1.10
  -6  -1   3    4.73    1.26
  -6  -1   2    4.06    1.05
   6   1  -2    7.95    1.05
  -6  -1   2    5.83    1.65
  -6  -1   1  107.33    4.03
   6   1  -1  130.58    8.97
  -6  -1   1  126.34    4.63
  -6  -1   0    0.19    0.85
  -6  -1   0    1.24    0.83
  -6  -1  -1   68.39    3.48
  -6  -1  -1   74.76    2.80
   6   1   1   85.99    4.17
  -6  -1  -2    7.73    1.67
  -6  -1  -2    7.14    0.97
  -6  -1  -3   20.47    2.29
  -6  -1  -3   19.73    1.46
   6   1   3   31.27    6.17
  -6  -1  -4    2.24    1.25
  -6  -1  -4    2.13    0.62
   6   1   4    2.99    0.73
  -6  -1  -5   27.49    2.68
  -6  -1  -5   26.30    1.75
   6   1   5   31.05    7.31
  -6  -1  -6    0.08    1.12
   6   1   6    0.76    0.89
  -6  -1  -7   10.02    2.00
   6   1   7   12.42    2.03
  -6  -1  -8    0.93    1.16
   6   1   8    0.40    0.33
  -6  -1  -9    3.33    1.37
   6   1   9    2.49    1.10
  -6  -1 -10   11.68    2.42
   6   1  10   13.37    2.44
  -6  -1 -11    7.72    1.96
   6   1  11    8.90    2.39
  -6  -1 -12    0.10    1.13
   6   1  12    1.11    1.55
  -6  -1 -13    2.32    1.83
   6   1  13    0.94    1.25
   6   2 -14    0.17    1.54
  -6  -2  14    2.49    2.04
   6   2 -13    0.19    1.54
  -6  -2  13   -0.48    1.27
   6   2 -12    2.36    1.84
  -6  -2  12   -0.91    1.21
   6   2 -11    7.22    2.24
  -6  -2  11    2.19    1.45
   6   2 -10    3.11    1.90
  -6  -2  10    3.21    1.41
   6   2  -9    8.64    2.61
  -6  -2   9    6.10    1.86
   6   2  -8   55.06   10.50
  -6  -2   8   39.09    3.37
   6   2  -7   16.09    2.88
  -6  -2   7   16.04    2.35
   6   2  -6  179.40    6.71
  -6  -2   6  128.67    7.47
   6   2  -5  108.12    5.78
  -6  -2   5   93.76    4.78
   6   2  -4    6.00    1.10
  -6  -2   4    2.16    1.11
  -6  -2   3    5.40    1.03
   6   2  -3   12.74    2.07
  -6  -2   3    8.98    1.64
  -6  -2   2   -0.50    0.58
  -6  -2   2    0.05    0.88
  -6  -2   1    1.34    0.80
  -6  -2   1    2.52    1.09
  -6  -2   1    0.21    0.76
  -6  -2   0   19.46    2.16
  -6  -2   0   19.83    1.80
  -6  -2   0   22.65    2.17
  -6  -2  -1    1.43    1.00
  -6  -2  -1    2.24    0.83
   6   2   1    1.34    1.00
  -6  -2  -2   11.78    1.68
  -6  -2  -2   14.34    1.50
  -6  -2  -3   18.72    2.23
  -6  -2  -3   16.52    1.48
   6   2   3   24.51    5.41
  -6  -2  -4    1.35    1.74
  -6  -2  -4    5.33    0.99
   6   2   4    2.55    0.64
  -6  -2  -5   54.74    5.92
  -6  -2  -5   63.49    3.63
   6   2   5   85.76    5.85
  -6  -2  -6    8.33    1.85
  -6  -2  -6    5.16    1.13
   6   2   6    9.83    1.71
  -6  -2  -7    7.22    1.80
  -6  -2  -7    7.08    1.13
   6   2   7   15.92    1.95
  -6  -2  -8    1.79    1.15
  -6  -2  -8    3.68    0.86
   6   2   8    5.55    1.30
  -6  -2  -9    1.18    1.11
  -6  -2  -9    1.20    0.86
   6   2   9    3.96    0.96
  -6  -2 -10    4.36    1.71
   6   2  10    2.60    1.27
  -6  -2 -11    5.92    2.00
   6   2  11    2.75    1.46
  -6  -2 -12    0.34    1.10
   6   2  12    0.55    1.10
  -6  -2 -13    4.06    1.74
   6   3 -14    4.04    2.63
  -6  -3  14    1.31    1.77
   6   3 -13   17.26    3.54
  -6  -3  13   10.77    3.43
   6   3 -12    3.38    0.79
  -6  -3  12    1.31    1.98
   6   3 -11   18.57    3.13
  -6  -3  11   13.34    2.96
   6   3 -10    3.64    1.58
  -6  -3  10    0.68    1.21
   6   3  -9    7.15    1.66
  -6  -3   9    3.96    1.80
   6   3  -8    1.62    0.85
  -6  -3   8    0.05    1.15
   6   3  -7   67.28    9.25
  -6  -3   7   59.88    3.84
   6   3  -6  247.36   10.34
  -6  -3   6  208.89    6.70
   6   3  -5  234.10    7.50
  -6  -3   5  178.49    6.05
   6   3  -4   23.27    4.80
   6   3  -4   27.97    4.92
  -6  -3   4   22.67    2.47
   6   3  -3    0.57    0.51
  -6  -3   3   -0.03    0.85
   6   3  -2    2.08    0.79
  -6  -3   2    2.19    1.02
  -6  -3   2    2.71    0.93
  -6  -3   1    0.66    1.04
  -6  -3   1    0.07    0.80
  -6  -3   1    1.09    0.82
  -6  -3   0   54.11    3.05
  -6  -3   0   64.27    3.12
  -6  -3   0   57.22    4.45
  -6  -3  -1   13.06    1.94
  -6  -3  -1   11.27    1.59
   6   3   1   11.71    2.95
  -6  -3  -2    2.23    1.13
  -6  -3  -2    3.21    1.05
   6   3   2    4.75    1.16
  -6  -3  -3    9.72    2.12
  -6  -3  -3    5.38    1.05
   6   3   3   11.18    2.12
  -6  -3  -4  385.61    7.46
   6   3   4  520.72    9.72
  -6  -3  -5    5.58    2.94
  -6  -3  -5    8.53    1.35
   6   3   5   11.28    2.02
  -6  -3  -6  391.44   15.82
  -6  -3  -6  386.63   14.52
   6   3   6  515.73   18.60
  -6  -3  -7   16.24    2.37
  -6  -3  -7   14.27    1.84
   6   3   7   19.69    4.16
  -6  -3  -8    0.57    1.10
  -6  -3  -8    0.37    0.72
   6   3   8    1.94    1.11
  -6  -3  -9   -0.87    1.17
  -6  -3  -9    0.76    0.71
   6   3   9    0.51    0.53
  -6  -3 -10    4.28    1.49
  -6  -3 -10    4.99    1.35
   6   3  10    7.08    1.67
  -6  -3 -11    2.84    1.20
   6   3  11    1.10    0.82
  -6  -3 -12   -0.33    1.09
   6   4 -14    4.67    2.74
   6   4 -13    9.17    2.49
  -6  -4  13   12.34    3.04
   6   4 -12    2.49    3.58
  -6  -4  12    2.36    1.72
   6   4 -11   12.77    3.60
  -6  -4  11   15.87    3.06
   6   4 -10    2.43    1.23
  -6  -4  10    1.29    1.30
   6   4  -9    0.81    0.78
  -6  -4   9    1.61    1.29
   6   4  -8   48.79    5.98
  -6  -4   8   43.67    4.00
   6   4  -7    8.17    1.82
  -6  -4   7    5.82    1.76
   6   4  -6   45.43    6.97
  -6  -4   6   39.13    3.12
   6   4  -5   80.69   14.65
  -6  -4   5   69.31    3.76
   6   4  -4    4.89    1.20
   6   4  -4    7.39    1.85
  -6  -4   4    3.18    1.08
   6   4  -3   14.20    3.63
  -6  -4   3   15.17    1.96
  -6  -4   3   10.41    1.50
   6   4  -2   82.09    4.57
  -6  -4   2   87.39    4.25
  -6  -4   2   75.61    3.40
   6   4  -1   83.84    3.46
  -6  -4   1   80.60    3.82
  -6  -4   1   75.21    3.20
   6   4   0    6.80    1.32
  -6  -4   0    4.82    1.41
  -6  -4   0    4.28    0.94
   6   4   1    1.05    0.88
  -6  -4  -1    2.65    1.03
  -6  -4  -2   25.66    2.35
   6   4   2   27.33    3.26
  -6  -4  -3  176.83    5.27
  -6  -4  -4   43.34    3.45
  -6  -4  -4   47.80    3.18
   6   4   4   50.74    3.92
  -6  -4  -5  730.87   64.52
  -6  -4  -5  658.88   57.92
   6   4   5  878.22   77.15
  -6  -4  -6    3.25    2.25
  -6  -4  -6    3.62    1.15
   6   4   6    4.98    1.14
  -6  -4  -7    4.25    1.66
  -6  -4  -7    2.66    1.06
   6   4   7    2.41    0.86
  -6  -4  -8    3.58    1.30
  -6  -4  -8    1.76    0.78
   6   4   8    3.51    1.19
  -6  -4  -9   23.95    3.03
  -6  -4  -9   22.30    2.38
  -6  -4 -10    0.90    0.78
   6   4  11    2.45    1.34
  -6  -4 -11    1.72    0.87
   6   4  12    1.57    0.58
  -6  -4 -12    1.06    0.77
   6   4  13    1.79    1.01
   6   5 -13    0.70    1.42
  -6  -5  13    1.12    1.40
   6   5 -12    0.50    1.21
  -6  -5  12   -0.33    1.16
   6   5 -11    8.44    2.17
  -6  -5  11    6.63    1.95
   6   5 -10   21.23    5.84
  -6  -5  10   15.54    2.62
   6   5  -9   11.81    2.15
  -6  -5   9    8.74    2.03
   6   5  -8    2.23    0.84
  -6  -5   8    1.94    1.13
   6   5  -7    6.09    1.37
  -6  -5   7    2.44    1.01
   6   5  -6   26.47    5.38
  -6  -5   6   18.92    2.51
   6   5  -5   30.34    6.11
  -6  -5   5   30.71    2.70
   6   5  -4    2.13    0.72
  -6  -5   4    5.14    1.87
  -6  -5   4    4.19    1.36
   6   5  -3    6.05    1.20
  -6  -5   3    7.45    1.79
  -6  -5   3    3.99    1.08
   6   5  -2    6.95    1.74
  -6  -5   2    3.12    0.83
   6   5  -1    8.62    1.94
  -6  -5   1    8.25    1.67
  -6  -5   1    6.63    1.29
   6   5   0   42.32    7.05
  -6  -5   0   27.70    2.33
  -6  -5   0   30.14    2.00
   6   5   1    5.38    1.04
  -6  -5  -1    2.48    1.10
   6   5   2    6.30    1.03
  -6  -5  -2    6.49    1.46
   6   5   3   48.20    9.47
  -6  -5  -3   39.53    3.06
   6   5   3   36.32    3.13
   6   5   4   41.94    6.32
  -6  -5  -4   31.33    2.61
   6   5   5    4.92    0.87
  -6  -5  -5    1.87    1.58
   6   5   6    3.48    1.12
  -6  -5  -6    3.69    1.20
   6   5   7   -0.46    1.07
  -6  -5  -7    0.86    0.91
   6   5   8    8.23    1.67
  -6  -5  -8    9.44    1.85
   6   5   9    2.92    1.27
  -6  -5  -9    0.14    0.75
   6   5  10    1.03    0.88
  -6  -5 -10    0.16    0.76
   6   5  11   13.09    2.09
  -6  -5 -11    3.84    1.16
   6   5  12   -0.12    1.02
  -6  -5 -12    0.23    0.85
   6   5  13    1.33    0.90
  -6  -5 -13    1.77    1.41
   6   5  14    3.54    1.36
   6   6 -13    4.68    1.79
   6   6 -12    2.04    1.29
  -6  -6  12    0.50    1.22
   6   6 -11   -0.56    1.38
  -6  -6  11   -0.79    1.19
   6   6 -10    1.35    1.11
  -6  -6  10   -1.44    1.13
   6   6  -9   12.63    2.73
  -6  -6   9    8.87    1.89
   6   6  -8    2.36    1.42
  -6  -6   8    1.46    0.59
   6   6  -7    0.89    0.79
  -6  -6   7    0.66    0.93
   6   6  -6    2.52    0.99
  -6  -6   6    0.15    0.75
  -6  -6   5    7.31    1.58
   6   6  -4    6.96    1.76
  -6  -6   4    9.70    2.56
  -6  -6   4    6.84    1.31
   6   6  -3    4.33    1.30
  -6  -6   3    2.95    1.39
  -6  -6   3    0.63    0.64
   6   6  -2    0.88    0.70
  -6  -6   2    1.68    1.21
  -6  -6   2    0.28    0.61
   6   6  -1   36.56    5.15
  -6  -6   1   27.15    2.49
  -6  -6   1   22.78    1.74
   6   6   0   35.92    7.34
  -6  -6   0   26.07    2.63
  -6  -6   0   24.27    1.61
   6   6   1    8.58    1.62
  -6  -6  -1    5.18    1.25
   6   6   2   11.78    2.70
  -6  -6  -2   10.61    1.96
   6   6   3    0.24    0.46
  -6  -6  -3    0.42    1.08
   6   6   4    2.77    1.03
  -6  -6  -4    0.87    1.16
   6   6   5    1.99    0.54
   6   6   6   10.59    2.28
  -6  -6  -6    7.54    1.52
   6   6   7    4.02    1.04
  -6  -6  -7    0.59    0.92
   6   6   8    1.51    0.89
  -6  -6  -8   -0.59    0.99
   6   6   9    3.75    1.59
  -6  -6  -9    3.23    1.21
   6   6  10   22.50    4.48
  -6  -6 -10   19.39    2.33
   6   6  11    0.96    0.82
  -6  -6 -11    3.93    1.70
   6   6  12    2.82    0.85
  -6  -6 -12    2.24    1.44
   6   6  13    1.48    1.24
  -6  -6 -13   -1.17    0.94
   6   6  14   -0.38    0.97
   6   7 -12    1.43    1.59
   6   7 -11    3.02    1.37
  -6  -7  11    0.35    1.19
   6   7 -10    2.08    1.32
  -6  -7  10    0.96    1.13
   6   7  -9   -0.80    1.31
  -6  -7   9    1.01    1.24
   6   7  -8   13.56    2.47
  -6  -7   8    5.61    1.85
   6   7  -7    1.57    1.23
  -6  -7   7    1.56    1.43
   6   7  -6    0.48    0.82
  -6  -7   6    1.04    0.88
  -6  -7   5   46.08    4.25
  -6  -7   5   44.69    3.62
   6   7  -4    7.65    1.79
  -6  -7   4    7.79    2.07
  -6  -7   4    5.40    1.14
   6   7  -3    3.49    0.99
  -6  -7   3    0.92    1.44
  -6  -7   3    1.58    1.01
   6   7  -2   94.07    4.05
  -6  -7   2   63.51    4.29
  -6  -7   2   62.66    2.89
   6   7  -1   23.22    4.68
  -6  -7   1   25.73    3.23
  -6  -7   1   17.49    1.58
   6   7   0   10.03    1.64
  -6  -7   0    6.89    2.19
   6   7   1    1.14    0.88
  -6  -7  -1    1.10    1.18
   6   7   2    1.18    0.82
  -6  -7  -2    0.45    1.08
   6   7   3   -0.76    1.13
  -6  -7  -3    0.70    1.07
   6   7   4    0.04    0.49
  -6  -7  -4    2.62    1.72
   6   7   5   20.35    4.62
  -6  -7  -5   17.11    2.23
   6   7   6   24.47    3.46
  -6  -7  -6   15.29    2.17
   6   7   7    1.47    1.38
  -6  -7  -7    3.63    1.70
   6   7   8    4.96    1.27
  -6  -7  -8    0.25    1.15
   6   7   9   22.07    3.90
  -6  -7  -9   15.02    2.23
   6   7  10    1.47    1.08
  -6  -7 -10    0.49    0.99
   6   7  11    6.01    1.73
  -6  -7 -11    0.47    0.95
   6   7  12   -0.01    1.07
  -6  -7 -12    0.07    0.91
   6   7  13    2.15    1.03
  -6  -7 -13    2.09    1.68
  -6  -7 -14    2.55    1.71
   6   8 -11    2.06    0.90
   6   8 -10   -1.24    1.59
   6   8  -9    1.09    1.03
  -6  -8   9    0.77    1.17
  -6  -8   8    3.47    1.31
   6   8  -7    9.10    1.78
  -6  -8   7    5.90    1.69
   6   8  -6    4.19    1.05
  -6  -8   6    3.68    1.38
  -6  -8   5    8.02    2.18
  -6  -8   5    6.12    1.59
   6   8  -4    1.87    0.85
  -6  -8   4    3.47    2.26
  -6  -8   4    0.85    0.73
   6   8  -3   80.78   14.56
  -6  -8   3   70.63    5.58
   6   8  -2    0.01    0.86
  -6  -8   2   -0.67    1.37
   6   8  -1    1.23    1.30
  -6  -8   1    2.79    1.97
   6   8   0    1.73    0.64
  -6  -8   0    0.35    1.24
   6   8   1   77.04    4.19
  -6  -8  -1   47.95    3.74
   6   8   2   10.57    2.30
  -6  -8  -2    4.28    1.33
   6   8   3   18.56    2.56
  -6  -8  -3   14.96    2.23
   6   8   4   22.19    3.35
  -6  -8  -4   16.21    2.34
   6   8   5   23.01    4.28
  -6  -8  -5   11.64    2.09
   6   8   6   10.99    1.78
  -6  -8  -6    9.53    1.96
   6   8   7    2.46    0.85
  -6  -8  -7    1.19    1.17
   6   8   8    8.15    2.02
  -6  -8  -8    4.42    1.60
   6   8   9    7.88    2.37
  -6  -8  -9    2.73    1.53
   6   8  10   -0.37    1.34
  -6  -8 -10    1.33    1.17
   6   8  11    7.57    2.65
  -6  -8 -11    6.88    2.19
   6   8  12    5.49    1.87
  -6  -8 -12    3.94    1.86
   6   8  13    1.64    0.74
  -6  -8 -13    1.18    1.23
  -6  -8 -14    3.02    1.83
   6   9 -10   11.48    3.30
   6   9  -9    7.27    2.12
   6   9  -8    0.40    1.13
   6   9  -7    2.38    1.20
  -6  -9   5    2.00    1.47
   6   9  -4    2.37    1.13
  -6  -9   4    1.70    1.37
   6   9  -3   10.08    1.91
  -6  -9   3    6.42    2.16
   6   9  -2   14.55    3.94
  -6  -9   2   13.33    2.67
   6   9  -1    5.28    1.46
  -6  -9   1    2.09    1.38
   6   9   0  120.30    7.79
  -6  -9   0   65.97    5.20
   6   9   1    5.90    1.61
  -6  -9  -1    2.11    1.52
   6   9   2   21.77    4.41
  -6  -9  -2   17.45    2.69
   6   9   3    5.99    2.09
  -6  -9  -3    3.67    1.87
   6   9   4    2.57    1.55
  -6  -9  -4    1.51    1.11
   6   9   5   10.34    2.51
  -6  -9  -5    2.41    1.22
   6   9   6    5.68    2.11
  -6  -9  -6    1.92    1.44
   6   9   7    2.56    1.51
  -6  -9  -7    0.39    1.13
   6   9   8   19.71    2.92
  -6  -9  -8   12.42    2.53
   6   9   9    6.29    1.59
  -6  -9  -9    2.91    1.76
   6   9  10    3.49    2.22
  -6  -9 -10    1.46    1.37
   6   9  11    9.47    4.19
  -6  -9 -11   11.46    2.92
   6   9  12    3.34    2.11
  -6  -9 -12    3.21    1.46
   6   9  13   -0.02    1.19
  -6  -9 -13    2.55    1.78
  -6  -9 -14    1.72    1.36
   6  10  -9    6.00    2.43
   6  10  -8    1.64    0.90
   6  10  -7    0.63    0.53
  -6 -10   5   -0.43    1.12
  -6 -10   4    3.26    1.85
   6  10  -3    0.84    0.65
  -6 -10   3   -0.51    1.23
   6  10  -2    2.37    1.14
  -6 -10   2    4.27    1.47
   6  10  -1   26.78    3.54
  -6 -10   1   18.99    2.85
   6  10   0   12.61    3.00
  -6 -10   0   11.02    2.37
   6  10   1   91.20   16.32
  -6 -10  -1   67.14    4.44
   6  10   2    1.25    1.00
   6  10   3    4.01    2.07
  -6 -10  -3    0.69    1.32
   6  10   4    2.49    0.96
  -6 -10  -4    2.80    1.43
   6  10   5    2.97    2.09
  -6 -10  -5    0.96    1.28
   6  10   6   -0.08    1.63
  -6 -10  -6    0.29    1.29
   6  10   7    4.52    1.75
  -6 -10  -7    3.48    1.82
   6  10   8    4.02    2.11
  -6 -10  -8    1.20    1.31
   6  10   9    3.25    2.00
  -6 -10  -9    0.35    1.30
   6  10  10   15.20    2.87
  -6 -10 -10    9.75    2.72
   6  10  11    6.14    2.46
  -6 -10 -11    2.50    1.66
   6  10  12   12.65    2.43
  -6 -10 -12   13.31    3.06
  -6 -10 -13    1.58    1.41
   6  11  -7    0.39    0.75
  -6 -11   5   14.18    2.88
  -6 -11   4   14.72    2.66
   6  11  -3    5.67    1.69
  -6 -11   3    2.28    1.38
   6  11  -2    1.18    1.08
  -6 -11   2    1.19    1.71
   6  11  -1   16.79    5.01
  -6 -11   1   13.81    2.51
   6  11   0    4.65    1.79
  -6 -11   0    3.44    1.76
   6  11   1    0.63    0.83
  -6 -11  -1   -0.53    1.22
   6  11   2   13.70    2.24
  -6 -11  -2    8.29    2.16
   6  11   3    8.68    1.90
  -6 -11  -3    4.28    1.97
   6  11   4    2.11    2.29
  -6 -11  -4    1.64    1.33
   6  11   5   25.04    3.95
  -6 -11  -5   13.35    2.51
   6  11   6    6.13    3.11
  -6 -11  -6    1.55    1.43
   6  11   7   35.12    4.00
  -6 -11  -7   19.70    3.02
   6  11   8   12.28    2.79
  -6 -11  -8    7.33    2.26
   6  11   9    2.38    1.76
  -6 -11  -9    0.70    1.38
   6  11  10    5.45    1.09
  -6 -11 -10    8.86    2.44
   6  11  11   21.21    3.53
  -6 -11 -11   15.39    2.98
   6  11  12    2.09    0.72
  -6 -11 -12    0.64    1.45
  -6 -11 -13    0.08    1.49
   6  12  -6    1.03    0.74
  -6 -12   5    1.37    1.34
  -6 -12   4    8.06    2.54
  -6 -12   3    6.36    2.64
   6  12  -2    1.35    1.00
  -6 -12   2    0.72    1.13
   6  12  -1    0.94    1.30
  -6 -12   1    1.63    1.28
   6  12   0   -0.03    1.31
  -6 -12   0    1.85    1.69
   6  12   1    2.18    1.41
  -6 -12  -1    6.76    2.16
   6  12   2    3.21    1.84
  -6 -12  -2    0.23    1.19
   6  12   3    0.93    1.98
  -6 -12  -3   -0.82    1.12
   6  12   4   10.54    3.35
  -6 -12  -4    5.59    2.10
   6  12   5    1.03    1.66
  -6 -12  -5    3.43    1.98
   6  12   6   53.78   10.48
  -6 -12  -6   39.39    4.78
   6  12   7    1.25    1.42
  -6 -12  -7    0.04    1.28
   6  12   8    7.42    2.35
  -6 -12  -8    6.25    2.27
   6  12   9    3.07    1.42
  -6 -12  -9    0.46    1.32
   6  12  10   12.16    3.04
  -6 -12 -10    6.04    2.30
   6  12  11    3.53    1.81
  -6 -12 -11    0.99    1.35
  -6 -12 -12   -0.24    1.35
  -6 -13   4    0.72    1.28
  -6 -13   3    3.86    1.92
  -6 -13   2    1.49    1.35
   6  13  -1    0.36    0.83
  -6 -13   1   -0.95    1.25
   6  13   0    0.43    0.94
  -6 -13   0    1.85    1.77
   6  13   1    0.46    0.76
  -6 -13  -1    1.39    1.22
   6  13   2    1.14    0.94
  -6 -13  -2    1.20    1.22
   6  13   3   -0.01    1.23
  -6 -13  -3    1.60    1.61
   6  13   4    2.38    1.65
  -6 -13  -4   -0.30    1.09
   6  13   5    4.26    1.80
  -6 -13  -5    8.54    2.50
   6  13   6    2.55    1.49
  -6 -13  -6    1.70    1.95
   6  13   7    4.47    1.02
  -6 -13  -7    5.39    2.24
   6  13   8    2.43    1.00
   6  13   9    2.46    1.88
  -6 -13  -9    1.86    1.52
   6  13  10    2.64    1.51
  -6 -13 -10    3.44    1.71
  -6 -13 -11    4.63    2.15
  -6 -14   1    0.30    1.35
   6  14   0    0.29    1.30
  -6 -14   0   -0.44    1.24
   6  14   1    9.86    2.31
  -6 -14  -1    4.02    2.22
   6  14   2    0.74    1.08
  -6 -14  -2    1.23    1.43
   6  14   3    1.20    0.93
  -6 -14  -3    1.90    1.36
   6  14   4    1.18    0.85
  -6 -14  -4    1.05    1.43
   6  14   5    2.61    1.29
  -6 -14  -5    0.05    1.21
   6  14   6    1.78    1.25
  -6 -14  -6    1.60    1.40
   6  14   7    1.67    1.60
  -6 -14  -7    1.77    1.41
   6  14   8    2.08    1.65
  -6 -14  -8    3.26    2.04
   6  14   9   -1.59    1.61
  -6 -14  -9    1.51    1.51
   6  15   4    3.82    1.91
   6  15   5    1.03    1.57
   7  -8  -5    2.70    1.87
   7  -8  -4    2.95    1.20
   7  -8  -3    1.28    1.08
   7  -8  -2    5.08    2.04
   7  -8  -1   11.38    3.15
  -7   8   0    0.46    1.20
   7  -8   0    5.23    1.92
  -7   8  -1    3.08    1.55
   7  -8   1    1.00    1.04
  -7   8  -2    2.15    1.45
   7  -8   2    1.38    1.00
  -7   8  -3    1.37    1.52
   7  -8   3    1.63    2.02
  -7   8  -4   -0.25    1.39
   7  -7  -8    4.62    1.65
   7  -7  -7    4.02    1.54
   7  -7  -6    2.27    0.99
   7  -7  -5    1.04    1.27
   7  -7  -3    0.59    1.26
  -7   7   2    8.08    2.29
   7  -7  -2   11.36    3.34
  -7   7   1   -0.24    1.06
   7  -7  -1   -0.60    1.54
  -7   7   0   10.50    2.44
   7  -7   0    7.53    2.39
  -7   7  -1    1.18    1.60
   7  -7   1    1.60    1.14
  -7   7  -2    2.34    1.84
   7  -7   2    0.16    0.96
  -7   7  -3    1.50    1.41
   7  -7   3    0.59    1.30
  -7   7  -4    1.91    1.41
   7  -7   4    2.87    1.65
  -7   7  -5    0.22    1.30
   7  -7   5    2.36    1.75
  -7   7  -6    0.78    1.33
   7  -7   6   -0.25    1.49
  -7   6   9    5.93    2.36
   7  -6  -8    0.77    0.75
   7  -6  -7   -0.18    1.40
   7  -6  -6    0.94    0.65
   7  -6  -5    2.37    1.14
   7  -6  -4    0.92    1.00
  -7   6   3    2.24    1.34
  -7   6   2    2.22    1.18
   7  -6  -2    0.81    1.53
  -7   6   1    0.65    1.05
   7  -6  -1   -0.03    1.33
  -7   6   0    0.48    1.20
   7  -6   0    2.07    1.60
  -7   6  -1    2.71    1.70
   7  -6   1    1.07    1.30
  -7   6  -2    0.63    1.25
   7  -6   2    0.90    1.17
  -7   6  -3    2.04    1.75
   7  -6   3    5.72    2.54
  -7   6  -4    2.24    1.46
  -7   6  -5    2.43    1.43
   7  -6   5    7.86    3.01
  -7   6  -6    2.00    1.91
   7  -6   6    0.56    1.50
  -7   6  -7    0.96    1.36
   7  -6   7    1.43    2.26
  -7   6  -8   -0.43    1.16
   7  -6   8    1.17    1.96
  -7   5  10    0.99    1.08
  -7   5   9    0.43    1.40
  -7   5   8    7.08    2.45
  -7   5   7   -0.63    1.35
   7  -5  -6   -0.59    1.37
   7  -5  -5   13.39    4.06
  -7   5   4    0.18    0.78
   7  -5  -4    1.10    1.25
  -7   5   3    2.50    1.32
   7  -5  -3    3.39    1.87
  -7   5   2    1.77    1.16
  -7   5   1    0.30    0.91
   7  -5  -1    2.29    1.81
  -7   5   0    0.65    1.06
   7  -5   0    0.91    1.09
  -7   5  -1    3.78    1.80
   7  -5   1    0.82    0.86
  -7   5  -2    3.99    1.89
   7  -5   2    2.04    1.66
  -7   5  -3    0.50    1.20
   7  -5   3    1.73    1.00
  -7   5  -4   -0.09    1.17
   7  -5   4    0.27    1.89
  -7   5  -5   -0.52    1.30
   7  -5   5    2.34    1.38
  -7   5  -6    0.20    1.24
   7  -5   6    0.10    1.66
  -7   5  -7    1.02    1.36
   7  -5   7    1.16    2.26
  -7   5  -8    1.24    1.34
   7  -5   8    1.39    1.63
  -7   5  -9   -0.48    1.12
   7  -5   9    1.80    1.63
  -7   4  11   11.56    3.13
  -7   4  10   26.20    3.90
  -7   4   9    2.75    2.11
  -7   4   8    0.57    0.94
  -7   4   7    2.96    1.65
  -7   4   6    5.30    1.99
  -7   4   4    1.81    1.17
   7  -4  -4    2.57    1.07
  -7   4   3    2.20    1.11
   7  -4  -3    2.23    1.30
  -7   4   2   50.66    3.77
   7  -4  -2   68.11   18.47
  -7   4   1   24.57    2.99
  -7   4   0    1.27    1.12
   7  -4   0    1.91    1.68
  -7   4  -1   29.54    3.25
   7  -4   1   36.01    8.11
  -7   4  -2    3.55    1.86
   7  -4   2    5.20    1.68
  -7   4  -3    6.86    2.06
   7  -4   3    7.04    2.73
  -7   4  -4   11.39    2.58
   7  -4   4   12.48    2.31
  -7   4  -5    3.94    2.02
   7  -4   5    7.12    2.08
  -7   4  -6    2.49    1.92
   7  -4   6    2.25    1.27
  -7   4  -7    3.25    2.21
   7  -4   7    4.85    2.21
  -7   4  -8    1.13    1.42
   7  -4   8    3.72    1.92
   7  -4   9    7.44    2.67
  -7   4 -10    1.03    1.38
   7  -4  10    1.11    1.57
  -7   3  12    1.29    1.45
  -7   3  11   13.90    2.88
  -7   3  10    1.75    1.53
  -7   3   9    1.86    1.43
  -7   3   8   23.61    3.17
  -7   3   7    1.70    1.60
  -7   3   6   18.13    3.30
  -7   3   5    4.38    2.03
  -7   3   4    5.99    1.51
  -7   3   3    0.84    0.86
   7  -3  -3    1.08    0.92
  -7   3   2   14.69    1.99
   7  -3  -2   21.84    4.75
  -7   3   1    0.49    1.09
   7  -3  -1   -0.31    1.38
  -7   3   0  117.53    5.73
   7  -3   0  166.24    6.85
  -7   3  -1   15.18    2.43
   7  -3   1   20.64    3.89
  -7   3  -2    0.83    1.07
   7  -3   2    3.43    1.65
  -7   3  -3   29.05    3.34
   7  -3   3   35.60    6.64
  -7   3  -4    3.24    1.91
   7  -3   4    1.57    1.52
  -7   3  -5    4.50    1.86
   7  -3   5    5.46    1.71
  -7   3  -6    2.27    1.55
   7  -3   6   -0.24    1.50
  -7   3  -7    1.60    1.38
   7  -3   7    1.19    1.40
  -7   3  -8    1.85    1.43
   7  -3   8    5.42    2.00
  -7   3  -9    1.12    1.44
   7  -3   9    3.25    2.09
  -7   3 -10    7.22    2.56
   7  -3  10   11.52    2.37
  -7   3 -11   -1.30    1.37
   7  -3  11    1.99    0.89
  -7   2  13    0.70    1.29
  -7   2  12    2.46    2.05
  -7   2  11    3.52    1.67
   7  -2 -10    2.25    1.84
  -7   2  10    1.44    1.29
   7  -2  -9    1.35    1.38
  -7   2   9    2.12    1.89
   7  -2  -8    5.87    1.89
  -7   2   8    4.81    1.64
   7  -2  -7    0.86    1.23
  -7   2   7    4.14    2.17
   7  -2  -6   21.44    4.62
  -7   2   6   21.89    6.12
   7  -2  -5   20.48    4.84
  -7   2   5   27.42    3.75
  -7   2   4    1.57    0.81
  -7   2   4    2.87    1.85
  -7   2   3    1.71    0.94
  -7   2   2    0.64    0.86
   7  -2  -2    2.24    0.95
  -7   2   1   18.60    2.41
   7  -2  -1   21.95    4.51
  -7   2   0    1.95    1.17
   7  -2   0    1.74    1.41
  -7   2  -1    3.96    1.71
   7  -2   1    4.19    1.53
  -7   2  -2    5.47    1.40
   7  -2   2    9.30    3.28
  -7   2  -3    8.37    2.00
   7  -2   3   13.05    2.42
  -7   2  -4    1.36    1.29
   7  -2   4    1.63    0.90
  -7   2  -5    3.52    1.45
   7  -2   5    4.95    0.94
  -7   2  -6    1.56    1.34
   7  -2   6    2.00    0.97
  -7   2  -7    2.02    1.38
   7  -2   7    4.89    2.13
  -7   2  -8    1.59    1.38
   7  -2   8    0.82    1.32
  -7   2  -9    3.91    1.84
   7  -2   9    4.68    1.83
  -7   2 -10    7.14    2.18
   7  -2  10    7.25    2.86
  -7   2 -11    4.46    1.95
   7  -2  11    4.31    1.87
  -7   1  13    5.30    2.17
  -7   1  12    2.42    1.59
   7  -1 -11   -1.17    1.28
  -7   1  11    2.53    1.92
   7  -1 -10   -1.09    1.34
  -7   1  10    1.78    1.91
   7  -1  -9    7.29    1.83
  -7   1   9    6.47    2.07
   7  -1  -8    1.21    1.23
  -7   1   8   -0.89    1.28
   7  -1  -7    3.66    1.60
  -7   1   7    2.79    1.92
   7  -1  -6   28.64    2.65
  -7   1   6   26.34    3.41
   7  -1  -5    6.10    1.32
  -7   1   5    6.04    1.79
  -7   1   4   11.47    1.66
   7  -1  -4   24.71    2.65
  -7   1   4   14.91    2.44
  -7   1   3   14.22    1.95
   7  -1  -3   17.24    3.75
  -7   1   3   19.53    2.53
  -7   1   2   17.28    2.06
  -7   1   1    0.56    0.93
   7  -1  -1    2.74    1.48
  -7   1   0    4.21    1.27
   7  -1   0    7.21    1.80
  -7   1  -1    5.23    1.52
  -7   1  -2    0.60    1.11
   7  -1   2    2.86    1.07
  -7   1  -3    1.94    1.27
   7  -1   3    1.36    1.07
  -7   1  -4    1.19    1.24
   7  -1   4    5.18    1.31
  -7   1  -5   25.34    3.08
   7  -1   5   34.98    7.80
  -7   1  -6    0.38    1.22
   7  -1   6    0.67    0.96
  -7   1  -7    1.79    1.31
   7  -1   7    3.37    1.69
  -7   1  -8    1.61    1.27
   7  -1   8    0.95    1.26
  -7   1  -9    3.71    1.76
   7  -1   9   -0.98    1.30
  -7   1 -10    2.40    1.35
   7  -1  10    1.01    1.47
  -7   1 -11    1.51    1.30
   7  -1  11    0.70    1.21
  -7   1 -12    1.04    1.19
  -7   0  13    0.65    1.35
   7   0 -12   -0.09    1.45
  -7   0  12    1.44    2.02
   7   0 -11    2.49    2.12
  -7   0  11    2.03    1.45
   7   0 -10   49.79    4.38
  -7   0  10   31.11    4.27
   7   0  -9    0.66    1.40
  -7   0   9   -0.71    1.33
   7   0  -8   10.67    2.49
  -7   0   8    6.39    2.38
   7   0  -7    1.13    1.73
  -7   0   7    2.40    1.42
   7   0  -6    4.98    1.34
  -7   0   6    4.42    1.72
   7   0  -5   27.36    5.28
  -7   0   5   26.09    3.16
  -7   0   4   96.42    3.86
   7   0  -4  146.71    6.53
  -7   0   4  118.26    5.60
  -7   0   3   58.39    3.09
   7   0  -3   76.37   10.63
  -7   0   3   68.89    4.26
  -7   0   2    0.77    0.85
   7   0  -2   -0.44    0.70
  -7   0   2   -0.39    1.10
  -7   0   1    0.52    0.91
   7   0  -1   -0.24    0.59
   7   0  -1    0.76    0.68
  -7   0   0    1.21    1.38
   7   0   0    0.16    0.30
   7   0   0    1.21    0.76
  -7   0  -1    8.51    1.81
   7   0   1   13.25    3.12
  -7   0  -2    0.98    1.11
   7   0   2    2.77    0.74
  -7   0  -3   36.30    3.36
   7   0   3   41.14   10.34
  -7   0  -4   14.58    2.61
   7   0   4   17.74    2.38
  -7   0  -5    1.80    1.76
   7   0   5    7.24    1.90
  -7   0  -6    5.44    1.83
   7   0   6   13.07    2.41
  -7   0  -7    7.06    2.26
   7   0   7    9.53    2.39
  -7   0  -8    0.37    1.13
   7   0   8    1.60    1.10
  -7   0  -9    0.84    1.24
   7   0   9    2.78    1.52
  -7   0 -10    1.26    1.19
   7   0  10    1.26    0.61
  -7   0 -11    1.32    1.15
   7   0  11   -0.87    1.05
  -7   0 -12    0.99    1.21
   7   1 -13    0.74    0.93
  -7  -1  13    1.27    1.53
   7   1 -12    1.58    1.00
  -7  -1  12   -0.12    1.23
   7   1 -11   27.00    3.91
  -7  -1  11   19.94    3.02
   7   1 -10    1.68    0.91
  -7  -1  10    0.00    1.28
   7   1  -9   39.53    5.33
  -7  -1   9   33.03    3.47
   7   1  -8    1.93    1.48
  -7  -1   8    1.49    1.44
   7   1  -7   20.65    5.00
  -7  -1   7   11.86    2.48
   7   1  -6    6.93    1.24
  -7  -1   6    4.86    1.80
   7   1  -5   21.33    3.46
  -7  -1   5   19.92    2.79
  -7  -1   4    9.10    1.40
   7   1  -4   14.99    2.60
  -7  -1   4   11.45    2.22
  -7  -1   3    8.16    1.46
   7   1  -3   11.73    2.75
  -7  -1   3   12.78    2.02
  -7  -1   2    1.47    0.82
   7   1  -2    1.29    0.77
  -7  -1   2   -0.11    0.68
  -7  -1   1    8.17    1.64
   7   1  -1    9.30    1.71
  -7  -1   1    9.59    1.89
  -7  -1   0    0.43    0.94
   7   1   0    0.55    0.45
   7   1   0    1.90    0.82
  -7  -1  -1    0.86    1.00
   7   1   1    0.71    1.27
  -7  -1  -2    0.17    0.99
  -7  -1  -2    1.61    0.69
   7   1   2    1.05    0.97
  -7  -1  -3    1.22    1.17
   7   1   3    0.95    0.67
  -7  -1  -4    2.88    1.56
   7   1   4    0.44    0.83
  -7  -1  -5    3.01    1.61
   7   1   5    2.91    0.73
  -7  -1  -6    0.11    1.13
   7   1   6    1.60    0.55
  -7  -1  -7    1.58    1.23
   7   1   7    2.28    1.41
  -7  -1  -8   10.52    1.99
   7   1   8    9.95    2.28
  -7  -1  -9    0.75    1.56
   7   1   9    0.99    1.00
  -7  -1 -10    1.44    1.32
   7   1  10    1.52    0.73
  -7  -1 -11    0.44    1.04
   7   1  11    1.61    1.45
  -7  -1 -12    0.84    1.25
  -7  -1 -13    1.66    1.30
   7   2 -13    1.02    1.60
  -7  -2  13   -0.34    1.41
   7   2 -12    0.65    1.55
  -7  -2  12    2.18    2.47
   7   2 -11    3.19    2.23
  -7  -2  11    0.03    1.22
   7   2 -10    5.22    1.68
  -7  -2  10    6.06    2.05
   7   2  -9    1.04    0.97
  -7  -2   9    3.12    1.70
   7   2  -8    1.31    1.33
  -7  -2   8    0.54    1.22
   7   2  -7   17.34    2.76
  -7  -2   7   16.26    2.69
   7   2  -6    8.42    1.58
  -7  -2   6    3.65    1.40
   7   2  -5   51.05    8.02
  -7  -2   5   45.18    4.33
   7   2  -4    2.33    1.30
  -7  -2   4    0.70    1.09
  -7  -2   3    0.82    0.68
   7   2  -3    2.85    1.16
  -7  -2   3    2.00    1.04
  -7  -2   2    1.81    0.90
   7   2  -2    0.93    0.62
  -7  -2   2    0.06    0.81
  -7  -2   1    1.54    0.89
  -7  -2   1    0.92    0.98
  -7  -2   0   32.33    2.86
  -7  -2   0   36.37    2.68
   7   2   0   36.46    8.81
  -7  -2  -1   39.26    3.15
  -7  -2  -1   43.93    2.61
   7   2   1   48.87    3.66
  -7  -2  -2    2.81    1.02
  -7  -2  -2    5.96    1.13
  -7  -2  -3    8.27    1.70
  -7  -2  -3    5.52    1.07
   7   2   3    3.80    1.46
  -7  -2  -4    1.29    1.55
  -7  -2  -4   -0.01    0.48
   7   2   4    0.72    0.51
  -7  -2  -5    9.86    2.08
  -7  -2  -5    7.14    1.14
   7   2   5   11.90    2.91
  -7  -2  -6    9.38    2.16
   7   2   6   11.48    2.14
  -7  -2  -7    5.15    1.89
   7   2   7    4.39    1.44
  -7  -2  -8    2.07    1.27
  -7  -2  -9    0.78    1.21
   7   2   9    5.98    1.80
  -7  -2 -10   -0.78    1.16
   7   2  10    1.32    0.99
  -7  -2 -11   -0.58    0.97
  -7  -2 -12    2.09    1.25
  -7  -2 -13    0.59    1.11
   7   3 -13    0.58    1.48
  -7  -3  13    2.80    2.26
   7   3 -12    6.07    2.58
  -7  -3  12    5.87    2.19
   7   3 -11    3.31    2.69
  -7  -3  11    4.12    2.00
   7   3 -10    1.88    1.06
  -7  -3  10    0.95    1.23
   7   3  -9    1.94    0.98
  -7  -3   9    1.70    1.44
   7   3  -8    0.85    0.74
  -7  -3   8    0.79    1.14
   7   3  -7   -0.84    1.31
  -7  -3   7    0.62    1.15
   7   3  -6    9.22    1.89
  -7  -3   6    5.89    1.58
   7   3  -5    3.34    1.39
  -7  -3   5    1.32    1.34
   7   3  -4  117.12   16.54
  -7  -3   4   93.98    4.56
   7   3  -3    1.17    0.43
   7   3  -3    0.92    0.68
  -7  -3   3    1.97    1.08
  -7  -3   2    0.29    0.88
  -7  -3   1    9.60    1.77
  -7  -3   1   12.09    1.80
  -7  -3   1    7.68    1.34
  -7  -3   0   10.30    1.71
  -7  -3   0   12.35    1.54
  -7  -3  -1   13.62    2.16
  -7  -3  -1   10.96    1.60
   7   3   1   10.35    2.47
  -7  -3  -2   -0.69    0.90
  -7  -3  -2    0.61    0.78
  -7  -3  -3    2.41    1.26
  -7  -3  -3    0.55    0.71
   7   3   3   -0.23    0.70
  -7  -3  -4    6.78    1.93
  -7  -3  -4    5.97    1.36
   7   3   4    7.91    1.77
  -7  -3  -5   19.32    2.59
  -7  -3  -5   16.64    1.98
   7   3   5   17.60    5.65
  -7  -3  -6   16.70    2.47
  -7  -3  -6   12.55    1.67
   7   3   6   20.65    2.50
  -7  -3  -7    5.71    1.91
   7   3   7    1.30    0.78
  -7  -3  -8   -0.15    1.08
  -7  -3  -8    0.31    0.59
   7   3   8    0.25    0.69
  -7  -3  -9    0.55    1.18
   7   3   9   -0.53    0.67
  -7  -3 -10    0.93    1.22
  -7  -3 -11   -0.31    1.02
  -7  -3 -12    2.43    1.73
   7   4 -13   -0.17    1.59
   7   4 -12    3.58    2.03
  -7  -4  12    1.10    1.36
   7   4 -11    3.07    1.81
  -7  -4  11    3.35    1.56
   7   4 -10   14.84    3.45
  -7  -4  10    8.16    2.24
   7   4  -9    3.43    1.42
  -7  -4   9    2.17    1.17
   7   4  -8    1.62    0.95
  -7  -4   8   -0.41    0.96
   7   4  -7    2.64    0.99
  -7  -4   7    1.24    1.05
   7   4  -6    2.43    1.83
  -7  -4   6    1.49    1.10
   7   4  -5   41.61    6.99
  -7  -4   5   38.63    3.65
   7   4  -4    0.45    0.48
   7   4  -4    1.48    1.21
  -7  -4   4    1.97    1.14
   7   4  -3    3.26    0.88
  -7  -4   3    4.53    1.45
   7   4  -2    8.17    1.48
  -7  -4   2    8.32    1.65
  -7  -4   2    7.47    1.36
   7   4  -1   46.10    7.26
  -7  -4   1   50.52    3.30
  -7  -4   1   36.16    6.20
   7   4   0   -0.44    0.78
  -7  -4   0    0.75    0.84
  -7  -4   0    0.17    0.65
  -7  -4  -1    5.21    1.36
   7   4   1    8.03    1.16
  -7  -4  -2    3.95    1.39
  -7  -4  -2    3.28    1.18
  -7  -4  -3    0.51    1.16
  -7  -4  -3    1.04    0.82
   7   4   3    2.10    0.50
  -7  -4  -4   11.26    2.33
  -7  -4  -4    9.18    1.53
   7   4   4    8.25    2.10
  -7  -4  -5    0.42    1.30
  -7  -4  -5    2.02    1.23
   7   4   5    0.95    0.46
  -7  -4  -6    3.76    1.61
  -7  -4  -6    3.70    1.08
   7   4   6    5.13    1.37
  -7  -4  -7    5.89    1.69
  -7  -4  -7    2.31    0.79
  -7  -4  -8    2.75    1.69
  -7  -4  -8    3.33    1.20
  -7  -4  -9    1.68    1.29
  -7  -4  -9    0.94    0.75
  -7  -4 -10    4.24    1.28
   7   4  11    1.02    1.29
   7   4  12    2.96    1.58
   7   4  13    1.17    0.85
   7   5 -12    0.81    1.02
   7   5 -11    5.26    3.19
  -7  -5  11    8.77    2.33
   7   5 -10    0.76    1.34
  -7  -5  10    3.07    1.63
   7   5  -9    3.97    1.52
  -7  -5   9    3.62    2.15
   7   5  -8   11.42    2.59
  -7  -5   8    8.67    2.14
   7   5  -7    3.42    1.73
  -7  -5   7    2.96    1.50
   7   5  -6    1.13    1.12
  -7  -5   6    2.49    1.40
   7   5  -5    1.09    0.84
  -7  -5   5    0.64    0.80
  -7  -5   4    1.35    1.20
   7   5  -3    1.76    0.94
  -7  -5   3    2.02    1.53
  -7  -5   3    1.11    0.64
   7   5  -2    5.08    1.09
  -7  -5   2    2.84    1.40
  -7  -5   2    1.38    0.75
   7   5  -1    0.30    0.44
  -7  -5   1    0.91    1.22
  -7  -5   1    0.73    0.63
   7   5   0   35.43    7.55
  -7  -5   0   34.54    3.20
  -7  -5   0   27.44    2.02
   7   5   1   39.36    7.60
  -7  -5  -1   38.83    3.06
   7   5   1   30.62    7.58
   7   5   2   11.45    3.29
  -7  -5  -2   10.69    1.96
   7   5   3   16.21    3.83
  -7  -5  -3   10.07    1.77
   7   5   4    2.81    1.08
  -7  -5  -4    1.47    1.02
   7   5   5    1.06    0.73
  -7  -5  -5    1.82    1.02
   7   5   6    3.47    0.76
  -7  -5  -6    5.63    1.54
   7   5   7   -0.36    1.47
  -7  -5  -7    0.07    0.74
   7   5   8    4.90    1.14
  -7  -5  -8    6.84    1.75
   7   5   9    1.11    0.84
  -7  -5  -9    1.43    0.93
   7   5  10    1.69    0.85
  -7  -5 -10    0.44    0.80
   7   5  11    8.07    2.75
  -7  -5 -11    2.22    1.11
   7   5  12    0.91    1.21
   7   6 -12    0.72    1.21
   7   6 -11    1.60    1.00
   7   6 -10    2.00    1.47
  -7  -6  10    1.83    1.65
   7   6  -9    6.49    1.69
  -7  -6   9    2.68    1.82
   7   6  -8    6.18    1.35
  -7  -6   8    8.61    2.54
   7   6  -7    2.88    0.87
   7   6  -6    1.84    1.10
  -7  -6   6    1.47    1.03
   7   6  -5   -0.43    1.31
  -7  -6   5    1.68    0.89
  -7  -6   4    2.34    1.79
  -7  -6   4    0.60    0.77
   7   6  -3    0.85    0.75
  -7  -6   3    1.25    1.21
  -7  -6   3    0.33    0.70
   7   6  -2    3.33    0.90
  -7  -6   2    0.72    1.11
  -7  -6   2    4.38    1.18
   7   6  -1    1.73    0.61
  -7  -6   1    3.58    1.50
  -7  -6   1    1.36    0.84
   7   6   0   36.04    5.91
  -7  -6   0   31.55    3.12
  -7  -6   0   22.44    3.73
   7   6   1    2.85    0.98
  -7  -6  -1    4.64    1.51
   7   6   2   25.11    4.33
  -7  -6  -2   12.67    1.86
   7   6   3    1.16    0.61
  -7  -6  -3    3.06    1.24
   7   6   4    2.09    1.52
  -7  -6  -4    1.48    1.06
   7   6   5    9.18    1.86
  -7  -6  -5    5.89    1.67
   7   6   6    3.30    1.38
  -7  -6  -6    1.60    1.14
   7   6   7    5.43    2.02
  -7  -6  -7    3.46    1.24
   7   6   8    1.06    0.81
  -7  -6  -8    1.02    0.82
   7   6   9    0.69    0.81
  -7  -6  -9    1.52    1.11
   7   6  10    3.24    1.82
  -7  -6 -10    2.31    1.29
   7   6  11    1.06    1.04
  -7  -6 -11    3.56    1.40
   7   6  12    2.66    1.23
   7   6  13    0.89    1.40
   7   7 -11    0.52    0.75
   7   7 -10    2.27    1.64
   7   7  -9    2.25    0.75
  -7  -7   9    1.09    1.15
   7   7  -8    0.42    0.46
  -7  -7   8    0.38    0.98
   7   7  -7    1.15    0.46
  -7  -7   7   -0.43    0.90
   7   7  -6    0.79    1.01
  -7  -7   6    1.99    1.27
  -7  -7   5    0.41    0.84
  -7  -7   4    7.56    2.09
  -7  -7   4    2.70    0.97
   7   7  -3    6.12    0.97
  -7  -7   3    3.26    1.93
  -7  -7   3    3.07    0.94
   7   7  -2    6.98    1.65
  -7  -7   2    5.69    2.05
  -7  -7   2    4.57    1.15
   7   7  -1    2.27    1.09
  -7  -7   1    4.46    2.01
   7   7   0    1.18    0.70
  -7  -7   0   -1.68    1.20
   7   7   1    4.15    0.80
  -7  -7  -1    5.15    1.82
   7   7   2   -0.23    0.98
  -7  -7  -2    0.90    1.64
   7   7   3    8.61    1.93
  -7  -7  -3    5.38    1.81
   7   7   4   -0.99    1.33
  -7  -7  -4    1.53    1.14
  -7  -7  -5    2.92    1.32
   7   7   6    4.24    0.98
  -7  -7  -6    1.78    1.23
   7   7   7    1.58    1.07
  -7  -7  -7    2.34    1.15
   7   7   8   -0.17    1.18
  -7  -7  -8    0.13    0.82
   7   7   9    1.00    0.60
  -7  -7  -9    1.08    0.94
   7   7  10   -0.39    1.28
  -7  -7 -10    0.79    0.94
   7   7  11    0.69    1.00
  -7  -7 -11    1.32    1.43
   7   7  12    1.56    1.12
  -7  -7 -12    2.27    1.39
   7   7  13    2.52    0.93
   7   8 -11    0.72    1.30
   7   8 -10    1.61    1.08
   7   8  -9   12.81    3.38
   7   8  -8    0.93    0.95
   7   8  -7    4.27    2.44
   7   8  -6    2.47    1.93
  -7  -8   5   15.20    2.84
  -7  -8   4    3.11    2.69
   7   8  -3  110.90   10.82
  -7  -8   3   96.05    5.87
   7   8  -2   40.12    4.91
  -7  -8   2   29.64    3.22
   7   8  -1    8.00    1.76
  -7  -8   1    4.49    1.76
   7   8   0   13.46    2.47
  -7  -8   0    6.14    1.95
   7   8   1    1.12    0.61
  -7  -8  -1    1.23    1.19
   7   8   2   21.21    5.08
  -7  -8  -2   21.43    3.07
   7   8   3   -1.87    1.18
  -7  -8  -3    2.04    1.34
   7   8   4   26.17    4.67
  -7  -8  -4   19.47    2.92
   7   8   5    1.14    1.09
  -7  -8  -5   -0.06    1.07
   7   8   6   17.51    3.66
  -7  -8  -6   14.57    2.31
   7   8   7    1.36    0.88
  -7  -8  -7    1.37    1.27
   7   8   8    2.55    0.86
  -7  -8  -8    1.42    1.59
   7   8   9    1.03    1.07
  -7  -8  -9    0.65    0.99
   7   8  10    1.72    1.24
  -7  -8 -10    0.93    1.02
   7   8  11    2.28    0.87
  -7  -8 -11    0.77    1.13
   7   8  12    1.33    1.09
  -7  -8 -12    1.28    1.07
   7   8  13    3.60    1.53
   7   9 -10    6.25    3.10
   7   9  -9    1.49    1.27
   7   9  -8   14.74    3.54
   7   9  -7    2.43    1.13
   7   9  -6   -0.96    1.40
  -7  -9   5    1.76    1.58
  -7  -9   4   28.51    3.56
   7   9  -3    2.77    1.07
  -7  -9   3    1.51    1.59
   7   9  -2    5.50    1.56
  -7  -9   2    7.27    2.41
   7   9  -1    2.20    0.54
  -7  -9   1    1.51    1.37
   7   9   0    7.18    1.64
  -7  -9   0    4.42    1.98
   7   9   1   -0.34    1.18
  -7  -9  -1    0.24    1.21
   7   9   2    2.64    1.35
  -7  -9  -2    0.78    1.21
   7   9   3    1.70    1.44
  -7  -9  -3    1.16    1.20
   7   9   4    2.15    2.09
  -7  -9  -4    1.21    1.12
   7   9   5    1.48    1.14
  -7  -9  -5    0.48    1.11
   7   9   6   11.78    2.28
  -7  -9  -6   12.26    2.66
   7   9   7    2.75    0.76
  -7  -9  -7   -0.18    1.07
   7   9   8    5.32    1.26
  -7  -9  -8    4.57    1.87
  -7  -9  -9    3.22    1.78
   7   9  10    1.93    0.94
  -7  -9 -10    0.73    1.18
   7   9  11    2.38    1.79
  -7  -9 -11    0.08    1.13
   7   9  12   -0.09    0.92
  -7  -9 -12    0.01    1.00
   7  10  -8    2.75    1.38
   7  10  -7    1.80    1.46
   7  10  -6    0.33    0.98
  -7 -10   5    1.96    2.07
  -7 -10   4    2.79    2.04
  -7 -10   3   -0.65    1.24
   7  10  -2    2.54    1.27
  -7 -10   2    1.01    1.76
   7  10  -1    1.51    0.71
  -7 -10   1    1.34    1.93
   7  10   0    6.77    2.10
  -7 -10   0    5.18    1.99
   7  10   1    6.85    1.77
  -7 -10  -1    7.90    2.70
   7  10   2   43.60   10.09
  -7 -10  -2   40.72    4.08
   7  10   3    5.07    1.70
  -7 -10  -3    5.74    1.98
   7  10   4    5.31    1.91
  -7 -10  -4    0.76    1.22
   7  10   5   -0.05    1.52
  -7 -10  -5    0.19    1.08
   7  10   6    0.76    1.29
  -7 -10  -6    0.44    1.74
  -7 -10  -7    0.93    1.25
   7  10   8    1.00    1.57
  -7 -10  -8    2.26    1.44
   7  10   9    1.72    1.61
  -7 -10  -9   -0.63    1.09
   7  10  10    4.65    2.43
   7  10  11    8.00    2.50
  -7 -10 -11    2.96    1.95
   7  10  12    1.41    1.40
  -7 -10 -12    0.66    1.23
   7  11  -7    3.96    1.20
   7  11  -6    1.53    1.01
  -7 -11   5    3.11    2.07
  -7 -11   4    0.89    1.38
  -7 -11   3   -0.96    1.29
   7  11  -2    0.94    1.09
  -7 -11   2    6.65    2.61
   7  11  -1    1.93    0.82
  -7 -11   1    1.18    1.28
   7  11   0    9.45    2.81
  -7 -11   0   10.71    2.58
   7  11   1   34.38    9.65
  -7 -11  -1   24.43    3.44
   7  11   2    4.00    2.03
  -7 -11  -2    1.54    1.55
   7  11   3    9.00    2.95
  -7 -11  -3    4.19    2.11
   7  11   4    1.03    1.02
  -7 -11  -4    1.08    1.30
   7  11   5    3.48    1.85
  -7 -11  -5    2.44    2.01
   7  11   6    4.87    2.31
  -7 -11  -6    0.17    1.18
   7  11   7   -0.73    1.34
  -7 -11  -7    0.21    1.25
   7  11   8    3.44    2.07
  -7 -11  -8    4.12    2.10
   7  11   9    3.45    2.13
  -7 -11  -9    1.09    1.45
  -7 -11 -10   -0.22    1.34
   7  11  11    4.29    2.18
  -7 -11 -11    2.99    2.06
  -7 -11 -12    1.71    1.53
   7  12  -6    1.26    0.99
  -7 -12   5    3.62    2.56
  -7 -12   4   -0.09    1.35
  -7 -12   3    2.64    1.59
  -7 -12   2    0.29    1.33
   7  12  -1    0.40    1.15
  -7 -12   1    1.41    1.38
   7  12   0    6.71    2.20
  -7 -12   0    3.58    2.19
   7  12   1   -0.13    1.35
  -7 -12  -1    1.31    1.49
   7  12   2    8.27    2.65
  -7 -12  -2    4.51    2.20
   7  12   3    0.16    0.97
  -7 -12  -3    1.32    1.37
   7  12   4    4.37    1.62
  -7 -12  -4    2.11    1.43
   7  12   5    2.70    1.78
  -7 -12  -5    0.98    1.43
   7  12   6    1.93    1.87
  -7 -12  -6    4.34    2.34
   7  12   7    2.97    1.49
   7  12   8    0.78    1.08
  -7 -12  -8   -0.08    1.36
   7  12   9    2.32    1.38
  -7 -12  -9    0.58    1.27
   7  12  10    1.56    1.14
  -7 -12 -10    0.49    1.47
  -7 -12 -11   -0.11    1.52
  -7 -13   4    2.94    1.55
  -7 -13   3    0.31    1.29
  -7 -13   2    0.43    1.30
  -7 -13   1    0.68    1.41
   7  13   0    2.14    0.91
  -7 -13   0    2.20    2.02
   7  13   1    1.54    0.71
  -7 -13  -1    8.35    2.32
   7  13   2    0.91    0.96
  -7 -13  -2    2.19    1.53
   7  13   3    1.00    1.34
   7  13   4    1.02    1.19
  -7 -13  -4   -0.23    1.20
   7  13   5    4.40    1.51
  -7 -13  -5    1.27    1.43
   7  13   6    0.59    1.36
  -7 -13  -6    0.04    1.32
   7  13   7    1.89    0.95
  -7 -13  -7    1.04    1.42
   7  13   8    3.40    1.10
  -7 -13  -8    8.67    3.09
   7  13   9    2.99    1.82
  -7 -13  -9    0.30    1.30
  -7 -13 -10    2.52    2.21
  -7 -14   1    0.72    1.33
  -7 -14   0    2.61    2.25
  -7 -14  -1    1.35    1.43
  -7 -14  -2    0.43    1.91
   7  14   3   -0.57    1.44
   7  14   4    1.09    1.50
  -7 -14  -4    0.36    1.24
   7  14   5    1.30    0.94
  -7 -14  -5    1.46    1.42
   7  14   6   -0.05    1.33
  -7 -14  -6    1.74    1.42
   7  14   7   -1.25    1.34
  -7 -14  -7    0.53    1.28
   7  14   8    1.74    0.93
  -7 -14  -8    3.62    2.03
   8  -7  -3    2.84    1.49
   8  -7  -2    0.36    1.69
   8  -7  -1    1.71    1.81
   8  -7   0    2.26    1.04
   8  -7   1    0.72    0.67
   8  -7   2    3.06    1.70
   8  -6  -6    1.66    2.05
   8  -6  -5   -0.34    1.33
   8  -6  -3    0.03    1.45
   8  -6  -2    1.18    1.85
   8  -6  -1    1.10    1.23
  -8   6   0    1.09    1.20
   8  -6   0    3.61    1.78
  -8   6  -1    1.24    1.25
   8  -6   1    2.61    1.80
  -8   6  -2    0.43    1.13
   8  -6   2   -0.25    1.14
  -8   6  -3    4.37    2.44
   8  -6   3   -0.41    1.43
  -8   6  -4    1.10    1.41
   8  -6   4    3.19    1.69
  -8   6  -5   -0.76    1.37
   8  -6   5    2.65    2.13
   8  -5  -8    0.38    1.28
   8  -5  -7    0.54    0.77
   8  -5  -6    2.15    0.69
   8  -5  -5   11.34    2.62
   8  -5  -4    7.40    3.48
  -8   5   2    0.10    0.97
   8  -5  -2   -0.87    1.37
  -8   5   1    1.12    1.09
   8  -5  -1    1.95    0.95
  -8   5   0    1.10    1.24
   8  -5   0    1.55    1.20
  -8   5  -1    1.00    1.26
   8  -5   1   -0.04    1.57
  -8   5  -2    0.28    1.08
   8  -5   2    2.01    2.31
  -8   5  -3    4.46    2.04
   8  -5   3    2.30    1.38
  -8   5  -4    0.69    1.34
   8  -5   4    2.44    1.15
  -8   5  -5    0.48    1.23
   8  -5   5    1.76    1.25
  -8   5  -6    2.39    2.00
   8  -5   6    1.42    1.67
  -8   5  -7    1.58    1.46
  -8   4   9    2.67    1.65
  -8   4   8    2.60    2.30
  -8   4   7   -0.94    1.45
   8  -4  -6    8.25    2.48
   8  -4  -5    6.40    2.61
   8  -4  -4   -0.11    1.38
   8  -4  -3    1.33    0.66
  -8   4   2    1.83    1.07
  -8   4   1    2.32    1.50
   8  -4  -1    2.86    1.84
  -8   4   0   -0.27    0.98
   8  -4   0   -0.22    1.48
  -8   4  -1   16.87    3.19
   8  -4   1   16.40    3.19
  -8   4  -2   -0.52    1.16
   8  -4   2   -0.04    1.58
  -8   4  -3   -0.76    1.21
   8  -4   3    1.47    1.00
  -8   4  -4    0.58    1.21
   8  -4   4    2.20    1.19
  -8   4  -5   11.54    2.93
   8  -4   5   10.40    2.87
  -8   4  -6    4.16    2.06
   8  -4   6    0.69    1.64
  -8   4  -7    3.94    2.12
   8  -4   7    0.07    1.30
  -8   4  -8    2.19    1.50
   8  -4   8    1.19    1.34
  -8   3  10   11.74    3.03
  -8   3   9   -0.58    1.44
  -8   3   8    3.30    1.27
  -8   3   7    8.32    2.63
  -8   3   6   -0.67    1.31
   8  -3  -5    1.18    1.37
   8  -3  -4    1.48    1.22
  -8   3   3    1.37    1.00
   8  -3  -3   -1.10    1.36
  -8   3   2    0.53    0.90
   8  -3  -2    2.30    2.02
  -8   3   1   -1.32    0.89
  -8   3   0   27.67    2.91
   8  -3   0   39.54    9.46
  -8   3  -1    6.04    1.85
   8  -3   1   14.67    2.61
  -8   3  -2    2.14    1.47
   8  -3   2    0.90    0.99
  -8   3  -3    2.01    1.36
   8  -3   3    4.53    1.34
  -8   3  -4   18.07    2.77
   8  -3   4   20.33    5.66
  -8   3  -5    0.81    1.34
   8  -3   5    1.91    0.74
  -8   3  -6    5.02    2.06
   8  -3   6    7.20    1.71
  -8   3  -7    0.94    1.41
   8  -3   7    3.14    2.21
  -8   3  -8    0.79    1.21
   8  -3   8    4.16    1.76
  -8   3  -9    0.60    1.29
  -8   2  11    1.87    1.63
  -8   2  10    0.55    1.41
  -8   2   9   14.00    2.85
  -8   2   8    1.98    0.92
  -8   2   7    2.26    1.42
  -8   2   5    1.52    1.37
  -8   2   3    0.49    0.83
   8  -2  -3   -0.02    1.20
  -8   2   2    8.38    1.94
   8  -2  -2   11.07    2.18
  -8   2   1   14.50    2.15
   8  -2  -1   18.79    2.79
  -8   2   0    5.56    1.64
   8  -2   0    4.62    1.70
  -8   2  -1   26.41    3.20
   8  -2   1   17.87    5.37
  -8   2  -2    4.42    1.38
   8  -2   2    8.39    2.11
  -8   2  -3    1.80    1.29
   8  -2   3    2.49    1.15
  -8   2  -4    2.51    1.94
   8  -2   4    1.51    0.99
  -8   2  -5    7.20    2.18
   8  -2   5    7.91    2.76
  -8   2  -6    1.42    1.36
   8  -2   6    0.59    1.41
  -8   2  -7    0.96    1.25
   8  -2   7    0.44    1.27
  -8   2  -8   -0.25    1.32
   8  -2   8    2.49    2.06
  -8   2  -9    2.98    1.57
   8  -2   9    3.27    1.62
  -8   2 -10    2.92    2.09
  -8   1  11    0.73    1.33
  -8   1  10    3.46    1.67
  -8   1   9    1.35    1.37
  -8   1   8    0.81    1.29
  -8   1   7    1.01    1.33
  -8   1   6    3.56    1.78
  -8   1   5    8.13    2.08
  -8   1   3    3.87    1.35
  -8   1   2    0.37    0.87
   8  -1  -2    1.47    0.70
  -8   1   1    0.71    0.87
   8  -1  -1    4.69    1.22
  -8   1   0    0.44    0.84
   8  -1   0    2.51    0.94
  -8   1  -1    1.22    1.08
  -8   1  -2    0.12    1.02
   8  -1   2    2.09    1.05
  -8   1  -3    1.95    1.26
   8  -1   3    0.21    0.71
  -8   1  -4    2.84    1.49
   8  -1   4    2.93    1.04
  -8   1  -5    4.75    1.96
   8  -1   5    3.52    1.54
  -8   1  -6    3.24    1.42
   8  -1   6    4.26    1.89
  -8   1  -7    1.90    1.33
   8  -1   7    2.18    2.07
  -8   1  -8    0.28    1.29
   8  -1   8    4.15    2.19
  -8   1  -9    0.85    1.37
   8  -1   9    1.72    0.78
  -8   1 -10    1.20    1.39
  -8   1 -11    3.42    1.57
  -8   0  11    1.22    1.37
  -8   0  10    1.61    1.42
   8   0  -9    3.50    2.00
  -8   0   9    2.75    1.60
   8   0  -8    3.24    1.52
  -8   0   8    1.97    1.46
   8   0  -7    0.47    0.60
  -8   0   7    1.56    1.32
   8   0  -6    1.06    1.20
  -8   0   6    0.96    0.98
   8   0  -5    0.29    0.74
  -8   0   5    3.27    1.55
   8   0  -4    5.77    2.17
  -8   0   4    7.86    2.02
  -8   0   3    6.20    1.19
  -8   0   3    9.72    2.51
  -8   0   2    1.51    0.97
   8   0  -2   -0.25    1.08
  -8   0   1    5.96    1.63
   8   0  -1    5.68    1.18
  -8   0   0    2.74    1.15
   8   0   0    2.46    0.83
  -8   0  -1    8.61    1.88
   8   0   2   -0.32    1.11
  -8   0  -3    3.47    1.68
   8   0   3    5.25    1.51
  -8   0  -4    2.80    1.75
   8   0   4   -0.88    1.04
  -8   0  -5    6.56    1.92
   8   0   5    7.32    1.73
  -8   0  -6    2.39    1.42
   8   0   6    2.75    1.29
  -8   0  -7    0.18    1.15
   8   0   7    4.49    2.07
  -8   0  -8   -0.13    1.22
   8   0   8    1.32    1.15
  -8   0  -9    0.85    1.29
   8   0   9    1.05    1.25
  -8   0 -10    1.37    1.42
  -8   0 -11    2.20    1.43
  -8  -1  11    1.59    2.11
   8   1 -10    1.08    1.40
  -8  -1  10    0.52    1.38
   8   1  -9    0.99    0.80
  -8  -1   9    0.64    1.33
   8   1  -8    4.60    1.73
  -8  -1   8    2.99    1.50
   8   1  -7    2.79    1.82
  -8  -1   7    0.71    1.23
   8   1  -6    2.74    1.12
  -8  -1   6    3.54    1.37
   8   1  -5    8.21    2.41
  -8  -1   5    6.90    1.34
   8   1  -4   44.87    9.08
  -8  -1   4   42.42    6.84
  -8  -1   3   11.12    1.94
   8   1  -3   12.11    2.40
  -8  -1   3   12.38    2.29
  -8  -1   2   22.26    2.51
   8   1  -2   19.86    4.85
  -8  -1   2   34.11    3.79
  -8  -1   1    0.63    0.94
   8   1  -1    0.53    0.48
   8   1  -1    1.31    1.03
  -8  -1   0   13.70    2.08
   8   1   0   14.60    2.92
  -8  -1  -1    1.10    1.19
  -8  -1  -2   43.12    3.89
   8   1   2   43.31   11.21
  -8  -1  -3    3.33    1.33
   8   1   3    2.71    0.95
  -8  -1  -4    1.62    1.24
   8   1   4    3.47    1.39
  -8  -1  -5    1.99    1.31
   8   1   5   -0.14    0.75
  -8  -1  -6    2.14    1.89
   8   1   6    3.09    1.48
  -8  -1  -7    1.41    1.42
   8   1   7   -0.56    0.89
  -8  -1  -8    3.07    1.58
   8   1   8    0.88    1.08
  -8  -1  -9    0.42    1.33
   8   1   9    1.95    1.28
  -8  -1 -10    0.24    1.21
  -8  -1 -11    2.02    1.41
  -8  -1 -12    3.94    2.06
   8   2 -11    2.28    1.65
  -8  -2  11    1.86    1.45
   8   2 -10    1.56    1.48
  -8  -2  10    2.08    1.37
   8   2  -9    7.81    2.39
  -8  -2   9    8.93    2.59
   8   2  -8   -0.02    1.00
  -8  -2   8    1.77    1.59
   8   2  -7   -0.35    1.24
  -8  -2   7    1.42    1.29
   8   2  -6    0.13    0.51
  -8  -2   6    0.26    1.15
   8   2  -5    3.77    0.96
  -8  -2   5    1.98    1.13
   8   2  -4   18.79    3.81
  -8  -2   4   15.94    2.34
  -8  -2   3   14.79    2.06
   8   2  -3   19.92    3.84
  -8  -2   3   19.89    2.94
  -8  -2   2    1.11    0.87
   8   2  -2    4.59    1.09
  -8  -2   2    2.28    1.00
  -8  -2   1    1.86    1.02
   8   2  -1    3.42    0.61
  -8  -2   0    0.33    0.91
   8   2   0    1.12    0.42
   8   2   0    1.34    0.77
  -8  -2  -1   47.28    4.09
  -8  -2  -1   50.99    3.63
   8   2   1   48.61   10.76
  -8  -2  -2    1.10    1.17
  -8  -2  -2    0.37    0.63
   8   2   2    2.67    1.40
  -8  -2  -3    4.62    1.83
   8   2   3    3.99    1.63
  -8  -2  -4   -0.60    1.01
   8   2   4    0.59    0.47
  -8  -2  -5    0.86    1.24
   8   2   5   -0.49    0.72
  -8  -2  -6    0.04    1.27
  -8  -2  -7    2.30    1.44
   8   2   7    4.73    1.73
  -8  -2  -8    4.75    2.03
   8   2   8    1.64    1.02
  -8  -2  -9    0.75    1.40
  -8  -2 -10   -1.94    1.13
  -8  -2 -12    1.97    1.44
   8   3 -11    2.70    1.69
  -8  -3  11   -0.57    1.25
   8   3 -10    0.81    1.28
   8   3  -9    1.63    0.77
  -8  -3   9   -0.37    1.35
   8   3  -8    1.40    0.84
  -8  -3   8    1.94    1.34
   8   3  -7    3.42    2.02
  -8  -3   7    1.93    1.19
   8   3  -6   10.77    3.23
  -8  -3   6   11.59    1.94
   8   3  -5    6.84    1.90
  -8  -3   5    4.63    1.56
   8   3  -4   53.19    8.83
  -8  -3   4   53.75    3.93
   8   3  -3   14.75    2.93
   8   3  -3   22.97    3.84
  -8  -3   3   21.48    2.58
   8   3  -2    0.02    0.95
  -8  -3   2    0.85    0.38
  -8  -3   1    5.07    1.51
  -8  -3   1    3.78    1.23
  -8  -3   0    3.57    1.48
  -8  -3   0    5.22    1.48
   8   3   0    4.26    0.75
  -8  -3  -1   -0.18    0.96
  -8  -3  -1    0.51    0.69
   8   3   1    0.98    0.65
  -8  -3  -2    4.83    1.55
  -8  -3  -2    3.68    1.01
   8   3   2    2.76    1.09
  -8  -3  -3    0.82    1.16
  -8  -3  -3    1.20    0.92
   8   3   3    0.96    0.55
  -8  -3  -4    0.73    1.15
  -8  -3  -4    1.84    0.99
   8   3   4    3.09    0.70
  -8  -3  -5    1.55    1.75
   8   3   5    0.54    0.32
  -8  -3  -6    2.08    1.43
   8   3   6    1.95    0.67
  -8  -3  -7   15.29    3.09
  -8  -3  -8    5.31    2.13
  -8  -3  -9    1.30    1.43
  -8  -3 -10    3.56    1.65
  -8  -3 -11    2.29    1.47
  -8  -3 -12    1.67    1.39
   8   4 -11    0.01    1.55
  -8  -4  11    3.18    1.96
   8   4 -10    3.80    0.90
  -8  -4  10    0.58    1.16
   8   4  -9    3.62    1.55
  -8  -4   9    1.31    1.37
   8   4  -8    4.14    1.06
  -8  -4   8    3.69    1.60
   8   4  -7    3.71    1.80
  -8  -4   7    0.31    0.96
   8   4  -6    1.28    1.01
  -8  -4   6   -0.61    0.96
   8   4  -5   31.37    5.60
  -8  -4   5   29.63    3.21
   8   4  -4   77.49   14.77
  -8  -4   4   75.00    4.43
   8   4  -3   32.35    6.49
   8   4  -3   49.04    7.82
  -8  -4   3   39.25    3.38
   8   4  -2    9.14    2.10
  -8  -4   2    8.34    2.31
   8   4  -1    0.68    0.53
  -8  -4   1   -0.14    0.70
  -8  -4   1    0.85    0.82
   8   4   0    2.69    0.97
  -8  -4   0    3.19    1.31
   8   4   0    2.51    0.62
  -8  -4  -1    1.68    0.98
   8   4   1    0.34    0.38
  -8  -4  -2    2.17    1.00
  -8  -4  -2    2.07    0.95
   8   4   2    2.23    1.10
  -8  -4  -3    1.85    1.37
  -8  -4  -3    1.18    0.77
   8   4   3    0.95    0.42
  -8  -4  -4    0.84    1.61
  -8  -4  -4    1.83    0.85
   8   4   4    2.50    0.52
  -8  -4  -5    0.88    1.29
  -8  -4  -5    0.67    0.72
  -8  -4  -6   73.77    5.33
  -8  -4  -6   67.49    3.58
  -8  -4  -7    2.77    1.71
  -8  -4  -8   34.42    3.79
  -8  -4  -9   -0.27    1.46
  -8  -4 -10    1.02    1.29
   8   4  12    3.95    1.82
   8   4  13    1.90    1.17
   8   5 -11    2.93    1.08
   8   5 -10    0.96    0.99
   8   5  -9    5.77    1.86
  -8  -5   9    6.37    1.88
   8   5  -8   -0.11    0.52
  -8  -5   8    0.54    1.14
   8   5  -7    1.10    0.82
  -8  -5   7    3.66    1.67
   8   5  -6   19.44    4.92
  -8  -5   6   23.98    3.07
   8   5  -5   -0.07    1.37
  -8  -5   5    2.63    1.60
   8   5  -4   27.26    4.35
  -8  -5   4   23.48    2.56
  -8  -5   3   23.82    2.56
   8   5  -2    6.42    1.30
  -8  -5   2    5.30    1.80
  -8  -5   2    2.62    1.11
   8   5  -1    1.77    0.92
  -8  -5   1    0.33    0.93
  -8  -5   1    1.74    1.02
   8   5   0    4.85    1.63
  -8  -5   0    3.30    1.32
   8   5   0    2.55    0.70
   8   5   1   16.27    2.68
  -8  -5  -1   17.42    2.41
   8   5   1   13.06    3.44
   8   5   2   -0.05    0.90
  -8  -5  -2    0.95    0.85
   8   5   3    1.06    0.70
  -8  -5  -3    0.58    0.83
   8   5   4   10.84    2.14
  -8  -5  -4    5.93    1.60
   8   5   5   80.33    5.24
  -8  -5  -5   48.89    3.57
   8   5   6    1.36    1.73
  -8  -5  -6    3.42    1.73
   8   5   7  139.70    7.29
  -8  -5  -7   90.43    4.66
   8   5   8    2.68    1.63
  -8  -5  -8    1.31    0.92
   8   5   9    1.53    0.82
   8   5  10    2.19    1.01
   8   5  11    1.10    0.95
   8   5  12   -1.10    1.10
   8   5  13    1.28    1.36
   8   6 -10    0.97    1.22
   8   6  -9    0.69    1.21
   8   6  -8    5.54    2.28
  -8  -6   8    3.60    1.40
   8   6  -7    2.74    1.41
  -8  -6   7    0.94    1.07
   8   6  -6    2.13    1.76
  -8  -6   6    0.11    0.91
   8   6  -5    1.79    1.08
  -8  -6   5    2.51    1.32
   8   6  -4    7.70    2.15
  -8  -6   4    4.52    1.12
  -8  -6   3    7.29    2.39
  -8  -6   3    2.32    0.84
   8   6  -2    1.40    0.38
  -8  -6   2   -0.27    1.12
  -8  -6   2    2.00    0.51
   8   6  -1    2.77    0.98
  -8  -6   1    2.85    1.55
   8   6   0    3.05    0.96
  -8  -6   0    2.02    1.44
   8   6   1    3.19    0.89
  -8  -6  -1    2.48    1.55
   8   6   2   18.78    3.91
  -8  -6  -2   19.22    2.46
   8   6   3    5.92    1.60
  -8  -6  -3    3.13    1.38
   8   6   4   -0.15    1.29
  -8  -6  -4    3.94    1.31
   8   6   5    9.07    4.03
  -8  -6  -5    9.16    1.85
   8   6   6   20.80    4.76
  -8  -6  -6   20.49    2.81
   8   6   7    1.35    0.94
  -8  -6  -7    1.50    1.01
  -8  -6  -8   -0.51    0.76
   8   6   9    0.97    0.75
  -8  -6  -9    0.94    0.83
   8   6  10    2.14    1.02
   8   6  11    0.35    0.90
   8   6  12   -0.80    1.10
   8   6  13    2.56    0.55
   8   7 -10    2.83    1.79
   8   7  -9    0.16    0.65
   8   7  -8    0.26    0.87
   8   7  -7    2.76    1.06
   8   7  -6   -0.09    1.32
   8   7  -5    1.26    0.55
  -8  -7   4    3.28    1.79
  -8  -7   3    1.42    1.30
   8   7  -2    2.13    1.49
  -8  -7   2    2.19    1.79
   8   7  -1    1.89    0.99
  -8  -7   1    4.35    1.88
   8   7   0    0.34    0.41
  -8  -7   0   -0.07    1.09
   8   7   1    6.82    1.24
  -8  -7  -1    7.79    2.13
   8   7   2    4.99    1.44
  -8  -7  -2    4.59    1.77
   8   7   3    2.19    1.13
  -8  -7  -3    2.34    1.37
   8   7   4    0.89    1.20
  -8  -7  -4    3.96    1.58
   8   7   5    2.95    1.62
  -8  -7  -5    1.28    0.95
   8   7   6   -0.18    1.44
  -8  -7  -6    0.19    0.82
   8   7   7    0.80    1.19
  -8  -7  -7    1.67    1.26
   8   7   8    2.94    1.59
  -8  -7  -8    0.58    0.85
   8   7   9   -0.05    0.72
  -8  -7  -9   -0.21    0.78
   8   7  10    1.48    0.71
  -8  -7 -10    0.98    0.95
   8   7  11    2.46    1.02
   8   7  12    2.74    2.48
   8   8  -9    2.19    0.79
   8   8  -8    6.63    1.75
   8   8  -7    4.04    1.70
   8   8  -6    3.02    2.12
   8   8  -5    1.16    0.95
  -8  -8   4    1.06    1.31
  -8  -8   3   15.82    3.23
   8   8  -2    1.27    1.02
  -8  -8   2    0.79    1.37
   8   8  -1    1.37    0.65
  -8  -8   1    1.43    1.39
   8   8   0   15.14    2.94
  -8  -8   0   21.79    3.37
   8   8   1    9.19    2.16
   8   8   2    2.20    1.17
  -8  -8  -2   -0.06    1.09
   8   8   3   -0.32    0.57
  -8  -8  -3    1.65    1.20
   8   8   4   -0.45    1.19
  -8  -8  -4    1.00    1.16
   8   8   5    0.81    0.46
  -8  -8  -5    0.31    0.93
   8   8   6    1.80    1.14
  -8  -8  -6    0.80    1.29
   8   8   7    4.85    2.05
  -8  -8  -7    1.50    1.12
   8   8   8    0.43    1.30
  -8  -8  -8    4.35    1.73
   8   8   9    2.12    0.96
  -8  -8  -9    0.66    1.06
   8   8  10   -0.08    1.34
  -8  -8 -10    1.53    1.44
   8   8  11    0.14    1.01
   8   8  12    1.18    0.64
   8   9  -9    1.21    1.33
   8   9  -8   -1.34    1.41
   8   9  -7    2.58    0.95
   8   9  -6    1.41    1.34
  -8  -9   4    4.93    2.22
  -8  -9   3    4.16    2.11
   8   9  -2    0.27    0.58
  -8  -9   2    2.11    1.64
   8   9  -1   22.76    7.09
  -8  -9   1   25.92    3.32
   8   9   0    4.79    1.76
  -8  -9   0   -0.35    1.27
   8   9   1   -0.17    1.15
  -8  -9  -1    2.38    1.46
   8   9   2    1.56    0.87
  -8  -9  -2    1.35    1.30
   8   9   3   13.68    4.12
  -8  -9  -3   12.31    2.84
   8   9   4    6.33    2.39
  -8  -9  -4    3.41    1.72
   8   9   5   -1.00    1.53
  -8  -9  -5   -0.41    1.06
   8   9   6    4.91    1.84
  -8  -9  -6    6.04    2.37
   8   9   7    5.19    1.16
  -8  -9  -7    6.12    2.25
   8   9   8    3.19    1.07
  -8  -9  -8   -0.02    0.97
   8   9   9    0.58    1.66
  -8  -9  -9   -0.69    1.15
   8   9  10    1.99    0.79
  -8  -9 -10    2.35    1.84
   8   9  11    1.95    1.44
  -8  -9 -11    1.40    1.63
   8   9  12    0.42    0.79
   8  10  -7    2.36    1.14
   8  10  -6    1.99    1.77
  -8 -10   4    3.06    1.96
  -8 -10   3    1.76    1.50
  -8 -10   2    3.16    1.57
   8  10  -1    1.85    0.86
  -8 -10   1    4.17    1.99
   8  10   0    1.91    1.11
  -8 -10   0    0.66    1.40
   8  10   1   -0.14    1.30
  -8 -10  -1    1.60    1.40
   8  10   2   49.30    4.26
  -8 -10  -2   31.41    3.50
   8  10   3    2.29    1.73
  -8 -10  -3    1.55    1.51
   8  10   4    5.64    1.15
  -8 -10  -4    0.90    1.40
   8  10   5    4.18    2.06
  -8 -10  -5    1.45    1.71
   8  10   6    1.47    0.93
  -8 -10  -6    0.57    1.08
   8  10   7    3.60    1.74
  -8 -10  -7    0.17    1.07
   8  10   8   -0.14    1.41
  -8 -10  -8    2.55    1.69
   8  10   9   -0.56    1.48
  -8 -10  -9    0.49    1.15
   8  10  10    5.21    1.28
  -8 -10 -10    2.96    1.71
   8  10  11    1.58    1.44
   8  11  -6    1.22    1.24
  -8 -11   4   -0.80    1.27
  -8 -11   3    3.52    1.66
  -8 -11   2    0.24    1.31
  -8 -11   1    2.07    1.44
   8  11   0   -0.37    1.07
  -8 -11   0    2.20    2.04
   8  11   1   14.20    2.89
  -8 -11  -1    8.84    2.46
   8  11   2    1.70    0.97
  -8 -11  -2    4.04    2.19
   8  11   3   16.29    5.95
  -8 -11  -3   17.07    3.03
   8  11   4   -1.31    1.34
  -8 -11  -4    1.86    1.45
   8  11   5   -0.53    1.33
  -8 -11  -5    3.34    1.98
   8  11   6    0.96    1.59
   8  11   7    2.46    1.66
  -8 -11  -7    1.02    1.27
   8  11   8    1.81    1.58
  -8 -11  -8    1.60    1.32
   8  11   9    3.04    0.83
  -8 -11  -9    3.08    1.75
   8  11  10    4.33    2.08
  -8 -11 -10    0.87    1.31
  -8 -12   4    0.73    1.43
  -8 -12   3    2.81    1.74
  -8 -12   2    2.49    1.60
  -8 -12   1    3.57    2.13
  -8 -12   0    0.43    1.36
   8  12   1    4.93    1.86
  -8 -12  -1    1.58    1.43
   8  12   2    6.46    2.63
  -8 -12  -2    0.86    1.41
   8  12   3    0.86    0.85
  -8 -12  -3    3.61    2.11
   8  12   4    7.70    2.26
  -8 -12  -4    2.52    1.56
   8  12   5    0.88    1.65
  -8 -12  -5    0.96    1.32
   8  12   6    0.53    0.89
  -8 -12  -6    1.17    1.36
   8  12   7    5.63    2.67
  -8 -12  -7    0.69    1.41
   8  12   8    3.43    1.31
   8  12   9    2.55    1.02
  -8 -12  -9    3.03    2.12
  -8 -13   3    0.36    1.45
  -8 -13   2    1.37    1.50
  -8 -13   1    1.22    1.50
  -8 -13   0    1.62    1.52
  -8 -13  -1    0.97    1.39
   8  13   2    1.62    0.96
  -8 -13  -2    0.47    1.32
   8  13   3    2.22    1.80
  -8 -13  -3    0.01    1.30
   8  13   4    1.62    1.34
  -8 -13  -4    2.54    1.61
   8  13   5   -0.67    1.60
  -8 -13  -5    1.29    1.37
   8  13   6    5.06    2.31
  -8 -13  -6    3.99    2.10
   8  13   7   -0.27    1.49
  -8 -13  -7    3.86    2.16
   8  13   8   11.41    3.09
  -8 -13  -8    0.89    1.61
  -8 -14  -2    1.34    1.43
  -8 -14  -3    0.96    1.36
  -8 -14  -4    1.97    1.42
   9  -5  -3    1.70    1.54
   9  -5  -2   -0.31    1.47
   9  -5  -1    3.04    1.68
   9  -5   0    2.39    1.69
   9  -5   1    0.00    1.71
   9  -5   2    2.07    0.91
   9  -4  -6    1.32    0.62
   9  -4  -5    1.26    1.21
   9  -4  -4    1.10    1.08
   9  -4  -2    2.10    1.60
   9  -4  -1    3.22    0.88
   9  -4   0   -0.25    0.99
  -9   4  -1    0.76    1.19
   9  -4   1    0.12    0.78
  -9   4  -2    1.01    1.22
   9  -4   2    0.60    1.37
  -9   4  -3    0.87    1.23
   9  -4   3    1.19    1.20
  -9   4  -4    4.11    2.22
   9  -4   4    1.22    1.54
  -9   4  -5    0.47    1.49
  -9   3   8    6.55    2.16
   9  -3  -6   -0.11    1.34
   9  -3  -5   -0.03    0.89
   9  -3  -4    0.80    0.80
   9  -3  -3   -1.39    1.31
   9  -3  -1    1.46    1.14
  -9   3   0    2.39    1.31
   9  -3   0    4.95    1.82
  -9   3  -1    5.13    2.01
   9  -3   1    5.97    2.56
  -9   3  -2    0.28    1.19
   9  -3   2    4.42    1.76
  -9   3  -3    5.92    1.80
   9  -3   3    4.51    1.27
  -9   3  -4    2.04    1.98
   9  -3   4   -0.44    1.46
  -9   3  -5    1.31    1.47
   9  -3   5    0.60    0.90
  -9   3  -6    1.71    1.39
  -9   3  -7    2.17    1.98
  -9   2   8    2.19    1.67
  -9   2   7    1.81    1.56
   9  -2  -5    1.74    1.32
   9  -2  -4    3.34    1.66
   9  -2  -3    2.97    1.26
   9  -2  -2    3.68    1.18
  -9   2   1    2.50    1.43
  -9   2   0   10.38    2.74
   9  -2   0    8.22    2.80
  -9   2  -1    1.62    1.38
   9  -2   1   -0.16    1.29
  -9   2  -2   17.78    3.05
   9  -2   2   20.69    5.04
  -9   2  -3    4.93    2.03
   9  -2   3    7.99    1.62
  -9   2  -4    1.46    1.37
   9  -2   4    0.39    0.93
  -9   2  -5    6.97    2.41
   9  -2   5    8.53    2.08
  -9   2  -6    1.61    1.89
   9  -2   6    1.53    0.93
  -9   2  -7    1.59    1.58
  -9   2  -8    0.48    1.35
  -9   2  -9    2.67    2.00
  -9   1   9    2.07    0.99
  -9   1   8    1.56    1.48
  -9   1   7    0.54    1.41
  -9   1   6   -0.57    1.40
  -9   1   5    1.83    1.46
   9  -1  -4    5.27    1.32
   9  -1  -3    4.41    1.36
   9  -1  -2    0.16    0.67
  -9   1   1    2.00    1.05
   9  -1  -1    4.02    1.45
  -9   1   0    0.07    0.90
   9  -1   0    0.39    1.11
  -9   1  -1   10.05    2.21
   9  -1   1    7.66    2.44
  -9   1  -2    3.08    2.08
   9  -1   2    1.18    1.23
  -9   1  -3    3.00    1.82
   9  -1   3    1.57    0.83
  -9   1  -4    5.45    2.02
   9  -1   4    2.85    1.27
  -9   1  -5    1.23    1.31
   9  -1   5    1.50    1.02
  -9   1  -6    1.01    1.37
   9  -1   6    2.74    1.89
  -9   1  -7    3.35    2.49
   9  -1   7    0.94    1.30
  -9   1  -8    1.90    1.51
  -9   1  -9    0.65    1.30
  -9   0   9    2.98    1.65
  -9   0   8    1.72    1.48
  -9   0   7    4.91    1.59
  -9   0   6    1.97    1.80
  -9   0   5    1.04    1.25
  -9   0   4   13.62    2.66
   9   0  -3    1.37    0.84
  -9   0   2    3.43    1.38
   9   0  -2    4.93    0.97
  -9   0   1    4.10    1.74
   9   0  -1    0.75    0.82
  -9   0   0    0.66    0.93
  -9   0  -1    1.10    0.99
   9   0   1   -0.07    0.98
  -9   0  -2    0.03    1.00
   9   0   2    1.70    1.09
  -9   0  -3    2.60    1.75
   9   0   3    1.39    0.73
  -9   0  -4   -0.91    1.09
   9   0   4    2.22    0.88
  -9   0  -5    0.46    1.22
   9   0   5   -0.82    1.03
  -9   0  -6    1.06    1.38
   9   0   6    0.66    1.14
  -9   0  -7    2.33    1.49
   9   0   7    2.32    1.43
  -9   0  -8    0.80    1.34
  -9   0  -9   -0.11    1.30
  -9   0 -10   -0.18    1.35
  -9  -1   9    0.52    1.28
  -9  -1   8   12.77    2.62
  -9  -1   7    1.35    1.37
  -9  -1   6    0.98    1.30
  -9  -1   5    1.70    1.83
  -9  -1   4    2.50    1.23
  -9  -1   2   12.08    2.08
   9   1  -2   15.74    2.93
  -9  -1   1    7.87    1.81
   9   1  -1   13.01    2.50
  -9  -1   0    1.49    1.02
   9   1   0    0.51    0.56
  -9  -1  -1    1.99    1.17
   9   1   1    2.15    1.42
  -9  -1  -2    0.91    1.18
   9   1   2    2.21    0.98
  -9  -1  -3    0.97    1.15
   9   1   3    2.75    1.40
  -9  -1  -4   -0.66    1.11
   9   1   4   -0.63    0.92
  -9  -1  -5    3.72    1.72
   9   1   5    5.89    1.04
  -9  -1  -6    1.55    1.91
   9   1   6    5.49    1.77
  -9  -1  -7    2.75    2.03
  -9  -1  -8    0.84    1.36
  -9  -1  -9    1.67    1.43
  -9  -1 -10    1.51    1.51
  -9  -2   9   14.53    2.95
  -9  -2   8    4.93    1.87
  -9  -2   7    4.75    1.61
   9   2  -6    0.86    1.41
  -9  -2   6    3.35    1.84
   9   2  -5    6.92    2.05
  -9  -2   5    4.89    1.24
   9   2  -4   -0.24    1.17
  -9  -2   4    2.67    1.36
  -9  -2   3   10.69    2.01
  -9  -2   2    4.55    1.32
   9   2  -2    3.64    0.94
  -9  -2   1   -0.59    0.94
   9   2  -1    2.22    1.34
  -9  -2   0    0.61    0.94
   9   2   0    0.06    0.51
  -9  -2  -1    2.05    1.24
  -9  -2  -2    2.01    1.18
   9   2   2   -0.89    0.90
  -9  -2  -3    0.59    1.12
   9   2   3    1.52    0.67
  -9  -2  -4    0.33    1.08
   9   2   4    1.17    0.62
  -9  -2  -5    0.83    1.27
   9   2   5    0.47    0.60
  -9  -2  -6    0.30    1.16
  -9  -2  -8    1.81    1.85
  -9  -2  -9    1.06    1.32
  -9  -2 -11    1.78    1.46
   9   3  -8    5.07    1.60
  -9  -3   8    4.97    1.91
   9   3  -7   -0.12    1.08
  -9  -3   7    0.59    1.17
   9   3  -6    5.58    1.88
  -9  -3   6    1.84    1.35
   9   3  -5    1.12    1.01
  -9  -3   5   -0.49    1.11
   9   3  -4    1.77    1.30
  -9  -3   4    1.46    1.07
   9   3  -3   13.58    2.52
  -9  -3   3    8.78    1.91
   9   3  -2    0.03    0.64
   9   3  -2   -0.12    1.04
  -9  -3   2    0.68    0.95
  -9  -3   1    1.59    1.27
   9   3  -1    0.20    0.75
   9   3  -1    0.66    0.56
  -9  -3   0    1.02    0.95
   9   3   0   -0.05    0.64
   9   3   0    2.41    0.91
  -9  -3  -1    0.81    1.01
  -9  -3  -2    3.62    1.52
   9   3   2    7.05    1.60
  -9  -3  -3    7.75    2.23
   9   3   3    3.73    0.78
  -9  -3  -4    1.44    1.24
  -9  -3  -5   -0.53    1.22
  -9  -3  -7    1.13    1.35
  -9  -3  -8    1.66    1.44
  -9  -3  -9    1.92    1.93
  -9  -3 -10   -0.01    1.30
  -9  -3 -11    0.42    1.35
   9   4  -8    0.39    0.65
  -9  -4   8   -0.06    1.14
   9   4  -7    0.90    0.99
  -9  -4   7    0.43    1.13
   9   4  -6    2.35    1.42
  -9  -4   6   -0.25    1.05
   9   4  -5    0.01    0.91
  -9  -4   5    0.43    1.09
   9   4  -4   11.88    2.63
  -9  -4   4    9.47    1.94
   9   4  -3   -0.10    1.08
  -9  -4   3   -0.10    1.03
   9   4  -2   18.32    4.34
  -9  -4   2   14.19    2.07
   9   4  -1    1.12    0.77
   9   4  -1    1.27    0.65
   9   4   0    2.32    1.23
  -9  -4   0    0.56    0.78
   9   4   0    0.82    0.64
  -9  -4  -1    4.29    1.59
  -9  -4  -2    1.88    1.22
  -9  -4  -2    2.37    0.99
  -9  -4  -3   -0.01    1.07
  -9  -4  -4    0.16    1.07
  -9  -4  -5    2.68    2.08
  -9  -4  -6    0.84    1.38
  -9  -4  -7    4.95    2.10
  -9  -4  -8    2.70    1.59
  -9  -4  -9    1.50    1.48
   9   4  11    0.57    1.38
   9   4  12    2.03    2.20
   9   5  -8    1.36    0.89
   9   5  -7    1.44    0.87
   9   5  -6   -0.06    1.18
   9   5  -5    1.31    0.99
  -9  -5   5    4.12    2.01
   9   5  -4   -0.55    1.32
  -9  -5   4    0.61    0.47
   9   5  -3   13.97    3.79
  -9  -5   3    8.51    2.14
  -9  -5   2    0.28    0.91
   9   5  -1    5.49    1.32
  -9  -5   1    1.26    1.26
  -9  -5   0    1.72    0.93
   9   5   1    7.79    1.75
  -9  -5  -1    6.38    1.79
   9   5   2    0.94    0.56
  -9  -5  -2    1.08    1.19
   9   5   3   -0.12    0.77
  -9  -5  -3    1.44    1.06
   9   5   4   -0.11    1.14
  -9  -5  -4    0.81    0.81
   9   5   5    1.78    1.39
  -9  -5  -5    3.34    1.47
   9   5   6    0.68    1.47
   9   5   7    2.70    1.67
   9   5   8    2.00    1.07
   9   5   9    3.87    1.88
   9   5  10    1.78    0.99
   9   5  11    0.66    1.70
   9   5  12    5.81    2.25
   9   6  -9    3.34    1.17
   9   6  -8    2.35    1.81
   9   6  -7    1.37    0.78
   9   6  -6    4.14    1.49
   9   6  -5    1.46    0.87
   9   6  -4    1.98    0.98
   9   6  -3    1.37    0.77
   9   6  -1    2.25    1.08
  -9  -6   1    0.66    0.91
   9   6   0    1.87    0.80
  -9  -6   0    4.05    1.37
   9   6   1    1.11    0.56
  -9  -6  -1    2.24    1.27
   9   6   2    5.55    2.04
  -9  -6  -2    0.92    0.95
   9   6   3    4.19    1.91
  -9  -6  -3    1.64    1.00
   9   6   4    2.06    0.77
  -9  -6  -4    2.23    1.41
   9   6   5    3.20    1.65
  -9  -6  -5    1.32    0.93
   9   6   6    1.68    1.40
  -9  -6  -6   -0.64    0.70
   9   6   7    2.04    1.66
   9   6   8    0.71    0.90
   9   6   9    2.06    1.32
   9   6  10   -0.40    1.35
   9   6  11    1.39    0.73
   9   7  -8    2.16    1.26
   9   7  -7   -0.28    1.31
   9   7  -6    2.90    1.77
   9   7  -5    0.73    0.74
   9   7  -4    0.92    1.03
  -9  -7   3    2.31    1.47
  -9  -7   2    1.12    1.58
   9   7  -1    0.92    0.81
  -9  -7   1    1.89    1.55
   9   7   0    1.92    1.04
  -9  -7   0   -0.10    0.86
   9   7   1    4.54    1.70
  -9  -7  -1    1.67    1.15
   9   7   2    7.81    1.88
  -9  -7  -2    3.48    1.38
   9   7   3    0.00    1.13
   9   7   4    3.15    2.25
  -9  -7  -4    4.88    1.99
   9   7   5    1.53    0.94
  -9  -7  -5    0.49    0.88
   9   7   6    2.58    1.50
  -9  -7  -6    0.03    0.78
   9   7   7    3.63    1.99
  -9  -7  -7    0.08    0.89
   9   7   8    0.33    1.09
   9   7   9    1.95    0.77
   9   7  10   -0.02    0.82
   9   7  11   -0.01    1.44
   9   8  -8   -0.02    1.36
   9   8  -7    1.57    1.36
   9   8  -6   -1.31    1.37
   9   8  -5    1.82    1.43
   9   8  -4   -0.29    1.07
  -9  -8   3    1.88    1.77
  -9  -8   2    2.10    1.35
   9   8  -1    1.51    1.18
  -9  -8   1    4.03    2.05
   9   8   0    0.69    0.52
  -9  -8   0    2.39    1.38
   9   8   1    0.79    0.43
  -9  -8  -1    0.86    1.10
   9   8   2    1.38    1.09
  -9  -8  -2    2.04    1.59
   9   8   3    1.70    0.96
  -9  -8  -3    0.61    0.97
   9   8   4    1.23    1.19
  -9  -8  -4    0.91    0.93
   9   8   5    0.23    0.79
  -9  -8  -5    0.89    0.97
   9   8   6    2.48    0.89
  -9  -8  -6    1.27    1.05
   9   8   7    2.20    1.23
  -9  -8  -7    0.04    0.89
   9   8   8    1.52    0.97
  -9  -8  -8    1.87    1.52
   9   8   9    1.33    0.77
   9   8  10    1.92    0.98
   9   8  11    0.63    1.19
   9   9  -7    2.43    1.37
   9   9  -6    0.91    1.10
   9   9  -5    1.79    0.71
  -9  -9   3    7.76    2.37
  -9  -9   2    0.52    1.35
  -9  -9   1   10.35    2.16
   9   9   0    3.19    1.01
  -9  -9   0    1.45    1.35
   9   9   1    2.14    1.39
  -9  -9  -1    2.32    1.77
   9   9   2   -0.57    1.30
  -9  -9  -2    0.02    1.20
   9   9   3    0.76    0.88
  -9  -9  -3    1.08    1.19
   9   9   4    4.41    1.79
  -9  -9  -4    4.04    1.75
   9   9   5   -1.05    1.15
  -9  -9  -5    1.67    1.53
   9   9   6    1.69    1.30
  -9  -9  -6    0.27    1.10
   9   9   7    0.27    1.19
  -9  -9  -7    0.14    1.03
   9   9   8    2.79    1.39
  -9  -9  -8    5.20    2.09
   9   9   9    0.29    1.00
   9   9  10    2.21    1.30
   9   9  11   -0.50    1.51
   9  10  -6    1.48    1.46
   9  10  -5    0.68    1.23
  -9 -10   4    3.25    1.61
  -9 -10   2   10.54    2.73
  -9 -10   1    3.85    2.42
  -9 -10   0    4.54    2.18
   9  10   1    1.52    0.92
  -9 -10  -1   -0.26    1.20
   9  10   2    1.38    1.40
  -9 -10  -2    0.16    1.12
   9  10   3    3.78    1.99
  -9 -10  -3    1.03    1.25
   9  10   4    3.62    1.63
  -9 -10  -4    2.37    1.43
   9  10   5    1.76    0.65
   9  10   6    2.42    1.27
  -9 -10  -6    1.92    1.74
   9  10   7    0.90    0.85
  -9 -10  -7    0.43    1.05
   9  10   8    2.47    1.05
  -9 -10  -8    1.52    1.25
   9  10   9    2.75    1.44
   9  10  10   -1.02    1.45
  -9 -11   4    1.28    1.56
  -9 -11   3    1.15    1.46
  -9 -11   2   -0.16    1.28
  -9 -11   1    0.24    1.26
  -9 -11   0   -0.82    1.32
  -9 -11  -1    5.32    2.41
   9  11   2    4.84    1.42
  -9 -11  -2    6.35    2.64
   9  11   3    1.71    0.90
  -9 -11  -3    7.55    2.33
   9  11   4    6.72    2.73
  -9 -11  -4    8.89    2.50
   9  11   5    3.96    2.46
  -9 -11  -5    4.11    2.12
   9  11   6    0.35    0.62
  -9 -11  -6    2.41    1.35
  -9 -11  -7    1.73    1.32
   9  11   8    0.72    1.52
  -9 -11  -8    0.24    1.21
   9  11   9    0.83    1.49
  -9 -12   3    0.77    1.33
  -9 -12   2    1.60    1.53
  -9 -12   1    1.59    1.46
  -9 -12   0    1.24    1.38
  -9 -12  -1    4.50    2.08
  -9 -12  -2    2.46    1.53
   9  12   3    5.91    1.89
  -9 -12  -3    3.94    1.80
   9  12   4    1.31    0.68
  -9 -12  -4    3.31    2.56
   9  12   5    3.36    1.80
  -9 -12  -5    1.04    1.49
   9  12   6    4.53    1.59
  -9 -12  -6    2.34    1.62
   9  12   7    3.03    1.34
  -9 -13  -2    0.65    1.46
  -9 -13  -3    0.93    1.42
  -9 -13  -4    3.15    2.26
  10  -2  -4    0.98    0.86
  10  -2  -3    1.41    1.01
  10  -2  -1    1.91    1.14
  10  -2   0    1.01    0.51
  10  -2   1    1.47    0.96
  10  -1  -5    1.05    0.66
  10  -1  -4    2.11    0.79
  10  -1  -3    0.33    0.83
  10  -1  -2    2.33    1.53
  10  -1  -1    2.11    1.33
  10  -1   0    2.43    1.19
  10  -1   1    4.32    1.69
 -10   1  -2    3.60    1.96
  10  -1   2    2.40    1.25
 -10   1  -3    2.96    1.49
 -10   1  -4    3.64    1.92
 -10   1  -5    1.70    1.54
 -10   1  -6    0.39    1.51
  10   0  -5   -0.03    1.22
  10   0  -4   -0.50    1.13
  10   0  -3    2.08    0.69
  10   0  -2    0.48    0.79
  10   0   0    0.01    1.07
 -10   0  -1    2.21    1.59
  10   0   1    0.70    1.20
 -10   0  -2    1.34    1.26
  10   0   2    1.36    0.70
 -10   0  -3    1.10    1.30
 -10   0  -4    0.18    1.17
 -10   0  -5    0.98    1.88
 -10   0  -6    0.56    1.52
 -10   0  -7    2.05    2.14
 -10  -1   5    0.72    1.24
  10   1  -4    0.77    0.83
  10   1  -3   -0.05    1.03
  10   1  -2    1.18    0.69
  10   1  -1    1.04    1.11
 -10  -1   0    0.66    1.12
  10   1   0   -0.06    0.95
 -10  -1  -1    0.75    1.13
  10   1   1    0.90    1.23
 -10  -1  -2    0.72    1.15
  10   1   2    0.86    1.11
 -10  -1  -3    0.19    1.33
 -10  -1  -4    3.10    1.71
 -10  -1  -5   11.51    2.78
 -10  -1  -6    0.87    1.45
 -10  -1  -7    0.58    1.37
 -10  -1  -8   -0.12    1.37
 -10  -2   5    0.55    1.20
 -10  -2   4    1.98    1.28
  10   2  -3    1.81    0.98
  10   2  -2    7.76    2.26
  10   2  -1    0.67    0.66
 -10  -2   0    3.09    1.63
 -10  -2  -1    1.38    1.14
  10   2   1    0.73    0.82
 -10  -2  -2    3.26    1.82
 -10  -2  -3    3.01    1.94
 -10  -2  -4    8.62    2.33
 -10  -2  -5    1.11    1.16
 -10  -2  -6    3.38    2.17
 -10  -2  -7    0.79    1.36
 -10  -2  -8    3.80    2.09
 -10  -2  -9    2.84    2.09
 -10  -3   0    2.87    1.54
 -10  -3  -1    2.32    1.43
 -10  -3  -2    0.79    1.19
 -10  -3  -3    9.55    2.73
 -10  -3  -4    0.49    1.19
 -10  -3  -5    1.96    1.71
 -10  -3  -6    0.56    1.32
 -10  -3  -7   -0.30    1.33
 -10  -3  -8    0.22    1.39
 -10  -3  -9    3.88    2.20
  10   4   0    1.03    1.08
  10   4   1    0.82    0.94
 -10  -4  -4    0.07    1.12
 -10  -4  -5    1.72    1.22
 -10  -4  -6    0.89    1.29
 -10  -4  -7    1.94    1.52
 -10  -4  -8    0.26    1.57
  10   4  10    1.97    2.20
  10   5   0    1.91    1.21
  10   5   1    1.55    0.67
  10   5   2    1.32    0.99
  10   5   3    0.90    1.20
  10   5   4    0.81    0.60
  10   5   5    1.34    0.78
  10   5   6    2.10    0.82
  10   5   7    0.92    0.67
  10   5   8    8.62    2.72
  10   5   9   -0.67    1.52
  10   5  10    1.19    1.14
  10   6  -4   10.25    3.15
  10   6  -3    3.47    1.54
  10   6  -2    4.37    1.48
 -10  -6   1    3.59    1.95
 -10  -6   0    1.41    1.07
  10   6   1   -0.41    0.95
 -10  -6  -1   -0.04    0.90
  10   6   2    1.14    0.56
  10   6   3   -1.08    1.21
  10   6   4    2.14    0.79
  10   6   5    3.05    1.47
  10   6   6    2.58    2.01
  10   6   7   12.71    4.58
  10   6   8    2.66    1.19
  10   6   9    3.62    1.32
  10   6  10    2.69    1.44
  10   7  -5    0.33    0.65
  10   7  -4    1.30    0.54
  10   7  -3   -0.16    1.10
 -10  -7   1   -0.54    1.08
 -10  -7   0    1.78    1.46
  10   7   1    2.04    1.20
 -10  -7  -1    0.70    1.06
  10   7   2    1.13    0.79
 -10  -7  -2    0.93    1.03
  10   7   3    0.89    0.85
 -10  -7  -3   -0.18    0.93
  10   7   4    2.79    1.35
  10   7   5    1.82    1.02
  10   7   6   -0.06    0.92
  10   7   7    1.38    0.95
  10   7   8    2.43    1.02
  10   7   9   -0.25    1.37
  10   7  10   -0.26    1.13
  10   8  -5    1.96    2.12
  10   8  -4    1.04    0.85
  10   8  -3    0.95    0.64
 -10  -8   2    2.98    1.81
 -10  -8   1    5.11    2.08
 -10  -8   0    2.06    1.57
 -10  -8  -1    1.77    1.52
  10   8   2    1.41    1.26
 -10  -8  -2    1.21    1.18
  10   8   3    2.11    1.27
 -10  -8  -3    0.45    1.12
  10   8   4    2.52    1.33
  10   8   5    1.38    1.18
  10   8   6    1.26    0.95
  10   8   7    1.01    0.74
  10   8   8   -0.31    1.43
  10   8   9   -1.80    1.31
  10   9  -4   -0.90    1.17
 -10  -9   2    1.00    1.65
 -10  -9   1    2.15    1.77
 -10  -9   0    0.78    1.16
 -10  -9  -1    1.70    1.54
  10   9   2    0.85    0.91
 -10  -9  -2    2.57    1.68
  10   9   3    1.29    0.76
 -10  -9  -3    1.28    1.18
  10   9   4    0.64    0.73
 -10  -9  -4    0.04    1.05
  10   9   5    2.92    1.55
  10   9   6    1.80    0.90
  10   9   8    2.13    1.40
  10   9   9   -0.50    1.17
 -10 -10   3    1.77    1.66
 -10 -10   2    1.10    1.54
 -10 -10   1    6.52    2.54
 -10 -10   0    2.64    1.48
 -10 -10  -1    5.23    2.04
 -10 -10  -2    1.51    1.35
  10  10   3    2.43    1.62
 -10 -10  -3    0.96    1.22
  10  10   4    3.34    1.33
 -10 -10  -4    2.78    1.87
  10  10   5    1.72    1.23
  10  10   6    1.38    1.02
  10  10   7    0.72    1.00
 -10 -11   0   14.01    2.55
 -10 -11  -1    0.80    1.40
 -10 -11  -2    0.05    1.40
 -11  -3  -4    0.67    1.39
  11   5   6    3.39    1.73
  11   6   5    1.84    1.35
  11   6   6    1.50    0.89
   0   0   0    0.00    0.00
;
_shelx_hkl_checksum              15472
loop_
_space_group_symop_operation_xyz
'x, y, z'
'-x, -y, -z'
loop_
_atom_site_label
_atom_site_type_symbol
_atom_site_fract_x
_atom_site_fract_y
_atom_site_fract_z
_atom_site_U_iso_or_equiv
_atom_site_adp_type
_atom_site_occupancy
_atom_site_site_symmetry_order
_atom_site_calc_flag
_atom_site_refinement_flags_posn
_atom_site_refinement_flags_adp
C11 C -0.6281(3) 0.7074(2) 0.29407(19) 0.0451(5) Uani 1 1 d . .
H11 H -0.6018 0.6154 0.3353 0.054 Uiso 1 1 calc R U
C12 C -0.9279(5) 1.2070(3) 0.2907(3) 0.0766(9) Uani 1 1 d . .
H12A H -0.8113 1.2291 0.2759 0.115 Uiso 1 1 calc R U
H12B H -1.0088 1.2690 0.3415 0.115 Uiso 1 1 calc R U
H12C H -0.9891 1.2203 0.2176 0.115 Uiso 1 1 calc R U
C101 C -0.0920(3) 0.6206(2) 0.29082(17) 0.0406(5) Uani 1 1 d . .
H101 H -0.0442 0.5219 0.2962 0.049 Uiso 1 1 calc R U
C103 C -0.2737(3) 0.8280(2) 0.37957(18) 0.0446(5) Uani 1 1 d . .
H103 H -0.3441 0.8675 0.4426 0.053 Uiso 1 1 calc R U
C105 C -0.2012(3) 0.6829(2) 0.38144(17) 0.0412(5) Uani 1 1 d . .
C106 C -0.0550(3) 0.7083(2) 0.19178(17) 0.0393(5) Uani 1 1 d . .
C108 C -0.1302(3) 0.8555(2) 0.18449(18) 0.0426(5) Uani 1 1 d . .
H108 H -0.1098 0.9152 0.1173 0.051 Uiso 1 1 calc R U
C109 C -0.5571(3) 0.7285(2) 0.17974(17) 0.0401(5) Uani 1 1 d . .
C111 C -0.7372(3) 0.8215(2) 0.34687(19) 0.0484(5) Uani 1 1 d . .
H111 H -0.7828 0.8063 0.4237 0.058 Uiso 1 1 calc R U
C112 C 0.0643(3) 0.6426(2) 0.09259(18) 0.0438(5) Uani 1 1 d . .
C114 C -0.2357(3) 0.9114(2) 0.27862(18) 0.0429(5) Uani 1 1 d . .
C115 C -0.7791(3) 0.9586(2) 0.28573(19) 0.0460(5) Uani 1 1 d . .
C116 C -0.6004(3) 0.8670(2) 0.12011(18) 0.0463(5) Uani 1 1 d . .
H116 H -0.5535 0.8828 0.0437 0.056 Uiso 1 1 calc R U
C120 C -0.4313(3) 0.6120(2) 0.1183(2) 0.0471(5) Uani 1 1 d . .
C122 C -0.7118(3) 0.9822(2) 0.17169(19) 0.0490(5) Uani 1 1 d . .
H122 H -0.7409 1.0742 0.1301 0.059 Uiso 1 1 calc R U
N1 N -0.2462(3) 0.5870(2) 0.48273(16) 0.0526(5) Uani 1 1 d . .
N2 N -0.3169(3) 1.0668(2) 0.2713(2) 0.0591(6) Uani 1 1 d . .
N3 N -0.4135(3) 0.4770(2) 0.1641(2) 0.0682(6) Uani 1 1 d . .
H3A H -0.3388 0.4085 0.1307 0.082 Uiso 1 1 calc R U
H3B H -0.4767 0.4584 0.2269 0.082 Uiso 1 1 calc R U
O1 O 0.1332(3) 0.50355(17) 0.11920(15) 0.0622(5) Uani 1 1 d . .
H1 H 0.1973 0.4707 0.0635 0.093 Uiso 1 1 calc R U
O2 O 0.0937(3) 0.7118(2) 0.00188(14) 0.0627(5) Uani 1 1 d . .
O3 O -0.3309(3) 0.6386(2) 0.56614(16) 0.0832(7) Uani 1 1 d . .
O4 O -0.1967(4) 0.46024(19) 0.47778(18) 0.0860(7) Uani 1 1 d . .
O5 O -0.3027(4) 1.1396(2) 0.1782(2) 0.0882(7) Uani 1 1 d . .
O6 O -0.3937(4) 1.1151(2) 0.3578(2) 0.1029(9) Uani 1 1 d . .
O7 O -0.3425(3) 0.6423(2) 0.02824(16) 0.0655(5) Uani 1 1 d . .
O8 O -0.8903(3) 1.06288(19) 0.34532(16) 0.0686(6) Uani 1 1 d . .
loop_
_atom_site_aniso_label
_atom_site_aniso_U_11
_atom_site_aniso_U_22
_atom_site_aniso_U_33
_atom_site_aniso_U_23
_atom_site_aniso_U_13
_atom_site_aniso_U_12
C11 0.0476(11) 0.0354(10) 0.0480(12) -0.0005(8) 0.0021(9) -0.0104(9)
C12 0.099(2) 0.0399(14) 0.0795(19) -0.0220(13) 0.0010(16) 0.0005(14)
C101 0.0463(11) 0.0344(10) 0.0386(10) -0.0102(8) 0.0039(8) -0.0076(9)
C103 0.0467(11) 0.0422(12) 0.0429(11) -0.0136(9) 0.0065(9) -0.0093(9)
C105 0.0475(11) 0.0366(11) 0.0361(10) -0.0071(8) 0.0054(8) -0.0092(9)
C106 0.0399(10) 0.0427(11) 0.0367(10) -0.0112(8) 0.0041(8) -0.0132(9)
C108 0.0476(11) 0.0395(11) 0.0404(11) -0.0040(8) 0.0023(9) -0.0149(9)
C109 0.0405(10) 0.0361(11) 0.0452(11) -0.0115(8) 0.0005(9) -0.0114(9)
C111 0.0524(12) 0.0452(12) 0.0421(11) -0.0030(9) 0.0105(9) -0.0122(10)
C112 0.0473(11) 0.0467(12) 0.0397(11) -0.0126(9) 0.0082(9) -0.0169(9)
C114 0.0455(11) 0.0325(10) 0.0480(11) -0.0109(8) 0.0008(9) -0.0065(9)
C115 0.0492(11) 0.0405(12) 0.0463(12) -0.0139(9) 0.0050(9) -0.0091(9)
C116 0.0565(12) 0.0401(11) 0.0378(10) -0.0061(8) 0.0079(9) -0.0111(10)
C120 0.0461(11) 0.0404(12) 0.0554(13) -0.0170(9) -0.0059(10) -0.0079(9)
C122 0.0619(13) 0.0331(11) 0.0457(12) -0.0033(9) 0.0042(10) -0.0084(10)
N1 0.0651(12) 0.0449(11) 0.0393(10) -0.0044(8) 0.0124(9) -0.0097(9)
N2 0.0692(13) 0.0346(10) 0.0682(13) -0.0107(9) 0.0096(11) -0.0099(9)
N3 0.0734(14) 0.0372(11) 0.0910(17) -0.0225(10) 0.0033(12) -0.0077(10)
O1 0.0787(11) 0.0469(9) 0.0518(9) -0.0185(7) 0.0228(8) -0.0068(8)
O2 0.0800(12) 0.0635(11) 0.0462(9) -0.0130(8) 0.0222(8) -0.0277(10)
O3 0.1207(17) 0.0616(11) 0.0514(10) -0.0130(9) 0.0423(11) -0.0141(11)
O4 0.1360(19) 0.0411(10) 0.0674(12) -0.0050(8) 0.0408(13) -0.0204(11)
O5 0.1274(19) 0.0379(10) 0.0868(15) 0.0009(10) 0.0145(13) -0.0176(11)
O6 0.140(2) 0.0507(12) 0.0981(17) -0.0295(11) 0.0446(15) -0.0034(13)
O7 0.0723(11) 0.0587(10) 0.0599(11) -0.0271(8) 0.0200(9) -0.0083(9)
O8 0.0863(13) 0.0454(10) 0.0602(11) -0.0176(8) 0.0189(10) -0.0009(9)
loop_
_atom_type_symbol
_atom_type_description
_atom_type_scat_dispersion_real
_atom_type_scat_dispersion_imag
_atom_type_scat_source
C C 0.0033 0.0016 'International Tables Vol C Tables 4.2.6.8 and 6.1.1.4'
H H 0.0000 0.0000 'International Tables Vol C Tables 4.2.6.8 and 6.1.1.4'
N N 0.0061 0.0033 'International Tables Vol C Tables 4.2.6.8 and 6.1.1.4'
O O 0.0106 0.0060 'International Tables Vol C Tables 4.2.6.8 and 6.1.1.4'
loop_
_geom_angle_atom_site_label_1
_geom_angle_atom_site_label_2
_geom_angle_atom_site_label_3
_geom_angle
C111 C11 C109 120.6(2)
C111 C11 H11 119.7
C109 C11 H11 119.7
O8 C12 H12A 109.5
O8 C12 H12B 109.5
H12A C12 H12B 109.5
O8 C12 H12C 109.5
H12A C12 H12C 109.5
H12B C12 H12C 109.5
C105 C101 C106 118.60(19)
C105 C101 H101 120.7
C106 C101 H101 120.7
C105 C103 C114 116.02(19)
C105 C103 H103 122.0
C114 C103 H103 122.0
C103 C105 C101 123.48(19)
C103 C105 N1 119.19(18)
C101 C105 N1 117.29(19)
C101 C106 C108 119.91(18)
C101 C106 C112 119.35(19)
C108 C106 C112 120.74(19)
C114 C108 C106 118.81(19)
C114 C108 H108 120.6
C106 C108 H108 120.6
C116 C109 C11 118.28(19)
C116 C109 C120 117.67(19)
C11 C109 C120 124.0(2)
C11 C111 C115 120.12(19)
C11 C111 H111 119.9
C115 C111 H111 119.9
O2 C112 O1 125.4(2)
O2 C112 C106 122.8(2)
O1 C112 C106 111.70(18)
C108 C114 C103 123.1(2)
C108 C114 N2 119.14(19)
C103 C114 N2 117.69(18)
O8 C115 C122 124.4(2)
O8 C115 C111 115.3(2)
C122 C115 C111 120.33(19)
C122 C116 C109 121.58(19)
C122 C116 H116 119.2
C109 C116 H116 119.2
O7 C120 N3 121.6(2)
O7 C120 C109 119.4(2)
N3 C120 C109 119.0(2)
C115 C122 C116 119.0(2)
C115 C122 H122 120.5
C116 C122 H122 120.5
O3 N1 O4 123.4(2)
O3 N1 C105 118.3(2)
O4 N1 C105 118.23(18)
O6 N2 O5 123.5(2)
O6 N2 C114 118.6(2)
O5 N2 C114 117.9(2)
C120 N3 H3A 120.0
C120 N3 H3B 120.0
H3A N3 H3B 120.0
C112 O1 H1 109.5
C115 O8 C12 118.1(2)
loop_
_geom_bond_atom_site_label_1
_geom_bond_atom_site_label_2
_geom_bond_distance
C11 C111 1.379(3)
C11 C109 1.390(3)
C11 H11 0.9300
C12 O8 1.422(3)
C12 H12A 0.9600
C12 H12B 0.9600
C12 H12C 0.9600
C101 C105 1.381(3)
C101 C106 1.385(3)
C101 H101 0.9300
C103 C105 1.375(3)
C103 C114 1.381(3)
C103 H103 0.9300
C105 N1 1.472(3)
C106 C108 1.389(3)
C106 C112 1.501(3)
C108 C114 1.379(3)
C108 H108 0.9300
C109 C116 1.389(3)
C109 C120 1.489(3)
C111 C115 1.383(3)
C111 H111 0.9300
C112 O2 1.200(3)
C112 O1 1.312(3)
C114 N2 1.468(3)
C115 O8 1.360(3)
C115 C122 1.381(3)
C116 C122 1.384(3)
C116 H116 0.9300
C120 O7 1.235(3)
C120 N3 1.333(3)
C122 H122 0.9300
N1 O3 1.206(2)
N1 O4 1.212(3)
N2 O6 1.206(3)
N2 O5 1.210(3)
N3 H3A 0.8600
N3 H3B 0.8600
O1 H1 0.8200
loop_
_geom_torsion_atom_site_label_1
_geom_torsion_atom_site_label_2
_geom_torsion_atom_site_label_3
_geom_torsion_atom_site_label_4
_geom_torsion
C114 C103 C105 C101 1.8(3)
C114 C103 C105 N1 -176.00(19)
C106 C101 C105 C103 -0.9(3)
C106 C101 C105 N1 176.88(18)
C105 C101 C106 C108 -1.1(3)
C105 C101 C106 C112 179.73(18)
C101 C106 C108 C114 2.2(3)
C112 C106 C108 C114 -178.67(18)
C111 C11 C109 C116 -0.6(3)
C111 C11 C109 C120 177.2(2)
C109 C11 C111 C115 0.8(3)
C101 C106 C112 O2 176.0(2)
C108 C106 C112 O2 -3.1(3)
C101 C106 C112 O1 -5.4(3)
C108 C106 C112 O1 175.44(19)
C106 C108 C114 C103 -1.3(3)
C106 C108 C114 N2 -179.55(19)
C105 C103 C114 C108 -0.6(3)
C105 C103 C114 N2 177.64(19)
C11 C111 C115 O8 178.9(2)
C11 C111 C115 C122 -0.1(4)
C11 C109 C116 C122 -0.2(3)
C120 C109 C116 C122 -178.1(2)
C116 C109 C120 O7 13.4(3)
C11 C109 C120 O7 -164.4(2)
C116 C109 C120 N3 -168.4(2)
C11 C109 C120 N3 13.8(3)
O8 C115 C122 C116 -179.6(2)
C111 C115 C122 C116 -0.7(4)
C109 C116 C122 C115 0.9(4)
C103 C105 N1 O3 -6.9(3)
C101 C105 N1 O3 175.2(2)
C103 C105 N1 O4 172.9(2)
C101 C105 N1 O4 -5.0(3)
C108 C114 N2 O6 -173.2(3)
C103 C114 N2 O6 8.5(4)
C108 C114 N2 O5 6.8(4)
C103 C114 N2 O5 -171.5(2)
C122 C115 O8 C12 -5.3(4)
C111 C115 O8 C12 175.7(2)
