#------------------------------------------------------------------------------
#$Date: 2019-11-26 01:05:04 +0200 (Tue, 26 Nov 2019) $
#$Revision: 242230 $
#$URL: file:///home/coder/svn-repositories/cod/cif/4/13/22/4132225.cif $
#------------------------------------------------------------------------------
#
# This file is available in the Crystallography Open Database (COD),
# http://www.crystallography.net/
#
# All data on this site have been placed in the public domain by the
# contributors.
#
data_4132225
loop_
_publ_author_name
'Saha, Subhankar'
'Desiraju, Gautam R.'
_publ_section_title
;
 Acid&#x00B7;&#x00B7;&#x00B7;Amide Supramolecular Synthon in Cocrystals:
 From Spectroscopic Detection to Property Engineering.
;
_journal_issue                   20
_journal_name_full               'Journal of the American Chemical Society'
_journal_page_first              6361
_journal_page_last               6373
_journal_paper_doi               10.1021/jacs.8b02435
_journal_volume                  140
_journal_year                    2018
_chemical_formula_sum            'C14 H12 Cl N O4'
_chemical_formula_weight         293.70
_space_group_crystal_system      triclinic
_space_group_IT_number           2
_space_group_name_Hall           '-P 1'
_space_group_name_H-M_alt        'P -1'
_atom_sites_solution_hydrogens   geom
_audit_creation_method           SHELXL-2014
_cell_angle_alpha                87.16(2)
_cell_angle_beta                 83.62(2)
_cell_angle_gamma                81.62(2)
_cell_formula_units_Z            2
_cell_length_a                   6.358(4)
_cell_length_b                   6.932(5)
_cell_length_c                   14.993(11)
_cell_measurement_reflns_used    2137
_cell_measurement_temperature    150(2)
_cell_measurement_theta_max      33.6
_cell_measurement_theta_min      2.7
_cell_volume                     649.3(8)
_computing_cell_refinement
;
CrystalClear-SM Expert 2.0 rc14 (Rigaku, 2009)
;
_computing_data_collection
;
CrystalClear-SM Expert 2.0 rc14 (Rigaku, 2009)
;
_computing_data_reduction
;
CrystalClear-SM Expert 2.0 rc14 (Rigaku, 2009)
;
_computing_structure_refinement  'SHELXL-14 (Sheldrick, 2014)'
_computing_structure_solution    'SHELXL-14 (Sheldrick, 2014)'
_diffrn_ambient_temperature      150(2)
_diffrn_detector_area_resol_mean 13.6612
_diffrn_measured_fraction_theta_full 0.992
_diffrn_measured_fraction_theta_max 0.992
_diffrn_measurement_device
;
XtaLABmini: Fixed Chi 2 circle
;
_diffrn_measurement_device_type
;
Rigaku Mercury375R (2x2 bin mode)
;
_diffrn_measurement_method       'profile data from \w-scans'
_diffrn_radiation_type           MoK\a
_diffrn_radiation_wavelength     0.71073
_diffrn_reflns_av_R_equivalents  0.0647
_diffrn_reflns_av_unetI/netI     0.0533
_diffrn_reflns_Laue_measured_fraction_full 0.992
_diffrn_reflns_Laue_measured_fraction_max 0.992
_diffrn_reflns_limit_h_max       7
_diffrn_reflns_limit_h_min       -7
_diffrn_reflns_limit_k_max       8
_diffrn_reflns_limit_k_min       -8
_diffrn_reflns_limit_l_max       18
_diffrn_reflns_limit_l_min       -18
_diffrn_reflns_number            6068
_diffrn_reflns_point_group_measured_fraction_full 0.992
_diffrn_reflns_point_group_measured_fraction_max 0.992
_diffrn_reflns_theta_full        25.242
_diffrn_reflns_theta_max         25.995
_diffrn_reflns_theta_min         1.367
_exptl_absorpt_coefficient_mu    0.307
_exptl_absorpt_correction_T_max  1.000
_exptl_absorpt_correction_T_min  0.701
_exptl_absorpt_correction_type   multi-scan
_exptl_absorpt_process_details   'Jacobson, R. (1998) Private communication'
_exptl_crystal_colour            Colourless
_exptl_crystal_density_diffrn    1.502
_exptl_crystal_description       Block
_exptl_crystal_F_000             304
_exptl_crystal_size_max          0.190
_exptl_crystal_size_mid          0.170
_exptl_crystal_size_min          0.160
_refine_diff_density_max         0.400
_refine_diff_density_min         -0.771
_refine_diff_density_rms         0.096
_refine_ls_extinction_method     none
_refine_ls_goodness_of_fit_ref   1.247
_refine_ls_hydrogen_treatment    constr
_refine_ls_matrix_type           full
_refine_ls_number_parameters     181
_refine_ls_number_reflns         2533
_refine_ls_number_restraints     0
_refine_ls_restrained_S_all      1.247
_refine_ls_R_factor_all          0.0674
_refine_ls_R_factor_gt           0.0544
_refine_ls_shift/su_max          0.007
_refine_ls_shift/su_mean         0.001
_refine_ls_structure_factor_coef Fsqd
_refine_ls_weighting_details
'w=1/[\s^2^(Fo^2^)+(0.0992P)^2^+0.6196P] where P=(Fo^2^+2Fc^2^)/3'
_refine_ls_weighting_scheme      calc
_refine_ls_wR_factor_gt          0.1523
_refine_ls_wR_factor_ref         0.2099
_reflns_Friedel_coverage         0.000
_reflns_number_gt                2255
_reflns_number_total             2533
_reflns_threshold_expression     'I > 2\s(I)'
_cod_data_source_file            ja8b02435_si_004.cif
_cod_data_source_block           5D
_cod_database_code               4132225
_shelx_space_group_comment
;
The symmetry employed for this shelxl refinement is uniquely defined
by the following loop, which should always be used as a source of
symmetry information in preference to the above space-group names.
They are only intended as comments.
;
_shelx_estimated_absorpt_t_min   0.944
_shelx_estimated_absorpt_t_max   0.953
_shelxl_version_number           2014-3
_shelx_res_file
;
TITL dataP-1 in P-1
CELL  0.71073   6.3579   6.9315  14.9928   87.164   83.619   81.624
ZERR     2.00   0.0044   0.0049   0.0111    0.021    0.024    0.021
LATT   1
SFAC  C    H    N    O    CL
UNIT  28   24   2    8    2
MERG   2
OMIT    -2.00  52.00
FMAP   2
PLAN   20
ACTA
BOND  $H
CONF
HTAB
TEMP  -123
SIZE  0.16 0.17 0.19
L.S.   4
WGHT    0.099200    0.619600
FVAR       1.61982
MOLE    1
C001  1    1.120845    0.706925    0.618601    11.00000    0.02075    0.01862 =
         0.02457    0.00215   -0.00588   -0.00373
C002  1    1.245825    0.665479    0.698049    11.00000    0.01840    0.01949 =
         0.03515    0.00241   -0.00453   -0.00247
C004  1    0.902321    0.780378    0.467850    11.00000    0.04053    0.02092 =
         0.02874    0.00307   -0.01926   -0.01185
C005  1    0.904267    0.781916    0.628161    11.00000    0.02045    0.02508 =
         0.02908    0.00413   -0.00342   -0.00351
AFIX  43
H005  2    0.831647    0.807474    0.686144    11.00000   -1.20000
AFIX   0
C007  1    0.794205    0.819413    0.551878    11.00000    0.02172    0.02600 =
         0.03921    0.00800   -0.00986   -0.00428
AFIX  43
H007  2    0.646716    0.871158    0.557685    11.00000   -1.20000
AFIX   0
C008  1    1.227083    0.674238    0.533880    11.00000    0.02575    0.02037 =
         0.03122    0.00030   -0.00116   -0.00077
AFIX  43
H008  2    1.375874    0.627555    0.527716    11.00000   -1.20000
AFIX   0
C009  1    1.118844    0.708850    0.457311    11.00000    0.04018    0.02390 =
         0.03024    0.00161   -0.00044   -0.00323
AFIX  43
H009  2    1.191737    0.684008    0.399314    11.00000   -1.20000
AFIX   0
N1    3    1.138641    0.642209    0.778203    11.00000    0.02034    0.04480 =
         0.02832    0.00671   -0.00671   -0.00070
AFIX  93
H1A   2    1.208004    0.617070    0.826023    11.00000   -1.20000
H1B   2    0.998288    0.651936    0.783470    11.00000   -1.20000
AFIX   0
O1    4    1.443648    0.652784    0.688108    11.00000    0.01787    0.04085 =
         0.04034    0.01376   -0.00750   -0.00494
CL1   5    0.761357    0.823363    0.374954    11.00000    0.06447    0.03369 =
         0.04170    0.00815   -0.03002   -0.00962
MOLE    2
C013  1    0.374856    1.079554    0.107381    11.00000    0.02393    0.02587 =
         0.02364    0.00166   -0.00057    0.00011
C014  1    0.300721    0.716242    0.184107    11.00000    0.02073    0.02577 =
         0.02491    0.00233   -0.00029   -0.00193
C015  1    0.489605    0.790122    0.195854    11.00000    0.02406    0.02731 =
         0.02907    0.00394   -0.00977   -0.00137
AFIX  43
H015  2    0.592577    0.716977    0.230156    11.00000   -1.20000
AFIX   0
C016  1    0.148352    0.826493    0.135536    11.00000    0.01828    0.03362 =
         0.03747    0.00606   -0.00589   -0.00308
AFIX  43
H016  2    0.018838    0.778484    0.128505    11.00000   -1.20000
AFIX   0
C017  1    0.185574    1.005897    0.097529    11.00000    0.02337    0.03075 =
         0.03147    0.00707   -0.00661    0.00101
AFIX  43
H017  2    0.081170    1.080119    0.064278    11.00000   -1.20000
AFIX   0
C018  1    0.423778    1.265919    0.064273    11.00000    0.02739    0.02920 =
         0.02223    0.00358   -0.00228    0.00028
C019  1    0.525585    0.969140    0.157521    11.00000    0.02244    0.02873 =
         0.03594    0.00297   -0.00562   -0.00446
AFIX  43
H019  2    0.654205    1.017986    0.165265    11.00000   -1.20000
AFIX   0
O2    4    0.596273    1.326488    0.067611    11.00000    0.02847    0.03109 =
         0.03075    0.00751   -0.00602   -0.00599
O3    4    0.271126    1.362425    0.020638    11.00000    0.03366    0.03128 =
         0.03739    0.01231   -0.01431   -0.00595
AFIX  83
H3    2    0.310512    1.466203   -0.002100    11.00000   -1.50000
AFIX   0
O4    4    0.261434    0.539744    0.219785    11.00000    0.02166    0.02830 =
         0.03748    0.00975   -0.00768   -0.00483
AFIX  83
H4    2    0.364778    0.488539    0.247294    11.00000   -1.50000
AFIX   0
HKLF    4

REM  dataP-1 in P-1
REM R1 =  0.0544 for    2255 Fo > 4sig(Fo)  and  0.0674 for all    2533 data
REM    181 parameters refined using      0 restraints

END

WGHT      0.0914      0.6651

REM Instructions for potential hydrogen bonds
EQIV $1 -x+2, -y+2, -z+1
HTAB N1 O2_$1
EQIV $2 -x+1, -y+1, -z+1
HTAB N1 O4_$2
HTAB C015 Cl1
EQIV $3 -x+1, -y+3, -z
HTAB O3 O2_$3
EQIV $4 -x+2, -y+1, -z+1
HTAB O4 O1_$4

REM Highest difference peak  0.400,  deepest hole -0.771,  1-sigma level  0.096
Q1    1   0.3957  1.1546  0.0828  11.00000  0.05    0.40
Q2    1   0.8662  0.7708  0.3354  11.00000  0.05    0.39
Q3    1   0.9086  0.8467  0.5026  11.00000  0.05    0.37
Q4    1   0.4989  0.8605  0.1794  11.00000  0.05    0.36
Q5    1   0.8674  0.7636  0.4046  11.00000  0.05    0.34
Q6    1   0.7168  0.7259  0.3796  11.00000  0.05    0.33
Q7    1   1.2161  0.7401  0.8411  11.00000  0.05    0.32
Q8    1   1.1751  0.7205  0.8577  11.00000  0.05    0.32
Q9    1   0.1697  0.9273  0.1308  11.00000  0.05    0.32
Q10   1   1.0484  0.8287  0.6232  11.00000  0.05    0.31
Q11   1   0.7926  0.9370  0.4370  11.00000  0.05    0.31
Q12   1   0.7095  0.6765  0.1803  11.00000  0.05    0.31
Q13   1   0.8066  0.6788  0.3578  11.00000  0.05    0.29
Q14   1   0.7467  0.7199  0.3003  11.00000  0.05    0.29
Q15   1   0.7143  0.7002  0.3201  11.00000  0.05    0.29
Q16   1   0.8872  0.8158  0.3592  11.00000  0.05    0.29
Q17   1   1.0051  0.7185  0.3777  11.00000  0.05    0.27
Q18   1   0.0688  0.7333  0.0813  11.00000  0.05    0.26
Q19   1   0.6574  0.6657  0.1986  11.00000  0.05    0.26
Q20   1   0.6090  0.6729  0.2789  11.00000  0.05    0.26
;
_shelx_res_checksum              4565
_shelx_hkl_file
;
   0   0   1   -0.10    0.06
   0   0  -1   -0.19    0.05
   0   0  -1    0.08    0.04
   0   0   1   -0.22    0.05
   0   0  -1   -0.03    0.04
   0   0   1   -0.07    0.03
   0   0  -2   -0.27    0.16
   0   0  -3  450.50   14.35
   0   0   3  408.98   13.02
   0   0   3  453.67   15.70
   0   0  -4 1465.08   19.45
   0   0   4 1355.60   17.49
   0   0   4 1511.97   19.74
   0   0  -5  847.79   11.62
   0   0   5  728.52    9.94
   0   0   5  789.82   11.04
   0   0  -6   19.43    1.26
   0   0  -7 2761.84   35.90
   0   0   7 2554.35   32.83
   0   0   7 2794.24   37.21
   0   0  -8    8.92    1.78
   0   0   8    0.63    1.18
   0   0  -9   14.62    2.22
   0   0   9   12.02    1.10
   0   0   9   12.09    1.44
   0   0 -10   63.57    3.14
   0   0  10   60.83    2.94
   0   0  10   74.91    3.67
   0   0 -11  463.11   12.70
   0   0  11  426.26   11.86
   0   0  11  515.33   14.18
   0   0  12 2353.26   75.15
   0   0 -13 1871.61   33.53
   0   0  13 2098.02   35.05
   0   0 -14   32.95    3.95
   0   0 -14   25.27    3.31
   0   0  14   34.03    3.32
   0   0 -15   38.89    5.55
   0   0 -15   28.58    5.45
   0   0  15   46.82    3.10
   0   0 -16  156.42    5.78
   0   0 -16  125.13    7.50
   0   0  16  192.73    6.81
   0   0 -17    9.20    2.63
   0   0 -17    9.02    2.30
   0   0  17   14.84    3.56
   0   0 -18    1.85    1.66
   0   0  18   -1.53    1.18
   0   0 -19   85.01    4.39
   0   0  19  111.28    4.60
   0   0 -20   66.52    4.05
   0   0  20   85.95    4.53
   0  -1  20  250.11   11.77
   0  -1  19  220.91    6.19
   0   1 -18   18.55    3.95
   0   1 -18   19.83    3.19
   0  -1  18   28.63    5.80
   0   1 -17   42.83    6.91
   0   1 -17   34.74    9.51
   0  -1  17   58.05    7.63
   0   1 -16   -0.48    0.98
   0   1 -16    2.39    0.91
   0  -1  16    0.10    1.09
   0   1 -15   10.52    1.49
   0   1 -15   10.01    1.84
   0  -1  15   13.98    2.09
   0   1 -14    6.07    1.13
   0  -1  14    6.58    1.35
   0  -1  14    6.92    1.49
   0   1 -13   69.26    9.71
   0  -1  13   65.52    6.89
   0  -1  13   71.37    4.86
   0   1 -12  215.44    8.63
   0  -1  12  192.95    8.04
   0  -1  12  232.10    9.02
   0   1 -11  176.62    6.83
   0  -1  11  147.89    6.15
   0  -1  11  178.04    6.84
   0   1 -10  152.58    5.90
   0  -1  10  143.78    5.73
   0  -1  10  159.57    6.09
   0   1  -9 1466.38   31.58
   0  -1   9 1360.98   29.53
   0  -1   9 1618.33   34.72
   0   1  -8  733.58    8.78
   0  -1   8  648.39    8.38
   0  -1   8  721.63    8.82
   0   1  -7  990.85   11.08
   0  -1   7  923.30   10.94
   0  -1   7 1152.59   12.61
   0   1  -6  152.44    5.32
   0  -1   6  128.64    4.83
   0  -1   6  159.31    5.80
   0   1  -5 1295.51   17.00
   0  -1   5 1167.51   15.80
   0  -1   5 1425.43   18.73
   0   1  -4    2.83    0.63
   0  -1   4    2.69    0.50
   0  -1   4   17.02    2.03
   0   1  -3  105.43    3.59
   0  -1   3  100.05    3.80
   0  -1   3  111.90    4.08
   0   1  -2  298.85    9.57
   0  -1   2  275.03    8.95
   0  -1   2  310.66    9.95
   0  -1   1  166.97    5.40
   0  -1   1  144.92    4.77
   0  -1   1  157.00    5.11
   0  -1   0   49.40    1.73
   0  -1   0   46.65    1.66
   0  -1  -1   85.60    2.77
   0   1   1   62.30    2.19
   0  -1  -2 1028.92   13.43
   0   1   2  918.30   12.06
   0  -1  -3 2638.83   33.48
   0   1   3 2381.27   30.55
   0  -1  -5 5833.02   73.34
   0   1   5 5957.64   78.38
   0  -1  -6   20.30    2.82
   0  -1  -7    0.07    1.08
   0   1   7    9.43    1.13
   0   1   7    1.45    1.30
   0  -1  -8  615.61    8.15
   0   1   8  573.82    6.88
   0   1   8  677.74    8.74
   0  -1  -9   51.90    3.81
   0   1   9   49.77    2.11
   0   1   9   59.14    2.89
   0  -1 -10  514.81   13.16
   0   1  10  612.86   14.38
   0  -1 -11  996.61   26.14
   0  -1 -11  839.14   21.25
   0   1  11 1139.46   29.18
   0  -1 -12  327.78   11.97
   0  -1 -12  246.57    9.01
   0   1  12  358.42   12.89
   0  -1 -13   95.11    5.52
   0  -1 -13   70.38    5.62
   0   1  13  107.17    5.82
   0  -1 -14  253.56    9.68
   0  -1 -14  198.19    6.94
   0   1  14  279.04   10.25
   0  -1 -15  175.94    6.16
   0  -1 -15  131.54    9.70
   0   1  15  229.03    7.40
   0  -1 -16   19.01    2.20
   0   1  16   -0.19    1.48
   0  -1 -17   21.54    2.86
   0   1  17   25.56    3.25
   0  -1 -18   -0.25    1.55
   0   1  18    7.61    3.27
   0  -1 -19   10.31    1.86
   0   1  19   12.64    2.21
   0  -1 -20    4.00    2.58
   0   1  20   10.84    2.75
   0   1  21    2.93    2.35
   0   2 -19    3.70    2.42
   0  -2  19    1.73    0.97
   0   2 -18  103.89   14.51
   0  -2  18  129.25    8.33
   0   2 -17  291.27    9.66
   0   2 -17  247.59   20.02
   0  -2  17  324.63   10.81
   0   2 -16  972.95   52.77
   0   2 -16  862.63   11.62
   0  -2  16 1120.67   12.34
   0   2 -15  210.10   11.43
   0  -2  15  197.11   10.99
   0  -2  15  231.82   12.55
   0   2 -14   86.84    2.98
   0  -2  14   83.50    3.63
   0  -2  14  100.79    3.45
   0   2 -13  107.72   10.14
   0  -2  13   94.86   11.51
   0  -2  13   90.19    3.20
   0   2 -12 3203.26   51.78
   0  -2  12 2914.90   48.29
   0  -2  12 3188.01   51.93
   0   2 -11 1686.55   53.67
   0  -2  11 1576.32   50.64
   0  -2  11 1734.43   55.48
   0   2 -10  455.09   12.22
   0  -2  10  396.55   11.47
   0  -2  10  456.04   12.60
   0   2  -9  175.71    6.49
   0  -2   9  154.04    6.35
   0  -2   9  180.54    6.64
   0   2  -8    5.89    1.06
   0  -2   8    3.87    0.81
   0  -2   8    5.35    0.99
   0   2  -7   35.23    1.83
   0  -2   7   36.06    5.46
   0  -2   7   39.61    5.24
   0   2  -6 1958.15   19.14
   0  -2   6 1744.82   18.31
   0  -2   6 1954.22   19.95
   0   2  -5   51.97    2.13
   0  -2   5   49.53    3.44
   0  -2   5   55.67    4.61
   0   2  -4  322.69   10.51
   0  -2   4  296.80    9.98
   0  -2   4  306.95   10.13
   0   2  -3 1606.74   20.70
   0  -2   3 1552.13   20.59
   0  -2   3 1559.49   20.29
   0  -2   2  176.85    5.91
   0  -2   2  145.98    5.07
   0  -2   2  144.71    5.02
   0  -2   1    6.95    1.12
   0  -2   1    8.59    1.12
   0  -2   1    9.30    0.94
   0  -2  -2 3075.14   39.05
   0  -2  -2 3074.06   38.23
   0   2   2 2576.24   32.94
   0  -2  -3   34.59    1.66
   0   2   3   38.53    1.30
   0   2   3   36.88    2.32
   0  -2  -4 2325.63   30.24
   0   2   4 2166.60   28.34
   0  -2  -5  721.86   10.74
   0   2   5  688.39   11.07
   0  -2  -6  287.05    9.93
   0   2   6  282.31    9.89
   0  -2  -7 1386.39   15.46
   0   2   7 1519.32   18.12
   0  -2  -8  415.07   15.23
   0  -2  -8  390.88   13.46
   0   2   8  510.75   18.71
   0  -2  -9 1467.01   32.00
   0  -2  -9 1212.34   25.47
   0   2   9 1583.66   34.46
   0  -2 -10   -0.78    1.73
   0  -2 -10    1.26    0.27
   0   2  10    5.77    1.55
   0  -2 -11    7.76    1.12
   0   2  11    8.48    1.76
   0  -2 -12   41.21    2.21
   0   2  12   49.13    3.21
   0  -2 -13  629.42   14.31
   0   2  13  750.34   17.09
   0  -2 -14  219.03    9.26
   0   2  14  295.72   11.59
   0  -2 -15   84.35    4.08
   0   2  15  103.97    4.14
   0  -2 -16  269.32    8.88
   0   2  16  367.52   11.51
   0  -2 -17  114.92    5.55
   0   2  17  154.46    7.23
   0   2  18   -0.10    1.65
   0  -2 -19   34.07    2.95
   0   2  19   54.53    4.01
   0  -2 -20  112.61    6.58
   0   2  20  137.21    8.72
   0  -2 -21   24.87    3.03
   0   2  21   33.79    3.59
   0   3 -19   36.77    8.24
   0   3 -18    4.40    2.78
   0  -3  18    4.89    3.06
   0   3 -17   65.79   13.54
   0  -3  17   82.01    5.67
   0   3 -16  118.89    6.44
   0  -3  16  123.45    5.36
   0   3 -15    6.46    1.75
   0  -3  15    6.19    2.22
   0  -3  15    3.94    1.45
   0   3 -14  138.64   11.51
   0  -3  14  139.13    8.35
   0  -3  14  136.07    7.73
   0   3 -13  456.68   14.23
   0  -3  13  431.63   13.54
   0  -3  13  424.99   11.45
   0   3 -12 1458.55   46.38
   0  -3  12 1398.82   44.35
   0  -3  12 1306.89   40.84
   0   3 -11   62.35    2.54
   0  -3  11   61.13    7.53
   0  -3  11   54.29    2.66
   0   3 -10  296.19   11.03
   0  -3  10  251.10   10.51
   0  -3  10  265.55   10.02
   0   3  -9   14.11    1.58
   0  -3   9   14.02    2.48
   0  -3   9   11.74    1.58
   0   3  -8 2798.18   68.51
   0  -3   8 2379.27   60.72
   0  -3   8 2450.13   60.61
   0   3  -7 1013.45   21.96
   0  -3   7  863.75   19.75
   0  -3   7  867.63   19.36
   0   3  -6  163.95    6.62
   0  -3   6  144.64    6.02
   0  -3   6  151.36    5.94
   0   3  -5 1399.91   14.39
   0  -3   5 1291.65   14.48
   0  -3   5 1245.15   13.33
   0   3  -4  364.71   12.93
   0  -3   4  336.31   12.24
   0  -3   4  344.77   12.41
   0   3  -3   81.12    3.10
   0  -3   3   71.18    3.01
   0  -3   3   77.68    3.82
   0  -3   2  693.26    9.93
   0  -3   2  619.51    9.55
   0  -3   2  595.05    8.85
   0  -3   1 3632.32   46.08
   0  -3   1 3418.79   43.87
   0  -3   1 3278.45   42.20
   0  -3   0 1272.89   17.18
   0  -3   0 1248.60   16.81
   0  -3   0 1220.17   16.65
   0  -3  -1  918.54   12.91
   0  -3  -1  909.32   12.42
   0  -3  -1  922.42   13.08
   0  -3  -2    3.93    0.83
   0  -3  -2    4.00    0.45
   0   3   2    3.53    0.59
   0  -3  -3   27.07    1.61
   0   3   3   20.19    0.90
   0   3   3   21.39    4.18
   0  -3  -4 2142.22   21.81
   0   3   4 1939.75   17.61
   0   3   4 1913.81   19.71
   0  -3  -5 1765.90   18.75
   0   3   5 1701.24   18.18
   0  -3  -6  490.37   16.42
   0   3   6  452.70   16.37
   0  -3  -7   19.19    1.71
   0   3   7   18.16    2.85
   0  -3  -8  778.85   18.02
   0   3   8  798.21   18.31
   0  -3  -9    5.96    1.56
   0   3   9    6.39    1.49
   0  -3 -10   10.38    1.65
   0   3  10   21.15    2.14
   0  -3 -11  611.92   12.59
   0   3  11  649.11   12.89
   0  -3 -12    1.57    1.83
   0   3  12    6.78    2.06
   0  -3 -13    6.96    1.74
   0   3  13   11.13    1.84
   0  -3 -14   13.38    1.90
   0   3  14   17.75    1.97
   0  -3 -15   35.94    2.92
   0   3  15   40.31    6.48
   0  -3 -16   73.20    4.32
   0   3  16   92.33    5.02
   0  -3 -17   90.76    5.00
   0   3  17  114.75    6.46
   0  -3 -18   10.24    2.09
   0   3  18   12.68    2.55
   0   3  19    0.24    1.75
   0  -3 -20    8.63    5.10
   0   3  20   -0.26    1.76
   0  -3 -21    7.04    4.25
   0   3  21    1.07    1.56
   0   4 -19   44.67    7.50
   0   4 -18    9.06    2.37
   0   4 -17  126.99   11.17
   0   4 -16    3.90    2.78
   0  -4  16    0.72    1.01
   0  -4  15    7.92    3.22
   0  -4  14   17.93    2.37
   0  -4  14   14.82    1.49
   0   4 -13  170.54    5.39
   0  -4  13  180.40   19.22
   0  -4  13  130.48   15.44
   0   4 -12  234.47    6.91
   0  -4  12  232.33    7.81
   0  -4  12  196.50    6.46
   0   4 -11 1815.91   56.11
   0  -4  11 1635.62   51.46
   0  -4  11 1470.60   45.95
   0   4 -10  230.01   12.96
   0  -4  10  182.75   11.01
   0   4  -9   22.22    4.12
   0  -4   9   18.71    1.82
   0  -4   9   20.15    1.45
   0   4  -8  334.72    5.00
   0  -4   8  288.88   11.20
   0  -4   8  275.34    9.72
   0   4  -7  908.99   23.07
   0  -4   7  771.23   20.46
   0  -4   7  731.81   19.04
   0   4  -6  345.65   11.87
   0  -4   6  294.92   10.72
   0  -4   6  285.31   10.11
   0   4  -5    4.68    0.90
   0  -4   5    7.81    2.12
   0  -4   5    5.23    1.00
   0   4  -4  121.05    4.60
   0  -4   4  110.72    4.59
   0  -4   4  113.80    5.97
   0  -4   3  110.51    4.25
   0  -4   3   97.86    4.18
   0  -4   3   98.81    3.94
   0  -4   2   44.87    4.92
   0  -4   2   34.51    1.91
   0  -4   2   32.19    1.89
   0  -4   1 2783.72   27.45
   0  -4   1 2668.87   26.27
   0  -4   1 2522.88   25.45
   0  -4   0    4.06    0.79
   0  -4   0    4.13    2.01
   0  -4   0    4.10    0.65
   0  -4  -1 2714.65   26.91
   0  -4  -1 2703.85   26.16
   0  -4  -1 2767.70   27.87
   0  -4  -2    7.79    0.99
   0  -4  -2    6.05    1.32
   0   4   2    5.78    1.36
   0  -4  -3 2480.11   52.84
   0   4   3 2172.65   45.48
   0   4   3 2214.33   47.43
   0  -4  -4 1182.22   26.08
   0   4   4 1019.67   21.54
   0   4   4 1048.21   23.45
   0  -4  -5   59.40    3.13
   0   4   5   55.89    3.76
   0  -4  -6  713.11   18.88
   0   4   6  692.36   18.49
   0  -4  -7    5.30    1.31
   0   4   7    4.35    1.23
   0  -4  -8   65.07    3.51
   0   4   8   76.25    7.52
   0  -4  -9  152.26    6.64
   0   4   9  164.98    7.00
   0  -4 -10    6.69    1.66
   0   4  10   11.24    1.79
   0  -4 -11  116.94    7.49
   0   4  11  162.82   10.00
   0  -4 -12  298.06    9.02
   0   4  12  348.94   12.00
   0  -4 -13   63.80    3.38
   0   4  13   86.59    4.19
   0  -4 -14   39.81    3.25
   0   4  14   48.81    3.52
   0  -4 -15   36.14    3.97
   0   4  15   45.58    4.97
   0  -4 -16    0.94    1.88
   0   4  16    2.61    1.96
   0  -4 -17   37.44    3.42
   0   4  17   46.12    3.75
   0  -4 -18   24.02    3.01
   0   4  18   29.09    3.29
   0  -4 -19   14.48    3.21
   0   4  19    2.34    2.19
   0  -4 -20    2.90    2.99
   0   4  20    1.96    1.79
   0  -4 -21   12.49    2.41
   0   4  21    3.68    2.87
   0   5 -19   32.53    6.22
   0   5 -18  133.42    9.29
   0   5 -17   34.43    7.78
   0   5 -16    5.31    3.41
   0   5 -15  273.15   18.28
   0  -5  14    0.97    0.92
   0  -5  13   41.27    4.94
   0  -5  13   32.42    3.46
   0  -5  12    0.96    1.63
   0  -5  12    1.11    0.51
   0   5 -11   25.90    4.95
   0  -5  11   30.01    3.34
   0  -5  11   21.26    2.38
   0   5 -10  381.81   10.14
   0  -5  10  381.19   23.11
   0  -5  10  296.29    8.96
   0   5  -9  102.44    3.67
   0  -5   9   84.71    6.17
   0  -5   9   91.86    3.10
   0   5  -8  822.08   17.08
   0  -5   8  721.35   16.65
   0  -5   8  646.11   14.03
   0   5  -7 1610.36   32.16
   0  -5   7 1448.44   30.46
   0  -5   7 1333.44   26.71
   0   5  -6  489.61    9.65
   0  -5   6  416.71    9.10
   0  -5   6  398.18    9.78
   0   5  -5  189.70    7.29
   0  -5   5  172.71    7.06
   0  -5   5  159.74    6.41
   0   5  -4   49.25    5.87
   0  -5   4   37.04    2.01
   0  -5   4   43.62    5.14
   0  -5   3  757.17   24.56
   0  -5   3  645.56   21.31
   0  -5   3  618.55   20.41
   0  -5   2  155.09    6.04
   0  -5   2  128.45    5.26
   0  -5   2  152.55   12.44
   0  -5   1  831.91   21.62
   0  -5   1  758.15   19.74
   0  -5   1  719.84   18.86
   0  -5   0  142.33    5.78
   0  -5   0  135.69    5.34
   0  -5   0  139.73    5.71
   0  -5  -1  110.43    4.67
   0  -5  -1  105.57    4.32
   0  -5  -1  109.78    4.93
   0  -5  -2   64.44    5.00
   0   5   2   56.29    4.18
   0   5   2   63.18    4.93
   0  -5  -3  364.99   10.53
   0   5   3  312.63    4.31
   0   5   3  311.67    9.41
   0  -5  -4  698.36   23.22
   0   5   4  612.12   19.71
   0   5   4  640.15   21.38
   0  -5  -5 1613.29   51.69
   0   5   5 1404.07   45.26
   0  -5  -6    6.27    1.90
   0   5   6    6.79    1.35
   0  -5  -7 1106.82   20.25
   0   5   7 1091.75   19.95
   0  -5  -8  106.60    6.96
   0   5   8  126.66    7.84
   0  -5  -9   84.96    3.82
   0   5   9   97.78    9.44
   0  -5 -10  101.23    4.24
   0   5  10  117.19    4.13
   0  -5 -11   39.04    2.64
   0   5  11   61.20    3.27
   0  -5 -12  125.08    5.40
   0   5  12  149.60    6.42
   0  -5 -13   21.55    2.11
   0   5  13   30.33    3.06
   0  -5 -14   56.50    5.55
   0   5  14   67.21    6.44
   0  -5 -15    0.17    1.75
   0   5  15    0.19    1.66
   0  -5 -16    0.69    1.89
   0   5  16    0.59    1.82
   0   5  17  100.43    5.39
   0  -5 -18    1.33    2.14
   0   5  18    1.92    2.22
   0  -5 -19    0.87    2.00
   0   5  19    2.97    2.35
   0  -5 -20    2.89    2.49
   0   5  20   -1.90    1.74
   0   6 -18    0.26    0.79
   0   6 -17   91.80   14.84
   0   6 -16    8.53    5.09
   0   6 -15   10.52    3.18
   0   6 -14   72.82   12.90
   0   6 -13  379.39    8.81
   0  -6  12    7.22    2.73
   0  -6  11   29.25    3.44
   0  -6  11   25.64    3.07
   0  -6  10  340.37   19.53
   0  -6  10  269.96   15.54
   0  -6   9   41.70    5.80
   0  -6   9   35.65    4.46
   0   6  -8    7.01    1.38
   0  -6   8    7.91    1.16
   0  -6   8    5.62    0.99
   0   6  -7   21.06    3.67
   0  -6   7   24.59    4.39
   0  -6   7   18.39    4.12
   0   6  -6    7.53    1.21
   0  -6   6    6.39    1.45
   0  -6   6    5.44    1.29
   0   6  -5  165.01    3.68
   0  -6   5  156.14    4.41
   0  -6   5  139.54    6.81
   0   6  -4  117.29    7.83
   0  -6   4  112.96    7.98
   0  -6   4  117.41   13.44
   0  -6   3   -0.37    1.11
   0  -6   3    1.03    0.89
   0  -6   2    9.69    1.78
   0  -6   2    7.82    1.60
   0  -6   2    7.95    1.28
   0  -6   1   50.10    5.84
   0  -6   1   40.13    3.00
   0  -6   1   47.84    7.45
   0  -6   0 1653.05   28.17
   0  -6   0 1515.09   26.12
   0  -6  -1  219.43   10.22
   0   6   1  180.40    8.17
   0  -6  -2    6.80    1.12
   0   6   2    7.54    1.84
   0   6   2    9.71    2.19
   0  -6  -3  520.48   12.08
   0   6   3  451.54    9.70
   0   6   3  454.19   12.82
   0  -6  -4   40.90    3.33
   0   6   4   33.01    5.22
   0  -6  -5   83.84    5.68
   0   6   5   80.78    6.55
   0  -6  -6   13.21    2.53
   0   6   6    9.43    1.87
   0  -6  -7   34.32    2.52
   0   6   7   31.56    5.25
   0  -6  -8   84.60    3.71
   0   6   8   91.76   14.66
   0  -6  -9    2.12    1.79
   0   6   9    0.77    1.19
   0  -6 -10  208.88    7.64
   0   6  10  234.36    7.97
   0  -6 -11    0.62    2.00
   0   6  11    0.69    1.63
   0  -6 -12  218.89    8.89
   0   6  12  274.11   10.32
   0  -6 -13  132.46    6.10
   0   6  13  174.74    7.42
   0  -6 -14    6.47    3.94
   0   6  14    3.96    3.06
   0  -6 -15   20.72    2.76
   0   6  15    0.62    1.82
   0  -6 -16    7.71    2.56
   0   6  16    0.98    1.98
   0  -6 -17    3.53    3.51
   0   6  17    1.40    1.86
   0   6  18    0.00    1.92
   0  -6 -19    1.41    1.98
   0   6  19   -0.32    1.74
   0   7 -17    7.44    1.96
   0   7 -16    4.06    2.74
   0   7 -15   -2.00    1.59
   0   7 -14   13.42    3.67
   0   7 -13   35.57    6.27
   0   7 -12   22.49    4.05
   0   7 -11    2.71    1.54
   0   7 -10    0.86    1.03
   0  -7   9  375.45   11.90
   0  -7   8   12.33    2.59
   0  -7   7  135.28    8.23
   0   7  -6  774.48   41.95
   0  -7   6  643.87   35.22
   0   7  -5  366.24   10.45
   0  -7   5  352.64   10.44
   0   7  -4   10.30    1.91
   0  -7   4   12.67    2.45
   0   7  -3   72.31    8.84
   0   7  -3   72.40   11.32
   0  -7   3   71.08    3.16
   0  -7   2    2.29    0.96
   0   7  -2    2.61    0.70
   0  -7   2    2.36    1.28
   0  -7   1  140.38   11.70
   0   7  -1  110.90    9.43
   0  -7   1  129.28   12.04
   0  -7   0   79.59    3.42
   0   7   0   61.17    9.32
   0  -7  -1  118.87    3.86
   0   7   1   95.09    2.88
   0   7   1  103.03    8.88
   0  -7  -2    7.19    1.48
   0   7   2    4.29    1.33
   0   7   2    6.39    1.25
   0  -7  -3    4.42    1.11
   0   7   3    0.66    1.10
   0  -7  -4  169.95    9.82
   0   7   4  139.52    8.14
   0  -7  -5  155.43    5.95
   0   7   5  169.10    6.28
   0  -7  -6  144.87    5.78
   0   7   6  148.61   10.95
   0  -7  -7  161.35   10.08
   0   7   7  134.46    8.40
   0  -7  -8    3.67    1.47
   0   7   8    6.16    1.91
   0  -7  -9    5.33    1.24
   0   7   9   -0.32    1.46
   0  -7 -10   32.54    3.11
   0  -7 -11   30.64    3.30
   0   7  11   10.56    2.02
   0  -7 -12   13.13    2.00
   0   7  12    1.92    1.91
   0  -7 -13   11.61    6.98
   0   7  13    2.90    2.46
   0  -7 -14    4.08    3.15
   0   7  14    1.20    1.81
   0   7  15    0.91    1.73
   0  -7 -16    4.56    3.34
   0   7  16    1.67    1.92
   0  -7 -17    1.80    2.13
   0   7  17    1.24    1.81
   0  -7 -18    5.58    2.13
   0   7  18   -0.93    1.64
   0   8 -14   43.83    9.72
   0   8 -13   24.31    6.65
   0   8 -12  108.57   22.30
   0   8 -11   62.66   11.66
   0   8 -10   23.76    5.86
   0   8  -9   -0.06    0.97
   0   8  -8   96.04   17.15
   0   8  -7   -0.02    1.29
   0  -8   7    2.93    1.47
   0   8  -6   15.79    2.42
   0  -8   6   16.07    3.33
   0   8  -5   29.04    5.15
   0  -8   5   25.79    3.86
   0   8  -4   27.08    5.77
   0  -8   4   28.74    3.77
   0   8  -3   19.95    3.50
   0   8  -3   17.16    3.65
   0  -8   3   16.33    2.57
   0  -8   2    6.37    2.44
   0  -8   2    6.24    2.20
   0  -8   1    9.20    1.81
   0   8  -1    7.12    1.47
   0   8  -1    6.87    1.66
   0  -8   0  312.42   11.58
   0   8   0  264.95    9.56
   0  -8  -1  676.58   21.28
   0   8   1  528.47   17.42
   0  -8  -2   14.84    2.10
   0   8   2   20.74    4.40
   0  -8  -3   32.70    3.57
   0   8   3   26.67    4.83
   0  -8  -4  161.97    8.42
   0   8   4  176.54    7.03
   0  -8  -5  122.95    7.04
   0   8   5  111.49    5.51
   0  -8  -6   11.64    2.03
   0   8   6   12.31    1.99
   0  -8  -7   28.45    2.91
   0   8   7   28.31    5.67
   0  -8  -8    1.61    1.57
   0   8   8    0.94    0.78
   0  -8  -9   24.68    2.77
   0   8   9    3.13    3.14
   0  -8 -10    1.15    1.40
   0   8  10   -1.54    1.49
   0  -8 -11    7.57    2.47
   0   8  11    2.49    2.66
   0   8  12   -1.46    1.78
   0  -8 -13   13.60    2.68
   0   8  13    2.15    2.12
   0   8  14   -0.19    1.91
   0  -8 -15    6.89    2.56
   0   8  15    1.13    1.95
   0  -8 -16   24.25    4.91
   0   8  16   -0.88    1.69
   0   9  -9   25.38    6.05
   0   9  -8   24.78    5.81
   0   9  -7    3.52    2.14
   0   9  -6   16.92    4.32
   0   9  -5   49.70   12.23
   0   9  -3    0.57    0.59
   0   9  -2   15.51    3.57
   0   9  -1    9.37    5.67
   0  -9   0    0.12    1.01
   0   9   0    0.98    0.58
   0  -9  -1    1.95    1.28
   0   9   1    0.14    0.50
   0  -9  -2   -0.97    1.11
   0   9   2    1.04    0.85
   0  -9  -3    3.67    2.63
   0   9   3   -0.04    1.27
   0  -9  -4   43.91    7.58
   0   9   4   43.32    7.93
   0  -9  -5   82.80    5.59
   0   9   5   54.60   10.23
   0  -9  -6   16.39    4.01
   0   9   6    0.19    1.29
   0  -9  -7   15.94    3.42
   0   9   7    0.08    1.40
   0  -9  -8   22.19    2.94
   0   9   8   12.46    4.98
   0  -9  -9   13.71    2.47
   0   9   9    1.71    1.20
   0  -9 -10   21.47    2.90
   0   9  10    0.09    1.55
   0  -9 -11   14.47    2.42
   0   9  11   -2.28    1.60
   0  -9 -12   -0.95    1.70
   0   9  12    0.68    1.60
   0   9  13   -1.79    1.65
   1  -9 -11    7.11    3.13
  -1   9  11   -0.94    1.57
   1  -9 -10   11.45    2.67
   1  -9  -9    7.77    1.81
  -1   9   9    1.74    1.82
   1  -9  -8    1.79    1.06
  -1   9   8    0.70    1.44
  -1   9   7   12.30    1.98
   1  -9  -6  317.86   18.80
  -1   9   6  151.39    9.87
   1  -9  -5   78.07   12.90
  -1   9   5   57.49   11.33
   1  -9  -4   35.56    3.39
  -1   9   4   28.03    5.33
   1  -9  -3    1.54    1.64
  -1   9   3    0.07    0.67
   1  -9  -2    6.35    1.96
  -1   9   2   -0.44    1.09
   1  -9  -1    5.76    1.76
   1  -9   0    5.67    1.62
   1  -8 -15    5.99    2.36
  -1   8  15    0.60    1.82
   1  -8 -14   21.22    2.71
  -1   8  14    1.61    1.95
   1  -8 -13    2.68    2.57
  -1   8  13   -0.77    1.69
   1  -8 -12    1.24    1.86
  -1   8  12   -0.49    1.65
  -1   8  11    3.26    2.47
   1  -8 -10    6.95    2.36
  -1   8  10    0.97    1.56
   1  -8  -9   21.75    2.92
  -1   8   9   27.13    2.78
   1  -8  -8   15.20    2.46
  -1   8   8   -0.67    1.50
   1  -8  -7   56.80    9.26
  -1   8   7   64.96   12.18
   1  -8  -6   40.67    4.71
  -1   8   6   36.76    6.94
   1  -8  -5    7.07    1.98
  -1   8   5    5.76    2.37
   1  -8  -4   56.37    8.16
  -1   8   4   46.56    6.85
   1  -8  -3   62.28   10.16
  -1   8   3   52.00    9.60
   1  -8  -2  258.79    9.45
  -1   8   2  220.92    9.91
   1  -8  -1   27.35    3.53
  -1   8   1   20.67    4.42
   1  -8   0    8.99    3.30
  -1   8   0    6.64    2.61
   1  -8   1    3.20    1.68
   1  -8   1    1.94    1.43
  -1   8  -1    2.26    1.18
  -1   8  -2    0.34    0.66
   1  -8   2    1.46    1.39
  -1   8  -2    3.39    1.47
  -1   8  -3   13.17    2.45
   1  -8   3   12.71    2.60
  -1   8  -3   10.12    2.09
  -1   8  -4   11.34    1.65
   1  -8   4   10.63    1.42
  -1   8  -5    4.50    3.12
   1  -8   5   -0.60    1.19
   1  -8   6  564.74   11.73
   1  -8   7    6.17    3.85
   1  -8   8   21.67    3.83
   1  -8   9    2.67    2.57
   1  -8  10  232.80   11.53
   1  -8  11  115.54    8.07
  -1   8 -13   55.70   12.75
  -1   8 -14    1.72    1.84
   1  -7 -17   25.32    3.03
  -1   7  17    0.51    1.88
   1  -7 -16   13.00    2.30
  -1   7  16    1.82    2.21
   1  -7 -15   21.59    3.27
  -1   7  15    2.17    2.22
  -1   7  14    0.01    1.78
   1  -7 -13   26.67   12.47
  -1   7  13   15.25    3.25
   1  -7 -12   16.26    2.29
   1  -7 -11   41.72    3.35
  -1   7  11    5.16    2.98
   1  -7 -10   10.17    2.35
  -1   7  10   13.10    2.68
   1  -7  -9   45.34    4.00
  -1   7   9   51.32    3.43
   1  -7  -8    0.56    1.50
  -1   7   8    0.96    1.37
   1  -7  -7   51.06    5.09
  -1   7   7   43.73    8.50
   1  -7  -6   44.76    3.17
  -1   7   6   47.00    7.31
   1  -7  -5  172.63    6.68
  -1   7   5  161.87    5.96
   1  -7  -4  241.88    8.29
  -1   7   4  223.04    7.32
   1  -7  -3   11.44    2.15
  -1   7   3   10.46    1.92
   1  -7  -2    7.29    1.71
   1  -7  -2    3.74    0.84
  -1   7   2    6.34    2.03
   1  -7  -1   13.71    2.20
   1  -7  -1    9.91    1.63
  -1   7   1   12.02    2.02
   1  -7   0    1.06    0.61
   1  -7   0    0.07    0.46
  -1   7   0   -0.24    0.77
   1  -7   1  202.69   11.27
   1  -7   1  170.82    9.94
  -1   7  -1  170.26    9.41
   1  -7   2    3.01    1.18
   1  -7   2    2.11    1.12
  -1   7  -2    3.84    0.83
  -1   7  -3  177.73    6.11
   1  -7   3  170.61    6.06
  -1   7  -3  169.19    5.62
  -1   7  -4  311.88   10.57
   1  -7   4  295.91   12.19
   1  -7   4  285.10    8.44
  -1   7  -5    9.37    2.48
   1  -7   5    8.70    2.93
   1  -7   5    4.28    1.50
  -1   7  -6   44.00    7.14
   1  -7   6   51.47    3.32
   1  -7   6   38.37    4.57
  -1   7  -7   35.86    6.05
   1  -7   7   31.54    3.60
  -1   7  -8  315.13   10.23
   1  -7   8  286.26   10.57
   1  -7   9   47.18    6.70
   1  -7  10   40.67    8.07
   1  -7  11  241.44    8.79
   1  -7  12    4.65    3.26
   1  -7  13   -0.67    1.64
   1  -7  14    6.52    4.04
  -1   7 -16   54.97   15.86
  -1   6  19    1.19    1.80
   1  -6 -18    1.43    2.05
  -1   6  18    2.20    2.30
   1  -6 -17    5.03    4.05
  -1   6  17    3.18    2.55
   1  -6 -16    8.91    5.48
  -1   6  16   -1.65    1.72
   1  -6 -15    0.85    2.07
  -1   6  15   -0.78    1.80
   1  -6 -14   92.60    4.62
   1  -6 -13   78.57    6.20
  -1   6  13  117.18    8.13
   1  -6 -12   31.32    3.07
  -1   6  12   23.64    2.50
   1  -6 -11   61.39    5.97
  -1   6  11   73.05    6.91
   1  -6 -10  223.01   13.36
  -1   6  10  250.53   14.74
   1  -6  -9   25.53    3.07
  -1   6   9   24.95    2.70
   1  -6  -8  136.99    8.41
  -1   6   8  144.14    8.50
   1  -6  -7   44.22    2.98
  -1   6   7   49.92    8.36
   1  -6  -6  251.06    8.13
  -1   6   6  253.84    7.78
   1  -6  -5  218.72    8.66
  -1   6   5  224.40    8.65
   1  -6  -4   47.79    5.86
  -1   6   4   45.12    6.57
   1  -6  -3  154.61   14.02
   1  -6  -3  127.12    2.83
  -1   6   3  125.87    4.05
   1  -6  -2  216.68   12.72
   1  -6  -2  191.95   10.89
  -1   6   2  188.17   11.00
   1  -6  -1  690.40   15.60
   1  -6  -1  576.32   13.96
  -1   6   1  573.80   14.38
   1  -6   0  951.95   20.20
   1  -6   0  805.30   17.04
  -1   6   0  783.71   17.05
   1  -6   1  337.28    9.19
   1  -6   1  274.80    9.04
  -1   6  -1  251.36    7.03
   1  -6   2    1.83    1.08
   1  -6   2   -0.62    0.94
   1  -6   3   -0.80    1.01
   1  -6   3    0.67    0.84
  -1   6  -4   10.25    2.16
   1  -6   4   10.88    2.60
   1  -6   4    9.59    1.25
  -1   6  -5   78.18   10.02
   1  -6   5   69.60    3.09
   1  -6   5   67.99    4.23
  -1   6  -6  291.10    8.49
   1  -6   6  271.33    8.30
   1  -6   6  241.78    7.32
  -1   6  -7   93.07   11.57
   1  -6   7   95.63   11.06
   1  -6   7   77.56    2.75
  -1   6  -8   85.86   10.59
   1  -6   8   69.49    4.16
   1  -6   8   60.00    2.83
  -1   6  -9   12.64    2.49
   1  -6   9   11.42    1.88
  -1   6 -10  360.44   20.12
   1  -6  10  308.31   19.25
   1  -6  11  296.37   11.60
   1  -6  12  418.83   24.02
   1  -6  13  139.31   20.13
   1  -6  14    4.22    2.65
   1  -6  15   89.17   12.98
   1  -6  16   13.90    2.50
  -1   6 -18    0.50    1.27
  -1   5  20   -1.22    1.83
   1  -5 -19   10.54    2.43
  -1   5  19   -0.34    1.68
   1  -5 -18    1.90    2.14
  -1   5  18    0.38    1.83
  -1   5  17    2.34    1.91
   1  -5 -16    1.21    1.87
  -1   5  16    1.03    1.93
   1  -5 -15   30.29    2.93
  -1   5  15   50.52    3.89
   1  -5 -14    1.98    1.89
  -1   5  14    0.15    1.69
   1  -5 -13    6.63    1.50
  -1   5  13    9.86    2.60
   1  -5 -12    1.43    1.81
  -1   5  12   -0.98    1.60
   1  -5 -11   48.27    3.13
  -1   5  11   68.19   10.42
   1  -5 -10   49.13    3.07
  -1   5  10   62.50    3.46
   1  -5  -9    5.79    1.83
  -1   5   9    3.03    1.26
   1  -5  -8  170.64    7.08
  -1   5   8  177.14    4.59
   1  -5  -7    4.63    1.61
  -1   5   7    4.87    1.63
   1  -5  -6  604.34   12.60
  -1   5   6  604.39   13.58
   1  -5  -5  324.68   14.62
  -1   5   5  307.12   14.04
   1  -5  -4   10.98    1.55
   1  -5  -4    6.28    1.10
  -1   5   4   10.47    1.64
   1  -5  -3    1.87    1.03
   1  -5  -3    0.50    0.50
  -1   5   3    0.54    0.41
   1  -5  -2  117.17    5.23
   1  -5  -2  115.11    4.59
  -1   5   2  104.00    4.62
   1  -5  -1   17.52    1.51
   1  -5  -1   16.67    2.64
  -1   5   1   15.25    2.69
   1  -5   0   49.58    5.90
   1  -5   0   41.77    3.85
  -1   5   0   43.17    7.43
   1  -5   1  878.17   28.67
   1  -5   1  757.72   24.79
  -1   5  -1  646.29   21.18
   1  -5   2   10.34    1.35
   1  -5   2    6.58    1.06
   1  -5   2    6.62    1.14
   1  -5   3   68.60    6.29
   1  -5   3   57.43    7.07
  -1   5  -4   54.31    6.74
   1  -5   4   53.07    7.19
   1  -5   4   46.65    3.77
  -1   5  -5 4587.30  189.93
   1  -5   5 4507.97  186.73
   1  -5   5 3925.75   62.42
  -1   5  -6   50.09    7.25
   1  -5   6   30.51   22.14
   1  -5   6   31.19    4.78
  -1   5  -7    0.79    0.54
   1  -5   7   -0.86    1.53
   1  -5   7    0.40    0.30
  -1   5  -8   35.12    4.69
   1  -5   8   34.94    3.47
   1  -5   8   22.34    3.75
  -1   5  -9   31.31    4.61
   1  -5   9   22.71    2.08
   1  -5   9   14.94    1.96
  -1   5 -10  159.70    8.82
   1  -5  10  153.47   17.76
   1  -5  10  107.31    8.87
  -1   5 -11   51.07    2.82
   1  -5  11   46.17    7.55
   1  -5  11   36.80    2.12
  -1   5 -12   16.60    2.49
   1  -5  12   20.97    2.49
  -1   5 -13    0.11    0.72
   1  -5  13    0.00    1.73
   1  -5  14   46.11    6.81
   1  -5  15    1.24    1.07
   1  -5  16   12.63    8.06
   1  -5  17  439.98   20.93
   1  -5  18   65.13    5.52
  -1   5 -19   27.99    8.73
  -1   4  21    1.22    2.16
  -1   4  20   -1.29    1.97
  -1   4  19   -0.57    1.85
   1  -4 -18    7.66    2.28
  -1   4  18   10.99    3.44
   1  -4 -17    2.29    2.14
  -1   4  17    3.52    2.57
   1  -4 -16   86.53    6.52
  -1   4  16  133.25    9.51
   1  -4 -15   44.43    3.32
  -1   4  15   57.54    3.76
   1  -4 -14   -1.31    2.19
  -1   4  14    1.55    1.83
   1  -4 -13  416.76   12.17
  -1   4  13  533.31   16.47
   1  -4 -12   76.34    3.69
  -1   4  12  105.26    3.98
   1  -4 -11  121.24    4.27
  -1   4  11  165.19    4.97
   1  -4 -10   -0.07    1.44
  -1   4  10    0.68    1.35
   1  -4  -9    9.85    1.63
  -1   4   9   15.45    2.01
   1  -4  -8  213.57    8.64
  -1   4   8  235.21    9.30
   1  -4  -7  209.60    8.42
  -1   4   7  222.21    8.76
   1  -4  -6   16.38    2.03
  -1   4   6   15.61    2.04
   1  -4  -5   72.65    5.63
  -1   4   5   85.34    3.95
   1  -4  -4  426.30   10.64
   1  -4  -4  385.83    8.60
  -1   4   4  417.62   10.20
   1  -4  -3    2.34    0.96
   1  -4  -3    0.59    0.49
  -1   4   3    0.23    0.48
   1  -4  -2    5.14    1.11
   1  -4  -2   -1.92    1.07
  -1   4   2    2.88    0.51
   1  -4  -1 3892.63  263.92
   1  -4  -1 3587.41   75.27
  -1   4   1 3304.97   69.47
   1  -4   0 1678.45   36.28
   1  -4   0 1446.86   31.94
  -1   4   0 1395.39   30.28
   1  -4   1    1.45    0.81
   1  -4   1   -0.27    3.90
   1  -4   1    1.23    0.80
   1  -4   2    0.79    0.85
   1  -4   2   -0.66    0.87
   1  -4   2    0.71    0.67
  -1   4  -3   15.25    2.31
   1  -4   3   11.74    1.22
   1  -4   3   13.60    1.61
  -1   4  -4    3.44    0.74
   1  -4   4    2.38    0.59
   1  -4   4    0.88    0.38
  -1   4  -5 1275.39   32.33
   1  -4   5 1235.67   31.52
   1  -4   5 1040.35   26.42
  -1   4  -6  175.55    7.13
   1  -4   6  159.19    6.58
   1  -4   6  146.26    5.43
  -1   4  -7  249.12    9.39
   1  -4   7  210.98    8.51
   1  -4   7  181.37    6.86
  -1   4  -8 1035.42   18.57
   1  -4   8  970.70   18.50
   1  -4   8  735.06   13.05
  -1   4  -9 3356.63   54.41
   1  -4   9 2897.38   48.13
   1  -4   9 2483.16   40.67
  -1   4 -10  389.40    9.30
   1  -4  10  344.90    9.89
   1  -4  10  316.21    7.54
  -1   4 -11  418.58   14.14
   1  -4  11  355.01   12.90
   1  -4  11  300.03   10.31
  -1   4 -12  473.01   24.43
   1  -4  12  416.47   22.22
   1  -4  12  355.01   18.24
  -1   4 -13   21.82    6.30
   1  -4  13   26.84    3.10
   1  -4  13   15.77    1.83
  -1   4 -14   15.66    1.80
   1  -4  14   19.71    3.04
  -1   4 -15  125.19    5.55
   1  -4  15  124.86    5.98
   1  -4  16  102.09   14.58
   1  -4  17    7.70    4.90
   1  -4  18    5.41    2.54
  -1   4 -20    1.15    0.93
  -1   3  21    1.00    1.79
   1  -3 -20    2.14    1.77
  -1   3  20    3.08    2.23
   1  -3 -19   10.00    2.56
  -1   3  19   15.58    3.40
   1  -3 -18   43.32   25.16
  -1   3  18   62.13   36.03
   1  -3 -17   17.88    2.50
  -1   3  17   33.04    3.33
   1  -3 -16   36.57    3.94
  -1   3  16   53.25    5.71
   1  -3 -15  107.82    7.04
  -1   3  15  143.11    9.49
   1  -3 -14   67.62    3.44
  -1   3  14   82.83    4.06
   1  -3 -13   -7.89    3.62
  -1   3  13    0.89    1.82
   1  -3 -12  872.63   28.28
  -1   3  12 1091.91   35.68
   1  -3 -11  960.42   20.56
  -1   3  11 1149.18   24.24
   1  -3 -10    0.99    3.56
  -1   3  10    2.71    1.56
   1  -3  -9  251.94    9.78
  -1   3   9  303.96   11.84
   1  -3  -8  334.90    9.90
  -1   3   8  365.92   13.24
   1  -3  -7  314.91    8.31
  -1   3   7  348.64    9.39
   1  -3  -6  924.32   20.82
  -1   3   6 1027.52   22.85
   1  -3  -5  514.82    7.56
   1  -3  -5  442.24   15.29
  -1   3   5  529.54    7.60
   1  -3  -4  276.80   10.37
   1  -3  -4  249.30    8.74
  -1   3   4  295.79   11.04
   1  -3  -3   51.44    2.66
   1  -3  -3   41.97    1.83
  -1   3   3   49.88    2.78
   1  -3  -2  193.92    7.44
   1  -3  -2  182.49    6.64
  -1   3   2  179.53    7.03
   1  -3  -1   27.56    3.32
   1  -3  -1   30.11    2.87
  -1   3   1   24.06    3.34
   1  -3   0  773.46   11.50
   1  -3   0  732.90   10.56
  -1   3   0  644.10    9.36
   1  -3   1  362.80   13.14
   1  -3   1  334.94   12.19
   1  -3   1  325.72   11.66
   1  -3   2 1235.04   13.46
   1  -3   2 1146.27   12.71
   1  -3   2 1033.40   10.89
  -1   3  -3 1450.17   15.46
   1  -3   3 1484.73   15.98
   1  -3   3 1343.82   13.51
  -1   3  -4    9.77    1.82
   1  -3   4   12.82    2.04
   1  -3   4    9.16    0.77
  -1   3  -5 3840.16   37.20
   1  -3   5 3643.15   35.96
   1  -3   5 3164.34   29.78
  -1   3  -6 2127.20   45.34
   1  -3   6 1940.75   41.87
   1  -3   6 1720.93   36.41
  -1   3  -7 1718.49   37.18
   1  -3   7 1531.55   33.61
   1  -3   7 1386.89   29.54
  -1   3  -8   51.38    7.01
   1  -3   8   35.08    3.15
   1  -3   8   33.35    2.68
  -1   3  -9    1.93    0.62
   1  -3   9    2.48    0.86
   1  -3   9    2.09    0.32
  -1   3 -10 1203.69   21.74
   1  -3  10 1097.14   20.11
   1  -3  10 1013.92   17.25
  -1   3 -11  140.68    9.64
   1  -3  11  118.07    7.81
   1  -3  11  116.78    6.98
  -1   3 -12 1503.34   47.42
   1  -3  12 1293.51   41.01
   1  -3  12 1256.49   39.33
  -1   3 -13 1192.97   28.48
   1  -3  13 1070.59   26.37
   1  -3  13  946.42   22.57
  -1   3 -14  569.45   29.24
   1  -3  14  530.24   27.63
   1  -3  14  488.58   24.96
  -1   3 -15  167.91   10.14
   1  -3  15  147.15   18.61
   1  -3  15  149.19    8.77
  -1   3 -16   17.52    2.88
   1  -3  16   16.96    2.58
  -1   3 -17  148.74    9.19
   1  -3  17  130.42   18.55
   1  -3  18  181.97   23.86
   1  -3  19   67.21    4.74
  -1   2  21    8.39    5.23
  -1   2  20    0.77    1.67
   1  -2 -19   24.99    2.39
  -1   2  19   38.63    3.40
   1  -2 -18   53.64    3.23
  -1   2  18   65.35    4.13
   1  -2 -17   10.79    1.89
  -1   2  17   17.32    2.75
   1  -2 -16    9.26    2.60
  -1   2  16   13.24    3.42
   1  -2 -15   17.13    1.95
  -1   2  15   27.53    3.55
   1  -2 -14   82.75    3.50
  -1   2  14  136.97    5.03
   1  -2 -13   53.32    2.68
  -1   2  13   79.66    3.92
   1  -2 -12  158.36    9.44
  -1   2  12  222.70   13.07
   1  -2 -11  946.21   31.17
  -1   2  11 1139.93   37.06
   1  -2 -10  296.25   10.81
  -1   2  10  373.91    6.42
   1  -2  -9   73.87    6.21
   1  -2  -9   71.84    5.05
  -1   2   9   87.85    6.82
   1  -2  -8 3506.08   74.08
   1  -2  -8 3352.65   69.53
  -1   2   8 3973.59   91.95
   1  -2  -7 8538.58  268.31
  -1   2   7 9676.53   88.87
   1  -2  -6  123.65    5.36
   1  -2  -6  124.96    4.48
  -1   2   6  131.44    5.82
   1  -2  -5   98.60    3.97
   1  -2  -5   99.07    3.34
  -1   2   5  116.01    4.77
   1  -2  -4  141.69    5.26
   1  -2  -4  155.45    5.13
  -1   2   4  174.97    6.32
   1  -2  -3   70.68    2.50
  -1   2   3   73.89    3.07
   1  -2  -2 1174.50   16.07
   1  -2  -2 1224.63   15.86
  -1   2   2 1152.17   15.51
   1  -2  -1   29.21    1.48
   1  -2  -1   28.70    1.32
  -1   2   1   28.60    1.47
   1  -2   0 5562.25   70.01
   1  -2   0 5718.05   71.42
  -1   2   0 4892.24   61.11
   1  -2   1 2195.24   28.42
   1  -2   1 2074.10   26.79
  -1   2  -2  404.39   13.22
   1  -2   2  423.84   13.87
   1  -2   2  382.94   12.26
  -1   2  -3  170.11    5.94
   1  -2   3  160.40    5.71
   1  -2   3  138.00    4.62
  -1   2  -4   17.56    2.60
   1  -2   4   24.02    4.10
   1  -2   4   20.62    1.27
  -1   2  -5   11.49    1.74
   1  -2   5   10.63    1.35
   1  -2   5    9.77    0.85
  -1   2  -6 2994.80   29.15
   1  -2   6 2617.62   26.70
   1  -2   6 2630.28   24.85
  -1   2  -7    6.96    1.04
   1  -2   7    6.67    1.16
   1  -2   7    6.59    1.00
  -1   2  -8   31.22    4.07
   1  -2   8   28.78    3.52
   1  -2   8   25.84    1.62
  -1   2  -9  730.45   18.96
   1  -2   9  632.59   16.83
   1  -2   9  723.18   18.41
  -1   2 -10  274.75    9.98
   1  -2  10  232.56    9.04
   1  -2  10  261.88    9.25
  -1   2 -11  553.88   18.56
   1  -2  11  498.27   17.03
   1  -2  11  537.86   17.67
  -1   2 -12   70.51    8.84
   1  -2  12   76.66    4.39
   1  -2  12   68.26    3.61
  -1   2 -13  232.03    8.83
   1  -2  13  213.11    8.23
   1  -2  13  232.76    8.23
  -1   2 -14   69.87   10.99
   1  -2  14   74.24   12.46
   1  -2  14   87.77    2.85
  -1   2 -15   76.24    4.12
   1  -2  15   63.65    7.31
   1  -2  15   70.64    3.23
  -1   2 -16  753.07   42.39
   1  -2  16  777.94   42.81
   1  -2  16  808.92   43.89
  -1   2 -17  146.65    6.20
   1  -2  17  134.84    5.99
   1  -2  17  133.30    5.83
  -1   2 -18  222.43   13.25
   1  -2  18  227.65   13.76
  -1   2 -19    2.62    1.21
   1  -2  19   -0.66    1.34
  -1   1  21   25.98    3.17
  -1   1  20   14.39    3.51
   1  -1 -19    2.60    2.09
  -1   1  19   -0.51    1.61
   1  -1 -18   32.70    3.09
  -1   1  18   53.04    4.73
   1  -1 -17   83.40    4.31
  -1   1  17  122.83    6.03
   1  -1 -16   75.61    5.20
  -1   1  16  109.23    7.38
   1  -1 -15   82.14    3.33
  -1   1  15  120.32    4.48
   1  -1 -14   13.47    1.40
   1  -1 -14   12.28    1.48
  -1   1  14    2.98    1.65
   1  -1 -13   10.73    2.11
   1  -1 -13    8.58    1.29
  -1   1  13   11.99    2.14
   1  -1 -12  291.28   13.13
   1  -1 -12  292.57   12.56
  -1   1  12  400.20   17.68
   1  -1 -11    0.00    1.13
   1  -1 -11    0.38    0.30
  -1   1  11   -1.11    1.51
   1  -1 -10   29.22    2.51
   1  -1 -10   29.60    4.25
  -1   1  10   37.49    3.52
   1  -1  -9  471.06   11.20
   1  -1  -9  413.18    9.80
  -1   1   9  605.90   14.39
   1  -1  -8   54.83    2.75
   1  -1  -8   61.86    2.59
  -1   1   8   81.75    4.02
   1  -1  -7   27.09    1.87
   1  -1  -7   22.41    3.23
  -1   1   7    6.15    2.05
   1  -1  -6 8641.62  294.33
   1  -1  -6 8055.20  274.13
  -1   1   6 9999.98  340.77
   1  -1  -5 1217.13   16.56
   1  -1  -5 1275.85   16.50
  -1   1   5 1431.84   19.53
   1  -1  -4 2201.51   28.45
   1  -1  -4 2135.65   26.97
  -1   1   4 2363.77   30.60
   1  -1  -2 8363.24  284.64
   1  -1  -1  361.73   11.74
   1  -1  -1  388.36   12.45
  -1   1   1  398.45   12.87
   1  -1   0    4.82    0.53
   1  -1   0    9.74    1.64
  -1   1   0    4.02    0.44
   1  -1   1  358.22   11.82
  -1   1  -1  292.21    9.26
  -1   1  -2  674.73    9.40
   1  -1   2  774.91   10.87
   1  -1   2  654.48    8.27
  -1   1  -3  519.27    7.71
   1  -1   3  480.73   16.97
   1  -1   3  480.41    6.31
  -1   1  -4 9994.20  340.12
   1  -1   4 9182.59  312.58
  -1   1  -5  648.58    9.49
   1  -1   5  607.31    9.12
   1  -1   5  700.34    9.43
  -1   1  -6 8647.14  108.08
   1  -1   6 7688.84  262.02
  -1   1  -7 1091.30   12.20
   1  -1   7  948.65   11.13
   1  -1   7 1095.99   11.45
  -1   1  -8 2761.31   27.50
   1  -1   8 2415.21   24.31
   1  -1   8 2652.36   25.61
  -1   1  -9   80.12    3.50
   1  -1   9   77.37    8.83
   1  -1   9   70.51    2.96
  -1   1 -10   36.56    5.77
   1  -1  10   29.61    4.24
   1  -1  10   25.06    2.17
  -1   1 -11 1400.10   35.64
   1  -1  11 1226.71   32.27
   1  -1  11 1472.81   36.83
  -1   1 -12   68.39    8.92
   1  -1  12   63.57    7.73
   1  -1  12   68.11    2.42
  -1   1 -13    9.22    1.88
   1  -1  13    9.22    1.35
   1  -1  13   13.55    1.54
  -1   1 -14  117.13    3.78
   1  -1  14  113.20   12.11
   1  -1  14  130.15    3.70
  -1   1 -15   31.42    2.25
   1  -1  15   27.91    3.60
   1  -1  15   37.32    2.19
  -1   1 -16  281.83    9.44
   1  -1  16  265.98    8.34
   1  -1  16  349.01   10.00
  -1   1 -17   58.86    6.43
   1  -1  17   52.80    8.33
   1  -1  17   73.10   11.61
  -1   1 -18  131.16   18.69
   1  -1  18  116.15    7.36
   1  -1  18  132.17    8.12
  -1   1 -19  107.88    4.32
  -1   1 -20  176.80   10.01
  -1   0  21   69.83    5.84
  -1   0  20   52.54    4.43
  -1   0  19   10.56    6.69
   1   0 -18   25.79    2.33
  -1   0  18   48.81    4.90
   1   0 -17   87.72   11.28
  -1   0  17  145.15    6.68
   1   0 -16   16.15    2.06
   1   0 -16   14.00    2.02
  -1   0  16   24.48    2.76
   1   0 -15    0.57    1.08
   1   0 -15   -0.12    0.66
  -1   0  15   -0.52    1.50
   1   0 -14  107.13    3.51
   1   0 -14  104.03    2.99
  -1   0  14  140.65    4.43
   1   0 -13  253.89    6.70
   1   0 -13  229.74    5.94
  -1   0  13  339.42    9.35
   1   0 -12   49.42    2.14
   1   0 -12   50.72    2.31
  -1   0  12   69.01    3.20
   1   0 -11    3.86    1.15
   1   0 -11    1.63    0.55
  -1   0  11    3.25    2.30
   1   0 -10  620.79   16.21
   1   0 -10  587.99   15.33
  -1   0  10  795.03   20.83
   1   0  -9   19.65    1.70
   1   0  -9   21.98    4.87
  -1   0   9    4.64    1.35
   1   0  -8 1524.73   15.88
   1   0  -8 1373.98   14.52
  -1   0   8 1870.07   19.73
   1   0  -7   60.06    5.48
   1   0  -7   61.45   12.62
  -1   0   7   75.93    4.88
   1   0  -6  581.46    8.85
   1   0  -6  531.66    7.83
  -1   0   6  633.06   14.40
   1   0  -5 2256.54   28.87
   1   0  -5 2037.66   26.32
  -1   0   5 2625.33   33.91
   1   0  -4  548.20    7.62
   1   0  -4  491.37    7.03
  -1   0   4  646.02    9.49
   1   0  -3   11.92    0.78
   1   0  -3   11.97    1.84
  -1   0   3   30.19    3.02
  -1   0   0  248.37    7.96
   1   0   0  227.23    7.35
  -1   0   0  340.98   10.83
  -1   0  -2 6107.14   75.83
   1   0   2 5806.88   72.11
  -1   0  -3  270.07    8.86
   1   0   3  245.86    8.19
   1   0   3  214.80    6.95
   1   0   4    0.10    0.90
  -1   0  -5  136.61    4.89
   1   0   5  127.32    4.53
   1   0   5  130.91    4.55
  -1   0  -6  155.67    5.57
   1   0   6  133.34    5.12
   1   0   6  144.08    5.05
  -1   0  -8 2835.16   29.39
   1   0   8 2566.11   25.07
  -1   0  -9  655.41   15.19
   1   0   9  603.62   13.90
   1   0   9  688.90   15.49
  -1   0 -10 2882.56   61.29
   1   0  10 2685.42   56.84
   1   0  10 2926.29   63.24
  -1   0 -12 2900.98   92.10
   1   0  12 2674.75   84.59
   1   0  12 2989.28   94.18
  -1   0 -13   41.53    6.47
   1   0  13   35.57    4.74
   1   0  13    4.10    1.46
  -1   0 -14   48.44    5.59
   1   0  14   42.72    7.46
   1   0  14   58.56    2.74
  -1   0 -15  114.21    3.97
   1   0  15  107.98   10.69
   1   0  15  137.36    4.08
  -1   0 -16  195.55    6.97
   1   0  16  173.93    6.53
   1   0  16  231.02    7.41
  -1   0 -17   25.26    2.30
   1   0  17   18.11    2.99
   1   0  17   37.10    2.80
  -1   0 -18  115.89    5.55
   1   0  18  128.14    5.45
  -1   0 -19    5.94    2.87
   1   0  19    9.48    1.46
  -1   0 -20    5.73    3.85
   1   0  20    4.72    3.20
  -1  -1  20   48.34    3.84
  -1  -1  19  144.66    6.26
   1   1 -18  193.50   11.46
  -1  -1  18  280.06   16.20
   1   1 -17    9.27    2.52
   1   1 -17   15.32    2.88
  -1  -1  17   23.87    4.08
   1   1 -16   13.38    1.43
   1   1 -16   14.26    2.11
  -1  -1  16   23.56    2.47
   1   1 -15  106.28    3.40
   1   1 -15  107.73   15.87
  -1  -1  15  158.67    9.25
   1   1 -14    1.66    0.63
   1   1 -14    1.28    0.54
  -1  -1  14    1.27    1.44
   1   1 -13   47.52    3.31
   1   1 -13   44.34    3.77
  -1  -1  13   52.14    3.95
   1   1 -12  362.32   15.92
   1   1 -12  339.49    8.86
  -1  -1  12  486.33   10.43
   1   1 -11  125.06    5.09
   1   1 -11  115.07    5.21
  -1  -1  11  159.13    6.81
   1   1 -10   88.93    3.77
   1   1 -10   80.40    5.17
  -1  -1  10  103.61    3.09
   1   1  -9  103.92    4.19
   1   1  -9   84.81    3.64
  -1  -1   9  112.88    4.66
   1   1  -8 2500.90   24.24
   1   1  -8 2177.25   22.37
  -1  -1   8 2991.39   30.40
   1   1  -7  413.94   14.55
   1   1  -7  351.55   12.68
  -1  -1   7  511.14   18.24
   1   1  -6    2.98    0.72
   1   1  -6   17.87    4.01
   1   1  -5 4615.25   57.50
   1   1  -5 4072.05   51.69
  -1  -1   5 5578.09   70.24
   1   1  -4   26.66    3.10
   1   1  -4   23.63    1.34
  -1  -1   4   29.65    1.72
   1   1  -3 1503.17   18.79
   1   1  -3 1360.77   17.93
  -1  -1   3 1811.32   23.62
   1   1  -2  764.56   10.45
  -1  -1   2  954.92   13.16
   1   1  -1  518.03    7.24
  -1  -1   1  575.53    8.04
  -1  -1   0  126.59    4.10
   1   1   0  100.84    3.46
  -1  -1   0  113.26    3.86
  -1  -1  -1    9.80    0.64
   1   1   1   14.44    0.82
  -1  -1  -1   10.91    0.64
  -1  -1  -2 1789.99   22.82
   1   1   2 1675.87   21.24
  -1  -1  -2 1526.51   19.58
  -1  -1  -3    5.08   16.82
   1   1   3    4.82    0.75
  -1  -1  -4 4364.04   54.94
   1   1   4 4389.69   54.71
   1   1   4 3360.32   42.37
  -1  -1  -5  700.52   37.47
   1   1   5  679.78    9.43
   1   1   5  561.28    8.36
  -1  -1  -6   21.37    3.82
   1   1   6   16.83    0.96
   1   1   6   14.43    1.15
  -1  -1  -7  687.21   10.52
   1   1   7  613.50    8.71
   1   1   7  596.80    9.41
  -1  -1  -8 1629.74   17.62
   1   1   8 1592.12   15.91
   1   1   8 1723.18   18.00
  -1  -1  -9  774.52   18.07
   1   1   9  707.72   15.56
   1   1   9  813.55   18.33
  -1  -1 -10   44.40    6.36
   1   1  10   40.07    4.79
   1   1  10   47.87    2.64
  -1  -1 -11  872.23   23.19
   1   1  11  780.91   19.90
   1   1  11  859.32   23.25
  -1  -1 -12   55.12    6.54
   1   1  12   42.26    1.76
   1   1  12   53.21    3.26
  -1  -1 -13    3.07    1.01
   1   1  13    4.18    0.58
   1   1  13    0.54    1.22
  -1  -1 -14   -0.48    1.60
   1   1  14    0.32    0.91
   1   1  14   -1.29    1.15
  -1  -1 -15  393.03   11.32
   1   1  15  347.33    9.35
   1   1  15  441.21   11.86
  -1  -1 -16   15.31    3.05
   1   1  16   -0.28    1.30
  -1  -1 -17  260.82   15.31
   1   1  17  297.32   17.39
  -1  -1 -18    3.24    2.13
   1   1  18   -0.63    1.17
  -1  -1 -19   16.65    2.29
   1   1  19   26.06    2.60
  -1  -1 -20   94.58    4.95
   1   1  20  121.36    5.39
  -1  -1 -21   11.83    2.06
  -1  -2  20  101.58   10.82
   1   2 -19   66.81   12.13
  -1  -2  19  103.73    7.53
   1   2 -18  169.70    5.41
  -1  -2  18  210.49    6.03
   1   2 -17   16.61    2.54
  -1  -2  17   15.73    2.08
   1   2 -16    0.66    0.47
  -1  -2  16   -1.52    1.31
   1   2 -15  198.45    6.37
   1   2 -15  185.68    7.29
  -1  -2  15  226.46    7.50
   1   2 -14  446.23   11.55
   1   2 -14  410.66   11.65
  -1  -2  14  531.92   14.02
   1   2 -13  999.24   31.44
   1   2 -13  923.08   29.60
  -1  -2  13 1210.72   38.30
   1   2 -12  304.09    7.15
   1   2 -12  267.44    7.24
  -1  -2  12  351.40    8.82
   1   2 -11   56.01    1.98
   1   2 -11   49.66    3.00
  -1  -2  11   62.26    2.79
   1   2 -10   12.95    2.07
   1   2 -10   13.64    3.03
  -1  -2  10   16.17    1.41
   1   2  -9  172.29    6.28
   1   2  -9  141.58    5.73
  -1  -2   9  188.43    7.19
   1   2  -8 1807.73   38.12
   1   2  -8 1465.19   31.95
  -1  -2   8 1859.96   40.00
   1   2  -7  188.03    6.93
   1   2  -7  125.23    5.12
  -1  -2   7  206.20    8.01
   1   2  -6  369.45   12.90
   1   2  -6  301.91   11.25
  -1  -2   6  395.76   14.27
   1   2  -5   15.00    1.30
   1   2  -5   12.09    2.53
  -1  -2   5   15.14    2.47
   1   2  -4 5874.24   74.03
  -1  -2   4 7295.78   91.88
   1   2  -3 1404.17   17.65
   1   2  -3 1171.07   16.01
  -1  -2   3 1366.23   18.38
  -1  -2   2  341.77   10.84
   1   2  -2  285.65    9.54
  -1  -2   2  300.15   10.02
  -1  -2  -1 4611.61   57.55
   1   2   1 4272.50   53.46
  -1  -2  -1 4627.92   58.20
  -1  -2  -2 1353.56   17.72
   1   2   2 1330.64   17.15
  -1  -2  -2 1268.71   16.96
  -1  -2  -3   64.60    2.57
   1   2   3   67.45    2.39
  -1  -2  -3   64.04    2.63
  -1  -2  -4   19.38    2.80
   1   2   4   17.16    0.81
   1   2   4   16.15    2.59
  -1  -2  -5  388.80   12.93
   1   2   5  418.62   13.35
   1   2   5  325.15   10.89
  -1  -2  -6  179.54    6.44
   1   2   6  193.51    6.36
   1   2   6  163.79    5.99
  -1  -2  -7  560.30    7.67
   1   2   7  543.53    5.81
   1   2   7  529.55    7.26
  -1  -2  -8  116.99    4.94
   1   2   8  119.74    4.42
   1   2   8  123.81    5.14
  -1  -2  -9   94.76    4.38
   1   2   9   95.59    3.43
   1   2   9  103.86    4.42
  -1  -2 -10  517.62   14.43
   1   2  10  484.98   12.73
   1   2  10  533.90   14.82
  -1  -2 -11  843.94   28.23
   1   2  11  827.44   26.34
   1   2  11  995.59   32.30
  -1  -2 -12 2633.88   44.18
   1   2  12 2878.94   64.44
  -1  -2 -13  930.15   27.79
   1   2  13 1032.67   24.79
  -1  -2 -14    3.30    1.84
   1   2  14   -0.33    1.26
  -1  -2 -15  287.61   15.61
   1   2  15  329.86   17.47
  -1  -2 -16    1.66    1.86
   1   2  16    0.69    1.44
  -1  -2 -17    1.79    1.63
   1   2  17    1.93    1.37
  -1  -2 -18    6.57    1.84
   1   2  18   -0.35    1.34
  -1  -2 -19  171.59    5.88
   1   2  19  201.96    8.19
  -1  -2 -20    1.45    1.82
   1   2  20   -0.68    1.34
  -1  -2 -21    5.76    4.02
   1   2  21    1.61    1.54
   1   3 -19    6.94    2.22
  -1  -3  19    5.79    1.95
   1   3 -18   17.38    3.41
  -1  -3  18   19.83    3.26
   1   3 -17    3.28    2.30
  -1  -3  17    5.45    3.97
   1   3 -16   34.50    4.33
  -1  -3  16   35.97    2.95
   1   3 -15    0.88    0.58
  -1  -3  15   -0.04    0.68
   1   3 -14   88.76    4.39
  -1  -3  14   99.35    4.44
   1   3 -13   68.62    4.08
  -1  -3  13   77.32    4.05
   1   3 -12    0.84    0.77
   1   3 -12    0.40    0.86
  -1  -3  12    2.49    1.25
   1   3 -11   20.57    2.68
   1   3 -11   17.57    3.05
  -1  -3  11   25.06    3.78
   1   3 -10  278.95   11.95
   1   3 -10  223.22   10.33
  -1  -3  10  277.96   12.43
   1   3  -9 1140.12   36.19
   1   3  -9  962.23   31.35
  -1  -3   9 1154.46   37.26
   1   3  -8  417.91   10.79
   1   3  -8  323.99   10.51
  -1  -3   8  421.64   11.80
   1   3  -7 1011.29   21.58
   1   3  -7  781.45   18.07
  -1  -3   7  943.42   21.07
   1   3  -6    1.10    0.41
   1   3  -6   -3.56    1.47
  -1  -3   6   -0.28    0.77
   1   3  -5  661.81    7.03
   1   3  -5  511.58    9.28
  -1  -3   5  593.63    7.96
   1   3  -4 1073.72   10.74
   1   3  -4  888.18   11.88
  -1  -3   4 1011.53   11.83
   1   3  -3  637.09    6.76
   1   3  -3  594.76    7.83
  -1  -3   3  617.97    8.77
  -1  -3   2  711.14    9.70
   1   3  -2  619.73    9.92
  -1  -3   2  672.40   10.38
  -1  -3   1 3696.55   46.43
   1   3  -1 3230.08   42.79
  -1  -3   1 3567.15   45.87
  -1  -3   0  912.96   12.37
   1   3   0  847.87   12.43
  -1  -3   0  886.05   12.95
  -1  -3  -1    1.34    0.43
   1   3   1    0.43    0.34
  -1  -3  -1    3.66    0.98
  -1  -3  -2  473.58    7.28
   1   3   2  435.02    6.44
  -1  -3  -2  480.11    8.14
  -1  -3  -3 2373.78   30.95
   1   3   3 2264.53   28.81
  -1  -3  -3 2405.84   31.72
  -1  -3  -4  146.03    5.80
   1   3   4  138.75    5.02
   1   3   4  107.60    4.46
  -1  -3  -5  867.87   10.52
   1   3   5  961.11    9.36
   1   3   5  775.36    9.81
  -1  -3  -6 1695.18   18.30
   1   3   6 1775.22   16.33
   1   3   6 1455.35   16.04
  -1  -3  -7  357.58    9.03
   1   3   7  328.86    8.50
  -1  -3  -8    2.24    1.20
   1   3   8    2.78    0.63
  -1  -3  -9   60.39    4.79
   1   3   9   71.96    5.50
  -1  -3 -10  768.26   25.43
   1   3  10  793.58   26.10
  -1  -3 -11    1.93    1.88
   1   3  11    0.60    1.30
  -1  -3 -12  393.76   10.20
   1   3  12  382.55    9.55
  -1  -3 -13   23.47    2.81
   1   3  13   34.21    3.69
  -1  -3 -14   -1.92    1.57
   1   3  14   -1.30    1.19
  -1  -3 -15    4.57    1.73
   1   3  15    2.49    1.91
  -1  -3 -16   58.17    9.80
   1   3  16   71.53    3.75
  -1  -3 -17   14.91    2.51
   1   3  17   12.54    2.14
  -1  -3 -18   13.60    1.96
   1   3  18    1.66    1.83
  -1  -3 -19   -0.58    1.65
   1   3  19    1.23    1.40
  -1  -3 -20   11.84    2.84
   1   3  20    0.79    1.52
  -1  -3 -21   13.01    2.32
   1   3  21    2.74    2.10
   1   4 -19    5.58    3.53
   1   4 -18   85.83   11.80
   1   4 -17   40.52   24.26
  -1  -4  17   34.20    2.50
   1   4 -16   60.77    7.64
  -1  -4  16   54.53    4.21
   1   4 -15   11.83    1.83
  -1  -4  15   11.77    1.54
   1   4 -14   96.07    8.14
  -1  -4  14   95.81    6.25
   1   4 -13  300.30   10.57
  -1  -4  13  312.92    9.56
   1   4 -12  964.51   50.80
  -1  -4  12 1013.57   51.14
   1   4 -11  800.07   26.27
  -1  -4  11  783.06   25.56
   1   4 -10   71.50    9.61
  -1  -4  10   82.55    7.45
   1   4  -9  131.59    6.63
  -1  -4   9  145.54    7.11
   1   4  -8   39.04    1.36
   1   4  -8   32.05    5.54
  -1  -4   8   32.73    2.10
   1   4  -7  459.64   14.89
   1   4  -7  367.20   14.53
  -1  -4   7  388.03   13.35
   1   4  -6  123.03    4.48
   1   4  -6   87.93    4.76
  -1  -4   6  104.91    4.54
   1   4  -5  411.12   10.66
   1   4  -5  323.94    5.18
  -1  -4   5  382.98   10.87
   1   4  -4 1698.22   35.93
   1   4  -4 1479.92   33.63
  -1  -4   4 1570.95   34.01
  -1  -4   3  540.07   11.93
   1   4  -3  435.27   10.96
  -1  -4   3  482.36   11.57
  -1  -4   2  638.73   14.28
   1   4  -2  568.22   13.19
  -1  -4   2  542.62   12.69
  -1  -4   1 2532.64   24.58
   1   4  -1 2251.98   22.79
  -1  -4   1 2331.03   24.48
  -1  -4   0 3193.38   30.55
   1   4   0 2922.85   28.48
  -1  -4   0 3048.93   30.44
  -1  -4  -1 8528.81  267.62
   1   4   1 7857.11   72.13
  -1  -4  -1 8528.18   79.42
  -1  -4  -2 1009.67   11.64
   1   4   2  896.87   10.76
  -1  -4  -2 1079.06   13.12
  -1  -4  -3 2377.72   24.03
   1   4   3 2296.37   22.13
  -1  -4  -3 2435.45   27.93
  -1  -4  -4   15.67    1.28
   1   4   4   17.85    2.22
   1   4   4   12.90    2.31
  -1  -4  -5   42.91    2.55
   1   4   5   40.57    1.61
   1   4   5   41.03    6.87
  -1  -4  -6    6.64    1.09
   1   4   6    6.07    0.94
  -1  -4  -7    0.68    1.08
   1   4   7    1.39    0.78
  -1  -4  -8  156.14    6.59
   1   4   8  159.02    7.39
  -1  -4  -9  227.28    9.09
   1   4   9  247.07    9.95
  -1  -4 -10   59.91    3.86
   1   4  10   67.36   12.01
  -1  -4 -11  726.65   16.72
   1   4  11  736.64   16.27
  -1  -4 -12  144.26    7.01
   1   4  12  194.94    7.79
  -1  -4 -13  671.53   18.08
   1   4  13  663.18   17.20
  -1  -4 -14  448.64   12.92
   1   4  14  503.51   14.39
  -1  -4 -15   50.60    3.79
   1   4  15   88.00    6.32
  -1  -4 -16  277.71   10.39
   1   4  16  338.34   11.59
  -1  -4 -17   -0.76    1.85
   1   4  17    1.68    2.05
  -1  -4 -18    5.16    4.03
   1   4  18    0.38    1.64
  -1  -4 -19    7.13    2.22
   1   4  19   -0.61    1.80
  -1  -4 -20    7.31    4.55
   1   4  20   -1.87    1.53
   1   4  21    1.72    1.85
   1   5 -19   14.46    3.93
   1   5 -18    0.84    0.77
   1   5 -17    9.64    1.95
   1   5 -16   88.77   16.36
  -1  -5  16   85.85    4.28
   1   5 -15   13.43    2.40
  -1  -5  15    7.20    1.53
   1   5 -14   49.57    7.21
  -1  -5  14   48.69    4.12
   1   5 -13    0.76    0.61
  -1  -5  13    1.56    1.07
   1   5 -12   58.68    9.29
  -1  -5  12   52.98    2.99
   1   5 -11   14.59    2.57
  -1  -5  11   17.11    4.02
   1   5 -10   22.32    4.53
  -1  -5  10   16.65    1.88
   1   5  -9   37.13    7.57
  -1  -5   9   35.51    2.91
   1   5  -8  698.38   22.96
  -1  -5   8  688.18   23.38
   1   5  -7    8.87    2.24
  -1  -5   7   19.03    1.97
   1   5  -6  305.33   12.97
   1   5  -6  256.80   11.68
  -1  -5   6  256.91   11.60
   1   5  -5  241.25    8.71
   1   5  -5  198.60    7.94
  -1  -5   5  217.28    8.55
   1   5  -4  142.84    5.81
   1   5  -4  125.67    5.44
  -1  -5   4  155.92   12.95
  -1  -5   3  298.31   10.32
   1   5  -3  245.18    9.19
  -1  -5   3  255.09    9.48
  -1  -5   2  183.08    6.68
   1   5  -2  157.23    6.48
  -1  -5   2  157.41    6.29
  -1  -5   1   38.73    3.05
   1   5  -1   35.94    6.56
  -1  -5   1   42.99    5.46
  -1  -5   0  208.58    7.57
   1   5   0  198.59    7.33
  -1  -5   0  200.26    7.68
  -1  -5  -1    8.79    1.34
   1   5   1    7.13    1.41
  -1  -5  -1    9.12    2.23
  -1  -5  -2    6.39    1.01
   1   5   2    6.62    1.17
  -1  -5  -2    7.97    1.35
  -1  -5  -3   78.21    5.92
   1   5   3   78.76    3.22
  -1  -5  -3   90.61   10.73
  -1  -5  -4  569.96   15.36
   1   5   4  557.02   14.26
   1   5   4  529.77   14.56
  -1  -5  -5  621.84   20.74
   1   5   5  541.96   18.35
  -1  -5  -6   35.88    2.11
   1   5   6   43.96    7.94
  -1  -5  -7  350.41   15.68
   1   5   7  349.45    8.05
  -1  -5  -8    8.11    1.60
   1   5   8   -0.18    1.15
  -1  -5  -9   35.02    3.08
   1   5   9   41.01    6.36
  -1  -5 -10   54.69    2.83
   1   5  10   69.64   11.45
  -1  -5 -11  179.74    6.48
   1   5  11  186.97    6.91
  -1  -5 -12   -1.31    1.80
   1   5  12   -0.25    1.43
  -1  -5 -13   15.76    2.55
   1   5  13   -1.17    1.45
  -1  -5 -14    3.69    1.93
   1   5  14   -0.43    1.71
   1   5  15   56.37    3.31
  -1  -5 -16    0.27    1.87
   1   5  16    4.46    3.11
   1   5  17    1.25    1.81
  -1  -5 -18   16.73    3.72
   1   5  18   -0.70    1.38
  -1  -5 -19   10.71    2.45
   1   5  19   -0.98    1.47
  -1  -5 -20    2.48    2.39
   1   5  20   -0.06    1.48
   1   6 -18   11.80    3.58
   1   6 -17    7.96    1.45
   1   6 -16   17.46    4.68
   1   6 -15  104.33   16.55
   1   6 -14   -1.32    1.42
  -1  -6  14    1.75    1.22
   1   6 -13  103.44    9.76
  -1  -6  13   85.05   14.32
   1   6 -12  243.37   24.92
  -1  -6  12  216.45   12.76
   1   6 -11  529.92   17.74
  -1  -6  11  515.80   16.87
   1   6 -10  198.18   12.08
  -1  -6  10  189.93   11.35
   1   6  -9    5.72    1.88
  -1  -6   9    4.13    1.26
   1   6  -8    2.14    1.08
  -1  -6   8    3.05    1.64
   1   6  -7  140.19    5.28
  -1  -6   7  138.20    5.11
   1   6  -6  216.16    7.00
  -1  -6   6  211.53    6.71
   1   6  -5    2.69    0.73
   1   6  -5    1.74    0.89
  -1  -6   5    4.14    1.19
   1   6  -4  176.70   10.21
   1   6  -4  166.57    9.91
  -1  -6   4  174.95   10.39
  -1  -6   3  188.98   10.73
   1   6  -3  161.12    9.59
  -1  -6   3  153.26    9.21
  -1  -6   2  343.71    8.04
   1   6  -2  288.31    7.65
  -1  -6   2  312.00    8.19
  -1  -6   1    2.17    0.78
   1   6  -1    0.82    0.74
  -1  -6   1    5.29    1.16
  -1  -6   0  956.14   17.30
   1   6   0  837.47   17.62
  -1  -6   0  923.54   17.47
  -1  -6  -1  648.76   12.36
   1   6   1  574.87   11.19
  -1  -6  -1  634.08   12.85
  -1  -6  -2 1049.45   18.68
   1   6   2  955.79   16.67
  -1  -6  -2 1085.35   20.25
   1   6   3    1.31    0.60
  -1  -6  -4  104.14    6.52
   1   6   4   98.72    6.39
  -1  -6  -5  498.68   11.70
   1   6   5  442.15   13.24
  -1  -6  -6    1.77    1.25
   1   6   6    1.31    0.61
  -1  -6  -7   -0.13    1.26
   1   6   7    0.26    0.68
  -1  -6  -8    2.99    1.03
   1   6   8    2.38    0.93
  -1  -6  -9  100.27    3.94
   1   6   9   93.29   14.17
  -1  -6 -10  127.52    5.31
   1   6  10  129.56    5.44
  -1  -6 -11   12.66    2.02
   1   6  11   10.54    3.12
  -1  -6 -12   -3.08    1.64
   1   6  12    0.63    1.56
  -1  -6 -13  120.95    5.86
   1   6  14   25.95    2.80
   1   6  15   -1.19    1.64
   1   6  16    0.23    1.74
   1   6  17   -0.57    1.81
  -1  -6 -18    3.14    3.23
   1   6  18    1.73    1.93
  -1  -6 -19    8.49    2.33
   1   6  19    0.58    1.63
  -1  -6 -20   28.57    3.45
   1   7 -16   24.26    5.95
   1   7 -15   35.00    5.06
   1   7 -14   10.13    6.00
   1   7 -13    1.76    1.45
   1   7 -12    8.83    5.63
   1   7 -11  179.60    6.49
  -1  -7  11  158.48    5.27
   1   7 -10   24.34    4.20
  -1  -7  10   24.06    3.52
   1   7  -9   13.51    3.04
  -1  -7   9   11.20    1.46
   1   7  -8  363.38   12.97
  -1  -7   8  355.47   12.42
   1   7  -7  216.46   12.83
  -1  -7   7  227.26   13.26
   1   7  -6   85.07    6.97
  -1  -7   6  101.78   10.99
   1   7  -5   61.25    9.22
  -1  -7   5   54.76    6.87
   1   7  -4    1.43    1.00
  -1  -7   4    5.69    1.28
   1   7  -3  110.32    9.42
  -1  -7   3  109.42    3.89
  -1  -7   2    8.67    1.63
   1   7  -2    5.90    1.23
  -1  -7   2    8.28    1.67
  -1  -7   1  413.30   10.75
   1   7  -1  370.28   10.20
  -1  -7   1  359.78   11.57
  -1  -7   0   43.88    2.38
   1   7   0   42.14    4.86
  -1  -7   0   50.59    8.94
  -1  -7  -1   37.20    8.16
   1   7   1   37.72    5.24
  -1  -7  -1   43.38    6.42
  -1  -7  -2   98.78   10.56
   1   7   2   91.58    4.62
  -1  -7  -2  122.97    9.83
  -1  -7  -3    9.31    1.41
   1   7   3   12.65    2.26
  -1  -7  -4  427.96   22.29
   1   7   4  377.88   19.95
  -1  -7  -5  431.06   22.50
   1   7   5  398.27   20.92
  -1  -7  -6   77.33    6.44
   1   7   6   65.94    9.64
  -1  -7  -7   16.84    2.58
   1   7   7   18.03    3.45
  -1  -7  -8   12.59    2.17
   1   7   8   13.87    3.09
  -1  -7  -9  245.35    9.46
   1   7   9  239.86    9.37
  -1  -7 -10  129.72    6.79
  -1  -7 -11   19.36    2.32
   1   7  11   27.03    4.85
  -1  -7 -12   12.40    2.00
   1   7  12    0.81    1.64
  -1  -7 -13    9.01    2.18
   1   7  13    0.99    1.80
  -1  -7 -14    3.68    2.80
   1   7  14   -2.45    1.66
   1   7  15   -3.11    1.67
  -1  -7 -16    2.77    2.21
   1   7  16   -1.30    1.60
   1   7  17   -0.18    1.70
  -1  -7 -18   13.10    2.51
   1   7  18    0.54    1.88
   1   8 -13    1.78    1.38
   1   8 -12    2.73    1.86
   1   8 -11  115.59   13.44
   1   8 -10   55.73   10.31
   1   8  -9   19.17    4.05
  -1  -8   9   23.21    2.52
   1   8  -8   38.57    6.64
  -1  -8   8   32.08    4.62
   1   8  -7    1.32    1.24
  -1  -8   7    0.80    1.15
   1   8  -6   33.51    6.77
  -1  -8   6   28.08    5.65
   1   8  -5   26.20    4.50
  -1  -8   5   21.51    3.09
   1   8  -4  118.57    5.33
  -1  -8   4  100.01   12.56
   1   8  -3   31.44    5.73
  -1  -8   3   29.39    5.74
   1   8  -2   14.88    3.22
  -1  -8   2   14.70    2.45
  -1  -8   1  224.69    8.00
   1   8  -1  201.09    7.48
  -1  -8   1  221.08   14.36
  -1  -8   0   37.95    5.61
   1   8   0   29.26    6.77
  -1  -8   0   44.79    7.07
  -1  -8  -1   -0.15    0.94
  -1  -8  -2  131.48    5.61
   1   8   2  110.14   16.14
  -1  -8  -3  373.85   13.42
   1   8   3  321.40   11.97
  -1  -8  -4  107.48    5.02
   1   8   4   93.44   14.90
  -1  -8  -5   36.69    2.66
   1   8   5   35.26    6.54
  -1  -8  -6    4.32    1.99
   1   8   6    3.99    1.88
  -1  -8  -7   29.60    3.00
   1   8   7   23.99    3.32
  -1  -8  -8    8.42    1.74
   1   8   8    1.84    1.41
  -1  -8  -9    2.42    1.92
   1   8   9    0.76    1.12
  -1  -8 -11    2.96    2.93
   1   8  11    2.35    0.94
  -1  -8 -12   27.73    3.17
   1   8  12    5.88    2.65
   1   8  13    2.18    2.13
   1   8  14   -1.60    2.17
  -1  -8 -15   -0.60    2.01
   1   8  15    2.74    2.49
  -1  -8 -16    2.43    2.53
   1   8  16   -0.47    1.58
   1   8  17    0.97    1.86
   1   9 -10   -0.01    1.68
   1   9  -9   54.73   11.53
   1   9  -8    9.40    5.76
   1   9  -7  508.62  306.29
   1   9  -6   25.97    5.39
   1   9  -5   63.48   14.73
  -1  -9   5   73.74    9.54
   1   9  -4    4.96    3.41
  -1  -9   4    5.90    3.67
   1   9  -3    5.86    3.64
  -1  -9   3    5.88    3.82
  -1  -9   2   20.21    3.06
  -1  -9   1   13.75    2.93
   1   9   0   -0.24    0.89
   1   9   1   46.77    6.15
   1   9   2    2.02    1.04
  -1  -9  -3    7.33    4.62
   1   9   3    5.15    3.63
  -1  -9  -4    5.00    3.17
   1   9   4    1.24    0.86
  -1  -9  -5   71.80   11.28
   1   9   7    1.02    1.09
  -1  -9  -8   16.28    3.40
   1   9   8   -3.86    1.40
  -1  -9  -9   14.06    2.20
   1   9   9    0.86    0.96
  -1  -9 -10   -1.21    1.43
   1   9  10    0.85    1.01
  -1  -9 -11    0.48    1.42
   1   9  11    1.67    1.27
  -1  -9 -12   13.40    2.52
   1   9  12    0.82    1.68
   1   9  13   -2.90    1.63
   1   9  14    3.11    2.99
   1  10  -1    0.47    1.03
   1  10   2    2.20    1.22
   1  10   4    3.95    2.46
   1  10   5    2.87    1.89
   1  10   6    0.87    0.82
   1  10   7    1.69    1.36
   1  10   8    2.00    1.54
   1  10   9    1.88    1.61
   1  10  10    3.57    2.51
   2  -9 -10    2.90    2.71
   2  -9  -9    4.36    3.41
   2  -9  -8   99.20    5.67
   2  -9  -7   30.15    5.18
   2  -9  -6  128.11    9.01
   2  -9  -5   12.69    7.42
   2  -9  -4    1.75    1.84
   2  -9  -3   40.12    3.77
   2  -9  -1    1.12    1.45
  -2   9  -1   54.56   10.39
  -2   9  -2   -1.21    1.30
   2  -8 -13    2.83    2.10
  -2   8  13    1.96    2.07
   2  -8 -12    3.42    2.55
  -2   8  12    0.07    1.53
   2  -8 -11   -0.96    1.86
  -2   8  11   -0.03    1.44
   2  -8 -10   20.73    3.54
  -2   8  10    3.07    2.20
   2  -8  -9    7.66    1.79
  -2   8   9    0.52    1.51
   2  -8  -8    0.39    0.95
  -2   8   8    2.09    1.90
   2  -8  -7   57.81    4.22
  -2   8   7   56.87    3.80
   2  -8  -6    2.72    1.09
  -2   8   6    0.13    1.17
   2  -8  -5   12.09    2.96
  -2   8   5   10.27    1.88
   2  -8  -4    0.88    1.44
  -2   8   4   -0.70    1.03
   2  -8  -3   10.07    2.11
  -2   8   3    7.30    1.99
   2  -8  -2   13.62    2.29
  -2   8   2   12.42    2.40
   2  -8  -1   57.53    9.47
   2  -8   0    3.02    2.91
  -2   8  -2   28.76    4.65
   2  -8   2   23.05    2.60
  -2   8  -3    2.84    3.16
   2  -8   3    4.48    2.32
  -2   8  -4   11.94    2.26
   2  -8   4    9.21    1.20
  -2   8  -5   76.10    9.70
   2  -8   5   57.09   11.62
  -2   8  -6    4.78    3.08
   2  -8   6    3.99    2.75
   2  -8   7   56.48    7.53
   2  -8   8   28.60    3.46
   2  -8   9   15.44    2.68
   2  -8  10    7.32    4.75
   2  -8  11   17.37    3.76
   2  -8  12   12.92    3.50
   2  -8  13   32.82    8.19
   2  -7 -16    3.58    3.38
  -2   7  16    0.11    1.77
   2  -7 -15    3.96    3.12
  -2   7  15    1.61    2.00
   2  -7 -14    4.61    3.34
  -2   7  14    1.31    1.85
   2  -7 -13   51.25    4.95
   2  -7 -12   10.80    2.60
  -2   7  12    4.23    3.00
   2  -7 -11    7.69    5.08
  -2   7  11   11.55    7.35
   2  -7 -10    5.54    3.23
  -2   7  10    5.28    2.84
   2  -7  -9   -0.20    1.63
  -2   7   9    1.85    1.10
   2  -7  -8  114.18    7.80
  -2   7   8  116.50    7.49
   2  -7  -7  114.70    5.98
  -2   7   7  109.23    5.37
   2  -7  -6 1050.99   30.97
  -2   7   6 1055.09  709.13
   2  -7  -5   70.34   23.31
  -2   7   5   82.29    4.43
   2  -7  -4    2.86    1.48
  -2   7   4    1.35    1.16
   2  -7  -3  118.00    7.83
  -2   7   3  102.86    6.59
   2  -7  -2  533.40   29.98
  -2   7   2  477.95   26.39
   2  -7  -1    2.79    1.08
   2  -7  -1    0.83    0.85
  -2   7   1    1.52    0.76
   2  -7   0    1.07    1.36
   2  -7   0    1.73    0.95
  -2   7   0    0.56    0.53
   2  -7   1  130.41    8.33
   2  -7   1  105.73    8.35
  -2   7  -1   94.94   13.67
  -2   7  -2   29.70    4.21
   2  -7   2   23.82    3.31
  -2   7  -2   24.65    5.03
  -2   7  -3  145.20   18.75
   2  -7   3  124.32    7.78
  -2   7  -4  194.80    7.72
   2  -7   4  159.28    7.24
  -2   7  -5  368.19   15.63
   2  -7   5  316.29   11.03
  -2   7  -6  619.78   20.29
   2  -7   6  563.13   17.60
  -2   7  -7  245.96    9.24
   2  -7   7  226.60   22.52
  -2   7  -8   22.90    4.42
   2  -7   8   20.72    2.48
  -2   7  -9    2.87    1.43
   2  -7   9    0.96    1.05
   2  -7  10  148.93    6.49
   2  -7  11    2.96    1.22
   2  -7  12    2.17    1.46
   2  -7  13   43.48    3.53
   2  -7  14   88.50    6.75
   2  -7  15   71.00    4.52
   2  -7  16    2.08    1.68
  -2   6  18    0.71    2.00
   2  -6 -17    3.01    2.50
  -2   6  17    3.41    2.81
   2  -6 -16    3.86    3.19
  -2   6  16    0.95    1.94
   2  -6 -15    5.68    3.75
  -2   6  15   -0.57    1.79
   2  -6 -14   25.06    4.75
  -2   6  14   24.01    4.60
   2  -6 -13    3.06    2.60
  -2   6  13    2.01    2.46
   2  -6 -12   11.41    2.36
  -2   6  12   16.48    3.39
   2  -6 -11    3.33    2.72
  -2   6  11    1.71    1.92
   2  -6 -10    5.11    2.48
  -2   6  10    2.34    1.70
   2  -6  -9  130.64    6.55
  -2   6   9  133.49    6.05
   2  -6  -8   24.94    2.63
  -2   6   8   31.90    2.53
   2  -6  -7   85.37    4.61
  -2   6   7   99.74    4.65
   2  -6  -6    8.71    1.65
  -2   6   6   13.81    2.42
   2  -6  -5   15.31    2.24
  -2   6   5   15.51    2.09
   2  -6  -4    2.78    1.48
  -2   6   4    0.79    1.13
   2  -6  -3   57.69    6.33
   2  -6  -3   38.52    5.71
  -2   6   3   44.74    8.99
   2  -6  -2 1134.96   27.60
   2  -6  -2  953.96   22.26
  -2   6   2 1004.98   26.60
   2  -6  -1  139.48    9.01
   2  -6  -1  103.29    3.00
  -2   6   1  105.94    4.79
   2  -6   0  170.05    4.91
   2  -6   0  127.01    3.36
  -2   6   0  170.88    6.56
   2  -6   1  600.80   15.85
   2  -6   1  457.86   11.79
  -2   6  -1  504.84   12.79
   2  -6   2  718.74   17.61
  -2   6  -2  710.26   17.43
  -2   6  -3   79.42    3.36
   2  -6   3   69.69    6.21
  -2   6  -3   60.80    6.23
  -2   6  -4   22.65    2.93
   2  -6   4   17.48    1.97
  -2   6  -4   13.11    2.34
  -2   6  -5  341.99   18.13
   2  -6   5  299.80   16.06
  -2   6  -6   41.13    5.47
   2  -6   6   36.76    6.46
  -2   6  -7  105.90   12.11
   2  -6   7  115.52    9.68
  -2   6  -8   25.02    3.35
   2  -6   8   22.87    2.97
  -2   6  -9  110.10   13.06
   2  -6   9  113.68    5.80
  -2   6 -10   88.42   13.96
   2  -6  10   91.12    8.57
  -2   6 -11    0.66    0.75
   2  -6  11    1.19    1.11
  -2   6 -12   20.05    4.78
   2  -6  12   26.34    4.18
   2  -6  13   17.67    2.68
   2  -6  14    1.56    1.40
   2  -6  15   17.27    2.60
   2  -6  16   27.68    3.02
   2  -6  17    8.38    1.56
  -2   5  19    4.39    3.36
   2  -5 -18  191.66    7.69
   2  -5 -17   20.31    3.25
  -2   5  17    2.63    2.46
   2  -5 -16   62.55    4.73
  -2   5  16   84.53    6.00
   2  -5 -15   11.80    7.21
  -2   5  15    8.51    5.63
   2  -5 -14    2.34    1.87
  -2   5  14    0.09    1.76
   2  -5 -13    6.54    1.94
  -2   5  13    7.52    1.88
   2  -5 -12    2.70    1.52
  -2   5  12   -1.13    1.65
   2  -5 -11    4.19    2.16
  -2   5  11   -1.57    1.59
   2  -5 -10    4.68    1.71
  -2   5  10   13.29    2.51
   2  -5  -9   38.14    3.16
  -2   5   9   40.61    3.00
   2  -5  -8   24.01    2.40
  -2   5   8   25.28    2.53
   2  -5  -7  277.09   10.55
  -2   5   7  301.10   10.89
   2  -5  -6  349.93   12.76
  -2   5   6  362.02   12.63
   2  -5  -5  394.42   10.39
  -2   5   5  399.96    9.71
   2  -5  -4  424.11   10.72
   2  -5  -4  367.59    8.02
  -2   5   4  437.30   10.21
   2  -5  -3  114.46   14.31
   2  -5  -3   77.20    3.78
  -2   5   3  107.34    5.48
   2  -5  -2  430.62    9.67
   2  -5  -2  360.08    7.28
  -2   5   2  404.28    8.91
   2  -5  -1   94.23    5.19
   2  -5  -1   72.60    3.88
  -2   5   1   88.65    5.58
   2  -5   0   56.09    7.73
   2  -5   0   36.39    1.72
  -2   5   0   49.55    6.07
   2  -5   1  156.71    8.23
   2  -5   1  136.47    6.50
  -2   5  -1  140.64    6.80
   2  -5   2  282.58   12.82
   2  -5   2  216.96   10.14
  -2   5  -2  224.25    9.93
  -2   5  -3 1961.56   37.51
   2  -5   3 1914.57   32.35
  -2   5  -3 1748.82   28.79
  -2   5  -4  299.02   14.32
   2  -5   4  253.00   12.87
  -2   5  -4  263.39   11.39
  -2   5  -5 2397.63   47.45
   2  -5   5 2260.71   44.59
  -2   5  -6  168.45   10.62
   2  -5   6  139.83   10.77
  -2   5  -7  980.15   31.50
   2  -5   7  892.99   29.02
  -2   5  -8  143.65    4.19
   2  -5   8  130.51    5.89
  -2   5  -9   61.07    8.62
   2  -5   9   58.36    6.76
  -2   5 -10  370.20   10.81
   2  -5  10  315.36   11.44
  -2   5 -11   66.44    8.58
   2  -5  11   73.34   13.11
  -2   5 -12    3.79    1.26
   2  -5  12    5.80    1.45
  -2   5 -13   49.65    7.99
   2  -5  13   55.03    5.54
  -2   5 -14   39.50    3.61
   2  -5  14   36.92    7.34
   2  -5  15  358.11   14.25
   2  -5  16  112.16   16.38
   2  -5  17    9.42    5.83
   2  -5  18   38.49    8.70
   2  -5  19   16.43    3.24
  -2   4  20    0.32    1.74
  -2   4  19   13.99    3.26
   2  -4 -18  123.67    8.43
  -2   4  18  171.85   11.97
   2  -4 -17   39.71    4.10
  -2   4  17   39.30    3.65
   2  -4 -16    2.06    1.98
  -2   4  16   -3.14    2.06
   2  -4 -15   95.45    6.78
  -2   4  15  143.85    9.79
   2  -4 -14  588.20   18.50
  -2   4  14  709.08   25.58
   2  -4 -13    6.49    2.20
  -2   4  13   12.42    3.35
   2  -4 -12   31.19    2.86
  -2   4  12   32.34    2.85
   2  -4 -11   50.26    3.13
  -2   4  11   67.94    3.72
   2  -4 -10    3.81    1.17
  -2   4  10    6.25    1.84
   2  -4  -9   46.55    2.76
  -2   4   9   64.24    3.40
   2  -4  -8  118.18    7.49
  -2   4   8  137.36    8.54
   2  -4  -7  111.85    5.96
  -2   4   7  140.62    7.06
   2  -4  -6  310.04   11.35
  -2   4   6  401.42   13.98
   2  -4  -5  130.88    5.79
   2  -4  -5  110.00    4.17
  -2   4   5  143.75    6.08
   2  -4  -4   18.71    2.22
   2  -4  -4   16.77    2.98
  -2   4   4   24.93    2.61
   2  -4  -3  150.56    6.22
   2  -4  -3  131.62    4.98
  -2   4   3  157.43    6.18
   2  -4  -2  100.52    4.57
   2  -4  -2   90.73    3.93
  -2   4   2   95.05    4.99
   2  -4  -1 1749.72   44.06
   2  -4  -1 1658.70   41.37
  -2   4   1 1658.71   41.23
   2  -4   0   20.91    2.26
   2  -4   0   21.63    3.05
  -2   4   0   15.98    3.71
   2  -4   1   42.08    5.93
   2  -4   1   36.86    4.10
  -2   4  -1   28.75    4.05
   2  -4   2  492.07   13.53
   2  -4   2  442.24   12.22
  -2   4  -2  381.75   10.27
  -2   4  -3   26.72    4.32
   2  -4   3   22.11    2.37
  -2   4  -3   18.31    2.35
  -2   4  -4   91.19   10.05
   2  -4   4   79.06    6.05
  -2   4  -4   66.07    4.75
  -2   4  -5  252.39    9.68
   2  -4   5  236.25    9.23
   2  -4   5  209.43    7.62
  -2   4  -6   36.63    5.36
   2  -4   6   35.11    2.52
   2  -4   6   25.85    1.32
  -2   4  -7 1764.41   30.26
   2  -4   7 1588.71   30.43
  -2   4  -8    5.86    1.50
   2  -4   8    0.49    0.81
  -2   4  -9 2305.18   45.91
   2  -4   9 2006.43   40.28
  -2   4 -10   17.17    2.93
   2  -4  10    5.86    1.25
  -2   4 -11  956.02   23.34
   2  -4  11  820.48   20.84
  -2   4 -12   19.14    4.27
   2  -4  12   22.31    3.16
  -2   4 -13   21.41    3.33
   2  -4  13   18.66    3.46
  -2   4 -14  358.98   12.95
   2  -4  14  317.82   11.83
  -2   4 -15    0.73    0.80
   2  -4  15   -2.01    1.81
  -2   4 -16  223.27    6.18
   2  -4  16  200.33   17.89
   2  -4  17   46.34    7.10
   2  -4  18   29.85   13.75
   2  -4  19   67.42   13.24
  -2   3  21    0.65    1.94
  -2   3  20    5.37    3.77
  -2   3  19    2.11    2.78
   2  -3 -18   73.43    4.98
  -2   3  18   95.98    6.26
   2  -3 -17   30.98    2.70
  -2   3  17   48.36    3.82
   2  -3 -16   33.00    3.27
  -2   3  16   48.86    5.10
   2  -3 -15   -0.18    1.56
  -2   3  15    2.39    2.16
   2  -3 -14  144.78    9.15
  -2   3  14  202.80   12.39
   2  -3 -13  446.26   23.49
  -2   3  13  562.51   29.99
   2  -3 -12   -0.01    3.98
  -2   3  12    6.87    1.82
   2  -3 -11  293.32   10.80
  -2   3  11  360.86   13.09
   2  -3 -10 1002.33   21.74
  -2   3  10 1188.40   26.31
   2  -3  -9  287.46   13.05
  -2   3   9  341.95   15.40
   2  -3  -8   74.16    3.90
  -2   3   8   83.85    4.44
   2  -3  -7    3.32    1.56
   2  -3  -7    3.25    0.58
  -2   3   7    4.66    1.15
   2  -3  -6  191.25    7.40
   2  -3  -6  194.62    6.99
  -2   3   6  225.97    8.50
   2  -3  -5   68.67    3.36
   2  -3  -5   71.64    2.84
  -2   3   5   79.92    3.73
   2  -3  -4   18.85    2.04
   2  -3  -4   12.60    0.91
  -2   3   4   13.78    1.41
   2  -3  -3 1770.93   38.45
   2  -3  -3 1736.49   36.76
  -2   3   3 1849.67   39.45
   2  -3  -2    5.41    0.73
   2  -3  -2    9.13    1.88
  -2   3   2    6.84    0.81
   2  -3  -1  582.32    8.17
   2  -3  -1  566.78    8.07
  -2   3   1  574.32    7.13
   2  -3   0   34.12    2.10
   2  -3   0   33.02    1.80
  -2   3   0   36.24    1.81
   2  -3   1  452.77   16.36
   2  -3   1  409.86   14.73
  -2   3  -1  390.40   13.74
  -2   3  -2  154.38    6.38
   2  -3   2  166.81    6.55
  -2   3  -2  137.33    5.13
  -2   3  -3   22.87    3.17
   2  -3   3   26.31    3.71
  -2   3  -3   17.38    2.39
  -2   3  -4 3466.36   73.30
   2  -3   4 3432.51   72.57
  -2   3  -4 2768.54   57.68
  -2   3  -5   93.91    5.10
   2  -3   5   91.34    4.18
   2  -3   5   78.08    2.82
  -2   3  -6  157.77    6.24
   2  -3   6  142.90    5.94
   2  -3   6  117.71    4.20
  -2   3  -7  548.72   14.87
   2  -3   7  502.62   13.96
   2  -3   7  401.76   10.25
  -2   3  -8    3.21    0.75
   2  -3   8    3.57    0.89
   2  -3   8    1.20    0.32
  -2   3  -9  210.91    8.36
   2  -3   9  174.91    7.25
  -2   3 -10    0.53    0.77
   2  -3  10    1.50    1.30
  -2   3 -11    2.66    1.40
   2  -3  11   -1.24    1.47
  -2   3 -12  126.34    4.21
   2  -3  12  119.85   12.69
  -2   3 -13  239.62   13.19
   2  -3  13  198.85   14.16
  -2   3 -14   55.96    3.29
   2  -3  14   52.75    6.00
  -2   3 -15   -3.03    1.45
   2  -3  15   -0.04    1.29
  -2   3 -16  386.65   13.25
   2  -3  16  368.32   12.70
  -2   3 -17  302.08    6.81
   2  -3  17  283.68   24.68
  -2   3 -18  129.35    9.71
   2  -3  18  109.72   16.36
   2  -3  19    7.89    2.36
  -2   2  21   12.10    2.37
  -2   2  20   38.69    3.74
  -2   2  19    1.17    1.97
   2  -2 -18    1.48    1.49
  -2   2  18    0.29    1.83
   2  -2 -17   26.74    3.06
  -2   2  17   39.10    3.75
   2  -2 -16    6.57    2.60
  -2   2  16    5.93    2.66
   2  -2 -15   20.00    1.93
  -2   2  15   31.79    3.36
   2  -2 -14  149.57    5.43
  -2   2  14  215.20    7.86
   2  -2 -13  225.95    7.04
  -2   2  13  314.23   10.01
   2  -2 -12  138.80    4.18
  -2   2  12  207.97    5.64
   2  -2 -11   -0.88    1.51
  -2   2  11   -1.06    1.62
   2  -2 -10  175.50    8.28
   2  -2 -10  168.20    7.40
  -2   2  10  221.08   10.58
   2  -2  -9 1107.28   35.82
   2  -2  -9 1120.44   35.66
  -2   2   9 1381.88   44.55
   2  -2  -8   64.15    5.19
   2  -2  -8   70.13    5.04
  -2   2   8   89.94    6.98
   2  -2  -7  396.19    9.87
   2  -2  -7  410.95    9.44
  -2   2   7  475.57   11.63
   2  -2  -6  340.97    8.65
   2  -2  -6  340.75    7.82
  -2   2   6  359.97    9.07
   2  -2  -5 1592.61   17.28
   2  -2  -5 1693.83   16.74
  -2   2   5 1765.24   18.74
   2  -2  -4  170.37    6.69
   2  -2  -4  183.62    6.73
  -2   2   4  207.97    8.01
   2  -2  -3  210.65    8.01
   2  -2  -3  221.02    8.02
  -2   2   3  229.00    8.66
   2  -2  -2 1772.97   25.16
   2  -2  -2 1882.88   24.87
  -2   2   2 1927.67   25.40
   2  -2  -1 2864.73   37.32
   2  -2  -1 2958.08   38.36
  -2   2   1 2971.75   37.99
   2  -2   0   77.94    3.39
   2  -2   0   81.36    3.80
  -2   2   0   72.27    3.68
   2  -2   1 3783.16   48.52
   2  -2   1 3761.89   48.34
  -2   2  -1 3590.98   44.98
  -2   2  -2  397.14   13.26
   2  -2   2  438.04   14.53
  -2   2  -2  430.34   14.86
  -2   2  -3 1063.24   12.13
   2  -2   3 1042.45   12.04
  -2   2  -3  978.24    9.19
  -2   2  -4  347.07   13.42
   2  -2   4  329.02   12.05
  -2   2  -5 1312.57   14.72
   2  -2   5 1183.27   13.58
  -2   2  -6  584.69   19.32
   2  -2   6  548.61    7.88
   2  -2   6  445.82    4.62
  -2   2  -7   59.69    2.96
   2  -2   7   57.05    7.90
   2  -2   7   41.61    1.61
  -2   2  -8 1529.95   33.37
   2  -2   8 1375.49   30.34
   2  -2   8 1247.92   26.58
  -2   2  -9  406.20    6.16
   2  -2   9  345.21   12.44
   2  -2   9  347.64   11.64
  -2   2 -10  281.95   10.74
   2  -2  10  227.17    8.98
   2  -2  10  229.89    8.24
  -2   2 -11 1638.41   28.56
   2  -2  11 1417.83   27.69
   2  -2  11 1420.35   23.70
  -2   2 -12  118.80    7.45
   2  -2  12  105.43   12.82
   2  -2  12  102.65    6.51
  -2   2 -13   15.28    3.00
   2  -2  13   15.55    2.54
   2  -2  13   12.48    2.57
  -2   2 -14  131.83    4.38
   2  -2  14  119.07   14.60
  -2   2 -15  277.83    9.29
   2  -2  15  233.94    8.12
  -2   2 -16    2.96    1.26
   2  -2  16    2.76    1.09
  -2   2 -17    6.72    2.65
   2  -2  17    8.31    3.28
   2  -2  18    2.88    1.77
  -2   2 -19    1.37    1.28
  -2   1  21    1.27    1.76
  -2   1  20    8.32    4.98
  -2   1  19   38.57    3.80
   2  -1 -18   12.32    1.74
  -2   1  18   21.42    3.23
   2  -1 -17    8.58    1.55
  -2   1  17   10.10    2.55
   2  -1 -16    0.65    1.25
  -2   1  16    3.32    1.93
   2  -1 -15   97.54    4.33
  -2   1  15  152.62    6.60
   2  -1 -14    9.55    1.55
   2  -1 -14    9.55    1.70
  -2   1  14   17.38    2.86
   2  -1 -13   25.93    2.65
   2  -1 -13   32.15    2.42
  -2   1  13   39.51    4.48
   2  -1 -12   95.21    5.96
   2  -1 -12  113.89    6.74
  -2   1  12  147.27    9.22
   2  -1 -11   25.32    1.76
   2  -1 -11   26.59    2.00
  -2   1  11   35.10    2.40
   2  -1 -10  382.45   13.11
   2  -1 -10  414.31   13.71
  -2   1  10  505.29   17.36
   2  -1  -9    1.29    0.75
   2  -1  -9    2.13    0.46
  -2   1   9    3.17    1.58
   2  -1  -8  337.56    8.36
   2  -1  -8  374.54    8.75
  -2   1   8  424.75   11.27
   2  -1  -7  396.24    9.51
   2  -1  -7  414.99    9.55
  -2   1   7  501.41   12.02
   2  -1  -6    1.96    1.45
   2  -1  -6    0.78    0.39
  -2   1   6   -0.49    1.79
   2  -1  -5 1725.33   17.66
   2  -1  -5 1774.98   17.52
  -2   1   5 2041.36   20.94
   2  -1  -3  870.18   12.28
   2  -1  -3  921.16   12.63
  -2   1   3  996.46   13.90
   2  -1  -2  218.60    7.47
   2  -1  -2  237.97    7.98
  -2   1   2  255.48    8.56
   2  -1  -1    2.17    0.57
   2  -1  -1    1.40    0.85
  -2   1   1    8.70    0.74
   2  -1   0  262.05    8.80
   2  -1   0  254.11    8.60
  -2   1   0  283.21    9.20
  -2   1  -1  218.60    7.45
   2  -1   1  237.16    8.05
  -2   1  -1  274.31    8.80
  -2   1  -2 2306.03   29.93
   2  -1   2 2299.69   29.99
  -2   1  -2 2466.08   30.54
  -2   1  -3  525.45    8.09
   2  -1   3  518.50    8.05
  -2   1  -4 7435.56   93.36
   2  -1   4 6833.64   85.99
  -2   1  -5  567.10    8.98
   2  -1   5  491.41    8.50
   2  -1   5  541.85    7.00
  -2   1  -6 4374.01   41.68
   2  -1   6 4038.39   38.85
   2  -1   6 4151.28   37.31
  -2   1  -7 1560.07   17.24
   2  -1   7 1359.01   16.20
   2  -1   7 1508.99   14.46
  -2   1  -8  844.57   19.26
   2  -1   8  717.23   16.42
   2  -1   8  791.28   16.95
  -2   1  -9  121.72    4.98
   2  -1   9  106.53    5.08
   2  -1   9  115.04    4.15
  -2   1 -10  842.06   22.28
   2  -1  10  728.84   19.31
   2  -1  10  813.61   20.46
  -2   1 -11    4.89    0.95
   2  -1  11    3.32    0.86
   2  -1  11    4.42    0.70
  -2   1 -12    3.98    0.91
   2  -1  12    3.63    0.76
   2  -1  12    2.74    0.69
  -2   1 -13  211.59   12.37
   2  -1  13  191.47   11.23
   2  -1  13  216.03   12.20
  -2   1 -14   32.09    4.42
   2  -1  14   25.50    3.52
   2  -1  14   29.95    1.80
  -2   1 -15  383.24   20.38
   2  -1  15  326.58   17.30
   2  -1  15  367.18   18.92
  -2   1 -16  141.67    9.03
   2  -1  16  119.01    7.53
   2  -1  16  130.59   12.10
  -2   1 -17  397.49   15.60
   2  -1  17  367.03   12.61
  -2   1 -18  270.24   15.83
   2  -1  18  245.57   14.19
  -2   1 -19  177.24    7.13
   2  -1  19  169.41    6.39
  -2   1 -20    1.99    1.32
  -2   0  21    6.16    4.01
  -2   0  20   10.66    6.39
  -2   0  19   19.61    3.86
  -2   0  18    2.95    2.12
  -2   0  17   43.54    4.10
   2   0 -16   51.42    4.81
   2   0 -16   39.65    7.95
  -2   0  16   78.37    7.28
   2   0 -15   86.79    3.86
   2   0 -15   87.21    3.97
  -2   0  15  130.73    6.15
   2   0 -14   54.98    2.33
   2   0 -14   61.50    4.54
  -2   0  14   91.28    4.24
   2   0 -13   93.44    2.84
   2   0 -13  107.08    3.62
  -2   0  13  154.62    4.94
   2   0 -12  132.68    7.79
   2   0 -12  156.45   13.47
  -2   0  12  210.31   12.68
   2   0 -11  632.77   11.64
   2   0 -11  626.31   11.61
  -2   0  11  881.77   16.85
   2   0 -10   73.26    3.42
   2   0 -10   63.37    3.30
  -2   0  10   91.17    4.55
   2   0  -9  215.93    7.87
   2   0  -9  193.21    7.22
  -2   0   9  252.94    9.53
   2   0  -8  253.82    6.36
   2   0  -8  258.09    6.60
  -2   0   8  318.36   22.47
   2   0  -7  195.87    7.29
   2   0  -7  197.43    7.48
  -2   0   7  256.05   11.23
   2   0  -6  692.47    7.98
   2   0  -6  679.63    8.34
  -2   0   6  864.54   11.47
   2   0  -5 1462.97   19.29
   2   0  -5 1598.29   21.31
  -2   0   5 1881.06   25.58
   2   0  -4  328.24   10.73
   2   0  -4  351.80   11.64
  -2   0   4  427.64   16.09
   2   0  -3  107.72    3.81
   2   0  -3  102.42    3.80
  -2   0   3  126.02    4.66
   2   0  -2  227.24    7.51
   2   0  -2  234.34    7.88
  -2   0   2  285.41    9.49
   2   0  -1  651.73    8.99
   2   0  -1  647.61    9.25
  -2   0   1  768.26   10.54
  -2   0   0 5027.30   62.83
   2   0   0 5185.35   65.04
  -2   0   0 5789.69   72.03
  -2   0  -1  852.97   11.60
   2   0   1  895.36   12.33
  -2   0  -1  859.35   11.28
  -2   0  -2  234.24    7.84
   2   0   2  221.43    7.54
  -2   0  -2  192.86    6.25
  -2   0  -3 2237.25   28.95
   2   0   3 2057.51   26.76
  -2   0  -3 1792.34   22.53
  -2   0  -4 1064.18   14.70
   2   0   4  980.27   13.65
   2   0   4  723.97    9.46
  -2   0  -5 1078.86   15.65
   2   0   5 1039.54   14.59
   2   0   5  835.86   10.97
  -2   0  -6 1682.84   22.86
   2   0   6 1541.17   21.26
   2   0   6 1308.31   16.96
  -2   0  -7   21.75    3.46
   2   0   7    0.16    0.47
  -2   0  -8 2771.39   28.33
   2   0   8 2413.55   24.50
   2   0   8 2214.87   21.38
  -2   0  -9   50.58    4.62
   2   0   9   42.89    5.08
   2   0   9   39.76    1.96
   2   0  10   -0.04    0.63
  -2   0 -11    0.77    0.96
   2   0  11    3.45    0.76
   2   0  11   -1.05    0.72
  -2   0 -12 1125.09   20.49
   2   0  12 1016.94   19.17
   2   0  12 1079.48   19.09
  -2   0 -13   35.55    5.31
   2   0  13    0.14    0.87
  -2   0 -14   -0.26    1.42
   2   0  14    0.96    0.84
   2   0  14   -0.15    0.78
  -2   0 -15  390.48   20.73
   2   0  15  353.48   18.54
   2   0  15  384.02   19.79
  -2   0 -16  127.24   11.81
   2   0  16  112.41    4.56
   2   0  16  135.43    4.96
  -2   0 -17    5.24    1.15
   2   0  17    2.69    0.91
   2   0  17    6.28    1.29
  -2   0 -18   -0.42    1.73
   2   0  18    0.38    0.82
   2   0  18    0.21    0.95
  -2   0 -19   82.48   10.91
  -2   0 -20   87.13    5.57
  -2   0 -21    8.36    5.07
  -2  -1  21   80.78    4.45
  -2  -1  20   14.66    2.47
  -2  -1  19   63.67    4.90
  -2  -1  18    1.62    2.34
   2   1 -17   33.97    5.11
  -2  -1  17   51.71    4.63
   2   1 -16  188.58    8.39
  -2  -1  16  280.81   10.68
   2   1 -15    0.23    0.95
   2   1 -15    1.38    0.61
  -2  -1  15    1.74    0.93
   2   1 -14  106.42    3.06
   2   1 -14  125.45    7.28
  -2  -1  14  173.95   10.07
   2   1 -13   37.70    1.71
   2   1 -13   51.81    6.89
  -2  -1  13   66.07    3.46
   2   1 -12  143.24    8.23
   2   1 -12  167.44   15.61
  -2  -1  12  202.07   11.89
   2   1 -11  370.51    7.25
   2   1 -11  383.17    8.18
  -2  -1  11  491.62   10.40
   2   1 -10  214.67    7.94
   2   1 -10  217.91    8.35
  -2  -1  10  278.40   11.20
   2   1  -9  341.38    3.93
   2   1  -9  337.08   10.05
  -2  -1   9  414.18    5.98
   2   1  -8  301.04    7.08
   2   1  -8  290.82   12.09
  -2  -1   8  379.84    9.87
   2   1  -7  363.24   12.79
   2   1  -7  385.74    9.54
  -2  -1   7  507.70   12.38
   2   1  -6 2485.31   23.21
   2   1  -6 2531.67   25.65
  -2  -1   6 3319.49   33.15
   2   1  -5   23.74    1.15
   2   1  -5   33.75    3.40
  -2  -1   5   33.08    2.27
   2   1  -4 1466.23   18.63
   2   1  -4 1468.37   20.02
  -2  -1   4 1915.53   25.65
   2   1  -3 1302.02   16.50
   2   1  -3 1217.70   16.63
  -2  -1   3 1497.12   20.15
  -2  -1   2  522.64    6.92
   2   1  -2  516.28    7.84
  -2  -1   2  567.22    8.45
   2   1  -1 5604.95   70.33
  -2  -1   1 6245.66   78.12
  -2  -1   0  523.59    7.17
   2   1   0  459.41   16.14
  -2  -1   0  440.35   15.47
  -2  -1  -1   12.87    0.74
   2   1   1   10.15    0.84
  -2  -1  -1   16.30    2.32
  -2  -1  -2   29.76    1.36
   2   1   2   26.44    1.35
  -2  -1  -2   25.76    1.27
  -2  -1  -3 3279.03   41.67
   2   1   3 3281.34   41.68
  -2  -1  -3 2731.37   34.63
  -2  -1  -4 1518.76   20.27
   2   1   4 1384.83   18.42
  -2  -1  -4 1287.60   16.95
  -2  -1  -5 7265.32   91.14
   2   1   5 6812.23   85.43
   2   1   5 5101.42   64.03
  -2  -1  -6 3313.49   43.01
   2   1   6 3265.32   41.83
   2   1   6 2563.45   32.98
  -2  -1  -7 4666.75   44.83
   2   1   7 4300.15   40.36
   2   1   7 3580.87   34.11
  -2  -1  -8   76.17    5.08
   2   1   8   77.61    3.36
   2   1   8   77.05    3.36
  -2  -1  -9  208.84    7.75
   2   1   9  197.24    6.99
   2   1   9  172.41    6.25
  -2  -1 -10  322.29   11.84
   2   1  10  294.80   11.30
   2   1  10  298.85   10.46
  -2  -1 -11  412.60   14.36
   2   1  11  363.09   12.30
   2   1  11  376.81   12.88
  -2  -1 -12   97.58    5.31
   2   1  12   87.21    4.35
   2   1  12   95.99    4.83
  -2  -1 -13  328.83   12.44
   2   1  13  288.52    8.23
   2   1  13  283.78    7.09
  -2  -1 -14   64.20   10.52
   2   1  14    0.39    0.96
   2   1  16    1.97    1.19
  -2  -1 -17   13.63    2.20
   2   1  17   15.34    1.96
  -2  -1 -18  379.86   21.64
   2   1  18  366.55   20.52
   2   1  19    0.86    1.26
  -2  -1 -20   58.37    4.70
  -2  -1 -21    8.84    5.46
  -2  -2  20    0.52    1.01
  -2  -2  19    0.87    1.76
   2   2 -18   13.08    3.88
  -2  -2  18   21.59    5.37
   2   2 -17   24.06    3.09
  -2  -2  17   38.28    6.90
   2   2 -16   31.47    3.44
  -2  -2  16   38.56    2.82
   2   2 -15    2.23    1.26
  -2  -2  15   -1.31    1.31
   2   2 -14    9.20    1.33
  -2  -2  14    7.01    1.58
   2   2 -13   15.09    1.87
  -2  -2  13   13.51    1.67
   2   2 -12   66.82    4.03
  -2  -2  12   78.90    3.22
   2   2 -11  379.54    8.88
  -2  -2  11  502.54   10.81
   2   2 -10  439.88   14.29
   2   2 -10  485.76   16.55
  -2  -2  10  614.94   20.69
   2   2  -9    7.24    0.79
   2   2  -9    9.94    2.16
  -2  -2   9   34.06    4.82
   2   2  -8  100.03    3.63
   2   2  -8  105.13    4.52
  -2  -2   8  129.93    5.52
   2   2  -7  450.23    9.73
   2   2  -7  449.94   11.00
  -2  -2   7  575.13   13.74
   2   2  -6 1932.67   22.89
  -2  -2   6 2397.77   24.85
   2   2  -5 1120.98   13.04
  -2  -2   5 1379.42   15.45
   2   2  -4 1053.05   12.14
  -2  -2   4 1236.60   13.90
   2   2  -3  690.69   10.45
  -2  -2   3  765.62   11.51
   2   2  -2  209.53    7.34
  -2  -2   2  244.50    8.53
  -2  -2   1   38.32    1.38
   2   2  -1   34.09    1.77
  -2  -2   1   36.13    1.89
  -2  -2   0    6.68    0.60
   2   2   0    5.64    0.76
  -2  -2   0    4.82    0.69
  -2  -2  -1   31.83    1.39
   2   2   1   29.36    1.52
  -2  -2  -1   27.33    1.49
  -2  -2  -2 1009.04   13.57
   2   2   2 1044.84   14.22
  -2  -2  -2  908.89   12.72
  -2  -2  -3  323.30   10.69
   2   2   3  370.64   12.15
  -2  -2  -3  343.42   11.42
  -2  -2  -4 2782.08   36.05
   2   2   4 2934.89   37.44
  -2  -2  -4 2621.54   34.13
  -2  -2  -5  171.77    6.63
   2   2   5  190.61    7.00
   2   2   5  140.45    5.71
  -2  -2  -6  119.26    4.99
   2   2   6  139.19    5.29
   2   2   6  108.15    4.41
  -2  -2  -7 1973.70   20.79
   2   2   7 2002.26   19.63
   2   2   7 1549.85   16.48
  -2  -2  -8  190.05   31.27
   2   2   8  152.64    5.42
   2   2   8  125.79    4.85
  -2  -2  -9 2804.04   60.03
   2   2   9 2630.57   55.32
   2   2   9 2416.99   52.07
  -2  -2 -10  384.31   12.84
   2   2  10  384.95   10.28
   2   2  10  372.89   10.40
  -2  -2 -11  515.07   17.75
   2   2  11  472.70   15.56
   2   2  11  481.36   16.16
  -2  -2 -12    6.84    1.25
   2   2  12    7.58    1.05
   2   2  12    0.68    1.02
  -2  -2 -13   34.71    3.38
   2   2  13   26.88    3.63
   2   2  13   38.20    3.01
  -2  -2 -14  337.61   10.00
  -2  -2 -15   35.50    3.03
   2   2  15   36.30    2.48
   2   2  16    0.54    1.21
  -2  -2 -17   58.94    5.82
   2   2  17   62.84    5.88
  -2  -2 -18    8.20    1.83
   2   2  18   -1.90    1.18
   2   2  19    0.84    1.32
  -2  -2 -20    4.50    3.18
  -2  -2 -21   19.34    2.62
  -2  -2 -22   79.69    4.71
  -2  -3  19   -0.97    1.22
   2   3 -18   37.87    6.40
  -2  -3  18   41.85    7.53
   2   3 -17   75.12    8.23
  -2  -3  17   90.98    4.27
   2   3 -16   23.93    4.52
  -2  -3  16   28.13    2.45
   2   3 -15   59.76   22.23
  -2  -3  15   61.36    5.89
   2   3 -14    2.27    0.86
  -2  -3  14    3.48    1.47
   2   3 -13  114.24   10.09
  -2  -3  13  116.78    4.62
   2   3 -12  170.55    6.13
  -2  -3  12  182.09    6.34
   2   3 -11    2.22    0.62
  -2  -3  11    3.92    0.83
   2   3 -10   48.65    7.80
  -2  -3  10   53.61    8.51
   2   3  -9  304.73   11.10
  -2  -3   9  358.55   12.76
   2   3  -8   30.12    5.73
  -2  -3   8   46.76    6.78
   2   3  -7   23.66    4.71
  -2  -3   7   22.59    2.31
   2   3  -6  529.30   13.47
  -2  -3   6  593.16   14.09
   2   3  -5 1211.39   26.79
  -2  -3   5 1299.16   28.45
   2   3  -4  530.35    7.69
  -2  -3   4  574.36    8.17
   2   3  -3   41.81    2.28
  -2  -3   3   48.61    2.77
  -2  -3   2  364.71   12.55
   2   3  -2  341.47   12.55
  -2  -3   2  369.08   13.47
  -2  -3   1  310.80   10.82
   2   3  -1  328.94   12.02
  -2  -3   1  296.64   11.36
  -2  -3   0 1150.08   11.40
   2   3   0 1149.98   13.36
  -2  -3   0 1105.65   12.58
  -2  -3  -1  390.86   13.73
   2   3   1  352.17   12.65
  -2  -3  -1  343.78   12.54
  -2  -3  -2  344.61   12.25
   2   3   2  368.83   13.15
  -2  -3  -2  316.81   11.63
  -2  -3  -3   92.59    3.80
   2   3   3  101.75    4.03
  -2  -3  -3   90.75    3.99
  -2  -3  -4 2223.62   22.34
   2   3   4 2346.95   22.58
  -2  -3  -4 2160.14   22.28
  -2  -3  -5   37.62    2.07
   2   3   5   45.84    2.07
  -2  -3  -5   49.90    6.74
  -2  -3  -6  279.16    7.25
   2   3   6  324.34    7.46
   2   3   6  249.72    6.50
  -2  -3  -7  750.42   17.20
   2   3   7  909.14   19.55
   2   3   7  715.48   16.33
  -2  -3  -8 2371.06   59.04
   2   3   8 2604.78   63.62
   2   3   8 2135.80   53.16
  -2  -3  -9  130.32    6.14
   2   3   9  148.99    5.36
   2   3   9  159.11    6.39
  -2  -3 -10   55.66    3.25
   2   3  10   54.84    2.38
   2   3  10   60.31    3.08
  -2  -3 -11   45.56    2.59
   2   3  11   47.40    2.49
  -2  -3 -12   56.87    5.20
   2   3  12   51.78    3.84
  -2  -3 -13   46.30    7.87
   2   3  13   43.79    2.41
  -2  -3 -14  106.96    4.41
   2   3  14  126.27    4.70
  -2  -3 -15  271.11    8.94
   2   3  15  244.31    7.85
   2   3  16    0.15    1.35
  -2  -3 -17    3.34    1.80
   2   3  17    2.62    1.66
   2   3  18    0.93    1.80
   2   3  20   -0.62    2.73
  -2  -3 -21   -0.05    1.18
  -2  -3 -22    3.71    2.97
   2   4 -18   12.57    2.81
  -2  -4  18   18.51    2.54
   2   4 -17   33.87    8.36
  -2  -4  17   31.29    7.40
   2   4 -16    7.20    1.23
  -2  -4  16    5.11    2.53
   2   4 -15   21.19    2.99
  -2  -4  15   18.48    2.11
   2   4 -14  124.90    6.93
  -2  -4  14  124.93    5.71
   2   4 -13  280.05   21.83
  -2  -4  13  267.78   15.63
   2   4 -12    7.87    1.44
  -2  -4  12    9.56    2.12
   2   4 -11   69.34    9.94
  -2  -4  11   66.78    3.97
   2   4 -10   18.46    2.93
  -2  -4  10   14.43    2.01
   2   4  -9  227.32   17.41
  -2  -4   9  233.91   13.58
   2   4  -8  169.94    8.14
  -2  -4   8  201.90    9.48
   2   4  -7   22.95    4.09
  -2  -4   7   14.82    1.62
   2   4  -6   38.30    5.45
  -2  -4   6   31.36    1.95
   2   4  -5  973.83   25.29
  -2  -4   5  990.04   25.78
   2   4  -4   42.17    7.39
  -2  -4   4   43.24    3.93
   2   4  -3   32.21    6.79
  -2  -4   3   24.37    1.92
  -2  -4   2 2294.04   47.93
   2   4  -2 2213.40   47.31
  -2  -4   2 2128.87   45.63
  -2  -4   1 2297.55   48.02
   2   4  -1 2173.53   46.42
  -2  -4   1 2285.18   48.84
  -2  -4   0 1697.51   35.80
   2   4   0 1663.56   35.78
  -2  -4   0 1709.51   37.10
  -2  -4  -1  116.17    4.29
   2   4   1  114.28    4.43
  -2  -4  -1  115.18    4.75
  -2  -4  -2    3.24    0.60
   2   4   2    7.21    0.79
  -2  -4  -2    3.30    0.89
  -2  -4  -3  164.87    5.99
   2   4   3  170.27    6.06
  -2  -4  -3  165.42    6.46
  -2  -4  -4   27.34    1.68
   2   4   4   29.65    1.53
  -2  -4  -4   34.85    5.23
  -2  -4  -5   80.47    3.53
   2   4   5   71.21    2.82
  -2  -4  -5   85.41    9.02
  -2  -4  -6  434.01   12.19
   2   4   6  500.66   12.78
   2   4   6  403.87   11.51
  -2  -4  -7   63.36    5.08
   2   4   7   71.90    5.14
   2   4   7   67.04   10.69
  -2  -4  -8  750.45   24.76
   2   4   8  657.33   22.76
  -2  -4  -9  256.85   11.69
   2   4   9  281.75   12.65
  -2  -4 -10  612.76   12.37
   2   4  10  614.77   12.28
  -2  -4 -11  671.53   15.49
   2   4  11  742.59   19.37
  -2  -4 -12 1614.10   51.16
   2   4  12 1549.50   60.28
  -2  -4 -13   10.89    2.86
   2   4  13   -1.36    1.42
  -2  -4 -14    6.68    1.59
   2   4  14    2.05    1.84
  -2  -4 -15   48.46    3.34
   2   4  15   56.91    3.28
  -2  -4 -16    6.20    2.86
   2   4  16    1.77    1.52
  -2  -4 -17   38.20    5.41
   2   4  17   -0.15    1.33
  -2  -4 -18    2.17    2.05
   2   4  18    0.87    1.32
   2   4  19    1.74    1.85
  -2  -4 -20    0.91    2.02
   2   4  20   -0.86    1.28
  -2  -4 -21   12.53    2.51
   2   5 -18    1.12    0.95
   2   5 -17   15.06    2.05
   2   5 -16    1.39    1.11
  -2  -5  16    0.06    1.12
   2   5 -15   27.41    4.75
  -2  -5  15   19.21    2.23
   2   5 -14   -0.31    1.43
  -2  -5  14    1.21    1.38
   2   5 -13    2.98    1.22
  -2  -5  13    2.06    1.46
   2   5 -12  207.04   21.34
  -2  -5  12  176.22    7.22
   2   5 -11   27.95    4.47
  -2  -5  11   31.37    2.86
   2   5 -10  170.49    9.83
  -2  -5  10  172.10   10.01
   2   5  -9   23.38    4.99
  -2  -5   9   28.88    3.18
   2   5  -8  462.77   17.68
  -2  -5   8  449.66   15.46
   2   5  -7   -0.15    3.86
  -2  -5   7    2.09    0.97
   2   5  -6   30.56    5.06
  -2  -5   6   34.78    4.76
   2   5  -5   27.85    5.00
  -2  -5   5   28.86    4.16
   2   5  -4   18.76    3.49
  -2  -5   4   16.15    1.69
   2   5  -3  124.91    5.63
  -2  -5   3  124.17    5.75
  -2  -5   2   36.28    1.24
   2   5  -2   37.76    7.15
  -2  -5   2   34.48    2.15
  -2  -5   1  225.51    8.33
   2   5  -1  215.91    8.41
  -2  -5   1  211.47    8.25
  -2  -5   0    9.37    1.06
   2   5   0   13.31    2.39
  -2  -5   0   10.15    1.68
  -2  -5  -1   13.68    2.13
   2   5   1    5.62    0.88
  -2  -5  -1    8.19    1.58
  -2  -5  -2  457.35   12.25
   2   5   2  469.67   12.57
  -2  -5  -2  468.35   13.36
  -2  -5  -3   49.70    2.68
   2   5   3   51.73    2.51
  -2  -5  -3   49.01    5.44
  -2  -5  -4  108.10    4.67
   2   5   4  121.40    4.79
  -2  -5  -4  112.80    5.29
  -2  -5  -5  435.40   14.85
   2   5   5  469.15   15.39
  -2  -5  -6   38.13    2.09
   2   5   6   34.96    4.49
   2   5   6   30.50    4.74
  -2  -5  -7   23.45    1.85
   2   5   7   28.56    4.43
  -2  -5  -8  635.38   14.39
   2   5   8  551.91   12.77
  -2  -5  -9    7.61    1.42
   2   5   9    7.34    1.37
  -2  -5 -10  100.28    3.74
   2   5  10  100.04   12.73
  -2  -5 -11   74.53    3.53
   2   5  11   78.82    5.39
  -2  -5 -12    0.83    1.61
   2   5  12    2.32    1.03
  -2  -5 -13   51.31    3.54
   2   5  13   46.59    3.15
  -2  -5 -14    7.39    1.91
   2   5  14   11.18    2.11
   2   5  15    1.69    1.62
  -2  -5 -16   11.43    2.33
   2   5  16    8.85    2.33
   2   5  17   -0.84    1.47
  -2  -5 -18    7.73    2.24
   2   5  18   -1.02    1.51
  -2  -5 -19    4.28    3.69
   2   5  19    1.04    1.55
   2   5  20    1.92    1.96
  -2  -5 -21   36.95    4.27
   2   6 -17   24.53    5.44
   2   6 -16   33.39    8.41
   2   6 -15   25.20    4.53
  -2  -6  15   19.30    3.65
   2   6 -14   17.12    1.75
  -2  -6  14   10.31    6.18
   2   6 -13  271.45    7.59
  -2  -6  13  230.22    6.62
   2   6 -12  255.66   15.04
  -2  -6  12  227.74   13.66
   2   6 -11  432.07   14.51
  -2  -6  11  396.75   15.07
   2   6 -10    5.35    1.44
  -2  -6  10    3.46    1.35
   2   6  -9   -0.97    1.40
  -2  -6   9    1.92    1.34
   2   6  -8  191.29    6.95
  -2  -6   8  186.40    6.89
   2   6  -7    0.84    0.75
  -2  -6   7    1.05    1.22
   2   6  -6  171.58    7.20
  -2  -6   6  175.67    6.20
   2   6  -5   73.63   11.98
  -2  -6   5   64.86    3.88
   2   6  -4  977.96   31.34
  -2  -6   4  967.37   31.16
   2   6  -3   40.67    8.55
  -2  -6   2  617.08   12.71
   2   6  -2  540.76   13.28
  -2  -6   2  521.44   14.42
  -2  -6   1  987.48   19.69
   2   6  -1  923.72   19.51
  -2  -6   1  921.43   20.02
  -2  -6   0 1728.42   34.70
   2   6   0 1652.06   36.73
  -2  -6   0 1717.22   35.09
  -2  -6  -1 1374.21   27.03
   2   6   1 1268.14   25.77
  -2  -6  -1 1351.09   29.37
  -2  -6  -2  269.68    7.04
   2   6   2  248.55   18.48
  -2  -6  -3 1146.76   23.22
   2   6   3 1167.64   23.36
  -2  -6  -3 1231.68   26.32
  -2  -6  -4   48.36    3.73
   2   6   4   46.64    3.12
  -2  -6  -4   51.38    4.20
  -2  -6  -5    5.89    1.06
   2   6   5    5.47    1.06
  -2  -6  -6  392.47   13.58
   2   6   6  327.05   11.86
  -2  -6  -7  469.73   16.10
   2   6   7  422.21   15.05
  -2  -6  -8  114.78    4.04
   2   6   8  113.16    4.37
  -2  -6  -9   33.97    2.55
   2   6   9   32.65    6.03
  -2  -6 -10   81.30    4.33
   2   6  10   87.31   14.73
  -2  -6 -11  239.11   14.21
   2   6  11  212.17   12.56
  -2  -6 -12  772.76   24.61
   2   6  12  806.02  263.50
   2   6  14    1.17    1.74
   2   6  15    0.22    1.52
  -2  -6 -16   23.81    2.91
   2   6  16    2.50    1.60
  -2  -6 -17   -0.24    1.89
   2   6  17    1.74    1.81
  -2  -6 -18   11.27    2.44
   2   6  18    0.25    1.49
  -2  -6 -19   23.88    3.01
   2   6  19   -0.49    1.44
  -2  -6 -20    9.12    2.65
   2   7 -16   24.97    6.02
   2   7 -15   14.92    2.30
   2   7 -14    5.61    3.40
   2   7 -13    5.94    1.53
  -2  -7  13    0.94    1.35
   2   7 -12    1.67    1.68
  -2  -7  12    3.07    2.25
   2   7 -11   24.24    4.97
  -2  -7  11   19.86    2.64
   2   7 -10   -1.14    1.82
  -2  -7  10   -1.79    1.14
   2   7  -9   82.01   11.31
  -2  -7   9   73.74    5.53
   2   7  -8    1.19    0.84
  -2  -7   8    0.62    1.10
   2   7  -7    5.46    1.00
  -2  -7   7    5.30    1.62
   2   7  -6  198.60   11.98
  -2  -7   6  168.48   11.70
   2   7  -5   10.78    2.51
  -2  -7   5    9.70    2.39
   2   7  -4    1.16    0.62
  -2  -7   4    0.81    0.74
   2   7  -3   12.86    2.30
  -2  -7   3   16.44    2.49
   2   7  -2   18.98    4.05
  -2  -7   2   21.42    2.88
  -2  -7   1   14.78    2.34
   2   7  -1   19.86    4.36
  -2  -7   1   19.20    2.82
  -2  -7   0   85.16    2.68
   2   7   0   82.09    3.23
  -2  -7   0  102.44   10.88
  -2  -7  -1   56.57    4.80
   2   7   1   54.23    7.71
  -2  -7  -1   62.46    7.66
  -2  -7  -2   22.71    2.43
   2   7   2   23.48    3.79
  -2  -7  -2   25.90    4.34
  -2  -7  -3    5.43    1.02
   2   7   3    5.33    0.96
  -2  -7  -3    8.49    1.77
  -2  -7  -4   83.12    3.40
  -2  -7  -5    1.11    1.00
   2   7   5    0.60    0.87
  -2  -7  -6    0.55    1.23
   2   7   6    1.45    0.79
  -2  -7  -7  739.97   19.45
   2   7   7  585.57   16.09
  -2  -7  -8  431.01   24.26
   2   7   8  438.40   25.17
  -2  -7  -9   83.66    4.80
   2   7   9   81.59   11.78
  -2  -7 -10   79.25    4.82
   2   7  10   74.80   12.45
   2   7  11    5.81    4.75
  -2  -7 -12   11.87    2.22
   2   7  12    2.38    1.53
  -2  -7 -13   15.75    2.34
   2   7  13   -2.82    1.66
  -2  -7 -14    5.53    3.66
   2   7  14    0.61    1.65
  -2  -7 -15    4.87    1.83
   2   7  15    3.53    3.14
  -2  -7 -16   17.38    2.79
   2   7  16   -1.11    1.66
  -2  -7 -17   10.48    2.06
   2   7  17    2.06    2.04
  -2  -7 -18    3.37    3.38
   2   7  18    1.16    1.82
   2   8 -14    0.75    0.97
   2   8 -13  444.90   10.92
   2   8 -12    4.23    2.84
   2   8 -11  225.27   13.89
   2   8 -10  308.78   14.75
  -2  -8  10  261.00   12.90
   2   8  -9   67.73   12.46
  -2  -8   9   60.51    4.37
   2   8  -8    2.00    1.16
  -2  -8   8    3.50    2.51
   2   8  -7   65.51    8.39
  -2  -8   7   47.92    5.91
   2   8  -6   23.17    3.91
  -2  -8   6   16.51    2.10
   2   8  -5   33.03    6.69
  -2  -8   5   36.55    6.44
   2   8  -4   69.61   11.72
  -2  -8   4   58.05    6.68
   2   8  -3   54.19    9.86
  -2  -8   3   48.64    6.13
   2   8  -2   13.02    2.83
  -2  -8   2   15.47    2.64
   2   8  -1  255.70    9.25
  -2  -8   1  238.29    9.44
   2   8   0  434.04   15.80
  -2  -8   0  450.76   17.40
   2   8   1  543.84   17.60
  -2  -8  -1  610.33   20.36
  -2  -8  -2  170.58    6.50
  -2  -8  -2  182.57    7.84
  -2  -8  -3   -0.03    0.92
  -2  -8  -4   91.33    4.24
   2   8   4   66.77   13.76
  -2  -8  -5   70.11    3.69
   2   8   5   59.34    9.94
  -2  -8  -6   17.53    2.35
   2   8   6    9.56    1.29
  -2  -8  -7   11.41    1.69
   2   8   7    1.14    1.18
  -2  -8  -8   14.83    1.93
   2   8   8    0.91    1.06
  -2  -8 -10    2.70    2.20
   2   8  10   -0.17    1.49
   2   8  11    2.36    1.21
   2   8  12    0.10    1.99
   2   8  13    0.16    1.83
  -2  -8 -14    3.73    3.18
   2   8  14    1.91    1.86
   2   8  15   -1.26    1.72
   2   8  16    2.08    2.31
   2   9 -10   19.81    4.07
   2   9  -9  341.68    9.56
   2   9  -8   22.44    3.81
   2   9  -7   59.04   12.03
  -2  -9   7   49.11   10.85
   2   9  -6   75.58   13.46
  -2  -9   6   94.16   11.47
   2   9  -5  250.28   11.94
  -2  -9   5  216.93   15.14
  -2  -9   4    5.51    1.44
   2   9  -3    2.46    0.86
  -2  -9   3    1.80    1.06
  -2  -9   2    1.11    0.63
  -2  -9   1    1.41    1.49
  -2  -9   0   32.41    6.32
  -2  -9  -1   28.57    3.16
   2   9   3   -0.03    1.32
   2   9   4   19.51    9.60
  -2  -9  -6    7.22    1.74
   2   9   6   -0.03    1.34
  -2  -9  -7    5.75    1.74
   2   9   7    1.77    1.46
  -2  -9  -8   14.10    2.97
   2   9   8    0.89    1.05
  -2  -9  -9    8.28    4.98
   2   9   9   -0.57    1.10
  -2  -9 -10    4.23    2.86
   2   9  10    0.87    0.90
  -2  -9 -11   30.18    5.01
   2   9  11   -0.05    1.55
   2   9  12    0.82    0.90
   2   9  13   -0.44    1.61
   2   9  14   -1.59    1.49
  -2 -10   2    4.95    3.19
  -2 -10   1  127.06   19.53
   2  10   1   35.67    7.07
   2  10   2   33.19   11.25
   2  10   3    1.50    1.31
   2  10   4    1.32    1.11
   2  10   5    2.16    1.86
   2  10   6    0.33    0.78
   2  10   7    0.71    0.98
   2  10   8    1.59    1.55
   2  10   9    3.73    2.49
   2  10  10    2.25    2.00
   3  -9  -7   -0.45    1.98
   3  -9  -6   15.25    2.33
   3  -9  -5    2.44    3.08
   3  -9  -4   12.46    2.45
   3  -9  -3    5.91    3.92
   3  -9  -2    4.54    3.58
  -3   9   1    9.68    2.41
  -3   9   0    3.02    2.19
  -3   9  -1   20.02    4.45
   3  -8 -12   49.30    4.29
   3  -8 -11   35.80    3.82
   3  -8 -10   28.28    3.98
   3  -8  -9  114.18    8.81
   3  -8  -8   28.31    3.96
   3  -8  -7    3.24    2.61
   3  -8  -6   86.38    6.06
   3  -8  -5   39.98    3.88
   3  -8  -4   12.27    3.09
   3  -8  -3   -0.25    1.47
   3  -8  -2   39.95    3.91
   3  -8  -1   13.41    8.05
  -3   8   0   36.18    4.99
  -3   8  -1   99.10   14.92
  -3   8  -2   30.42    4.94
  -3   8  -3    0.95    0.65
   3  -8   3    0.80    0.56
  -3   8  -4   11.83    3.53
   3  -8   4   12.37    3.14
  -3   8  -5   11.19    2.41
   3  -8   5    7.24    1.84
  -3   8  -6    1.29    1.37
   3  -8   6   -0.93    1.20
  -3   8  -7   13.78    2.94
   3  -8   7   16.76    2.57
   3  -8   8   30.26    4.30
   3  -8   9   42.56    8.75
   3  -8  10    8.19    1.94
   3  -8  11    4.72    3.25
   3  -7 -14    2.35    2.14
  -3   7  14   -0.28    1.60
   3  -7 -13   -0.41    1.72
  -3   7  13   -1.34    1.62
   3  -7 -12    0.35    0.68
  -3   7  12   -0.41    1.58
   3  -7 -11   23.97    4.14
  -3   7  11    1.01    1.77
   3  -7 -10   31.85    5.53
  -3   7  10   45.95    4.07
   3  -7  -9   15.55    2.97
  -3   7   9   18.88    2.34
   3  -7  -8  152.61    6.87
  -3   7   8  168.36    7.03
   3  -7  -7   90.43   11.96
  -3   7   7  115.25    4.42
   3  -7  -6   24.12    3.06
  -3   7   6   23.72    2.57
   3  -7  -5  383.64   22.10
  -3   7   5  366.97   20.52
   3  -7  -4  335.54   19.59
  -3   7   4  315.56   17.76
   3  -7  -3   81.31   55.19
  -3   7   3   90.02    4.37
   3  -7  -2  346.06   15.15
   3  -7  -1   49.73    4.06
   3  -7   0   73.58   49.63
   3  -7   0   57.31    2.93
  -3   7  -1   29.68    4.37
   3  -7   1   22.68    2.00
  -3   7  -2  128.97   17.47
   3  -7   2  108.07    4.79
  -3   7  -3  133.57   15.59
   3  -7   3  102.19    4.77
  -3   7  -4  362.52   21.01
   3  -7   4  289.97   16.58
  -3   7  -5  209.72   12.62
   3  -7   5  151.00   12.89
  -3   7  -6  326.60   18.71
   3  -7   6  267.36   15.48
  -3   7  -7   45.29    5.63
   3  -7   7   38.69    4.33
  -3   7  -8   33.08    5.80
   3  -7   8   31.57    3.40
  -3   7  -9   46.89    7.14
   3  -7   9   43.63    6.61
  -3   7 -10    1.65    1.60
   3  -7  10    1.70    1.71
   3  -7  11  101.31    7.47
   3  -7  12   32.40    3.21
   3  -7  13   81.64   14.10
   3  -7  14   -0.44    1.50
   3  -7  15    0.73    0.90
  -3   6  17    0.80    1.79
   3  -6 -16    0.45    1.53
  -3   6  16   -0.23    1.79
   3  -6 -15    7.34    2.20
  -3   6  15   -0.32    1.82
   3  -6 -14    5.58    3.49
  -3   6  14   -0.71    1.76
   3  -6 -13    2.94    2.79
  -3   6  13    2.08    2.05
   3  -6 -12    4.70    3.59
  -3   6  12    4.26    3.54
   3  -6 -11   46.13    3.53
  -3   6  11   55.14    4.42
   3  -6 -10   18.35    2.60
  -3   6  10   24.52    2.41
   3  -6  -9    4.33    3.08
  -3   6   9    4.29    3.18
   3  -6  -8   -1.31    1.52
  -3   6   8    0.07    1.41
   3  -6  -7    0.55    0.79
  -3   6   7   -0.27    1.27
   3  -6  -6   38.35    3.31
  -3   6   6   38.94    2.74
   3  -6  -5   -0.51    1.42
  -3   6   5   -0.09    1.02
   3  -6  -4    2.40    1.50
  -3   6   4    4.58    1.16
   3  -6  -3    3.10    1.32
   3  -6  -3    2.51    0.72
  -3   6   3    3.44    1.16
   3  -6  -2  188.72    7.12
   3  -6  -2  134.57    4.52
  -3   6   2  187.80    5.97
   3  -6  -1  242.25   13.58
   3  -6  -1  177.57    9.61
  -3   6   1  229.33   12.25
   3  -6   0  515.23   26.91
   3  -6   0  406.97   21.11
  -3   6   0  454.99   23.21
   3  -6   1    8.29    2.43
  -3   6  -2  838.62   24.22
   3  -6   2  798.89   20.58
  -3   6  -3   42.57    8.63
   3  -6   3   48.56    6.69
  -3   6  -4   12.82    1.82
   3  -6   4   10.98    1.74
  -3   6  -5    3.28    0.97
   3  -6   5    2.53    1.21
  -3   6  -6   51.12    7.03
   3  -6   6   49.71    6.31
  -3   6  -7   68.72   10.00
   3  -6   7   61.31   11.09
  -3   6  -8    9.20    2.60
   3  -6   8    8.45    1.26
  -3   6  -9  583.85   20.50
   3  -6   9  520.87   16.57
  -3   6 -10    6.09    4.33
   3  -6  10    4.47    4.02
  -3   6 -11   18.73    3.08
   3  -6  11   18.82    2.74
  -3   6 -12   63.20    8.05
   3  -6  12   63.66   13.49
  -3   6 -13   26.69    4.85
   3  -6  13   24.10    4.59
   3  -6  14   45.53    5.06
   3  -6  15   66.30   14.51
   3  -6  16   -0.50    1.57
   3  -6  17   13.23    2.48
  -3   5  18    0.54    1.87
  -3   5  17   66.71    4.62
   3  -5 -16   11.55    2.38
  -3   5  16   13.54    8.29
   3  -5 -15    2.30    2.54
  -3   5  15    0.44    1.77
   3  -5 -14    7.03    4.64
  -3   5  14   13.03    8.28
   3  -5 -13    2.48    2.03
  -3   5  13    9.84    2.37
   3  -5 -12    3.93    3.35
  -3   5  12    1.59    2.04
   3  -5 -11   11.35    1.79
  -3   5  11   13.28    1.98
   3  -5 -10  154.65    6.97
  -3   5  10  177.72    7.40
   3  -5  -9    6.85    2.17
  -3   5   9    7.92    2.32
   3  -5  -8  185.26    7.21
  -3   5   8  218.46    7.52
   3  -5  -7  651.84   33.91
  -3   5   7  701.56   35.84
   3  -5  -6  570.32   16.83
  -3   5   6  669.19   16.95
   3  -5  -5   87.99    3.90
  -3   5   5  107.72    3.68
   3  -5  -4   54.92    3.35
   3  -5  -4   46.57    1.79
  -3   5   4   66.75    2.87
   3  -5  -3  358.35   13.35
   3  -5  -3  313.24   10.68
  -3   5   3  381.99   12.98
   3  -5  -2    1.29    0.61
   3  -5  -2    1.43    0.56
  -3   5   2    2.96    1.04
   3  -5  -1    6.58    1.59
   3  -5  -1    5.30    1.05
  -3   5   1    6.17    1.01
   3  -5   0  220.46    8.56
   3  -5   0  184.42    7.63
  -3   5   0  214.63    7.51
   3  -5   1   53.55    3.11
   3  -5   1   47.08    7.03
  -3   5  -1   48.04    1.99
  -3   5  -2  236.71    9.02
   3  -5   2  238.27    8.74
  -3   5  -3  149.13    7.85
   3  -5   3  146.98    4.27
  -3   5  -4   20.75    3.43
   3  -5   4   17.47    2.91
  -3   5  -5 1231.81   29.74
   3  -5   5 1149.23   27.70
  -3   5  -6 1845.87  129.98
   3  -5   6 1550.46   37.68
  -3   5  -7  136.62   19.81
   3  -5   7  108.81    4.10
  -3   5  -8   15.33    2.82
   3  -5   8   14.59    2.07
  -3   5  -9  114.64   15.43
   3  -5   9  113.18   12.37
  -3   5 -10   61.03    8.98
   3  -5  10   49.95    7.79
  -3   5 -11  103.26   13.83
   3  -5  11   91.72   14.54
  -3   5 -12   53.24    8.43
   3  -5  12   53.09    5.87
  -3   5 -13  882.67   15.17
   3  -5  13  778.47   13.92
  -3   5 -14    3.82    2.75
   3  -5  14   -0.33    2.18
  -3   5 -15   27.30    4.96
   3  -5  15   26.26    4.95
   3  -5  16    3.28    1.78
   3  -5  17  373.21   23.56
   3  -5  18  115.56    6.09
  -3   4  19    2.38    2.39
  -3   4  18   -1.31    1.89
   3  -4 -17  104.34    7.78
  -3   4  17  140.90    9.68
   3  -4 -16   41.09    3.80
  -3   4  16   58.55    4.96
   3  -4 -15    1.56    1.64
  -3   4  15    2.80    2.05
   3  -4 -14   13.03    2.16
  -3   4  14   16.16    2.50
   3  -4 -13   42.01    2.89
  -3   4  13   50.63    4.07
   3  -4 -12   34.59    4.32
  -3   4  12   40.74    4.49
   3  -4 -11    1.53    1.43
  -3   4  11    1.65    1.76
   3  -4 -10   -0.29    1.46
  -3   4  10    1.10    1.66
   3  -4  -9    9.18    1.83
  -3   4   9   15.77    2.43
   3  -4  -8    8.24    1.76
  -3   4   8   13.54    2.26
   3  -4  -7  142.72    4.60
  -3   4   7  165.92    4.68
   3  -4  -6  454.60   11.48
   3  -4  -6  391.37    9.06
  -3   4   6  464.41   10.95
   3  -4  -5    5.39    1.05
   3  -4  -5    3.29    0.67
  -3   4   5    7.30    1.57
   3  -4  -4    5.70    1.33
   3  -4  -4    6.12    0.98
  -3   4   4    3.74    1.07
   3  -4  -3   12.18    1.72
   3  -4  -3   12.20    2.13
  -3   4   3   13.42    1.46
   3  -4  -2  131.70    5.87
   3  -4  -2  121.44    5.41
  -3   4   2  137.56    5.57
   3  -4  -1   42.10    6.46
   3  -4  -1   28.56    1.62
  -3   4   1   38.39    1.75
   3  -4   0    1.17    1.06
   3  -4   0   -0.67    0.80
  -3   4   0    0.72    0.41
   3  -4   1  410.37   14.40
   3  -4   1  389.29   13.47
  -3   4  -1  404.24   13.35
  -3   4  -2  121.02   13.43
   3  -4   2  126.95    5.53
  -3   4  -2  123.17    4.72
  -3   4  -3    9.28    1.41
   3  -4   3    8.58    1.53
  -3   4  -4  584.39   12.08
   3  -4   4  531.37   11.11
  -3   4  -5   26.22    3.63
   3  -4   5   26.03    3.73
  -3   4  -6   89.68    6.01
   3  -4   6   83.26    6.89
  -3   4  -7   11.87    1.58
   3  -4   7   10.58    2.17
  -3   4  -8    5.58    1.12
   3  -4   8    3.70    1.68
  -3   4  -9   20.34    2.01
   3  -4   9   19.14    2.12
  -3   4 -10   22.56    3.46
   3  -4  10   16.85    2.44
  -3   4 -11    0.66    1.31
   3  -4  11   -0.93    1.45
  -3   4 -12   91.75   13.94
   3  -4  12   77.13    8.04
  -3   4 -13   14.77    3.10
   3  -4  13   16.82    2.38
  -3   4 -14   22.27    4.28
   3  -4  14   20.12    4.43
  -3   4 -15   31.77    2.60
   3  -4  15   31.34    5.58
  -3   4 -16   25.30    6.43
   3  -4  16   27.40    4.04
  -3   4 -17  221.63   11.63
   3  -4  17  171.76   24.13
   3  -4  18   13.71    3.35
   3  -4  19    4.23    3.23
  -3   3  20   25.56    3.52
  -3   3  19  180.45    7.29
  -3   3  18   42.70    4.44
   3  -3 -17   75.29    5.07
  -3   3  17  108.40    7.02
   3  -3 -16   21.28    3.90
  -3   3  16   34.01    3.27
   3  -3 -15   34.42    4.26
  -3   3  15   41.23    3.80
   3  -3 -14   25.95    2.70
  -3   3  14   41.53    3.75
   3  -3 -13   94.66    6.52
  -3   3  13  119.14    8.20
   3  -3 -12   75.14    4.30
  -3   3  12   94.88    4.94
   3  -3 -11    0.61    1.54
  -3   3  11    2.68    1.90
   3  -3 -10   89.81    3.58
  -3   3  10  111.96    4.36
   3  -3  -9    1.78    1.35
  -3   3   9   -0.98    1.66
   3  -3  -8  124.19    7.70
   3  -3  -8  118.52    6.82
  -3   3   8  150.69    9.47
   3  -3  -7  445.42    9.91
   3  -3  -7  446.46    8.69
  -3   3   7  519.11   11.14
   3  -3  -6  769.31   25.59
   3  -3  -6  747.71   24.57
  -3   3   6  859.79   28.65
   3  -3  -5 1266.54   41.00
   3  -3  -5 1226.86   39.72
  -3   3   5 1367.57   44.03
   3  -3  -4  809.48   21.45
   3  -3  -4  795.87   20.49
  -3   3   4  872.69   23.33
   3  -3  -3 1286.40   33.06
   3  -3  -3 1256.84   31.62
  -3   3   3 1363.12   34.28
   3  -3  -2    7.61    1.23
   3  -3  -2    8.82    1.34
  -3   3   2    2.26    3.75
   3  -3  -1  537.68   14.71
   3  -3  -1  513.87   13.69
  -3   3   1  544.71   14.10
   3  -3   0   14.22    1.81
   3  -3   0   18.53    2.75
  -3   3   0   10.00    1.32
   3  -3   1  630.49   16.67
  -3   3  -1  669.77   16.84
  -3   3  -2   28.12    4.63
   3  -3   2   33.33    5.63
  -3   3  -2   26.76    2.03
  -3   3  -3  538.21   14.75
   3  -3   3  545.43   14.78
  -3   3  -4  116.63    6.63
   3  -3   4  141.43    5.88
  -3   3  -5  447.17   13.05
   3  -3   5  425.57   12.09
  -3   3  -6 1392.77   45.51
   3  -3   6 1320.29   42.69
  -3   3  -7  415.38   14.49
   3  -3   7  367.29   13.39
  -3   3  -8  850.51   16.42
   3  -3   8  769.21   15.00
  -3   3  -9  105.01    6.95
   3  -3   9  102.93    6.67
  -3   3 -10  400.35   13.96
   3  -3  10  358.71   13.27
  -3   3 -11  160.23    4.66
   3  -3  11  144.18   11.14
  -3   3 -12   24.29    3.28
   3  -3  12   18.39    2.30
  -3   3 -13   87.63   14.63
   3  -3  13   79.05   11.63
  -3   3 -14  565.77   31.46
   3  -3  14  481.54   27.47
  -3   3 -15   74.55   51.50
   3  -3  15   84.48    8.21
  -3   3 -16  133.89    8.57
   3  -3  16  105.43   14.10
  -3   3 -17   79.93   11.65
   3  -3  17   76.16   15.37
  -3   3 -18  142.08    7.81
   3  -3  18  109.36   17.26
   3  -3  19   69.55   12.64
  -3   2  20   42.87    3.98
  -3   2  19    4.36    3.19
  -3   2  18   40.60    4.41
   3  -2 -17    1.29    1.20
  -3   2  17   -0.27    1.99
   3  -2 -16    8.44    1.70
  -3   2  16   13.85    2.29
   3  -2 -15    8.01    3.08
  -3   2  15    9.90    3.83
   3  -2 -14   17.26    2.09
  -3   2  14   33.26    4.31
   3  -2 -13  138.21    5.20
  -3   2  13  194.85    7.40
   3  -2 -12    7.13    1.43
  -3   2  12   12.54    2.20
   3  -2 -11  166.27    5.73
  -3   2  11  226.81    7.71
   3  -2 -10    3.65    1.00
   3  -2 -10    6.29    0.99
  -3   2  10    6.64    1.61
   3  -2  -9   28.59    1.93
   3  -2  -9   28.73    1.65
  -3   2   9   35.78    2.83
   3  -2  -8   63.73    3.72
   3  -2  -8   58.80    1.91
  -3   2   8   68.32    3.42
   3  -2  -7   40.56    2.74
   3  -2  -7   42.50    5.66
  -3   2   7   43.68    2.31
   3  -2  -6  185.22    7.23
   3  -2  -6  193.84    7.08
  -3   2   6  218.73    8.30
   3  -2  -5  185.33    7.16
   3  -2  -5  179.20    6.61
  -3   2   5  215.90    8.55
   3  -2  -4  475.99   11.60
   3  -2  -4  505.58   11.70
  -3   2   4  570.06   13.28
   3  -2  -3  189.53    7.12
   3  -2  -3  189.76    6.80
  -3   2   3  183.72    6.64
   3  -2  -2  186.17    6.93
   3  -2  -2  189.31    6.89
  -3   2   2  193.92    6.93
   3  -2  -1 1700.77   18.60
   3  -2  -1 1686.98   18.39
  -3   2   1 1790.18   17.89
   3  -2   0  779.32   10.09
   3  -2   0  755.87    9.97
  -3   2   0  820.07    8.90
  -3   2  -1 2748.42   29.71
   3  -2   1 3001.80   29.72
  -3   2  -1 3220.54   29.70
  -3   2  -2  300.90   11.26
   3  -2   2  314.01   11.66
  -3   2  -2  343.83   11.93
  -3   2  -3   93.08    4.01
   3  -2   3   88.77    3.93
  -3   2  -4   36.57    4.65
   3  -2   4   35.69    5.01
  -3   2  -5 1034.40   24.49
   3  -2   5  998.74   22.42
  -3   2  -6  480.83   13.20
   3  -2   6  461.96   12.83
  -3   2  -7  263.16    9.84
   3  -2   7  240.42    9.09
  -3   2  -8  366.99   12.95
   3  -2   8  318.84   12.12
  -3   2  -9  648.99   21.82
   3  -2   9  570.53   19.59
  -3   2 -10   53.95    7.74
   3  -2  10   50.69    5.08
  -3   2 -11   23.80    3.67
   3  -2  11   15.81    2.30
  -3   2 -12  187.89    5.11
   3  -2  12  164.97    4.92
  -3   2 -13  397.38   20.96
   3  -2  13  333.56   17.95
  -3   2 -14  113.70    5.16
   3  -2  14  109.26   13.43
  -3   2 -15   85.68   13.09
   3  -2  15   89.04    6.22
  -3   2 -16   36.31    4.67
   3  -2  16   40.82    5.61
  -3   2 -17   19.93    3.36
   3  -2  17   16.21    2.47
  -3   2 -18  106.82   17.63
   3  -2  18  108.87   15.03
  -3   2 -19    4.67    3.09
   3  -2  19    5.25    1.29
  -3   2 -20    8.88    5.45
  -3   1  21   10.45    2.53
  -3   1  20   -0.40    1.82
  -3   1  19  244.31   15.06
  -3   1  18   25.22    5.15
  -3   1  17  227.59    7.27
   3  -1 -16   19.81    1.92
  -3   1  16   43.34    4.82
   3  -1 -15   -0.74    1.07
  -3   1  15   -0.55    1.89
   3  -1 -14    8.17    2.12
  -3   1  14   12.30    3.22
   3  -1 -13   66.45    3.09
   3  -1 -13   71.63    2.50
  -3   1  13  103.05    4.58
   3  -1 -12   14.97    1.89
   3  -1 -12   11.75    1.42
  -3   1  12   16.68    2.43
   3  -1 -11   12.87    1.63
   3  -1 -11   14.28    1.71
  -3   1  11   15.28    2.16
   3  -1 -10   80.25    5.11
   3  -1 -10   92.61    5.64
  -3   1  10  122.98    8.27
   3  -1  -9    6.67    1.06
   3  -1  -9    6.38    0.94
  -3   1   9   14.58    1.98
   3  -1  -8  262.66    9.87
   3  -1  -8  288.35    9.93
  -3   1   8  350.59    6.44
   3  -1  -7   83.97    3.88
   3  -1  -7   93.15    3.88
  -3   1   7   93.50    7.09
   3  -1  -6  787.80   17.71
   3  -1  -6  817.37   18.22
  -3   1   6  993.01   22.66
   3  -1  -5  205.07    7.38
   3  -1  -5  226.79    7.99
  -3   1   5  245.76    8.79
   3  -1  -4  621.73    8.12
   3  -1  -4  657.52    8.34
  -3   1   4  763.89    9.93
   3  -1  -3  803.31    9.68
   3  -1  -3  844.32   10.04
  -3   1   3  950.43   11.13
   3  -1  -2  690.11    8.63
   3  -1  -2  710.34    8.80
  -3   1   2  801.13    9.39
   3  -1  -1  517.92   18.38
   3  -1  -1  551.01   18.14
  -3   1   1  606.49   21.20
  -3   1   0 1633.70   17.92
   3  -1   0 1848.99   19.31
  -3   1   0 2069.93   19.86
  -3   1  -1 2291.00   23.16
   3  -1   1 2452.48   25.83
  -3   1  -1 2665.09   24.70
  -3   1  -2   22.60    3.21
   3  -1   2   23.52    1.81
  -3   1  -2   18.64    1.75
  -3   1  -3  169.76    6.70
   3  -1   3  168.90    6.70
  -3   1  -4  365.84   13.38
   3  -1   4  342.76   12.63
  -3   1  -5 1101.13   14.33
   3  -1   5 1102.78   13.11
  -3   1  -6 2094.61   44.90
   3  -1   6 1890.13   40.74
  -3   1  -7  136.49    5.53
   3  -1   7  128.80    5.32
  -3   1  -8   55.50    4.66
   3  -1   8   52.00    4.24
  -3   1  -9  240.96    9.36
   3  -1   9  210.79    8.19
  -3   1 -10   29.24    4.09
   3  -1  10   29.27    4.14
  -3   1 -11  562.00   11.67
   3  -1  11  501.28   10.56
  -3   1 -12  304.50   23.13
   3  -1  12  272.29    7.45
  -3   1 -13   66.31    3.15
   3  -1  13   55.42    6.08
  -3   1 -14  413.02   21.85
   3  -1  14  342.50   18.42
  -3   1 -15  207.51    7.85
   3  -1  15  178.55    6.69
  -3   1 -16  101.03    5.21
   3  -1  16   83.07   11.78
  -3   1 -17  592.02   32.76
   3  -1  17  504.31   27.84
  -3   1 -18    6.42    3.26
   3  -1  18    5.19    2.54
  -3   1 -19  168.77    7.23
   3  -1  19  141.13    5.88
  -3   1 -20    9.87    5.89
  -3   1 -21    5.16    3.18
  -3   0  20    5.51    4.30
  -3   0  19   44.79    9.70
  -3   0  18    3.66    2.55
  -3   0  17  108.59    5.32
  -3   0  16    8.96    2.30
   3   0 -15   83.71    3.89
  -3   0  15  122.11    6.40
   3   0 -14    1.94    1.06
   3   0 -14    3.28    0.68
  -3   0  14    3.11    2.18
   3   0 -13  401.93   20.64
   3   0 -13  436.14   22.58
  -3   0  13  598.77   31.06
   3   0 -12  150.61    4.82
   3   0 -12  161.22    5.31
  -3   0  12  220.18    7.59
   3   0 -11   32.46    2.89
   3   0 -11   37.63    2.82
  -3   0  11   46.01    3.96
   3   0 -10  186.67    8.44
   3   0 -10  209.68    9.50
  -3   0  10  271.07   12.40
   3   0  -9   71.99    3.35
   3   0  -9   88.99    5.88
  -3   0   9   97.38    4.81
   3   0  -8    2.35    0.58
   3   0  -8    2.03    0.64
  -3   0   8    1.68    1.44
   3   0  -7  302.56   10.46
   3   0  -7  336.79   11.82
  -3   0   7  420.03    6.24
   3   0  -6   88.51    3.53
   3   0  -6  101.03    4.19
  -3   0   6  121.56    5.33
   3   0  -5  488.14   11.08
   3   0  -5  528.31   12.28
  -3   0   5  640.91   14.83
   3   0  -4  382.06   13.60
   3   0  -4  382.31   13.83
  -3   0   4  472.30   16.96
   3   0  -3 1639.67   16.50
   3   0  -3 1667.97   17.52
  -3   0   3 1976.59   20.41
   3   0  -2  591.66    7.15
   3   0  -2  612.84    7.96
  -3   0   2  708.06    8.60
  -3   0   1  249.08    9.13
   3   0  -1  273.70   10.11
  -3   0   1  305.12   11.05
  -3   0   0 3227.15   41.35
   3   0   0 3401.24   44.04
  -3   0   0 3566.63   45.25
  -3   0  -1 1474.09   19.82
   3   0   1 1489.30   20.47
  -3   0  -1 1413.61   18.54
  -3   0  -2 2353.29   30.80
   3   0   2 2357.98   31.16
  -3   0  -2 2007.71   25.62
  -3   0  -3  315.99   11.50
   3   0   3  297.42   11.04
  -3   0  -3  235.26    8.33
  -3   0  -4  147.73    5.86
   3   0   4  153.54    6.28
  -3   0  -4  132.25    4.90
  -3   0  -5 1653.64   17.73
   3   0   5 1469.68   16.04
   3   0   5 1040.72   10.11
  -3   0  -6    3.68    0.84
   3   0   6    2.70    0.84
   3   0   6    1.71    0.31
  -3   0  -8   39.22    6.36
   3   0   8   28.41    4.21
   3   0   8    0.72    0.30
  -3   0  -9  457.21   12.97
   3   0   9  453.66   12.51
   3   0   9  317.64   10.67
   3   0  10 1645.27   52.66
   3   0  11    0.13    0.48
   3   0  12   75.67   11.06
   3   0  12    8.35    1.16
  -3   0 -13   28.53    6.93
   3   0  13    1.95    0.78
   3   0  13   -0.07    0.48
  -3   0 -14   59.14    9.87
   3   0  14    6.72    0.80
  -3   0 -15  446.15   13.02
   3   0  15  349.93   10.15
  -3   0 -16   55.97    7.53
   3   0  16   45.17    6.16
  -3   0 -17    3.37    1.66
   3   0  17    4.06    2.11
  -3   0 -18  109.29    7.91
   3   0  18   72.85   13.74
  -3   0 -19   12.02    7.55
  -3   0 -20    3.66    2.69
  -3   0 -21    2.31    1.97
  -3  -1  20    0.75    1.46
  -3  -1  19    1.03    1.49
  -3  -1  18   18.53    3.76
  -3  -1  17   20.92    2.41
   3   1 -16   71.71    5.02
  -3  -1  16   95.02    6.91
   3   1 -15    4.15    0.90
  -3  -1  15    4.56    1.79
   3   1 -14    2.64    0.88
  -3  -1  14    3.26    1.61
   3   1 -13    1.33    1.06
  -3  -1  13    3.47    2.17
   3   1 -12   48.28    2.58
  -3  -1  12   58.86    3.43
   3   1 -11   25.16    1.76
   3   1 -11   30.66    5.13
  -3  -1  11   32.20    2.65
   3   1 -10   85.11    4.11
   3   1 -10   86.02    4.84
  -3  -1  10  110.96    5.97
   3   1  -9  118.58    4.62
   3   1  -9  127.03    5.44
  -3  -1   9  163.18    7.01
   3   1  -8   19.81    1.68
   3   1  -8   23.97    2.35
  -3  -1   8   23.98    2.74
   3   1  -7  243.39    8.31
   3   1  -7  262.97    9.62
  -3  -1   7  313.40   11.41
   3   1  -6  308.23    7.06
   3   1  -6  342.00    8.72
  -3  -1   6  390.90    9.88
   3   1  -5   74.58    2.79
   3   1  -5   80.66    3.53
  -3  -1   5   93.34    4.09
   3   1  -4    3.45    0.49
   3   1  -4    1.52    0.96
  -3  -1   4    8.51    1.66
  -3  -1   3 2482.06   23.38
   3   1  -3 2651.05   26.72
  -3  -1   3 3009.55   29.62
  -3  -1   2  451.61   15.76
   3   1  -2  443.82   16.94
  -3  -1   2  492.50   17.54
  -3  -1   1   39.51    2.22
   3   1  -1   39.35    2.14
  -3  -1   1   42.54    2.26
  -3  -1   0  120.88    4.29
   3   1   0  121.85    4.77
  -3  -1   0  103.78    4.05
  -3  -1  -1 2362.04   30.47
   3   1   1 2262.21   30.25
  -3  -1  -1 1995.48   26.08
  -3  -1  -2  276.56    9.30
   3   1   2  265.07    9.19
  -3  -1  -2  222.99    7.62
  -3  -1  -3  833.10    9.64
   3   1   3  783.20    9.51
  -3  -1  -3  632.42    7.30
  -3  -1  -4  574.56   20.32
   3   1   4  537.30   19.16
  -3  -1  -4  441.81   15.57
  -3  -1  -5  623.47    8.22
   3   1   5  597.16    7.86
  -3  -1  -5  526.74    6.72
  -3  -1  -6 2208.07   22.94
   3   1   6 2072.82   21.37
   3   1   6 1463.68   14.69
  -3  -1  -7   81.51    5.70
   3   1   7   65.39    8.13
   3   1   7   46.36    3.74
  -3  -1  -8  323.76    9.50
   3   1   8  312.08    7.90
   3   1   8  248.26    6.32
  -3  -1  -9  176.95    7.08
   3   1   9  169.42    6.72
   3   1   9  145.91    5.38
  -3  -1 -10   10.65    1.43
   3   1  10    8.14    1.27
   3   1  10   11.60    1.16
  -3  -1 -11  385.69   17.04
   3   1  11  358.17   15.56
   3   1  11  303.50   13.05
  -3  -1 -12  370.48    9.67
   3   1  12  319.41    7.88
  -3  -1 -13  492.90   17.72
   3   1  13  443.28   14.86
   3   1  13  387.70   12.82
  -3  -1 -14   10.26    2.09
   3   1  14    6.33    1.13
   3   1  14    0.71    0.72
  -3  -1 -16   86.19   13.98
   3   1  16   66.78   11.07
   3   1  16   39.59    2.12
  -3  -1 -17  577.44   20.11
  -3  -1 -18  166.88   10.66
  -3  -1 -19   51.44    5.82
  -3  -1 -20  148.75    8.20
  -3  -1 -22   13.51    2.69
  -3  -2  20    4.45    3.18
  -3  -2  19    2.11    1.28
  -3  -2  18    3.93    2.66
   3   2 -17    1.61    0.89
  -3  -2  17   -0.37    1.37
   3   2 -16    7.51    1.67
  -3  -2  16   15.69    2.75
   3   2 -15    0.70    0.62
  -3  -2  15   -0.73    1.45
   3   2 -14   27.54    4.56
  -3  -2  14   28.45    5.71
   3   2 -13  160.43    7.78
  -3  -2  13  191.02    7.58
   3   2 -12  434.27   11.92
  -3  -2  12  540.29   14.57
   3   2 -11   51.85    4.47
  -3  -2  11   68.68    5.32
   3   2 -10    9.99    1.81
  -3  -2  10    9.60    1.64
   3   2  -9   67.54   10.23
  -3  -2   9   73.64    4.35
   3   2  -8   95.22    4.51
  -3  -2   8  105.76    4.92
   3   2  -7    6.00    1.08
  -3  -2   7    6.94    1.59
   3   2  -6  169.10    6.65
  -3  -2   6  204.07    7.93
   3   2  -5   80.33    3.77
  -3  -2   5   83.59    3.82
   3   2  -4  107.93    4.48
  -3  -2   4  113.17    4.63
   3   2  -3  376.45   13.78
  -3  -2   3  387.87   14.17
  -3  -2   2   12.68    2.15
   3   2  -2   15.26    1.30
  -3  -2   2   12.75    1.90
  -3  -2   1 2031.50   18.96
   3   2  -1 2006.91   20.81
  -3  -2   1 1890.83   19.62
  -3  -2   0  267.45   10.00
   3   2   0  280.63   10.43
  -3  -2   0  256.16    9.71
  -3  -2  -1 5410.11   49.50
   3   2   1 5118.46   48.08
  -3  -2  -1 4675.67   44.25
  -3  -2  -2 1467.26   15.14
   3   2   2 1516.80   16.64
  -3  -2  -2 1281.76   13.91
  -3  -2  -3   18.16    3.21
   3   2   3   15.34    1.25
  -3  -2  -3   11.37    1.08
  -3  -2  -4   42.86    2.19
   3   2   4   47.59    6.65
  -3  -2  -4   35.76    1.95
  -3  -2  -5 1159.45   13.33
   3   2   5 1108.32   12.55
  -3  -2  -5  956.26   11.13
  -3  -2  -6  193.07    7.16
   3   2   6  202.31    7.19
  -3  -2  -7  343.52    8.82
   3   2   7  346.54    8.58
   3   2   7  258.34    6.67
  -3  -2  -8  359.33   12.78
   3   2   8  373.60    5.04
   3   2   8  282.12    4.22
  -3  -2  -9   61.04    4.86
   3   2   9   69.07    5.34
   3   2   9   63.97    6.01
  -3  -2 -10  212.37    8.58
   3   2  10  211.81    8.02
   3   2  10  188.34    7.19
  -3  -2 -11   54.78    8.60
   3   2  11   41.70    5.78
   3   2  11   46.15    2.08
  -3  -2 -12 1273.14   28.24
   3   2  12 1166.07   23.44
   3   2  12 1051.31   21.63
  -3  -2 -13    7.28    1.93
   3   2  13    7.48    1.54
   3   2  13    6.43    1.12
  -3  -2 -14  243.29   17.55
   3   2  14  204.12   11.32
   3   2  14  229.46   12.22
  -3  -2 -15    0.45    1.90
   3   2  15    0.65    0.89
   3   2  16    0.90    1.45
  -3  -2 -17   12.44    2.37
   3   2  17   -0.34    0.97
  -3  -2 -18   23.82    2.83
   3   2  18    1.26    1.19
  -3  -2 -19    9.15    5.88
  -3  -2 -20   -0.73    1.90
  -3  -2 -21   19.24    4.13
  -3  -2 -22   10.99    2.40
  -3  -3  19   90.52    6.46
   3   3 -18    3.65    2.32
  -3  -3  18    5.33    3.25
   3   3 -17   20.79    6.52
  -3  -3  17   24.67    5.13
   3   3 -16   22.77    7.94
  -3  -3  16   33.06    7.95
   3   3 -15   75.55    9.14
  -3  -3  15   68.92    5.26
   3   3 -14    3.52    1.02
  -3  -3  14    1.48    1.48
   3   3 -13   13.21    2.94
  -3  -3  13   15.66    2.01
   3   3 -12   10.13    1.79
  -3  -3  12    5.33    1.35
  -3  -3  11    3.29    1.73
   3   3 -10    1.11    0.68
  -3  -3  10    0.16    1.20
   3   3  -9  152.64   10.16
  -3  -3   9  158.82    9.61
   3   3  -8  140.93    7.06
  -3  -3   8  150.35    7.60
   3   3  -7  208.29    8.40
  -3  -3   7  235.92    9.45
   3   3  -6  449.92   13.12
  -3  -3   6  475.94   13.47
   3   3  -5  562.02   16.74
  -3  -3   5  576.20   15.76
   3   3  -4  207.57    7.77
  -3  -3   4  239.60   16.84
   3   3  -3   14.14    1.53
  -3  -3   3    9.66    1.46
   3   3  -2  846.15   19.17
  -3  -3   2  817.32   18.57
  -3  -3   1  280.25    6.21
   3   3  -1  281.65    7.33
  -3  -3   1  270.39    7.21
  -3  -3   0    0.71    0.20
   3   3   0    2.35    0.69
  -3  -3   0   -0.17    0.88
  -3  -3  -1  980.82   10.34
   3   3   1 1054.76   12.35
  -3  -3  -1  920.47   11.28
  -3  -3  -2   37.61    2.76
   3   3   2   42.08    2.23
  -3  -3  -2   35.39    2.11
  -3  -3  -3  580.11   13.05
   3   3   3  632.66   14.37
  -3  -3  -3  541.84   12.71
  -3  -3  -4  698.83   15.64
   3   3   4  793.98   18.28
  -3  -3  -4  676.93   15.81
  -3  -3  -5  167.07    6.28
   3   3   5  264.36   18.35
  -3  -3  -5  231.42   16.26
  -3  -3  -6 4494.74  304.57
   3   3   6 4593.49  311.04
  -3  -3  -6 4312.12  292.15
  -3  -3  -7  262.51    9.63
   3   3   7  318.66   11.19
   3   3   7  233.09    8.52
  -3  -3  -8   -2.17    1.43
   3   3   8    0.65    0.47
   3   3   8    1.99    0.88
  -3  -3  -9   44.98    6.20
   3   3   9   32.65    5.34
   3   3   9   28.64    3.94
  -3  -3 -10  416.76    9.69
   3   3  10  411.39   17.73
   3   3  10  353.19    7.71
  -3  -3 -11  236.02   13.79
   3   3  11  227.97   12.75
   3   3  11  203.81   11.74
  -3  -3 -12   15.22    2.17
   3   3  12   15.99    1.69
   3   3  12    1.72    0.96
  -3  -3 -13  405.32   11.66
   3   3  13  408.07   15.76
   3   3  14    1.91    4.87
   3   3  15    0.98    1.49
   3   3  16    5.05    4.04
  -3  -3 -17  422.71   24.00
  -3  -3 -19    3.32    2.57
  -3  -3 -21   19.69    2.91
  -3  -3 -22   19.92    3.19
   3   4 -18   14.74    3.14
  -3  -4  18   12.98    2.01
   3   4 -17    1.46    1.28
  -3  -4  17    3.74    2.60
   3   4 -16    2.56    1.81
  -3  -4  16   -0.11    1.44
   3   4 -15   45.75    6.44
  -3  -4  15   38.27    5.97
   3   4 -14  120.34   14.23
  -3  -4  14  117.19    7.76
   3   4 -13    9.75    3.99
  -3  -4  13    8.16    1.71
   3   4 -12   21.19    3.64
  -3  -4  12   15.44    2.22
   3   4 -11  762.89   20.59
  -3  -4  11  799.78   20.68
   3   4 -10   41.72    6.93
  -3  -4  10   44.91    8.49
   3   4  -9   78.87   10.51
  -3  -4   9   66.56    8.02
   3   4  -8   28.38    5.38
  -3  -4   8   22.83    5.37
   3   4  -7    1.22    0.84
  -3  -4   7    2.27    1.77
   3   4  -6   30.42    5.70
  -3  -4   6   33.42    2.39
   3   4  -5  491.51   16.94
  -3  -4   5  520.05   17.91
   3   4  -4 1866.88   60.77
  -3  -4   4 1866.38   59.64
   3   4  -3  116.16    5.45
  -3  -4   3  102.08    4.86
   3   4  -2   92.71    4.20
  -3  -4   2   97.36    8.26
   3   4  -1  101.97    4.42
  -3  -4   1   99.50    4.47
  -3  -4   0   96.19    3.56
   3   4   0  109.97    5.30
  -3  -4   0   91.85    4.21
  -3  -4  -1  409.56   10.65
   3   4   1  432.96   11.85
  -3  -4  -1  407.90   11.48
  -3  -4  -2  372.88    9.97
   3   4   2  395.41   10.85
  -3  -4  -2  357.85   10.27
  -3  -4  -3  123.21    4.78
   3   4   3  139.90    5.43
  -3  -4  -3  118.59    5.08
  -3  -4  -4   66.84    5.05
   3   4   4   76.39    5.65
  -3  -4  -4   73.54    9.52
  -3  -4  -5  486.61   13.17
   3   4   5  495.90   13.12
  -3  -4  -5  459.87   12.86
  -3  -4  -6    1.43    0.70
   3   4   6    0.47    0.59
  -3  -4  -6    5.63    1.62
  -3  -4  -7  286.70   10.28
   3   4   7  301.18   10.81
   3   4   7  236.43    9.12
  -3  -4  -8  329.74   14.51
   3   4   8  388.95   16.46
   3   4   8  311.65   13.93
  -3  -4  -9  151.95    7.42
   3   4   9  179.06    8.80
   3   4   9  160.15    7.64
  -3  -4 -10  230.44   13.44
   3   4  10  205.09   17.45
  -3  -4 -11   10.78    1.92
   3   4  11   10.25    1.93
  -3  -4 -12   34.20    4.44
   3   4  12   26.17    4.80
  -3  -4 -13   -1.08    1.60
   3   4  13    1.37    1.14
   3   4  14   -0.35    1.11
   3   4  15    0.28    1.14
   3   4  16    0.95    1.59
   3   4  17    0.57    1.23
   3   4  18   -2.57    1.25
   3   4  19   -0.77    1.33
  -3  -4 -20  121.19    8.62
  -3  -4 -21  111.14    5.80
   3   5 -17   21.44    2.97
  -3  -5  17   20.58    2.81
   3   5 -16   30.47    4.51
  -3  -5  16   29.99    3.81
   3   5 -15   -0.49    1.35
  -3  -5  15    0.09    1.25
   3   5 -14   -0.32    1.38
  -3  -5  14    1.00    1.37
   3   5 -13   93.02   11.30
  -3  -5  13   67.25    5.43
   3   5 -12    1.24    0.97
  -3  -5  12    1.34    2.03
   3   5 -11    2.51    1.11
  -3  -5  11    3.85    1.56
   3   5 -10   81.78   11.09
  -3  -5  10   69.77    3.73
   3   5  -9   29.79    4.78
  -3  -5   9   30.69    2.79
   3   5  -8    3.11    1.14
  -3  -5   8    1.73    1.29
   3   5  -7   39.72    6.18
  -3  -5   7   33.05    2.62
   3   5  -6  549.37   18.51
  -3  -5   6  499.64   17.51
   3   5  -5  829.87   19.69
  -3  -5   5  799.48   17.91
   3   5  -4  124.97    7.96
  -3  -5   4  127.19    7.99
   3   5  -3    1.48    0.59
  -3  -5   3    0.64    1.26
   3   5  -2   56.17    8.53
  -3  -5   2   44.97    2.82
   3   5  -1   11.07    1.63
  -3  -5   1   22.11    2.54
  -3  -5   0 3625.54  113.52
   3   5   0 3977.56   21.24
  -3  -5   0 3801.37   24.10
  -3  -5  -1 1124.08   35.72
   3   5   1 1310.31   42.44
  -3  -5  -1 1148.01   39.28
  -3  -5  -2  336.69   11.34
   3   5   2  372.38   12.78
  -3  -5  -2  333.47   12.06
  -3  -5  -3   57.88    2.94
   3   5   3   58.93    2.94
  -3  -5  -3   66.28    6.35
  -3  -5  -4  370.79    7.68
   3   5   4  398.28   17.19
  -3  -5  -4  385.96   17.22
  -3  -5  -5   14.67    1.28
   3   5   5   21.80    3.06
  -3  -5  -5   22.33    3.42
  -3  -5  -6  540.16   12.03
   3   5   6  599.51   10.97
  -3  -5  -6  561.67   11.84
  -3  -5  -7 1300.77   26.82
   3   5   7 1445.76   28.03
   3   5   7 1103.38   23.24
  -3  -5  -8   39.74    2.59
   3   5   8   35.37    5.60
  -3  -5  -9    4.67    1.38
   3   5   9    1.89    0.90
  -3  -5 -10   64.67   10.60
   3   5  10   56.93    8.78
  -3  -5 -11  102.42    3.99
   3   5  11   85.98   13.71
  -3  -5 -12  131.38    5.73
   3   5  12  133.87    5.33
  -3  -5 -13   12.59    1.97
   3   5  13    2.51    1.44
   3   5  14    2.75    2.24
  -3  -5 -15  115.98   18.03
   3   5  15    0.86    1.37
   3   5  16   -0.54    1.35
  -3  -5 -17    0.18    1.62
   3   5  17   -0.49    1.22
   3   5  18    3.28    2.40
   3   5  19    0.84    1.45
  -3  -5 -20   59.02    4.26
  -3  -5 -21   -0.38    1.69
   3   6 -16    2.24    1.79
   3   6 -15   -0.06    1.40
  -3  -6  15    0.35    1.17
   3   6 -14   30.72    4.58
  -3  -6  14   24.88   11.60
   3   6 -13   11.39    6.83
  -3  -6  13    5.95    4.04
   3   6 -12   32.88    5.71
  -3  -6  12   25.61    5.39
   3   6 -11   28.21    4.23
  -3  -6  11   23.19    5.20
   3   6 -10   78.31   10.07
  -3  -6  10   66.09    4.19
   3   6  -9  115.27   16.77
  -3  -6   9   98.00   12.48
   3   6  -8    0.85    0.90
  -3  -6   8    1.21    1.48
   3   6  -7   35.78    7.29
  -3  -6   7   32.19    5.83
   3   6  -6   77.18   10.43
  -3  -6   6   69.81    3.51
   3   6  -5   43.21    5.87
  -3  -6   5   32.98    2.77
   3   6  -4   -0.28    1.16
  -3  -6   4    2.06    1.32
   3   6  -3   55.00    8.18
  -3  -6   3   33.25    2.58
   3   6  -2  361.96   15.56
  -3  -6   2  360.86   13.03
   3   6  -1  464.25   15.70
  -3  -6   1  472.39   16.50
   3   6   0   84.90    3.08
  -3  -6   0   91.94    3.71
  -3  -6  -1    1.23    0.64
   3   6   1    1.00    0.93
  -3  -6  -1    1.41    1.01
  -3  -6  -2   67.93    2.44
   3   6   2   73.73    2.70
  -3  -6  -2   76.05    8.00
  -3  -6  -3  124.99    3.18
   3   6   3  132.29    4.26
  -3  -6  -4 1088.39   34.39
   3   6   4 1175.58   37.00
  -3  -6  -4 1197.43   38.93
  -3  -6  -5 1222.90   38.38
   3   6   5 1418.92   43.90
  -3  -6  -5 1374.68   44.54
  -3  -6  -6  126.52    9.60
  -3  -6  -7   31.54    3.15
   3   6   7   30.99    4.47
  -3  -6  -8  217.78   12.11
   3   6   8  193.10   10.93
  -3  -6  -9  159.17    6.01
   3   6   9  169.28    6.60
  -3  -6 -11  567.90   31.47
  -3  -6 -12   13.24    1.93
   3   6  12   -1.20    1.38
  -3  -6 -13   11.62    1.73
   3   6  13   -1.34    1.41
  -3  -6 -14   11.51    1.82
   3   6  14   -1.70    1.34
   3   6  15   -1.22    1.45
  -3  -6 -16   15.14    3.39
   3   6  16    1.21    1.75
   3   6  17   -0.08    1.48
  -3  -6 -18   24.18    2.93
   3   6  18    0.39    1.43
  -3  -6 -19    0.77    1.83
   3   7 -15   68.57   16.85
   3   7 -14   -0.64    1.49
   3   7 -13    1.32    1.23
  -3  -7  13    1.80    1.26
   3   7 -12  123.88   14.97
  -3  -7  12  108.82    6.92
   3   7 -11   -0.97    1.58
  -3  -7  11    2.81    2.09
   3   7 -10    1.17    0.91
  -3  -7  10    2.41    1.46
   3   7  -9   10.34    2.07
  -3  -7   9    7.38    1.79
   3   7  -8    0.56    1.02
  -3  -7   8   -0.29    1.39
   3   7  -7    6.86    2.53
  -3  -7   7    1.53    1.52
   3   7  -6    0.24    1.03
  -3  -7   6    2.17    1.46
   3   7  -5  165.85    7.38
  -3  -7   5  149.61    6.76
   3   7  -4   64.69   12.10
  -3  -7   4   58.41    6.84
   3   7  -3   72.90   10.60
  -3  -7   3   68.76    4.03
   3   7  -2   13.87    2.82
  -3  -7   2   12.06    1.86
   3   7  -1   42.66    7.83
  -3  -7   1   46.28    3.23
   3   7   0  158.21    5.62
  -3  -7   0  151.36    6.84
   3   7   1   43.29    2.61
  -3  -7  -1   49.78    3.72
  -3  -7  -2   36.17    2.14
   3   7   2   42.88    5.18
  -3  -7  -2   33.17    2.70
  -3  -7  -3   11.30    1.52
   3   7   3   14.43    1.80
  -3  -7  -3   11.04    2.20
  -3  -7  -4  141.59    4.94
   3   7   4  158.55    5.29
  -3  -7  -4  152.15    6.09
  -3  -7  -5   52.88    3.00
  -3  -7  -5   58.79    5.64
  -3  -7  -6    1.03    1.02
   3   7   6   -0.53    1.35
  -3  -7  -7  543.60   30.02
   3   7   7  526.25   29.92
  -3  -7  -8   18.35    2.51
   3   7   8   19.85    3.10
  -3  -7  -9  386.20   12.56
   3   7   9  347.92   11.78
  -3  -7 -10    1.10    1.61
   3   7  10    6.02    3.55
   3   7  11    5.61    2.94
  -3  -7 -12    0.07    1.67
   3   7  12    2.51    1.84
  -3  -7 -13   17.68    2.23
   3   7  13    0.46    0.76
   3   7  14    0.90    0.79
  -3  -7 -15    6.15    4.01
   3   7  15   -0.84    1.40
   3   7  16   -1.74    1.39
  -3  -7 -17    7.81    2.35
   3   7  17   -0.50    1.44
  -3  -7 -18   16.59    3.00
   3   8 -13   -0.94    1.93
   3   8 -12  739.90   15.12
   3   8 -11   37.26    5.41
  -3  -8  11   29.85    5.90
   3   8 -10   -1.21    1.74
  -3  -8  10   -2.24    1.46
   3   8  -9   -0.53    1.66
  -3  -8   9    2.65    2.26
   3   8  -8  170.27   18.66
  -3  -8   8  134.29   10.68
   3   8  -7    7.21    4.55
  -3  -8   7    3.35    2.11
   3   8  -6    4.01    2.17
  -3  -8   6    0.01    1.45
   3   8  -5   98.94   13.35
  -3  -8   5   95.01   10.69
   3   8  -4   14.07    1.96
  -3  -8   4   14.39    1.79
   3   8  -3   32.69    5.82
  -3  -8   3   30.81    3.47
   3   8  -2   59.29   10.27
  -3  -8   2   50.57    7.60
   3   8  -1  882.77   25.53
  -3  -8   1  837.14   25.94
   3   8   0  247.51    8.74
  -3  -8   0  276.08   16.39
   3   8   1  342.01   11.09
  -3  -8  -1  340.17   12.14
  -3  -8  -2    5.09    2.17
  -3  -8  -3   29.89    4.47
  -3  -8  -4   41.88    3.45
  -3  -8  -5    1.43    1.23
   3   8   5    4.59    3.50
  -3  -8  -6   58.52    4.62
   3   8   6   58.01   11.61
  -3  -8  -7   11.42    1.69
  -3  -8  -8   91.13    3.99
  -3  -8  -9    6.41    3.36
   3   8   9   -0.10    1.42
   3   8  10   -1.77    1.49
  -3  -8 -11  464.88  208.63
   3   8  11    3.53    2.76
   3   8  12   -0.52    1.71
   3   8  13   -0.17    1.71
  -3  -8 -14    4.03    3.10
   3   8  14    1.69    1.26
   3   8  15    0.20    1.60
   3   8  16    1.99    2.10
   3   9  -9    9.94    1.21
   3   9  -8  157.14   19.76
   3   9  -7  156.86   10.21
  -3  -9   7   91.37   15.08
   3   9  -6    1.47    0.81
  -3  -9   6   -0.01    1.43
   3   9  -5   46.96    9.19
  -3  -9   5   47.14    7.06
   3   9  -4    5.91    1.49
  -3  -9   4    4.02    2.73
   3   9  -3    4.52    3.10
  -3  -9   3    9.48    2.64
  -3  -9   2    0.71    1.53
  -3  -9   1   16.59    2.31
  -3  -9   0   26.87    5.10
  -3  -9  -1   57.43    4.54
  -3  -9  -2   54.00    5.38
   3   9   4   24.21    8.08
   3   9   5    1.01    1.00
   3   9   6    0.85    1.13
   3   9   7    1.94    1.56
   3   9   8    0.64    0.71
   3   9   9   -0.32    1.55
   3   9  10    1.33    1.07
   3   9  11   -2.07    1.58
   3   9  12    0.26    0.77
   3   9  13   -1.34    1.52
   3   9  14   -0.04    1.68
  -3 -10   2    7.24    1.17
  -3 -10   1  262.42    8.64
  -3 -10   0  130.03   17.70
  -3 -10  -1  120.50   18.66
   3  10   3   -0.54    1.45
   3  10   4   -0.37    1.44
   3  10   5   -0.04    1.45
   3  10   6    0.12    1.87
   3  10   7    0.82    0.77
   3  10   8   -0.58    1.48
   3  10   9    2.45    1.77
   3  10  10    0.15    0.96
   4  -8  -9   15.72    2.86
   4  -8  -8  138.64    6.59
   4  -8  -7   49.21    7.77
   4  -8  -6   16.38    3.04
   4  -8  -5   26.40    5.64
   4  -8  -4    4.94    3.84
   4  -8  -3    0.56    1.75
  -4   8   1   10.73    6.50
  -4   8   0  142.28   24.93
  -4   8  -1   50.62    8.37
  -4   8  -2   94.91   19.21
  -4   8  -3    3.18    2.32
  -4   8  -4   -0.42    0.93
  -4   8  -5    0.90    0.95
  -4   8  -6    0.59    0.92
   4  -7 -12    6.85    1.87
   4  -7 -11   11.56    2.50
   4  -7 -10    5.60    3.51
   4  -7  -9    2.22    1.32
   4  -7  -8   10.90    6.45
   4  -7  -7   20.13    5.81
   4  -7  -6   54.21    5.90
   4  -7  -5   78.37    4.89
   4  -7  -4   95.63    9.47
   4  -7  -3   34.52    4.07
   4  -7  -2    0.33    1.63
  -4   7   0    3.20    1.69
  -4   7  -1   14.04    2.27
   4  -7   1    7.62    2.19
  -4   7  -2   -0.66    1.42
   4  -7   2    1.22    0.76
  -4   7  -3   -0.46    1.42
   4  -7   3    1.87    1.01
  -4   7  -4   97.43   11.34
   4  -7   4   75.55    9.94
  -4   7  -5   16.62    2.66
   4  -7   5    4.72    3.16
  -4   7  -6  455.88   17.14
   4  -7   6  363.63   27.12
  -4   7  -7   14.92    3.46
   4  -7   7    9.63    2.17
  -4   7  -8    1.69    1.30
   4  -7   8   -0.27    1.52
  -4   7  -9   14.50    1.83
   4  -7   9   11.92    2.13
  -4   7 -10   76.47    5.93
   4  -7  10   55.90   10.38
   4  -7  11   21.92    5.18
   4  -7  12    4.41    3.22
   4  -7  13    7.88    2.82
   4  -6 -13    1.80    1.42
  -4   6  13    1.02    1.83
   4  -6 -12   90.42   14.65
  -4   6  12  113.42    7.82
   4  -6 -11    7.08    2.38
  -4   6  11   14.62    3.81
   4  -6 -10    1.69    2.33
  -4   6  10   -0.25    1.33
   4  -6  -9   -0.10    1.43
  -4   6   9    0.31    1.27
   4  -6  -8    3.36    2.63
  -4   6   8    4.19    2.61
   4  -6  -7    4.42    2.49
  -4   6   7    3.35    1.90
   4  -6  -6   18.86    2.54
  -4   6   6   21.70    2.00
   4  -6  -5   -1.12    1.43
  -4   6   5    0.15    1.10
   4  -6  -4    0.23    1.48
  -4   6   4   -0.09    0.91
   4  -6  -3   19.94    2.93
   4  -6  -2    5.87    1.88
   4  -6  -2    2.19    0.49
   4  -6  -1   12.68    2.12
   4  -6  -1   10.58    1.70
  -4   6   0  420.96   16.05
   4  -6   0  389.78   13.17
  -4   6  -1  154.47   21.05
   4  -6   1  135.12   16.44
  -4   6  -2   21.08    3.06
   4  -6   2   18.21    2.46
  -4   6  -3   58.74    8.66
   4  -6   3   46.38    4.97
  -4   6  -4   14.81    2.51
   4  -6   4   10.20    3.67
  -4   6  -5   55.28    8.32
   4  -6   5   44.72    6.88
  -4   6  -6    4.45    2.01
   4  -6   6    4.04    2.09
  -4   6  -7  113.55   15.24
   4  -6   7  108.02    7.39
  -4   6  -8   14.23    2.59
   4  -6   8   13.23    1.58
  -4   6  -9    5.44    2.61
   4  -6   9    2.66    1.47
  -4   6 -10  340.67   11.02
   4  -6  10  289.54   10.06
  -4   6 -11  119.74   19.16
   4  -6  11  122.30   10.12
  -4   6 -12   38.98    6.80
   4  -6  12   32.20    3.22
  -4   6 -13  109.40   19.30
   4  -6  13  103.88   17.83
   4  -6  14   66.64   13.55
   4  -6  15   12.15    2.43
   4  -6  16   48.56    3.77
  -4   5  16    3.60    2.90
   4  -5 -15    5.96    1.61
  -4   5  15   -0.16    1.79
   4  -5 -14    1.28    1.25
  -4   5  14    1.64    1.88
   4  -5 -13   11.13    2.94
  -4   5  13   19.22    4.29
   4  -5 -12   17.88    2.44
  -4   5  12   17.82    2.73
   4  -5 -11   77.24   10.67
  -4   5  11  105.00    4.74
   4  -5 -10   13.97    2.40
  -4   5  10   17.64    2.54
   4  -5  -9    4.92    4.06
  -4   5   9    3.36    2.62
   4  -5  -8  208.45    8.29
  -4   5   8  235.55    8.59
   4  -5  -7    4.50    1.44
  -4   5   7    1.65    1.34
   4  -5  -6   17.16    3.04
  -4   5   6   13.92    3.41
   4  -5  -5    7.44    1.93
  -4   5   5    8.66    1.60
   4  -5  -4   26.16    2.86
   4  -5  -4   17.71    2.28
  -4   5   4   22.87    1.89
   4  -5  -3    1.87    1.34
   4  -5  -3   -0.39    0.71
  -4   5   3    1.44    1.10
   4  -5  -2   54.47    3.69
   4  -5  -2   42.87    2.20
  -4   5   2   52.54    2.47
   4  -5  -1   29.53    2.74
   4  -5  -1   25.29    2.84
  -4   5   0    4.47    1.22
   4  -5   0    4.55    0.89
  -4   5  -1  150.14    9.08
   4  -5   1  148.60    8.99
  -4   5  -2   31.93    5.78
   4  -5   2   29.18    2.17
  -4   5  -3  101.08   12.02
   4  -5   3  100.68   11.58
  -4   5  -4  365.84   11.01
   4  -5   4  328.90   10.03
  -4   5  -5  446.53   13.37
   4  -5   5  400.67   12.00
  -4   5  -6   69.73   12.81
   4  -5   6   55.04    4.82
  -4   5  -7   67.27    9.43
   4  -5   7   62.96    9.63
  -4   5  -8   -0.32    1.51
   4  -5   8    0.69    1.53
  -4   5  -9   90.84   14.39
   4  -5   9   94.96   11.93
  -4   5 -10  148.06    9.70
   4  -5  10  124.76    8.28
  -4   5 -11  276.69   16.26
   4  -5  11  223.57   19.70
  -4   5 -12   61.39    9.50
   4  -5  12   59.22   12.80
  -4   5 -13    2.66    1.59
   4  -5  13    4.16    3.50
  -4   5 -14   63.18   10.56
   4  -5  14   61.18    9.02
  -4   5 -15  112.14   21.90
   4  -5  15  100.07   18.85
   4  -5  16   67.44   11.16
   4  -5  17   96.68   17.46
  -4   4  17    2.62    2.46
  -4   4  16   21.88    3.31
   4  -4 -15    1.42    1.45
  -4   4  15    0.02    1.64
   4  -4 -14    1.07    1.03
  -4   4  14   -1.72    1.77
   4  -4 -13    0.76    0.74
  -4   4  13   -2.34    1.56
   4  -4 -12   33.06    6.47
  -4   4  12   42.40    4.21
   4  -4 -11  222.36    8.56
  -4   4  11  271.80    9.83
   4  -4 -10    6.77    1.71
  -4   4  10   11.43    2.46
   4  -4  -9  105.38   11.58
  -4   4   9  135.26    8.56
   4  -4  -8    8.52    1.89
  -4   4   8    6.16    1.54
   4  -4  -7   88.06    3.93
  -4   4   7  112.83    4.61
   4  -4  -6  121.82    4.55
   4  -4  -6  103.88    2.94
  -4   4   6  138.76    4.38
   4  -4  -5  124.02    4.38
   4  -4  -5  111.40    4.06
  -4   4   5  134.93    3.84
   4  -4  -4    4.55    1.20
   4  -4  -4    6.43    0.89
  -4   4   4    5.42    0.96
   4  -4  -3   41.06    5.55
   4  -4  -3   34.75    3.59
  -4   4   3   37.15    1.99
   4  -4  -2   61.82    7.50
   4  -4  -2   52.38    3.95
  -4   4   2   61.41    2.21
   4  -4  -1   44.32    2.72
   4  -4  -1   42.03    2.27
  -4   4   1   48.62    1.97
  -4   4   0   -0.79    1.46
   4  -4   0   -0.09    0.85
  -4   4   0    0.43    0.62
  -4   4  -1  275.87    7.96
   4  -4   1  263.03    7.13
  -4   4  -2  838.33   20.61
   4  -4   2  848.63   27.36
  -4   4  -3   57.11    7.53
   4  -4   3   58.70    5.89
  -4   4  -4  248.50    9.59
   4  -4   4  234.10    8.96
  -4   4  -5   20.97    3.45
   4  -4   5   20.86    2.59
  -4   4  -6    4.30    0.95
   4  -4   6    5.58    1.17
  -4   4  -7    0.20    0.64
   4  -4   7    2.01    0.73
  -4   4  -8  420.26   22.14
   4  -4   8  355.19   19.04
  -4   4  -9  157.63    6.30
   4  -4   9  121.19    5.49
  -4   4 -10   39.72    5.72
   4  -4  10   35.45    6.61
  -4   4 -11   85.51   29.95
   4  -4  11   81.61    4.73
  -4   4 -12    1.97    1.92
   4  -4  12    1.42    1.75
  -4   4 -13   20.61    2.68
   4  -4  13   14.14    3.03
  -4   4 -14  522.53   12.38
   4  -4  14  452.44    9.85
  -4   4 -15   19.37    2.45
   4  -4  15   11.83    7.50
  -4   4 -16    1.72    1.98
   4  -4  16    4.31    2.96
  -4   4 -17   35.07    9.00
   4  -4  17   39.90    7.01
   4  -4  18    2.54    1.94
  -4   3  18    4.16    3.64
  -4   3  17    0.18    1.72
  -4   3  16   -0.13    1.74
   4  -3 -15    3.50    2.47
  -4   3  15    5.29    3.70
   4  -3 -14    9.84    2.08
  -4   3  14   11.28    2.53
   4  -3 -13    1.18    1.42
  -4   3  13    2.68    2.58
   4  -3 -12    1.70    1.31
  -4   3  12    1.88    1.79
   4  -3 -11   12.84    3.25
  -4   3  11   15.21    3.77
   4  -3 -10   53.79    7.23
  -4   3  10   74.21    4.12
   4  -3  -9   -0.52    1.33
  -4   3   9   -0.87    1.98
   4  -3  -8  249.60    7.88
   4  -3  -8  253.94    7.13
  -4   3   8  290.12    9.07
   4  -3  -7 1478.35   46.67
   4  -3  -7 1388.83   43.43
  -4   3   7 1748.81   54.58
   4  -3  -6   65.53    3.09
   4  -3  -6   70.15    5.67
  -4   3   6   81.74    3.50
   4  -3  -5   10.94    1.89
   4  -3  -5   11.30    1.42
  -4   3   5   10.46    1.31
   4  -3  -4   12.69    1.73
   4  -3  -4   10.88    2.15
  -4   3   4   11.27    1.51
   4  -3  -3    5.52    1.24
   4  -3  -3    3.37    0.60
  -4   3   3    3.46    1.19
   4  -3  -2  278.20   12.69
   4  -3  -2  256.93   11.47
  -4   3   2  292.88   12.71
   4  -3  -1  688.62   13.64
   4  -3  -1  643.61   12.33
  -4   3   1  722.16   12.74
  -4   3   0   37.92    5.16
   4  -3   0   35.58    2.11
  -4   3   0   43.77    1.72
  -4   3  -1    4.41    0.90
   4  -3   1    4.55    1.04
  -4   3  -2   27.40    3.52
   4  -3   2   27.17    4.53
  -4   3  -3   65.41    9.19
   4  -3   3   64.37    7.06
  -4   3  -4  647.58   13.85
   4  -3   4  637.29   12.80
  -4   3  -5 1656.50   30.76
   4  -3   5 1625.10   28.80
  -4   3  -6 2747.47  200.20
   4  -3   6 2585.24   50.74
  -4   3  -7   37.28    5.58
   4  -3   7   27.83    4.94
  -4   3  -8   27.41    2.96
   4  -3   8   25.07    4.01
  -4   3  -9   15.04    2.85
   4  -3   9   11.53    1.70
  -4   3 -10  255.99   14.30
   4  -3  10  238.75   13.28
  -4   3 -11   15.22    2.66
   4  -3  11   14.76    2.38
  -4   3 -12  924.86   50.63
   4  -3  12  784.71   43.16
  -4   3 -13  188.37    8.97
   4  -3  13  161.13    7.37
  -4   3 -14    9.65    4.06
  -4   3 -15    2.31    1.68
   4  -3  15    4.86    2.32
  -4   3 -16   26.81    6.20
   4  -3  16   26.32    4.44
  -4   3 -17  490.34   21.93
   4  -3  17  428.96  192.56
  -4   3 -18  378.14   24.87
   4  -3  18  389.31   22.64
   4  -3  19    9.00    1.58
  -4   2  19   13.42    3.29
  -4   2  18   10.13    3.19
  -4   2  17    6.10    4.43
  -4   2  16    4.56    3.85
  -4   2  15    2.14    2.13
   4  -2 -14   38.50    3.30
  -4   2  14   66.95    5.82
   4  -2 -13   17.42    1.86
  -4   2  13   29.50    3.38
   4  -2 -12    1.05    1.08
  -4   2  12    2.45    1.86
   4  -2 -11    2.99    1.23
  -4   2  11    3.57    1.84
   4  -2 -10  103.74   10.52
   4  -2 -10  108.27    3.05
  -4   2  10  138.87    4.84
   4  -2  -9    4.97    0.94
   4  -2  -9    3.73    1.05
  -4   2   9    6.51    1.64
   4  -2  -8  240.90    8.89
   4  -2  -8  260.83    9.15
  -4   2   8  324.05   11.84
   4  -2  -7    1.99    1.24
   4  -2  -7    3.03    0.45
  -4   2   7    1.89    1.62
   4  -2  -6  156.16    7.69
   4  -2  -6  160.75    7.48
  -4   2   6  194.26    9.10
   4  -2  -5   38.36    2.09
   4  -2  -5   41.59    4.37
  -4   2   5   39.34    2.43
   4  -2  -4    3.08    1.02
   4  -2  -4    3.37    0.61
  -4   2   4    2.48    1.61
   4  -2  -3   68.37    3.66
   4  -2  -3   69.55    3.42
  -4   2   3   83.77    3.87
   4  -2  -2  186.57    7.28
   4  -2  -2  186.64    7.37
  -4   2   2  211.10    7.78
   4  -2  -1   35.41    5.16
  -4   2   1   35.32    2.83
  -4   2   0   98.10    4.52
   4  -2   0  104.68    4.62
  -4   2   0  120.81    4.55
  -4   2  -1   28.30    4.00
   4  -2   1   28.70    4.94
  -4   2  -1   26.23    3.02
  -4   2  -2  153.86   11.86
   4  -2   2  139.15    6.09
  -4   2  -3 1175.52   30.90
   4  -2   3 1203.37   31.14
  -4   2  -4    1.39    0.75
   4  -2   4   -0.45    1.23
  -4   2  -5   91.05    4.64
   4  -2   5   93.15    4.68
  -4   2  -6   16.05    2.92
   4  -2   6   12.34    1.66
  -4   2  -7  285.13   12.93
   4  -2   7  256.85   12.06
  -4   2  -8   48.34    5.81
   4  -2   8   32.43    2.18
  -4   2  -9  264.83   15.32
   4  -2   9  231.32   13.63
  -4   2 -10   22.43    3.68
   4  -2  10   27.55    4.31
  -4   2 -11  571.76   15.21
   4  -2  11  468.96   13.26
  -4   2 -12    2.32    0.90
   4  -2  12    0.41    1.93
  -4   2 -13    3.07    1.29
   4  -2  13    4.22    1.52
  -4   2 -14    3.07    1.80
   4  -2  14   -0.82    1.24
  -4   2 -15  290.52   10.49
   4  -2  15  254.23   13.17
  -4   2 -16  208.54   12.71
   4  -2  16  179.32   11.11
  -4   2 -17    5.43    3.44
   4  -2  17    7.92    5.11
  -4   2 -18   45.86    6.91
   4  -2  18   40.75    7.49
  -4   2 -19    2.10    1.49
   4  -2  19    1.69    1.65
  -4   1  20   12.78    2.99
  -4   1  19  166.56    8.80
  -4   1  18   99.84    7.97
  -4   1  17   -0.40    1.81
  -4   1  16    9.47    6.21
  -4   1  15    2.26    2.62
  -4   1  14    8.61    3.67
   4  -1 -13    0.10    0.87
  -4   1  13    3.41    2.04
   4  -1 -12   -0.95    0.90
   4  -1 -12    0.61    0.53
  -4   1  12    1.62    1.67
   4  -1 -11   36.18    2.37
   4  -1 -11   31.18    4.72
  -4   1  11   41.92    3.11
   4  -1 -10  342.80    9.31
   4  -1 -10  373.71   10.25
  -4   1  10  470.06   13.00
   4  -1  -9   76.26    9.16
   4  -1  -9   85.24    6.30
  -4   1   9   97.35    3.51
   4  -1  -8   65.20    7.65
   4  -1  -8   75.25   10.23
  -4   1   8   69.94    4.94
   4  -1  -7  773.72   14.16
   4  -1  -7  784.76   15.33
  -4   1   7  950.77   17.73
   4  -1  -6 2370.82   75.28
   4  -1  -6 2522.70   79.79
  -4   1   6 2978.33   94.13
   4  -1  -5  549.90   18.55
   4  -1  -5  588.29   19.55
  -4   1   5  647.17   23.73
   4  -1  -4   96.85    4.31
   4  -1  -4   96.88    4.27
  -4   1   4  113.05    4.82
   4  -1  -3  177.06    6.77
   4  -1  -3  184.08    7.03
  -4   1   3  214.21    7.88
   4  -1  -2   49.33    7.84
  -4   1   2   43.34    3.47
  -4   1   1    2.02    0.61
   4  -1  -1    2.26    0.65
  -4   1   1    1.62    0.60
  -4   1   0   35.15    4.66
   4  -1   0   37.90    5.06
  -4   1   0   36.22    1.76
  -4   1  -1  410.15   10.12
   4  -1   1  422.24   10.51
  -4   1  -1  419.08    9.43
  -4   1  -2  119.40    6.06
   4  -1   2  117.16    5.05
  -4   1  -2   99.46    3.59
  -4   1  -3   16.21    2.55
   4  -1   3   17.69    2.55
  -4   1  -4    2.20    0.79
   4  -1   4    1.47    1.18
  -4   1  -5  952.63   24.70
   4  -1   5  869.72   22.84
  -4   1  -6 3469.69   85.63
   4  -1   6 3202.00   17.79
  -4   1  -7 1371.80   44.49
   4  -1   7 1292.23   42.42
  -4   1  -8    4.00    1.01
   4  -1   8    0.09    1.39
  -4   1  -9  230.34   10.84
   4  -1   9  201.85    9.53
  -4   1 -10  720.09   16.44
   4  -1  10  661.49   15.04
  -4   1 -11    4.03    0.98
   4  -1  11    4.89    0.99
  -4   1 -12    1.75    0.84
   4  -1  12    2.02    0.99
  -4   1 -13 1306.85   66.10
   4  -1  13 1066.40   54.22
  -4   1 -14   15.85    2.61
   4  -1  14   12.73    3.51
  -4   1 -15  186.27    7.86
   4  -1  15  174.14    7.23
  -4   1 -16   32.48    4.49
   4  -1  16   29.82    2.68
  -4   1 -17  170.13   22.75
   4  -1  17  125.67   19.67
  -4   1 -18  169.91   24.90
   4  -1  18  165.60    6.62
  -4   1 -19  130.25   25.30
  -4   1 -20    5.00    3.03
  -4   0  20   20.76    3.03
  -4   0  19   -1.07    1.77
  -4   0  18   32.92    3.63
  -4   0  17    3.40    2.83
  -4   0  16    9.29    5.92
  -4   0  15   32.26    5.09
   4   0 -14   12.59    1.60
  -4   0  14   21.57    3.71
   4   0 -13    0.95    0.69
  -4   0  13    1.88    1.67
   4   0 -12    6.53    1.23
   4   0 -12    8.05    1.39
  -4   0  12   11.22    2.38
   4   0 -11   23.43    2.45
   4   0 -11   31.34    6.13
  -4   0  11   36.88    2.59
   4   0 -10   21.77    2.80
   4   0 -10   24.74    3.69
  -4   0  10   28.02    3.00
   4   0  -9    8.42    1.63
   4   0  -9   11.02    1.33
  -4   0   9   10.30    1.97
   4   0  -8    3.72    0.74
   4   0  -8    1.19    0.74
  -4   0   8    1.57    1.59
   4   0  -7  273.32   11.92
   4   0  -7  297.80   13.21
  -4   0   7  353.78   16.24
   4   0  -6 1083.59   34.66
   4   0  -6 1165.88   37.73
  -4   0   6 1347.92   43.54
   4   0  -5  132.57    5.45
   4   0  -5  160.67   11.74
  -4   0   5  170.30    6.85
   4   0  -4  169.88    6.33
   4   0  -4  169.36    6.65
  -4   0   4  193.33    7.38
  -4   0   3   14.91    3.53
   4   0  -3   14.33    3.07
  -4   0   3   17.74    1.66
  -4   0   2  728.10   16.32
   4   0  -2  808.43   18.41
  -4   0   2  880.68   19.63
  -4   0   1  269.46   18.64
   4   0  -1  286.78   19.97
  -4   0   1  295.44   20.38
  -4   0   0  143.43   10.11
   4   0   0  139.60    5.58
  -4   0   0  121.65    4.54
  -4   0  -1  928.58   20.55
   4   0   1  937.43   21.10
  -4   0  -1  826.51   18.08
  -4   0  -2   54.15    3.31
   4   0   2   54.21    2.94
  -4   0  -2   36.57    1.73
  -4   0  -3  723.03   16.60
   4   0   3  740.16   17.07
  -4   0  -3  586.18   12.78
  -4   0  -4    5.27    0.88
   4   0   4    2.53    1.36
  -4   0  -4    3.36    0.48
  -4   0  -5 1911.06   42.03
   4   0   5 1749.81   38.93
  -4   0  -6   18.43    3.02
   4   0   6   18.16    3.86
   4   0   6    7.23    1.27
  -4   0  -7   74.68    5.86
   4   0   7   72.09    5.88
  -4   0  -8   33.50    2.15
   4   0   8   33.95    2.35
  -4   0  -9   71.28    3.10
   4   0   9   69.49    6.96
  -4   0 -10  187.23    9.02
   4   0  10  176.96    8.51
  -4   0 -11   11.92    1.77
   4   0  11   11.40    1.48
  -4   0 -12   32.79    2.85
   4   0  12   32.09    4.80
  -4   0 -13   26.52    4.20
   4   0  13   22.08    4.03
  -4   0 -14  143.56   16.07
   4   0  14  103.10   13.30
  -4   0 -15  152.75   12.46
   4   0  15  128.29    8.09
  -4   0 -16   97.15   15.15
   4   0  16   85.32    4.35
  -4   0 -17  351.30   32.21
   4   0  17  331.41   18.75
  -4   0 -18   17.13    2.52
   4   0  18   15.00    3.30
  -4   0 -19    6.87    2.04
  -4   0 -20   22.66    5.66
  -4   0 -21   42.01    7.60
  -4  -1  20    3.32    2.93
  -4  -1  19  165.09    6.74
  -4  -1  18  169.54   11.32
  -4  -1  17   24.00    4.94
  -4  -1  16   31.83    3.29
   4   1 -15   21.03    4.70
  -4  -1  15   28.71    2.88
   4   1 -14    0.72    0.60
  -4  -1  14    1.41    1.85
   4   1 -13   12.72    3.45
  -4  -1  13   15.84    2.59
   4   1 -12   18.93    3.36
  -4  -1  12   25.40    2.58
   4   1 -11   13.34    3.58
  -4  -1  11   18.36    2.54
   4   1 -10    8.17    1.25
  -4  -1  10   14.82    2.07
   4   1  -9   10.05    1.29
  -4  -1   9   11.13    1.97
   4   1  -8   40.75    2.19
  -4  -1   8   48.01    2.83
   4   1  -7  192.33    8.39
   4   1  -7  206.42    9.64
  -4  -1   7  227.20   10.64
   4   1  -6 2016.33   63.29
   4   1  -6 2099.29   66.90
  -4  -1   6 2318.80   74.04
  -4  -1   5  553.19   14.13
   4   1  -5  653.36   17.65
  -4  -1   5  695.28   19.39
  -4  -1   4  382.52    9.98
   4   1  -4  401.46   11.46
  -4  -1   4  434.54   12.11
  -4  -1   3  359.51    8.48
   4   1  -3  372.30    9.53
  -4  -1   3  402.90    9.98
  -4  -1   2   17.97    2.37
   4   1  -2   17.15    1.51
  -4  -1   2   24.34    3.98
  -4  -1   1 2648.90   56.05
   4   1  -1 2727.79   58.16
  -4  -1   1 2573.54   54.52
  -4  -1   0  382.35    9.00
   4   1   0  370.40    9.42
  -4  -1   0  350.96    8.53
  -4  -1  -1 1128.76   24.50
   4   1   1 1089.07   24.18
  -4  -1  -1  926.05   20.26
  -4  -1  -2   13.68    2.25
   4   1   2   11.43    2.27
  -4  -1  -2   11.37    1.75
  -4  -1  -3   29.83    4.90
   4   1   3   27.34    4.22
  -4  -1  -3   20.77    2.60
  -4  -1  -4  230.39    8.27
   4   1   4  219.56    8.16
  -4  -1  -4  180.34    6.33
  -4  -1  -5  141.28    5.55
   4   1   5  133.76    5.39
  -4  -1  -5  120.40    4.47
  -4  -1  -6 1967.77   49.18
   4   1   6 1795.06   44.86
  -4  -1  -6 1552.45   38.27
  -4  -1  -7 2064.42   52.37
   4   1   7 1917.19   48.07
   4   1   7 1347.33   33.29
  -4  -1  -8  353.72   12.58
   4   1   8  307.34   12.10
   4   1   8  232.10    7.95
  -4  -1  -9 1750.43   30.27
   4   1   9 1571.71   26.80
   4   1   9 1111.15   18.81
  -4  -1 -10 1097.29   22.85
   4   1  10 1057.25   19.01
   4   1  10  812.25   16.91
  -4  -1 -11  991.69   22.90
   4   1  11  923.01   19.51
   4   1  11  723.74   21.74
  -4  -1 -12   -1.12    2.02
   4   1  12    0.06    1.20
   4   1  12    0.74    0.47
  -4  -1 -13   80.71    3.83
   4   1  13   68.29   10.52
  -4  -1 -14  228.02    8.17
   4   1  14  210.25    6.86
  -4  -1 -15  237.30   17.88
   4   1  15  197.00   12.34
  -4  -1 -16  169.94   14.28
   4   1  16  137.77   16.20
  -4  -1 -17    1.53    2.02
   4   1  17    1.31    1.16
  -4  -1 -18   23.95    3.18
  -4  -1 -19  127.39   19.37
  -4  -1 -20    9.98    5.93
  -4  -1 -21    7.59    2.41
  -4  -2  19   49.46   10.93
  -4  -2  18   35.70    3.29
  -4  -2  17   37.95    3.95
   4   2 -16    2.91    2.13
  -4  -2  16    4.52    3.19
   4   2 -15   69.45    3.62
  -4  -2  15   70.23   14.03
   4   2 -14   11.44    1.56
  -4  -2  14   11.74    1.78
   4   2 -13   21.49    4.13
  -4  -2  13   23.66    3.68
   4   2 -12  287.55    8.95
  -4  -2  12  307.00   10.03
   4   2 -11  677.79   34.64
  -4  -2  11  730.11   37.61
   4   2 -10   -1.34    1.88
  -4  -2  10   -3.31    2.30
   4   2  -9    6.27    1.36
  -4  -2   9    5.88    1.82
   4   2  -8   58.14    9.47
  -4  -2   8   64.53    9.14
   4   2  -7   21.68    1.77
  -4  -2   7   30.92    7.23
   4   2  -6    7.02    1.14
  -4  -2   6    9.46    1.73
   4   2  -5  190.92    7.78
  -4  -2   5  212.59    8.51
   4   2  -4   50.17    4.19
  -4  -2   4   57.93    4.62
  -4  -2   3   69.65    4.90
   4   2  -3   75.66    5.79
  -4  -2   3   66.38    5.71
  -4  -2   2  819.57   20.36
   4   2  -2  801.28   21.10
  -4  -2   2  753.63   19.77
  -4  -2   1  318.20    7.35
   4   2  -1  309.69    8.22
  -4  -2   1  282.98    7.43
  -4  -2   0 1347.64   28.70
   4   2   0 1340.47   29.47
  -4  -2   0 1213.20   26.72
  -4  -2  -1  206.38    7.21
   4   2   1  209.75    7.81
  -4  -2  -1  173.94    6.47
  -4  -2  -2  297.45   20.49
   4   2   2  309.70    8.10
  -4  -2  -2  248.96    6.48
  -4  -2  -3  625.99   14.23
   4   2   3  585.65   13.84
  -4  -2  -3  516.54   12.02
  -4  -2  -4  906.83   20.19
   4   2   4  948.64   21.32
  -4  -2  -4  735.79   16.63
  -4  -2  -5 1036.18   26.70
   4   2   5  962.27   25.16
  -4  -2  -5  828.97   21.28
  -4  -2  -6   20.03    2.03
   4   2   6   23.30    3.29
  -4  -2  -6   19.13    2.47
  -4  -2  -7   44.03    2.27
   4   2   7   45.25    6.08
   4   2   7   25.65    3.62
  -4  -2  -8    5.58    0.96
   4   2   8    6.25    0.99
   4   2   8    5.84    1.11
  -4  -2  -9   89.43    4.93
   4   2   9   97.64    5.30
   4   2   9   78.61    4.68
  -4  -2 -10 1152.45   24.35
   4   2  10 1039.43   21.46
   4   2  10  781.51   17.83
  -4  -2 -11  325.84   11.92
   4   2  11  324.50   11.96
   4   2  11  262.20    8.98
  -4  -2 -12  702.50   18.07
   4   2  12  658.33   16.45
   4   2  12  570.00   19.96
  -4  -2 -13  947.01   48.92
   4   2  13  926.37   46.67
   4   2  15   -0.32    0.68
  -4  -2 -16  232.57    9.08
  -4  -2 -17  130.95    8.66
  -4  -2 -18   33.36    4.80
  -4  -2 -19    3.92    2.78
  -4  -2 -20    5.55    3.75
  -4  -2 -21  114.43    5.75
  -4  -3  19    8.54    2.16
  -4  -3  18   35.84    3.38
   4   3 -17  181.13   11.28
  -4  -3  17  202.89   12.95
   4   3 -16    1.47    1.57
  -4  -3  16    1.78    2.09
   4   3 -15   55.76    3.65
  -4  -3  15   60.68    3.89
   4   3 -14   12.26    2.89
  -4  -3  14   13.06    2.07
   4   3 -13    9.41    6.57
  -4  -3  13   13.76    2.10
   4   3 -12    3.26    1.80
  -4  -3  12    2.04    1.55
   4   3 -11   19.16    3.22
  -4  -3  11   14.79    2.33
   4   3 -10   46.83    6.73
  -4  -3  10   52.02    6.01
   4   3  -9    3.23    1.51
  -4  -3   9    2.87    1.77
   4   3  -8  387.18   14.06
  -4  -3   8  416.49   14.87
   4   3  -7 2397.80   47.17
  -4  -3   7 2548.68   50.28
   4   3  -6  644.02   13.87
  -4  -3   6  616.09   13.05
   4   3  -5  589.83   12.14
  -4  -3   5  541.67   11.31
   4   3  -4  148.00    6.37
  -4  -3   4  133.42    5.99
   4   3  -3    9.43    1.83
  -4  -3   3    7.89    1.28
   4   3  -2    6.77    1.47
  -4  -3   2    5.83    1.36
   4   3  -1  187.65    7.39
  -4  -3   1  153.38    6.80
  -4  -3   0  519.66   13.21
   4   3   0  554.21   15.11
  -4  -3   0  472.40   13.04
  -4  -3  -1   71.50    5.14
   4   3   1   81.25    6.19
  -4  -3  -1   73.06    5.59
  -4  -3  -2  166.33    6.03
   4   3   2  187.53    7.23
  -4  -3  -2  148.26    5.91
  -4  -3  -3  147.24    5.51
   4   3   3  152.74    6.05
  -4  -3  -3  130.56    5.37
  -4  -3  -4    8.56    3.00
   4   3   4   14.39    2.42
  -4  -3  -4   10.86    1.45
  -4  -3  -5  646.99   17.09
   4   3   5  702.28   18.42
  -4  -3  -5  600.15   16.03
  -4  -3  -6  296.89   11.00
   4   3   6  333.81   11.58
  -4  -3  -6  293.14   10.47
  -4  -3  -7  140.84    5.96
   4   3   7  156.50    6.33
  -4  -3  -7  125.88    5.79
  -4  -3  -8  344.04   15.16
   4   3   8  369.24   15.99
   4   3   8  270.27   11.91
  -4  -3  -9  126.80    7.91
   4   3   9  144.20    8.46
   4   3   9  106.51    6.55
  -4  -3 -10    3.71    0.85
   4   3  10    2.99    0.83
   4   3  10    3.33    0.59
  -4  -3 -11   73.58    3.73
   4   3  11   80.75    2.90
   4   3  11   65.94    9.11
  -4  -3 -12  248.93    8.43
   4   3  12  250.87    7.20
   4   3  12  221.04    7.57
  -4  -3 -13   41.70    7.04
   4   3  13   30.09    3.78
   4   3  13    0.98    0.91
  -4  -3 -14   15.74    3.17
   4   3  14   -0.53    0.86
  -4  -3 -15   85.65   13.31
   4   3  15    0.26    1.02
  -4  -3 -16  868.18  384.29
   4   3  16    6.07    6.23
  -4  -3 -17   31.08    3.59
  -4  -3 -18  365.20   12.14
  -4  -3 -20   96.63   21.68
  -4  -3 -21    2.66    2.58
  -4  -4  18    2.13    1.81
   4   4 -17    6.18    1.78
  -4  -4  17    7.77    1.82
   4   4 -16   16.37    2.36
  -4  -4  16   12.46    3.06
   4   4 -15    0.00    1.38
  -4  -4  15   -0.89    1.52
   4   4 -14   63.32    7.65
  -4  -4  14   58.71    3.82
   4   4 -13  216.30   13.05
  -4  -4  13  201.74   13.31
   4   4 -12  123.62    5.80
  -4  -4  12  116.84   11.74
   4   4 -11   13.67    2.85
  -4  -4  11   10.63    4.66
   4   4 -10    8.76    1.63
  -4  -4  10    4.54    1.94
   4   4  -9   43.12    3.44
  -4  -4   9   42.45    7.96
   4   4  -8    1.58    1.25
  -4  -4   8    2.30    0.87
   4   4  -7    2.98    1.38
  -4  -4   7   -0.58    1.33
   4   4  -6  183.34    7.61
  -4  -4   6  162.10    4.79
   4   4  -5    2.01    1.16
  -4  -4   5    5.56    1.45
   4   4  -4  600.54   12.59
  -4  -4   4  588.20   12.35
   4   4  -3 2134.50   42.61
  -4  -4   3 2090.82   35.77
   4   4  -2 2340.27   39.18
  -4  -4   2 2040.33   36.90
   4   4  -1  729.99   24.32
  -4  -4   1  651.83   21.96
   4   4   0  219.14    8.70
  -4  -4   0  208.34    8.48
  -4  -4  -1  301.15   10.00
   4   4   1  310.57   11.04
  -4  -4  -1  286.78   10.43
  -4  -4  -2   40.25    1.53
   4   4   2   53.25    2.92
  -4  -4  -2   45.79    5.98
  -4  -4  -3  272.17    4.09
   4   4   3  327.71   11.52
  -4  -4  -3  257.99   10.24
  -4  -4  -4  309.80   11.35
   4   4   4  343.36   12.03
  -4  -4  -4  304.35   11.10
  -4  -4  -5  352.32   15.38
   4   4   5  416.76   18.14
  -4  -4  -5  351.22   15.48
  -4  -4  -6  308.43   13.55
   4   4   6  369.98   16.00
  -4  -4  -6  313.85   13.98
  -4  -4  -7    2.30    1.50
   4   4   7    1.71    0.72
  -4  -4  -7    1.96    0.91
  -4  -4  -8   19.25    1.88
   4   4   8   21.71    3.14
   4   4   8   11.65    1.62
  -4  -4  -9   49.84    2.58
   4   4   9   56.98    2.58
   4   4   9   49.57    6.90
  -4  -4 -10  135.74   10.40
   4   4  10  148.96   11.17
   4   4  10  140.15    5.35
  -4  -4 -11  581.08   30.16
   4   4  11  413.88   21.43
  -4  -4 -12   27.36    5.33
   4   4  12    2.32    0.85
  -4  -4 -13    9.53    2.54
   4   4  13    0.52    1.12
  -4  -4 -14   36.02    6.97
   4   4  14    0.30    1.04
   4   4  15   -0.92    1.22
   4   4  16    0.50    1.17
  -4  -4 -17    9.20    5.90
   4   4  17    2.97    1.52
  -4  -4 -18   98.85    6.54
  -4  -4 -19    1.55    2.17
  -4  -4 -20   27.94    3.24
  -4  -4 -21   59.36    4.57
   4   5 -16   16.62    4.59
  -4  -5  16   19.84    2.66
   4   5 -15    5.72    3.72
  -4  -5  15    4.23    2.80
   4   5 -14    5.67    1.72
  -4  -5  14    4.59    2.53
   4   5 -13    1.32    1.01
  -4  -5  13    2.83    2.29
   4   5 -12   13.53    3.04
  -4  -5  12   10.94    2.30
   4   5 -11   30.91    4.25
  -4  -5  11   27.66    3.05
   4   5 -10   17.73    3.29
  -4  -5  10   16.68    2.99
   4   5  -9   -1.15    1.51
  -4  -5   9    1.72    1.46
   4   5  -8    8.48    2.23
  -4  -5   8    4.58    1.96
   4   5  -7  377.58   20.13
  -4  -5   7  348.02   18.72
   4   5  -6  240.46   13.33
  -4  -5   6  216.04   12.17
   4   5  -5    8.17    1.77
  -4  -5   5   19.84    3.32
   4   5  -4    7.35    1.44
  -4  -5   4    7.52    1.74
   4   5  -3   61.02    3.06
  -4  -5   3   49.95    2.88
   4   5  -2  278.53    8.51
  -4  -5   2  261.52    7.64
   4   5  -1    0.26    1.25
  -4  -5   1   -0.33    1.43
   4   5   0 1264.23   26.53
  -4  -5   0 1138.05   24.07
   4   5   1  851.62   18.58
  -4  -5  -1  807.97   18.92
  -4  -5  -2  476.60   10.13
   4   5   2  575.26   13.47
  -4  -5  -2  499.82   12.87
  -4  -5  -3   19.84    1.65
   4   5   3   26.59    2.17
  -4  -5  -3   23.30    3.71
  -4  -5  -4  305.04    7.46
   4   5   4  374.10    9.13
  -4  -5  -4  324.20    8.87
  -4  -5  -5  243.62    8.92
   4   5   5  280.38    9.77
  -4  -5  -5  245.63   11.31
  -4  -5  -6  658.75   21.33
   4   5   6  766.74   24.54
  -4  -5  -6  698.99   23.06
  -4  -5  -7  112.51    3.50
   4   5   7  124.21    3.24
  -4  -5  -7  122.67   12.66
  -4  -5  -8   47.05    2.47
   4   5   8   45.61    7.10
   4   5   8   36.64    4.56
  -4  -5  -9  331.79   17.54
   4   5   9  298.24   16.08
  -4  -5 -10  217.23    7.15
   4   5  10  176.84    6.18
  -4  -5 -11   44.19    3.64
   4   5  11   31.21    9.55
  -4  -5 -12    3.73    2.15
   4   5  12    0.81    0.53
   4   5  13    3.24    1.29
   4   5  14   -0.51    1.11
  -4  -5 -15   -2.25    1.73
   4   5  15   -2.37    1.05
   4   5  16   -0.41    1.95
   4   5  17   -1.09    1.17
  -4  -5 -18  141.33    9.56
  -4  -5 -19   44.71    3.81
  -4  -5 -20    2.78    2.58
   4   6 -15   22.25    5.61
  -4  -6  15   19.16    2.67
   4   6 -14   21.51    4.73
  -4  -6  14   17.45    2.63
   4   6 -13   21.35    4.90
  -4  -6  13   16.69    2.39
   4   6 -12  228.77   11.35
  -4  -6  12  193.23    9.95
   4   6 -11   56.34    9.03
  -4  -6  11   48.64    7.27
   4   6 -10   -0.09    1.45
  -4  -6  10    2.09    1.79
  -4  -6   9    1.55    1.22
   4   6  -8   86.04   14.46
  -4  -6   8   71.02    4.39
   4   6  -7  121.15    5.75
  -4  -6   7  113.42   11.24
   4   6  -6   33.42    5.83
  -4  -6   6   30.79    2.59
   4   6  -5   28.65    5.40
  -4  -6   5   25.82    2.45
   4   6  -4   11.88    2.19
  -4  -6   4    9.90    2.15
   4   6  -3   47.38    2.84
  -4  -6   3   47.92    5.85
   4   6  -2   17.88    3.57
  -4  -6   2    9.70    1.69
   4   6  -1  157.42    5.71
  -4  -6   1  133.45   10.43
   4   6   0   75.20    5.11
  -4  -6   0   61.63    3.51
   4   6   1  332.75    9.48
  -4  -6  -1  272.63    9.27
   4   6   2   78.32    3.32
  -4  -6  -2   87.77    8.85
  -4  -6  -3   72.35    2.42
   4   6   3   87.55    3.26
  -4  -6  -3   77.51    8.21
  -4  -6  -4  642.39   15.53
   4   6   4  760.27   18.42
  -4  -6  -4  681.31   18.32
  -4  -6  -5  138.34    7.73
   4   6   5  177.07    9.65
  -4  -6  -5  155.32   17.88
  -4  -6  -6   37.57    2.17
   4   6   6   39.35    2.20
  -4  -6  -6   35.37    4.34
  -4  -6  -7    9.79    1.50
  -4  -6  -8   82.56    3.89
   4   6   8   58.86    3.30
  -4  -6  -9   15.74    1.75
   4   6   9    0.70    0.84
  -4  -6 -10    0.66    1.07
   4   6  10    1.50    0.91
   4   6  11    0.55    1.01
  -4  -6 -12    3.41    3.11
   4   6  12   -0.89    1.23
   4   6  13    0.85    1.15
  -4  -6 -14    5.51    3.89
   4   6  15   -1.10    1.33
  -4  -6 -16    3.07    3.13
   4   6  16    1.79    1.59
   4   6  17   -1.48    1.28
  -4  -6 -18    5.59    1.75
   4   7 -14   37.79   11.52
   4   7 -13    2.49    2.15
  -4  -7  13    1.70    1.50
   4   7 -12   22.67    5.92
  -4  -7  12   18.27    3.77
   4   7 -11    4.60    3.02
  -4  -7  11    3.95    2.67
   4   7 -10   -1.68    1.54
  -4  -7  10    0.72    1.38
   4   7  -9   18.29    3.27
  -4  -7   9   12.57    2.09
   4   7  -8   64.34   12.68
  -4  -7   8   63.97    3.96
   4   7  -7   47.68    9.37
  -4  -7   7   46.08    4.27
   4   7  -6  511.61   28.33
  -4  -7   6  421.90   23.88
   4   7  -5   45.18    7.95
  -4  -7   5   42.38    6.66
   4   7  -4  247.69    9.18
  -4  -7   4  250.53   18.93
   4   7  -3  214.61    8.57
  -4  -7   3  173.94    7.87
   4   7  -2   -0.39    1.30
  -4  -7   2    1.25    0.71
   4   7  -1  277.10   16.35
  -4  -7   1  235.30   14.12
   4   7   0    1.51    1.28
  -4  -7   0    2.21    1.78
   4   7   1   31.98    2.23
  -4  -7  -1   25.13    2.43
   4   7   2   85.71    5.62
  -4  -7  -2   73.70    4.08
   4   7   3    3.87    1.08
  -4  -7  -3    2.72    1.55
   4   7   4   17.61    1.67
  -4  -7  -4   17.97    2.40
  -4  -7  -5    5.35    1.02
  -4  -7  -5    4.56    1.01
  -4  -7  -6  402.06   13.08
  -4  -7  -6  458.56   15.71
  -4  -7  -7  300.30    9.87
   4   7   7  195.08    7.67
  -4  -7  -8  102.92    5.17
   4   7   8   81.95   13.94
   4   7   9   -0.20    1.39
   4   7  10    0.65    1.02
   4   7  11    2.05    1.16
  -4  -7 -12   12.52    1.96
   4   7  12   -0.66    1.38
   4   7  13   -0.60    1.35
   4   7  14    1.95    1.39
   4   7  15   -0.61    1.50
  -4  -7 -16    6.42    1.56
   4   7  16   -0.07    1.33
  -4  -7 -17    0.26    1.65
   4   8 -12   23.76    6.45
   4   8 -11    2.10    1.73
   4   8 -10   86.07   20.62
  -4  -8  10   92.93    4.96
   4   8  -9   11.20    6.56
  -4  -8   9    8.83    5.24
   4   8  -8   71.79   13.39
  -4  -8   8   66.18    5.38
   4   8  -7   -0.94    1.48
  -4  -8   7    1.30    0.98
   4   8  -6    5.38    1.41
  -4  -8   6    3.84    2.54
  -4  -8   5    2.24    1.67
   4   8  -4   94.20   12.96
  -4  -8   4   94.92    6.88
   4   8  -3   71.16    3.87
  -4  -8   3   59.70    3.88
   4   8  -2  213.70    5.99
  -4  -8   2  196.83    7.02
   4   8  -1   44.83    8.40
  -4  -8   1   38.55    4.97
   4   8   0  152.85    9.68
  -4  -8   0  138.58   16.56
   4   8   1  113.47    7.22
  -4  -8  -1  104.05   17.46
   4   8   2    1.34    1.48
  -4  -8  -2    2.78    2.46
  -4  -8  -3   42.35    4.87
  -4  -8  -4   59.72    6.97
  -4  -8  -5   89.69   13.30
   4   8   6   -0.52    1.37
   4   8   7    1.39    1.23
   4   8   8    3.73    2.50
  -4  -8  -9    2.42    1.32
   4   8   9    1.59    0.81
   4   8  10    2.29    1.56
  -4  -8 -11   17.85    3.43
   4   8  11    2.60    1.98
   4   8  12    0.39    0.81
   4   8  13    0.71    0.79
   4   8  14    2.66    1.96
   4   8  15   -1.45    1.46
  -4  -9   7   -0.16    1.41
   4   9  -6   13.29    3.81
  -4  -9   6   11.38    1.88
   4   9  -5   39.82    7.16
  -4  -9   5   29.21    6.27
  -4  -9   4  157.79   10.42
  -4  -9   3    2.73    2.19
  -4  -9   2   69.13   10.70
  -4  -9   1   51.45    6.70
  -4  -9   0   -0.13    1.57
  -4  -9  -1   19.00    4.25
  -4  -9  -2    0.75    1.12
  -4  -9  -3  247.65   16.86
  -4  -9  -4   33.12    6.93
   4   9   5    2.43    1.84
   4   9   6    3.11    1.99
   4   9   7    0.83    1.01
   4   9   8    3.95    3.08
   4   9   9   -0.23    1.42
   4   9  10    0.53    1.35
   4   9  11   -0.04    1.78
   4   9  12   -2.11    1.73
  -4 -10   2   74.40   13.08
  -4 -10   1   49.39    8.53
  -4 -10   0  130.05   18.56
  -4 -10  -1   17.14    3.47
  -4 -10  -2    6.24    2.41
   4  10   4   -0.71    1.41
   4  10   5   -0.71    1.17
   4  10   6   -0.38    1.47
   4  10   7   -0.77    1.48
   4  10   8    1.08    1.00
   4  10   9    0.51    1.07
   5  -8  -5    2.68    2.58
  -5   8   4    4.13    2.83
  -5   8   3    1.77    1.36
  -5   8   2   11.44    2.45
  -5   8   1    4.87    3.41
  -5   8   0   62.02   13.04
  -5   8  -1    8.12    1.55
  -5   8  -2    9.38    2.03
  -5   8  -3   13.49    3.93
  -5   8  -4   42.27    7.87
   5  -7  -9   13.71    2.88
   5  -7  -8   61.43    4.53
   5  -7  -7   19.39    3.96
   5  -7  -6   -2.93    1.96
   5  -7  -5    4.44    3.44
  -5   7   3   -0.32    1.68
  -5   7   2    1.97    1.78
  -5   7   1    1.56    1.80
  -5   7  -1    5.05    2.59
  -5   7  -2   49.81    7.27
  -5   7  -3    2.94    2.31
  -5   7  -4  283.65   17.20
  -5   7  -5  102.87   13.88
   5  -7   5   72.41   12.65
  -5   7  -6    1.90    1.89
   5  -7   6   -1.82    1.22
  -5   7  -7   10.65    6.25
   5  -7   7    8.54    5.09
  -5   7  -8   65.14   14.89
   5  -7   8   57.71   10.89
  -5   7  -9    1.13    1.39
   5  -7   9    1.14    1.60
   5  -6 -11    4.08    3.29
   5  -6 -10    0.82    1.00
   5  -6  -9    1.46    1.73
   5  -6  -8    4.86    3.47
   5  -6  -7    6.13    1.88
   5  -6  -6   44.26    4.19
   5  -6  -5   54.04    3.94
   5  -6  -4   -0.14    1.76
   5  -6  -3   51.50    3.80
  -5   6   2   25.26    3.83
  -5   6   1   65.56    6.98
  -5   6   0  118.76    8.98
   5  -6   0   82.86   12.29
  -5   6  -1   21.41    3.71
   5  -6   1   18.13    3.30
  -5   6  -2   19.51    2.90
   5  -6   2   16.62    1.88
  -5   6  -3    1.73    1.86
   5  -6   3    1.53    0.89
  -5   6  -4   13.04    4.50
   5  -6   4   15.86    1.87
  -5   6  -5    6.02    3.11
   5  -6   5    4.13    2.19
  -5   6  -6   59.84    7.80
   5  -6   6   56.86    5.07
  -5   6  -7   12.71    7.85
   5  -6   7    6.11    3.98
  -5   6  -8   22.09    6.60
   5  -6   8   22.74    5.37
  -5   6  -9    4.79    3.08
   5  -6   9    2.11    1.65
  -5   6 -10  114.70   17.39
   5  -6  10  115.73   13.43
  -5   6 -11   64.95   11.67
   5  -6  11   55.66   11.62
  -5   6 -12  255.90    8.64
   5  -6  12  201.32    8.03
   5  -6  13    8.45    2.33
   5  -6  14   34.05    3.63
   5  -5 -12    2.80    1.48
   5  -5 -11   16.97    3.26
  -5   5  11   16.86    2.45
   5  -5 -10    1.06    1.58
  -5   5  10    0.50    1.37
   5  -5  -9   14.19    2.17
  -5   5   9   12.78    7.96
   5  -5  -8  136.21    6.02
  -5   5   8  134.48    4.82
   5  -5  -7  141.95   13.87
  -5   5   7  141.89    4.74
   5  -5  -6   26.94    2.81
  -5   5   6   32.04    2.36
   5  -5  -5    2.10    2.10
  -5   5   5    0.12    0.98
   5  -5  -4    1.69    2.06
   5  -5  -3    2.53    1.73
   5  -5  -3    2.83    1.11
   5  -5  -2   25.35    2.72
  -5   5   1  210.22   17.08
   5  -5  -1  185.99    8.04
  -5   5   0   21.88    3.69
   5  -5   0   17.41    2.53
  -5   5  -1    1.43    1.13
   5  -5   1    2.68    1.20
  -5   5  -2   28.66    5.03
   5  -5   2   28.92    4.95
  -5   5  -3   41.64    6.10
   5  -5   3   32.49    3.53
  -5   5  -4   21.26    2.99
   5  -5   4   17.27    2.41
  -5   5  -5  456.68   16.24
   5  -5   5  428.04   14.04
  -5   5  -6  251.27    9.45
   5  -5   6  209.87    8.63
  -5   5  -7    3.82    2.83
   5  -5   7    3.46    2.42
  -5   5  -8  156.89   19.06
   5  -5   8  125.16    8.23
  -5   5  -9    2.55    1.44
   5  -5   9    6.20    3.08
  -5   5 -10   26.51    3.10
   5  -5  10   24.33    3.01
  -5   5 -11   46.69    3.34
   5  -5  11   43.43    4.74
  -5   5 -12   18.51    3.87
   5  -5  12   15.88    3.36
  -5   5 -13    0.74    1.69
   5  -5  13    1.04    1.01
  -5   5 -14    1.38    1.30
   5  -5  14    9.58    5.52
   5  -5  15   18.04    2.73
   5  -5  16    9.79    2.02
  -5   4  14   19.08    2.95
   5  -4 -13   23.28    4.08
  -5   4  13   35.23    3.51
   5  -4 -12    6.66    1.84
  -5   4  12    9.85    2.80
   5  -4 -11    3.33    2.41
  -5   4  11    5.00    3.47
   5  -4 -10    3.27    1.95
  -5   4  10    4.19    2.31
   5  -4  -9    0.71    1.45
  -5   4   9    0.48    1.38
   5  -4  -8    0.00    1.35
  -5   4   8    2.77    1.74
   5  -4  -7   21.96    2.94
  -5   4   7   22.11    2.73
   5  -4  -6   52.54    8.47
  -5   4   6   47.99    4.61
   5  -4  -5   30.14    5.28
   5  -4  -5   24.09    2.05
  -5   4   5   24.90    1.97
   5  -4  -4   91.49    4.65
   5  -4  -4   83.53    3.96
  -5   4   4   91.92    3.89
   5  -4  -3   30.60    2.76
   5  -4  -3   26.75    2.08
  -5   4   3   30.22    2.14
   5  -4  -2   72.11    7.72
  -5   4   1  263.92   14.11
   5  -4  -1  252.17    7.96
  -5   4   0  287.61   15.79
   5  -4   0  279.97   15.17
  -5   4  -1  194.53   16.45
   5  -4   1  165.52   11.52
  -5   4  -2  135.11   13.32
   5  -4   2  128.55    7.69
  -5   4  -3   24.15    2.84
   5  -4   3   23.99    4.61
  -5   4  -4  342.34   10.92
   5  -4   4  319.63    9.92
  -5   4  -5   31.56    4.91
   5  -4   5   35.05    5.63
  -5   4  -6   42.64    7.40
   5  -4   6   39.17    7.04
  -5   4  -7   11.44    2.94
   5  -4   7    7.70    2.53
  -5   4  -8   16.23    2.67
   5  -4   8    7.90    2.01
  -5   4  -9  206.30    8.67
   5  -4   9  194.61   12.76
  -5   4 -10   39.00    7.39
   5  -4  10   28.48    4.52
  -5   4 -11  303.52   18.65
   5  -4  11  250.44   14.99
  -5   4 -12  608.15   12.61
   5  -4  12  522.34   10.27
  -5   4 -13    4.65    3.04
   5  -4  13    5.42    4.36
  -5   4 -14  110.90   18.37
   5  -4  14  105.51    6.59
  -5   4 -15   61.07   10.21
   5  -4  15   47.41   11.39
  -5   4 -16  391.18   10.19
   5  -4  16  339.08    9.95
   5  -4  17    2.52    1.89
  -5   3  16    2.94    2.57
  -5   3  15    6.32    4.23
  -5   3  14    9.86    2.42
   5  -3 -13    5.27    2.85
  -5   3  13   12.53    3.06
   5  -3 -12   16.00    2.41
  -5   3  12   27.06    2.65
   5  -3 -11   12.89    1.90
  -5   3  11   16.24    2.53
   5  -3 -10    1.31    0.79
  -5   3  10   -0.02    1.46
   5  -3  -9   11.78    4.31
  -5   3   9   16.46    2.79
   5  -3  -8    0.48    1.18
   5  -3  -8   12.61    2.95
  -5   3   8    2.39    1.55
   5  -3  -7    4.38    1.21
   5  -3  -7    6.68    1.12
  -5   3   7    5.37    1.93
   5  -3  -6  177.65    6.60
  -5   3   6  198.23    6.63
   5  -3  -5    7.06    1.42
   5  -3  -5    8.37    1.39
  -5   3   5    7.27    1.65
   5  -3  -4   12.37    1.97
   5  -3  -4    7.12    1.59
  -5   3   4    9.19    1.48
   5  -3  -3   25.53    2.61
   5  -3  -3   21.67    4.63
  -5   3   3   27.42    1.82
  -5   3   2   28.76    3.89
   5  -3  -2   23.05    1.95
  -5   3   2   29.45    1.81
  -5   3   1   20.01    2.94
   5  -3  -1   20.37    4.10
  -5   3   1   26.00    2.49
  -5   3   0   31.62    3.31
   5  -3   0   30.99    3.20
  -5   3  -1  151.06   15.19
   5  -3   1  133.02    4.20
  -5   3  -2    2.19    0.89
   5  -3   2    5.80    2.05
  -5   3  -3  148.92   16.87
   5  -3   3  140.35    4.41
  -5   3  -4  256.42    8.34
   5  -3   4  238.04    7.77
  -5   3  -5  213.07   13.57
   5  -3   5  204.37    7.11
  -5   3  -6  424.19   12.36
   5  -3   6  396.06   11.47
  -5   3  -7   10.65    1.66
   5  -3   7    9.21    1.78
  -5   3  -8  129.69    5.74
   5  -3   8  121.48    5.61
  -5   3  -9  246.38    8.62
   5  -3   9  225.51    8.31
  -5   3 -10  166.03   10.69
   5  -3  10  151.61   15.07
  -5   3 -11   64.24   12.49
   5  -3  11   50.62    7.41
  -5   3 -12   25.17    3.17
   5  -3  12   19.43    4.31
  -5   3 -13    3.47    2.89
   5  -3  13    2.56    2.56
  -5   3 -14   58.04    7.42
   5  -3  14   55.27    8.94
  -5   3 -15  103.42   17.27
   5  -3  15   94.82   13.14
  -5   3 -16  346.79   16.91
   5  -3  16  317.38   15.12
  -5   3 -17   17.78    4.82
   5  -3  17   15.34    3.23
  -5   3 -18  186.80    8.49
   5  -3  18  171.83    6.91
  -5   2  17    4.23    3.17
  -5   2  16   26.46    3.21
  -5   2  15   19.73    2.95
  -5   2  14   92.30    6.08
  -5   2  13    4.02    2.57
   5  -2 -12  226.24   13.14
  -5   2  12  304.99   17.71
   5  -2 -11   50.59    3.15
  -5   2  11   71.92    4.08
   5  -2 -10   15.82    3.08
   5  -2 -10    8.32    1.93
  -5   2  10   17.91    2.93
   5  -2  -9    2.55    1.04
   5  -2  -9    4.58    1.45
  -5   2   9    5.12    1.94
   5  -2  -8    2.01    0.60
   5  -2  -8    1.89    0.93
  -5   2   8    3.02    2.02
   5  -2  -7   52.46    5.12
   5  -2  -7   43.99    5.02
  -5   2   7   51.69    3.17
   5  -2  -6   76.07    3.24
   5  -2  -6   73.83    5.81
  -5   2   6   89.78    3.44
   5  -2  -5    1.97    1.08
   5  -2  -5    0.88    0.61
  -5   2   5   -0.30    1.20
   5  -2  -4  124.82    3.85
   5  -2  -4  116.03    3.55
  -5   2   4  142.62    3.82
   5  -2  -3   16.25    2.02
  -5   2   3   13.88    1.54
  -5   2   2  516.77   12.71
   5  -2  -2  581.78   13.75
  -5   2   2  639.25   14.16
  -5   2   1   73.83   10.66
   5  -2  -1   74.57    7.31
  -5   2   1   79.80    4.86
  -5   2   0  383.02    9.61
   5  -2   0  387.57   10.07
  -5   2   0  411.11    8.83
  -5   2  -1  643.50   15.63
   5  -2   1  644.47   14.59
  -5   2  -2   12.97    2.64
   5  -2   2    9.28    1.73
  -5   2  -3   21.22    3.07
   5  -2   3   18.59    2.35
  -5   2  -4  453.92   11.91
   5  -2   4  430.85   10.83
  -5   2  -5    4.63    0.86
   5  -2   5    1.61    2.28
  -5   2  -6   48.19    7.83
   5  -2   6   43.57    4.27
  -5   2  -7   14.12    2.24
   5  -2   7   15.12    3.09
  -5   2  -8  153.70    9.21
   5  -2   8  125.33    4.41
  -5   2  -9   98.06   11.28
   5  -2   9   82.46   12.37
  -5   2 -10  624.05   17.11
   5  -2  10  531.49   15.13
  -5   2 -11   44.70   10.74
   5  -2  11   37.38    5.88
  -5   2 -12    8.22    2.07
   5  -2  12    6.80    1.34
  -5   2 -13  463.39   15.24
   5  -2  13  397.37   13.35
  -5   2 -14  261.71   28.97
   5  -2  14  244.52   14.51
   5  -2  15    1.18    0.98
  -5   2 -16  111.24   19.57
   5  -2  16  128.48    6.21
  -5   2 -17  235.19   11.99
   5  -2  17  161.90   24.88
  -5   2 -18  102.16   16.04
   5  -2  18   77.16   15.86
  -5   2 -19    9.32    2.96
  -5   1  18   -0.22    1.80
  -5   1  17    2.73    2.49
  -5   1  16    0.39    1.69
  -5   1  15    6.95    2.02
  -5   1  14   27.45    4.77
  -5   1  13   -1.04    1.70
   5  -1 -12   29.25    2.31
  -5   1  12   41.45    3.45
   5  -1 -11   23.20    3.92
   5  -1 -11   29.72    3.07
  -5   1  11   39.86    4.17
   5  -1 -10    0.67    0.96
   5  -1 -10    1.18    0.97
  -5   1  10    1.70    1.62
   5  -1  -9   49.87    2.73
   5  -1  -9   53.18    2.93
  -5   1   9   53.81    3.40
   5  -1  -8  844.25   42.57
   5  -1  -8  899.21   45.51
  -5   1   8 1024.74   52.38
   5  -1  -7  254.75    7.58
   5  -1  -7  270.04    8.00
  -5   1   7  277.30    8.40
   5  -1  -6   65.20    2.95
   5  -1  -6   65.63    2.96
  -5   1   6   77.71   11.66
   5  -1  -5   10.47    1.63
   5  -1  -5    5.98    1.33
  -5   1   5   10.42    1.79
  -5   1   4   22.19    2.54
   5  -1  -4   25.51    2.34
  -5   1   4   24.05    2.23
  -5   1   3   86.05    5.92
   5  -1  -3   87.01    6.73
  -5   1   3  107.12    5.33
  -5   1   2  280.40   12.73
   5  -1  -2  301.39   13.64
  -5   1   2  332.34   14.40
  -5   1   1  265.42   12.35
   5  -1  -1  270.74   12.50
  -5   1   1  285.66   12.42
  -5   1   0  347.58   15.24
   5  -1   0  363.33   16.09
  -5   1   0  340.23   14.50
  -5   1  -1  758.92   15.91
   5  -1   1  805.64   15.40
  -5   1  -1  708.30   12.22
  -5   1  -2 1835.77   34.34
   5  -1   2 1880.61   32.24
  -5   1  -3  231.89   11.56
   5  -1   3  204.07    9.82
  -5   1  -4 1333.42   23.87
   5  -1   4 1230.76   24.46
  -5   1  -5 2199.39   37.12
   5  -1   5 2020.78   34.90
  -5   1  -6  193.71   11.51
   5  -1   6  167.65   10.14
  -5   1  -7    1.02    0.68
   5  -1   7    0.72    1.42
  -5   1  -8  227.21    9.60
   5  -1   8  195.21    7.80
  -5   1  -9    3.63    1.56
   5  -1   9    3.65    1.27
  -5   1 -10   45.22    3.27
   5  -1  10   39.61    2.77
  -5   1 -11  170.75   10.09
   5  -1  11  151.35    8.94
  -5   1 -12  319.72   10.39
   5  -1  12  263.74    8.73
  -5   1 -13   14.68    2.55
   5  -1  13   13.24    2.38
  -5   1 -14    8.48    3.65
   5  -1  14   12.97    2.36
  -5   1 -15   68.31    9.75
   5  -1  15   54.54    8.72
  -5   1 -16  112.21    5.16
   5  -1  16   91.40   12.84
  -5   1 -17  430.12   19.53
   5  -1  17  330.68   18.34
  -5   1 -18  227.44   14.09
   5  -1  18  194.22   12.06
  -5   1 -19    1.54    1.13
  -5   1 -20   31.83    6.38
  -5   0  18   11.60    2.89
  -5   0  17    0.65    1.85
  -5   0  16    6.10    4.47
  -5   0  15   55.13    4.71
  -5   0  14   -0.57    1.74
   5   0 -13   16.27    1.95
  -5   0  13   15.40    2.48
   5   0 -12   59.32    3.07
  -5   0  12   71.51    4.12
   5   0 -11   45.03    4.34
  -5   0  11   53.25    5.25
   5   0 -10   14.77    2.63
  -5   0  10   11.74    2.37
   5   0  -9    7.78    1.25
   5   0  -9    6.88    1.62
  -5   0   9    9.12    1.76
   5   0  -8   89.92    8.17
   5   0  -8  105.56    3.82
  -5   0   8  110.69    4.21
   5   0  -7   10.52    1.57
   5   0  -7   11.29    1.91
  -5   0   7   13.74    2.30
   5   0  -6   84.06    7.28
  -5   0   6   78.25    3.31
  -5   0   5   71.14    8.54
   5   0  -5   81.27    5.43
  -5   0   5   93.02    6.02
  -5   0   4  223.10    9.96
   5   0  -4  249.70   11.42
  -5   0   4  265.78   12.50
  -5   0   3   48.52    3.15
   5   0  -3   51.50    2.79
  -5   0   3   51.38    2.21
  -5   0   2  707.41   23.23
   5   0  -2  733.60   24.38
  -5   0   2  740.86   24.39
  -5   0   1   41.88    5.83
   5   0  -1   39.96    2.37
  -5   0   1   35.70    5.35
  -5   0   0    9.35    0.99
   5   0   0   13.99    2.69
  -5   0   0    9.12    1.41
  -5   0  -1  392.32   14.47
   5   0   1  396.49   14.00
  -5   0  -1  332.89   11.21
  -5   0  -2    2.10    1.33
   5   0   2    2.84    0.79
  -5   0  -2    2.35    0.67
  -5   0  -3  871.22   28.62
   5   0   3  859.97   28.36
  -5   0  -3  659.91   21.15
  -5   0  -4    5.90    1.47
   5   0   4    8.44    2.68
  -5   0  -5 3818.28   65.98
   5   0   5 3462.08   57.36
  -5   0  -6 3110.82   51.21
   5   0   6 2779.25   50.32
  -5   0  -7   11.79    2.12
   5   0   7   10.58    2.21
  -5   0  -8    0.50    0.87
   5   0   8   -0.05    1.40
  -5   0  -9   74.77   10.17
   5   0   9   57.71    3.18
  -5   0 -10  530.99   14.76
   5   0  10  480.98   13.05
  -5   0 -11   86.28    9.94
   5   0  11   73.69    3.52
  -5   0 -12    1.62    1.30
   5   0  12    1.77    0.86
  -5   0 -13    3.09    1.25
   5   0  13   -0.05    1.39
  -5   0 -14  268.19   10.38
   5   0  14  237.39   12.16
  -5   0 -15  399.77   22.79
   5   0  15  342.71   19.89
  -5   0 -16   -0.05    1.77
   5   0  16    1.19    1.29
  -5   0 -17   78.84   15.17
   5   0  17   58.40    9.81
  -5   0 -18   14.15    3.00
  -5   0 -19   15.63    2.53
  -5   0 -20   15.92    4.05
  -5  -1  18   51.15   11.25
  -5  -1  17   32.62    6.98
  -5  -1  16    1.38    1.11
  -5  -1  15  189.69   10.75
   5   1 -14  277.22    9.04
  -5  -1  14  359.34    9.01
   5   1 -13    6.96    1.55
  -5  -1  13    9.13    2.26
   5   1 -12    1.94    0.94
  -5  -1  12   -0.35    1.54
   5   1 -11   42.77    6.92
  -5  -1  11   44.11    7.16
   5   1 -10   14.08    2.05
  -5  -1  10   15.97    2.36
   5   1  -9    0.35    1.20
  -5  -1   9   -0.50    1.49
   5   1  -8  248.11    7.66
  -5  -1   8  279.11    9.16
   5   1  -7 1364.85   43.20
  -5  -1   7 1520.92   48.19
   5   1  -6  702.08   23.11
  -5  -1   6  737.58   24.32
  -5  -1   5    4.46    1.06
   5   1  -5    4.93    1.51
  -5  -1   5    5.04    1.22
  -5  -1   4   91.11    8.02
   5   1  -4   95.16    6.07
  -5  -1   4  100.76   12.98
  -5  -1   3    2.47    0.42
   5   1  -3    3.28    1.00
  -5  -1   3    2.97    0.54
  -5  -1   2   14.95    1.68
   5   1  -2   17.66    3.16
  -5  -1   2   19.35    2.30
  -5  -1   1   12.44    2.00
   5   1  -1   11.79    1.56
  -5  -1   1    9.91    1.60
  -5  -1   0   51.17    1.96
   5   1   0   58.20    7.85
  -5  -1   0   39.90    2.03
  -5  -1  -1   42.30    5.40
   5   1   1   42.68    6.06
  -5  -1  -1   28.43    1.70
  -5  -1  -2  237.64    9.42
   5   1   2  232.00    9.19
  -5  -1  -2  184.40    7.02
  -5  -1  -3    0.66    0.75
   5   1   3    2.36    1.69
  -5  -1  -3   -0.31    0.63
  -5  -1  -4  182.35    7.27
   5   1   4  190.87    8.01
  -5  -1  -4  141.27    5.55
  -5  -1  -5 2583.52   42.80
   5   1   5 2441.74   40.52
  -5  -1  -5 1859.84   29.94
  -5  -1  -6 1426.55   26.47
   5   1   6 1314.36   26.01
  -5  -1  -6 1114.87   18.47
  -5  -1  -7 1239.94   22.28
   5   1   7 1176.67   21.34
  -5  -1  -8   63.19   10.66
   5   1   8   52.01    4.02
  -5  -1  -9 3029.36   93.65
   5   1   9 2823.48   19.37
  -5  -1 -10  902.86   22.45
   5   1  10  897.00   21.94
  -5  -1 -11  169.60   14.68
   5   1  11  156.18    5.79
  -5  -1 -12  136.25    5.93
   5   1  12  137.14    5.71
  -5  -1 -13  354.71   20.43
   5   1  13  330.89   18.90
  -5  -1 -14  173.50    7.53
   5   1  14  147.93    6.65
  -5  -1 -15   16.33    2.85
   5   1  15   10.91    1.83
  -5  -1 -16  184.11   21.08
   5   1  16  166.43    5.34
  -5  -1 -17   12.62    7.87
  -5  -1 -18  470.59   22.23
  -5  -1 -19  214.20   13.62
  -5  -1 -20   86.53    4.97
  -5  -1 -21   47.83    7.19
  -5  -2  18    1.04    1.09
  -5  -2  17   10.71    2.83
  -5  -2  16    2.81    2.40
   5   2 -15    1.14    1.36
  -5  -2  15    0.85    1.76
   5   2 -14   22.93    5.41
  -5  -2  14   33.91    7.28
   5   2 -13  150.28    5.12
  -5  -2  13  157.58    6.00
   5   2 -12   -0.32    1.33
  -5  -2  12   -0.45    1.95
   5   2 -11  498.32   20.08
  -5  -2  11  545.26   19.42
   5   2 -10  457.36   27.14
  -5  -2  10  481.25   27.10
   5   2  -9  151.50    5.91
  -5  -2   9  130.80    9.42
   5   2  -8   66.48   10.64
  -5  -2   8   74.54    3.71
   5   2  -7   41.02    2.69
  -5  -2   7   40.46    3.21
   5   2  -6   79.37    5.77
  -5  -2   6   80.58    3.76
   5   2  -5  209.90   12.49
  -5  -2   5  217.46   12.80
   5   2  -4   17.57    1.83
  -5  -2   4   25.65    4.15
   5   2  -3  369.57   16.43
  -5  -2   3  314.76   14.26
  -5  -2   2    2.72    0.58
   5   2  -2    3.09    1.33
  -5  -2   2    2.22    0.80
  -5  -2   1  194.37    7.22
   5   2  -1  200.39    8.22
  -5  -2   1  157.87    6.55
  -5  -2   0   88.58    6.01
   5   2   0   79.27    4.10
  -5  -2   0   68.38    8.43
  -5  -2  -1   15.87    1.96
   5   2   1   12.77    1.47
  -5  -2  -1   11.47    1.42
  -5  -2  -2  360.07   12.28
   5   2   2  361.58   12.83
  -5  -2  -2  273.38    9.66
  -5  -2  -3   48.51    2.06
   5   2   3   58.94    8.39
  -5  -2  -3   38.45    5.34
  -5  -2  -4  551.51   10.82
   5   2   4  530.97   10.98
  -5  -2  -4  412.61    8.26
  -5  -2  -5  181.14    8.47
   5   2   5  179.49    8.55
  -5  -2  -5  148.22    6.94
  -5  -2  -6   10.92    1.55
   5   2   6    6.46    1.21
  -5  -2  -6    7.54    1.15
  -5  -2  -7   50.25    8.60
   5   2   7   39.72    6.68
  -5  -2  -7   32.53    4.34
  -5  -2  -8   63.66   10.01
   5   2   8   53.99    3.90
   5   2   8   33.57    3.16
  -5  -2  -9   66.64    8.98
   5   2   9   50.88    9.49
   5   2   9   34.86    2.60
  -5  -2 -10    1.44    0.91
   5   2  10    2.77    1.44
   5   2  10    0.37    0.28
  -5  -2 -11   11.91    2.08
   5   2  11   12.97    1.97
   5   2  11    0.06    0.29
  -5  -2 -12   26.01    4.55
   5   2  12   25.61    3.18
  -5  -2 -13  407.37   25.29
   5   2  13  373.93   21.59
  -5  -2 -14  472.96   16.22
   5   2  14  436.17   14.30
  -5  -2 -15   15.27    3.07
   5   2  15   12.31    2.93
  -5  -2 -16  245.50    7.01
  -5  -2 -17   26.12    4.07
  -5  -2 -18    8.43    2.68
  -5  -2 -19   14.29    2.48
  -5  -2 -20   19.19    3.77
  -5  -2 -21   30.26    3.64
  -5  -3  17    6.93    1.90
  -5  -3  16    2.27    2.04
   5   3 -15   20.61    4.48
  -5  -3  15   24.45    4.31
   5   3 -14   16.23    5.12
  -5  -3  14   17.84    4.78
   5   3 -13    1.78    1.08
  -5  -3  13    2.79    2.12
   5   3 -12    0.24    0.99
  -5  -3  12    0.35    1.57
   5   3 -11    1.55    0.94
  -5  -3  11    2.80    2.49
   5   3 -10   40.68    7.89
  -5  -3  10   41.45    4.71
   5   3  -9  302.44   17.43
  -5  -3   9  274.12   16.06
   5   3  -8   16.68    2.96
  -5  -3   8   18.45    4.27
   5   3  -7 2312.60  181.58
  -5  -3   7 2162.96  109.80
   5   3  -6   47.31    5.96
  -5  -3   6   39.24    6.09
   5   3  -5 1309.44   42.92
  -5  -3   5 1167.26   40.35
   5   3  -4    8.02    1.56
  -5  -3   4    5.12    1.63
   5   3  -3  184.41   10.99
  -5  -3   3  168.73   10.10
   5   3  -2   51.26    4.00
  -5  -3   2   39.23    3.22
   5   3  -1    8.04    1.28
  -5  -3   1    6.72    1.15
  -5  -3   0  164.09    7.28
   5   3   0  197.69    9.38
  -5  -3   0  155.13    7.49
  -5  -3  -1   23.45    2.90
   5   3   1   27.09    1.94
  -5  -3  -1   22.48    1.84
  -5  -3  -2   87.71    4.38
   5   3   2  109.57    5.76
  -5  -3  -2   92.49    9.26
  -5  -3  -3  186.25    8.37
   5   3   3  220.22   10.24
  -5  -3  -3  182.79    8.51
  -5  -3  -4   30.50    4.68
   5   3   4   32.07    2.24
  -5  -3  -4   23.70    3.55
  -5  -3  -5   29.85    4.68
   5   3   5   40.21    3.86
  -5  -3  -5   33.99    5.14
  -5  -3  -6 2099.72   41.23
   5   3   6 2259.05   44.54
  -5  -3  -6 1831.81   37.06
  -5  -3  -7  476.26   11.72
   5   3   7  518.41   12.48
  -5  -3  -7  441.36   11.35
  -5  -3  -8  316.66   11.63
   5   3   8  316.51   11.14
   5   3   8  222.93    8.00
  -5  -3  -9  609.73   15.73
   5   3   9  594.39   17.25
   5   3   9  434.55   11.38
  -5  -3 -10  145.24   12.71
   5   3  10  159.11    9.26
   5   3  10  115.53    9.52
   5   3  11  134.68   27.97
   5   3  11    0.64    0.40
   5   3  12    0.62    0.43
  -5  -3 -14  157.40    6.90
  -5  -3 -15  131.42   16.82
  -5  -3 -17   -0.89    1.77
  -5  -3 -18  172.14   11.17
  -5  -3 -19   87.66    6.87
  -5  -3 -20   16.53    3.53
  -5  -4  17   21.55    3.05
  -5  -4  16    2.02    2.17
   5   4 -15   56.87   14.39
  -5  -4  15   55.60    9.29
   5   4 -14    3.67    2.61
  -5  -4  14    2.96    2.35
   5   4 -13   12.67    7.66
  -5  -4  13   10.39    6.53
   5   4 -12   33.98    6.59
  -5  -4  12   23.87    5.63
   5   4 -11   19.98    2.80
  -5  -4  11   17.87    3.46
   5   4 -10   39.37    7.65
  -5  -4  10   34.38    5.61
   5   4  -9   13.13    3.48
  -5  -4   9   15.31    2.86
   5   4  -8   10.72    2.88
  -5  -4   8    7.49    2.52
   5   4  -7   56.13    3.64
  -5  -4   7   60.58    4.12
   5   4  -6   19.89    3.28
  -5  -4   6   22.67    3.29
   5   4  -5  693.14   18.10
  -5  -4   5  634.75   16.77
   5   4  -4   40.13    3.00
  -5  -4   4   48.52    3.45
   5   4  -3  812.37   26.90
  -5  -4   3  677.82   22.99
   5   4  -2   12.79    2.35
  -5  -4   2   11.51    1.76
   5   4  -1  296.97   10.92
  -5  -4   1  260.34    9.69
   5   4   0    2.35    1.33
  -5  -4   0    4.20    1.30
   5   4   1  168.98   10.12
  -5  -4  -1  145.98    9.01
  -5  -4  -2   94.83    5.64
   5   4   2  105.42    6.84
  -5  -4  -2   84.13    5.53
  -5  -4  -3   41.40    5.90
   5   4   3   64.06    8.37
  -5  -4  -3   40.85    4.95
  -5  -4  -4  929.35   29.24
   5   4   4 1050.94   33.42
  -5  -4  -4  870.15   28.07
  -5  -4  -5    7.86    1.70
   5   4   5   20.53    2.43
  -5  -4  -5   11.31    2.60
  -5  -4  -6   20.70    3.99
   5   4   6   20.46    2.38
  -5  -4  -6   19.90    3.74
  -5  -4  -7  103.08    3.51
   5   4   7  105.85    3.49
  -5  -4  -7  110.25   11.15
  -5  -4  -8  122.98    3.83
   5   4   8  150.77    4.10
  -5  -4  -9    7.46    1.76
   5   4   9    7.35    1.62
   5   4   9    0.93    0.78
  -5  -4 -11    0.63    0.85
   5   4  11    0.54    0.94
   5   4  11    1.27    0.69
  -5  -4 -12    7.28    2.28
   5   4  12    0.07    0.40
   5   4  13    0.48    0.80
  -5  -4 -14    5.41    4.10
   5   4  14   -0.10    0.86
  -5  -4 -15    9.80    1.90
  -5  -4 -16  202.63    8.18
  -5  -4 -17  159.59   18.96
  -5  -4 -18    0.93    1.86
  -5  -4 -19   -0.18    1.73
  -5  -4 -20   33.33    3.71
   5   5 -15    5.73    2.61
  -5  -5  15    5.87    2.08
   5   5 -14    5.02    3.24
  -5  -5  14    4.28    3.00
   5   5 -13    3.26    2.48
  -5  -5  13    2.74    2.59
   5   5 -12    3.84    2.76
  -5  -5  12    2.71    2.36
   5   5 -11   52.65    3.97
  -5  -5  11   48.96   28.44
   5   5 -10   56.12    3.45
  -5  -5  10   51.00    3.87
   5   5  -9   40.68    7.26
  -5  -5   9   42.58    4.15
   5   5  -8  112.38   14.55
  -5  -5   8   88.32    5.22
   5   5  -7   40.50    8.28
  -5  -5   7   34.17    4.08
   5   5  -6  142.00    9.24
  -5  -5   6  114.92    7.74
   5   5  -5  742.49   19.72
  -5  -5   5  666.03   18.06
   5   5  -4   78.87    4.38
  -5  -5   4   65.92    4.17
   5   5  -3  172.39    9.99
  -5  -5   3  145.84    8.80
   5   5  -2   65.16    8.66
  -5  -5   2   51.80    3.44
   5   5  -1    1.88    0.58
  -5  -5   1    2.78    1.28
   5   5   0   17.71    2.84
  -5  -5   0    9.61    1.79
   5   5   1    4.97    1.23
  -5  -5  -1    6.61    1.15
   5   5   2  195.21    6.47
  -5  -5  -2  168.36    6.10
  -5  -5  -3   40.50    1.78
   5   5   3   48.26    2.68
  -5  -5  -3   41.35    5.74
  -5  -5  -4    6.66    1.00
   5   5   4    7.99    1.55
  -5  -5  -4    6.04    1.58
  -5  -5  -5  161.12    8.86
   5   5   5  178.45    9.85
  -5  -5  -5  162.18   17.68
  -5  -5  -6    1.34    1.09
   5   5   6    2.77    1.15
  -5  -5  -6    4.83    1.13
  -5  -5  -7  366.95   10.24
   5   5   7  458.85   12.25
  -5  -5  -7  408.67   11.69
  -5  -5  -8  594.37   15.85
   5   5   8  717.38   18.88
  -5  -5  -9  107.62    6.77
   5   5   9  150.65    8.92
   5   5   9  109.28    7.04
  -5  -5 -10   47.14    7.71
   5   5  10    1.07    0.65
  -5  -5 -11   11.17    1.60
   5   5  11    1.15    0.76
   5   5  12    0.17    1.88
  -5  -5 -13   80.30   11.36
   5   5  13    0.96    1.23
  -5  -5 -14   16.05    2.08
   5   5  14   -0.50    0.98
   5   5  15    1.85    1.22
  -5  -5 -16   27.44    3.11
  -5  -5 -17   33.92    3.23
  -5  -5 -18    0.55    1.88
  -5  -5 -19    0.05    1.92
   5   6 -14   70.78    4.61
  -5  -6  14   55.25    4.38
   5   6 -13   43.93    3.90
  -5  -6  13   35.69    3.83
   5   6 -12   24.65    3.09
  -5  -6  12   17.20    4.47
   5   6 -11   50.69    4.32
  -5  -6  11   36.93    8.06
   5   6 -10   27.88    2.97
  -5  -6  10   19.69    4.30
   5   6  -9   16.87    3.50
  -5  -6   9   12.78    2.55
   5   6  -8  129.70    5.34
  -5  -6   8  113.79    5.16
   5   6  -7   27.33    6.73
  -5  -6   7   29.98    5.85
   5   6  -6   35.20    7.17
  -5  -6   6   25.21    2.82
   5   6  -5   30.09    5.17
  -5  -6   5   27.88    2.98
   5   6  -4  202.76    8.44
  -5  -6   4  173.27    7.60
   5   6  -3    6.26    2.48
  -5  -6   3    4.43    2.07
   5   6  -2  261.60   15.34
  -5  -6   2  202.46   12.31
   5   6  -1  677.17   37.28
  -5  -6   1  594.38   33.14
   5   6   0   11.84    1.97
  -5  -6   0   17.93    3.46
   5   6   1    7.84    1.49
  -5  -6  -1    4.88    1.63
  -5  -6  -2    1.86    1.25
   5   6   3  143.87   29.89
  -5  -6  -3  122.19   13.03
   5   6   4   30.49    2.22
  -5  -6  -4   18.00    2.35
  -5  -6  -5  246.30   13.89
   5   6   5  330.93   18.64
  -5  -6  -5  273.88   15.98
  -5  -6  -6   17.91    1.73
   5   6   6   14.96    2.68
  -5  -6  -6   17.79    2.07
  -5  -6  -7   11.50    1.68
   5   6   7   13.94    2.09
  -5  -6  -7   18.08    2.63
  -5  -6  -8   29.83    6.53
   5   6   8    0.11    1.27
  -5  -6  -9    1.07    1.21
   5   6   9   -0.15    1.13
  -5  -6 -10  106.31    7.79
   5   6  10   38.80    3.29
   5   6  13   -0.22    0.69
  -5  -6 -14   12.85    2.99
   5   6  14   -1.39    1.11
  -5  -6 -15    1.26    1.67
   5   6  15   -0.81    1.07
  -5  -6 -16   24.93    3.89
  -5  -6 -17  110.29    5.78
   5   7 -13   -0.92    1.54
   5   7 -12   32.06    3.46
  -5  -7  12   20.28    3.55
   5   7 -11   19.84    2.90
  -5  -7  11   12.36    4.63
   5   7 -10    4.43    3.30
  -5  -7  10   10.70    6.87
   5   7  -9    0.59    1.66
  -5  -7   9    1.75    1.78
   5   7  -8   75.16   11.88
  -5  -7   8   68.85    5.06
   5   7  -7    0.63    1.74
  -5  -7   7    2.34    1.70
   5   7  -6   95.09   12.83
  -5  -7   6   84.12    5.30
   5   7  -5    3.07    1.66
  -5  -7   5    0.16    1.68
   5   7  -4  448.15    9.22
  -5  -7   4  370.48    9.01
   5   7  -3   24.63    4.70
   5   7  -2    0.86    1.53
  -5  -7   2   -0.73    1.38
   5   7  -1   82.45    7.43
  -5  -7   1   77.13    7.90
   5   7   0    1.63    0.85
  -5  -7   0   -1.14    1.50
   5   7   1    1.50    0.94
  -5  -7  -1    1.46    1.54
   5   7   2   -1.51    1.15
  -5  -7  -2    1.53    1.14
   5   7   3   -0.11    1.29
  -5  -7  -3    5.82    2.40
   5   7   4  301.08   10.01
  -5  -7  -4  252.24    9.75
  -5  -7  -5   98.30   12.50
  -5  -7  -6   55.18   10.04
   5   7   8   71.95    9.56
   5   7   9    0.03    0.94
  -5  -7 -10   17.26    2.33
   5   7  10    0.88    0.91
  -5  -7 -11    2.10    2.11
   5   7  11    1.77    1.23
   5   7  12    0.04    1.21
  -5  -7 -13    1.85    1.59
   5   7  13    0.72    0.82
  -5  -7 -14    8.99    5.30
   5   7  14    0.69    0.72
   5   8 -10    0.60    1.72
   5   8  -9   19.80    3.39
  -5  -8   9   14.63    2.05
   5   8  -8   49.22    3.60
  -5  -8   8   39.58    4.17
   5   8  -7   -0.87    1.74
   5   8  -6    1.80    1.32
  -5  -8   6    4.70    3.22
   5   8  -5    0.33    0.92
  -5  -8   5    2.00    1.40
   5   8  -4   12.98    3.72
  -5  -8   4   10.22    2.41
   5   8  -3   12.86    3.68
  -5  -8   3   12.59    3.10
   5   8  -2    3.47    2.85
  -5  -8   2    2.20    1.13
   5   8  -1   94.84    6.70
  -5  -8   1   70.90    4.50
   5   8   0  397.99   12.31
  -5  -8   0  327.59   12.50
   5   8   1    1.22    1.11
  -5  -8  -1    2.06    1.73
  -5  -8  -2    1.78    1.67
  -5  -8  -3   46.32    5.80
  -5  -8  -4   21.76    4.83
  -5  -8  -5   22.59    4.19
  -5  -8  -6   20.65    3.96
   5   8   7    2.46    1.50
   5   8   8   -0.07    1.43
   5   8   9    0.06    0.59
   5   8  10    0.07    0.72
   5   8  11   -0.10    0.52
   5   8  12    1.91    1.43
   5   8  13    1.08    1.22
  -5  -9   6   30.84    5.56
  -5  -9   5   68.10   12.36
  -5  -9   4   21.54    3.79
  -5  -9   3    4.11    3.06
  -5  -9   2   12.08    2.62
  -5  -9   1   -0.26    1.50
  -5  -9   0    0.91    0.92
  -5  -9  -1   11.19    6.59
  -5  -9  -2    4.19    2.97
  -5  -9  -3    2.08    2.44
  -5  -9  -4    0.42    0.95
  -5  -9  -5   58.96    8.94
   5   9   6    2.36    1.50
   5   9   7    0.27    1.14
   5   9   8    4.57    3.19
   5   9   9    2.60    2.10
   5   9  10    1.44    1.16
   5   9  11    0.12    0.93
  -5 -10  -1    1.55    1.48
  -5 -10  -2   29.15    3.99
  -5 -10  -3    8.40    1.39
   5  10   5    0.18    0.94
   5  10   6   -0.55    1.41
  -6   7   5    5.51    3.88
  -6   7   4    3.54    2.58
  -6   7   3   19.47    4.45
  -6   7   2   -1.61    1.54
  -6   7   1   18.45    2.61
  -6   7   0   30.19    5.39
  -6   7  -1    0.40    1.58
  -6   7  -2    3.05    2.52
  -6   7  -3    3.67    2.95
  -6   7  -4   17.25    4.62
  -6   7  -5   -0.10    1.55
  -6   7  -6   15.45    3.95
   6  -6  -8    3.97    3.37
   6  -6  -7    0.57    1.56
  -6   6   5   37.87    6.20
  -6   6   4    3.14    1.89
  -6   6   3   57.56    6.82
  -6   6   2    0.18    0.94
  -6   6   1   91.62   14.14
  -6   6   0   57.54   10.70
  -6   6  -1    5.11    3.30
  -6   6  -2    1.80    1.61
   6  -6   2    1.48    1.29
  -6   6  -3    2.62    2.25
   6  -6   3   -0.07    1.17
  -6   6  -4   13.77    1.74
   6  -6   4    8.97    5.24
  -6   6  -5   23.81    3.70
   6  -6   5   17.50    2.94
  -6   6  -6   92.16   11.44
   6  -6   6   81.47    6.20
  -6   6  -7   12.70    7.44
   6  -6   7   10.30    5.98
  -6   6  -8    6.72    1.35
   6  -6   8    7.35    2.16
  -6   6  -9  192.46    7.26
   6  -6   9  141.15    9.47
  -6   6 -10   57.42   11.65
   6  -6  10   68.54    4.80
   6  -6  11    8.59    1.95
   6  -5  -9   -0.21    1.37
   6  -5  -8   33.51    3.42
   6  -5  -7    6.74    2.21
   6  -5  -6    2.22    1.94
  -6   5   4   14.24    2.43
  -6   5   3    9.55    6.03
  -6   5   2   13.47    2.56
  -6   5   1   55.36    4.76
   6  -5  -1   38.23    7.32
  -6   5   0   18.85    3.19
   6  -5   0   10.31    1.75
  -6   5  -1  128.94    7.94
   6  -5   1  100.10    5.35
  -6   5  -2    2.67    1.41
   6  -5   2   -0.81    1.35
  -6   5  -3   86.11    8.35
   6  -5   3   62.18    9.08
  -6   5  -4  218.63   12.68
   6  -5   4  189.51    5.98
   6  -5   5   63.39    8.83
  -6   5  -6   41.69    4.51
   6  -5   6   33.71    2.84
  -6   5  -7   30.28   14.09
   6  -5   7   24.11    6.49
  -6   5  -8   18.35    4.72
   6  -5   8   17.90    3.73
  -6   5  -9   36.06    5.63
   6  -5   9   29.89    6.94
  -6   5 -10  325.86   20.05
   6  -5  10  264.31   16.18
  -6   5 -11   76.00   12.72
   6  -5  11   82.70   15.15
  -6   5 -12    2.18    2.01
   6  -5  12    4.35    3.13
  -6   5 -13   36.58    3.98
   6  -5  13   24.33    3.23
   6  -5  14   -1.56    1.61
   6  -4 -10   14.86    2.27
   6  -4  -9    1.89    1.39
   6  -4  -8    4.60    3.31
   6  -4  -7   10.66    6.90
   6  -4  -6    2.07    1.83
  -6   4   4    0.78    0.86
   6  -4  -4    0.42    0.53
  -6   4   3  123.75   13.87
   6  -4  -3  124.17    8.11
  -6   4   2   39.39    5.32
   6  -4  -2   31.06    3.35
  -6   4   1   15.85    1.82
   6  -4  -1   11.77    2.06
  -6   4   0   12.69    1.93
   6  -4   0    9.83    1.60
  -6   4  -1    1.67    1.54
   6  -4   1    2.14    1.41
  -6   4  -2    2.96    1.48
   6  -4   2    2.35    1.46
  -6   4  -3   10.29    1.91
   6  -4   3    9.67    1.73
  -6   4  -4  118.90   10.00
   6  -4   4  125.93    6.14
  -6   4  -5   41.34    4.93
   6  -4   5   39.94    3.79
  -6   4  -6   10.47    1.88
   6  -4   6   10.90    1.90
  -6   4  -7    2.42    2.46
   6  -4   7    4.30    3.05
  -6   4  -8   27.83    2.84
   6  -4   8   23.41    2.87
  -6   4  -9   50.85    3.49
   6  -4   9   47.43   28.63
  -6   4 -10  792.65   25.92
   6  -4  10  658.37   18.63
  -6   4 -11    2.20    3.14
   6  -4  11   -0.02    1.15
  -6   4 -12  115.45   15.16
   6  -4  12  115.85    7.26
  -6   4 -13   39.58    6.22
   6  -4  13   27.22    4.52
  -6   4 -14  678.83   14.30
   6  -4  14  576.82   12.51
  -6   4 -15   58.79   12.90
   6  -4  15   56.15    4.53
   6  -4  16   -0.20    1.65
  -6   3  12    0.36    1.45
  -6   3  11    0.46    1.36
   6  -3 -10   59.22    4.13
  -6   3  10   67.53    4.12
   6  -3  -9   36.05    3.67
  -6   3   9   46.92    3.18
   6  -3  -8  211.88    6.37
  -6   3   8  255.28    6.70
   6  -3  -7  284.54   16.45
  -6   3   7  321.77   18.16
   6  -3  -6  110.29    5.42
   6  -3  -6   76.67   13.52
  -6   3   6   97.16    4.51
  -6   3   5   77.14   12.26
   6  -3  -5   83.35    7.21
  -6   3   5  102.26    4.51
  -6   3   4    0.93    0.50
   6  -3  -4    1.66    0.69
  -6   3   3   20.15    2.92
   6  -3  -3   19.11    2.81
  -6   3   2   37.20    3.62
   6  -3  -2   36.37    7.45
  -6   3   1   -0.31    1.32
   6  -3  -1   -0.93    1.17
  -6   3   0    7.33    1.94
   6  -3   0    6.91    2.40
  -6   3  -1   47.01    5.01
   6  -3   1   35.76    3.03
   6  -3   2   -0.10    1.29
  -6   3  -3    4.50    2.04
   6  -3   3    3.54    1.33
  -6   3  -4  212.11   15.22
   6  -3   4  192.34   15.08
  -6   3  -5  446.77   25.40
   6  -3   5  401.45   22.80
  -6   3  -6   90.78    5.19
   6  -3   6   81.52    8.23
  -6   3  -7   33.63    5.01
   6  -3   7   26.66    3.18
  -6   3  -8  180.61   21.40
   6  -3   8  141.07    6.43
  -6   3  -9   -1.27    1.73
   6  -3   9    2.06    1.55
  -6   3 -10    6.11    4.39
   6  -3  10    4.68    3.50
  -6   3 -11    7.03    3.39
   6  -3  11    8.75    1.90
  -6   3 -12    7.91    5.01
   6  -3  12    5.82    3.76
  -6   3 -13    1.22    1.29
   6  -3  13    0.14    1.03
  -6   3 -14   71.79    9.14
   6  -3  14   67.93   10.34
  -6   3 -15  208.57   13.18
   6  -3  15  140.90   21.72
  -6   3 -16    5.48    3.68
   6  -3  16    4.79    3.44
  -6   3 -17    2.49    2.31
   6  -3  17   -1.55    1.61
  -6   2  14   25.97    3.32
  -6   2  13    8.34    5.25
  -6   2  12   15.04    4.66
  -6   2  11   15.55    9.52
  -6   2  10   16.64    3.78
   6  -2  -9    6.50    3.23
  -6   2   9    8.30    2.31
   6  -2  -8    1.93    1.38
   6  -2  -8    0.96    0.95
  -6   2   8    0.60    1.24
   6  -2  -7   -1.15    1.03
   6  -2  -7    1.33    0.58
  -6   2   7    0.42    0.70
   6  -2  -6   23.02    2.86
  -6   2   6   23.84    2.93
  -6   2   5  321.76   19.01
   6  -2  -5  353.63   19.94
  -6   2   5  396.92   22.08
  -6   2   4  357.65   15.47
   6  -2  -4  382.39   11.22
  -6   2   4  408.90   11.18
  -6   2   3   34.59    3.47
   6  -2  -3   42.63    4.72
  -6   2   3   31.83    2.25
  -6   2   2 1799.36  370.28
   6  -2  -2 1823.12   43.72
  -6   2   1   20.27    3.45
   6  -2  -1   25.00    3.30
  -6   2   0  201.00   11.61
   6  -2   0  204.54   11.48
  -6   2  -1    4.44    1.00
   6  -2   1   17.99    3.66
  -6   2  -2    8.20    1.44
   6  -2   2    7.37    1.86
  -6   2  -3  166.14   15.88
   6  -2   3  140.14    8.54
  -6   2  -4   -0.24    1.29
   6  -2   4    0.10    1.54
  -6   2  -5   23.26    2.20
   6  -2   5   25.77    2.73
  -6   2  -6   23.21    2.33
   6  -2   6   22.58    3.08
  -6   2  -7   15.01    2.05
   6  -2   7   16.41    2.44
  -6   2  -8  183.64   11.47
   6  -2   8  165.77   10.56
  -6   2  -9   77.99    7.29
   6  -2   9   80.15    5.16
  -6   2 -10  108.92    5.64
   6  -2  10   98.10    5.39
  -6   2 -11  700.89   38.33
   6  -2  11  604.50   33.40
  -6   2 -12  231.69    6.89
   6  -2  12  203.92    6.65
  -6   2 -13   74.02    9.37
   6  -2  13   61.81    8.71
  -6   2 -14   47.98    6.86
   6  -2  14   33.73    7.12
  -6   2 -15   76.53   15.13
   6  -2  15   75.29   10.20
  -6   2 -16   61.34   12.37
   6  -2  16   69.02   12.73
  -6   2 -17   17.15    4.41
   6  -2  17   20.21    2.69
  -6   2 -18    6.25    4.03
  -6   1  16    0.78    1.62
  -6   1  15   15.34    2.38
  -6   1  14    4.17    3.08
  -6   1  13    8.58    2.59
  -6   1  12    5.25    3.52
  -6   1  11   -0.95    1.43
   6  -1 -10    0.00    0.57
  -6   1  10   -0.55    1.43
   6  -1  -9    9.22    3.78
  -6   1   9   12.22    2.05
   6  -1  -8   28.44    3.13
  -6   1   8   32.12    3.69
  -6   1   7   79.44   11.68
   6  -1  -7  116.49    7.42
  -6   1   7  120.21    7.65
  -6   1   6   17.51    3.21
   6  -1  -6   18.20    2.95
  -6   1   6   16.55    1.98
  -6   1   5   15.01    2.19
   6  -1  -5   18.43    3.23
  -6   1   5   16.99    3.35
  -6   1   4   10.29    2.43
   6  -1  -4    9.50    1.76
  -6   1   4   12.18    2.39
  -6   1   3    9.78    1.90
   6  -1  -3    8.32    1.46
  -6   1   3   13.88    1.95
  -6   1   2   44.37    3.89
   6  -1  -2   42.46    7.37
  -6   1   2   33.31    2.95
  -6   1   1  251.98   20.10
   6  -1  -1  252.89    8.16
  -6   1   1  234.89    6.66
  -6   1   0  853.42   21.02
   6  -1   0  856.77   21.41
  -6   1  -1   76.03    6.37
   6  -1   1   81.74   13.79
  -6   1  -2 1337.27   31.52
   6  -1   2 1253.25   32.20
  -6   1  -3  479.81   16.04
   6  -1   3  484.09   13.35
  -6   1  -4  150.48   14.95
   6  -1   4  131.86    5.23
  -6   1  -5   54.27    5.79
   6  -1   5   48.39    7.71
  -6   1  -6  117.70   10.96
   6  -1   6  111.47    5.29
  -6   1  -7  215.49   14.19
   6  -1   7  174.66   10.12
  -6   1  -8  166.62    9.52
   6  -1   8  168.57    6.83
  -6   1  -9  584.11   33.12
   6  -1   9  566.58   31.54
  -6   1 -10   41.03    6.40
   6  -1  10   37.80    3.15
  -6   1 -11    6.77    1.28
   6  -1  11    4.26    2.31
  -6   1 -12  175.10   10.96
   6  -1  12  150.36    9.62
  -6   1 -13   -0.51    1.72
   6  -1  13    0.84    1.18
  -6   1 -14    2.80    2.17
   6  -1  14    1.30    1.69
  -6   1 -15   57.69   10.18
   6  -1  15   54.69    6.75
  -6   1 -16   -0.16    0.96
   6  -1  16    2.66    1.92
  -6   1 -17   50.09    7.22
   6  -1  17   51.57    4.51
  -6   1 -18   47.44    7.20
  -6   1 -19    8.15    1.80
  -6   0  16   22.92    7.52
  -6   0  15    3.99    2.83
  -6   0  14   22.72    4.43
  -6   0  13   65.80   14.27
   6   0 -12   22.53    4.14
  -6   0  12   26.97    4.77
   6   0 -11    1.42    1.09
  -6   0  11    1.46    1.00
   6   0 -10   45.78    7.71
  -6   0  10   49.80    8.66
   6   0  -9    1.73    1.23
  -6   0   9    6.09    2.30
   6   0  -8    1.52    0.68
  -6   0   8    0.41    0.67
   6   0  -7   -0.22    1.09
  -6   0   7   -0.42    1.18
  -6   0   6   19.79    3.21
   6   0  -6   22.34    2.13
  -6   0   6   23.20    2.25
  -6   0   5    1.12    0.33
   6   0  -5    2.63    1.23
  -6   0   5   -0.09    0.72
  -6   0   4    1.16    0.52
   6   0  -4   -0.10    1.04
  -6   0   4    1.39    0.53
  -6   0   3  362.83    9.79
   6   0  -3  384.39   11.01
  -6   0   3  366.99   10.11
  -6   0   2  119.27    8.50
   6   0  -2  128.49    4.36
  -6   0   2  115.99    3.46
  -6   0   1  179.43    4.20
   6   0  -1  182.74    5.32
  -6   0   1  171.72    3.90
  -6   0   0  494.86   16.52
   6   0   0  519.41   17.76
  -6   0   0  404.98   13.43
  -6   0  -1   72.13    2.98
   6   0   1   74.94   11.33
  -6   0  -1   52.55    2.14
  -6   0  -2   38.80    6.75
   6   0   2   34.30    3.61
  -6   0  -3  658.66   21.66
   6   0   3  643.74   21.52
  -6   0  -4   30.86    5.03
   6   0   4   31.60    5.95
  -6   0  -5    6.37    1.16
   6   0   5    5.22    1.78
  -6   0  -6  304.56    9.77
   6   0   6  295.30   10.82
  -6   0  -7  615.13   37.91
   6   0   7  525.79   27.34
  -6   0  -8    2.03    0.82
   6   0   8    2.15    1.76
  -6   0  -9  339.72   10.67
   6   0   9  306.37    9.78
  -6   0 -10   62.54   10.33
   6   0  10   49.59    7.09
  -6   0 -11   12.15    4.37
   6   0  11    4.70    0.96
  -6   0 -12  502.57   16.36
   6   0  12  405.13   13.47
  -6   0 -13  905.05   50.52
   6   0  13  836.91  370.43
  -6   0 -14   61.73   10.13
   6   0  14   58.73    3.75
  -6   0 -15   26.10    3.77
   6   0  15   24.35    2.69
  -6   0 -16   33.43    7.01
   6   0  16   28.61    5.54
  -6   0 -17  143.44   23.05
  -6   0 -18   60.10    8.71
  -6   0 -19   44.01   10.55
  -6  -1  16   34.51    9.74
  -6  -1  15   17.18    3.73
  -6  -1  14   31.28    3.59
   6   1 -13   66.32    4.48
  -6  -1  13   77.57    5.60
   6   1 -12  130.77    5.73
  -6  -1  12  133.94    6.49
   6   1 -11    5.06    2.44
  -6  -1  11    4.08    2.39
   6   1 -10    0.63    0.64
  -6  -1  10    0.74    1.02
   6   1  -9   19.11    3.68
  -6  -1   9   16.09    2.78
   6   1  -8   75.26   24.84
  -6  -1   8   72.41    6.67
   6   1  -7   42.23    4.29
  -6  -1   7   38.78    7.38
   6   1  -6   19.51    2.51
  -6  -1   6   18.29    2.43
   6   1  -5   35.92    6.52
  -6  -1   5   27.31    4.68
   6   1  -4   18.70    2.27
  -6  -1   4   19.09    1.77
  -6  -1   3   27.45    3.01
   6   1  -3   31.97    5.67
  -6  -1   3   25.97    3.82
  -6  -1   2   93.55    5.03
   6   1  -2   99.48    8.56
  -6  -1   2   76.03   10.25
  -6  -1   1   71.87    2.50
   6   1  -1   80.87    3.89
  -6  -1   1   53.03    2.60
  -6  -1   0    1.66    1.18
   6   1   0    2.77    1.59
  -6  -1   0    0.73    0.87
  -6  -1  -1  602.96   19.80
   6   1   1  574.72   19.73
  -6  -1  -1  458.60   15.51
  -6  -1  -2   97.26    3.25
   6   1   2  102.86    4.52
  -6  -1  -2   66.71    2.37
  -6  -1  -3   24.71    3.75
   6   1   3   29.30    4.22
  -6  -1  -3   14.56    2.04
  -6  -1  -4  882.87   28.34
   6   1   4  876.96   28.59
  -6  -1  -4  626.89   20.32
  -6  -1  -5  300.54   11.11
   6   1   5  294.91   10.94
  -6  -1  -6   17.94    2.43
   6   1   6   19.54    2.28
  -6  -1  -7  241.54    7.72
   6   1   7  240.93    7.95
  -6  -1  -8    4.57    0.88
   6   1   8    3.12    1.10
  -6  -1  -9  169.94    8.66
   6   1   9  156.18    6.16
  -6  -1 -10    5.80    1.70
   6   1  10    6.51    1.85
  -6  -1 -11  148.97   17.03
   6   1  11  136.16   16.68
  -6  -1 -12   30.92    5.65
   6   1  12   31.38    5.12
  -6  -1 -13   63.12   10.87
   6   1  13   54.56    6.98
  -6  -1 -14   15.03    2.15
   6   1  14   13.83    1.87
  -6  -1 -15   14.28    8.52
   6   1  15   13.82    1.91
  -6  -1 -16  105.26   19.44
   6   1  16   80.45   15.08
  -6  -1 -17  534.07  321.68
  -6  -1 -18    1.65    1.31
  -6  -1 -19    1.21    1.78
  -6  -1 -20   14.09    7.85
  -6  -2  16   -0.17    1.77
  -6  -2  15   35.05    3.31
  -6  -2  14   -1.84    2.03
   6   2 -13  269.58   12.92
  -6  -2  13  255.62   12.82
   6   2 -12    1.62    1.45
  -6  -2  12    0.04    1.65
   6   2 -11    5.85    3.06
  -6  -2  11    5.17    2.95
   6   2 -10  126.97    8.20
  -6  -2  10  123.36   12.82
   6   2  -9  131.21    5.88
  -6  -2   9  146.68   19.78
   6   2  -8   -0.85    1.44
  -6  -2   8   -0.73    1.47
   6   2  -7    6.49    2.01
  -6  -2   7    5.49    2.14
   6   2  -6   14.65    2.15
  -6  -2   6   14.57    2.73
   6   2  -5   19.87    3.61
  -6  -2   5   13.94    2.78
   6   2  -4   28.13    2.47
  -6  -2   4   27.69    4.81
   6   2  -3  859.01   21.69
  -6  -2   3  703.86   17.69
   6   2  -2    3.28    1.13
  -6  -2   2    3.38    1.69
  -6  -2   1    1.36    0.50
   6   2  -1   -0.12    1.23
  -6  -2   1   -0.78    1.00
  -6  -2   0  150.83    8.59
   6   2   0  155.56    4.78
  -6  -2   0  117.49    3.54
  -6  -2  -1  484.46   15.80
   6   2   1  510.38   17.65
  -6  -2  -1  373.16   13.01
  -6  -2  -2    3.19    0.92
   6   2   2    4.00    1.27
  -6  -2  -2    4.04    1.02
  -6  -2  -3   51.33    8.16
   6   2   3   45.84    2.70
  -6  -2  -3   30.42    2.04
  -6  -2  -4  490.08   18.67
   6   2   4  539.89   18.41
  -6  -2  -4  403.62   13.53
  -6  -2  -5    7.82    1.54
   6   2   5    5.93    1.77
  -6  -2  -5    4.88    1.18
  -6  -2  -6    0.88    0.80
   6   2   6   -0.44    1.41
  -6  -2  -6    2.19    0.61
  -6  -2  -7  287.69   15.42
   6   2   7  288.21   15.51
  -6  -2  -8   34.36    5.60
   6   2   8   32.59    4.78
  -6  -2  -9  238.50    7.90
   6   2   9  240.59    8.73
  -6  -2 -10  405.36   22.85
   6   2  10  372.12   21.75
  -6  -2 -11   34.68    5.70
   6   2  11   24.95    3.13
  -6  -2 -12   17.46    2.06
   6   2  12   18.78    1.94
  -6  -2 -13  282.78   20.53
   6   2  13  278.02   16.21
  -6  -2 -14  177.71    9.75
   6   2  14  169.24    5.57
  -6  -2 -15    7.48    4.91
   6   2  15    8.13    5.21
  -6  -2 -16    5.47    3.27
  -6  -2 -17  111.87    8.04
  -6  -2 -18    2.38    2.27
  -6  -2 -19   42.07    9.34
  -6  -3  16    5.10    3.61
  -6  -3  15    6.91    2.39
   6   3 -14    1.58    1.99
  -6  -3  14   -0.57    1.68
   6   3 -13   49.06    4.41
  -6  -3  13   46.50    5.46
   6   3 -12   33.45    3.38
  -6  -3  12   20.72    4.11
   6   3 -11  111.09    5.54
  -6  -3  11  102.61    5.61
   6   3 -10    2.86    2.21
  -6  -3  10   -0.62    1.67
   6   3  -9   99.89   12.12
  -6  -3   9   82.51   13.14
   6   3  -8   31.30    4.69
  -6  -3   8   25.38    5.36
   6   3  -7  335.62   12.13
  -6  -3   7  294.19   11.79
   6   3  -6  299.33   17.46
  -6  -3   6  278.49   16.29
   6   3  -5   39.31    2.96
  -6  -3   5   36.59    2.87
   6   3  -4   22.52    2.57
  -6  -3   4   15.32    2.44
   6   3  -3  149.97    8.92
  -6  -3   3  132.63    7.90
   6   3  -2    0.23    0.66
  -6  -3   2    1.58    1.04
   6   3  -1  109.88   13.62
  -6  -3   1   87.14   10.65
   6   3   0    3.63    1.33
  -6  -3   0    0.19    1.14
   6   3   1 1021.91   25.34
  -6  -3  -1  797.24   19.67
  -6  -3  -2   44.68    1.97
   6   3   2   62.02    3.53
  -6  -3  -2   51.50    7.11
  -6  -3  -3    8.14    1.63
   6   3   3   11.16    1.98
  -6  -3  -3    7.87    1.18
  -6  -3  -4  182.71    5.83
   6   3   4  249.67    8.36
  -6  -3  -4  169.62    5.63
  -6  -3  -5 1866.90  131.04
   6   3   5 1993.62  140.87
  -6  -3  -5 1619.58   37.24
  -6  -3  -6  315.22   17.52
   6   3   6  373.28   19.71
  -6  -3  -6  309.17   16.30
  -6  -3  -7  104.75    6.93
   6   3   7  109.89    4.14
  -6  -3  -7   99.27    9.66
  -6  -3  -8  424.67   11.93
   6   3   8  423.61   11.95
  -6  -3  -9    5.98    2.51
   6   3   9    4.79    1.65
   6   3   9   -0.33    0.60
  -6  -3 -10   27.72    6.25
   6   3  10   25.95    5.01
  -6  -3 -11  104.51    7.48
   6   3  11  118.02    5.30
  -6  -3 -12    7.79    2.87
   6   3  12    3.33    1.75
  -6  -3 -13  306.37   17.69
   6   3  13  287.45   16.45
  -6  -3 -14   51.12    6.65
  -6  -3 -15  109.91   10.44
  -6  -3 -16   24.74    5.00
  -6  -3 -17  181.94   12.45
  -6  -3 -18  277.39    8.61
  -6  -3 -19    4.71    3.33
  -6  -4  15    6.39    1.74
   6   4 -14   -0.68    1.43
  -6  -4  14    1.14    0.98
   6   4 -13    7.55    4.42
  -6  -4  13    7.27    4.81
   6   4 -12  118.21   11.10
  -6  -4  12   98.55    7.69
   6   4 -11    8.03    2.42
  -6  -4  11    2.73    2.90
   6   4 -10   -0.08    1.42
  -6  -4  10   -0.31    1.59
   6   4  -9   44.66    9.98
  -6  -4   9   44.89    3.51
   6   4  -8    2.99    2.30
  -6  -4   8    0.55    1.64
   6   4  -7    6.57    2.82
  -6  -4   7    2.67    1.88
   6   4  -6    4.21    1.47
  -6  -4   6    3.39    2.16
   6   4  -5   83.14   13.13
  -6  -4   5   80.43    5.78
   6   4  -4    1.55    1.56
  -6  -4   4    1.34    1.48
   6   4  -3    8.38    2.05
  -6  -4   3    9.97    1.59
   6   4  -2  144.45    5.95
  -6  -4   2   99.73   12.31
   6   4  -1   88.49    4.51
  -6  -4   1   74.38    4.57
   6   4   0   35.00    2.88
  -6  -4   0   27.49    2.35
   6   4   1  501.82   26.95
  -6  -4  -1  404.70   21.30
   6   4   2   32.14    2.87
  -6  -4  -2   26.74    2.36
   6   4   3   -0.81    1.17
  -6  -4  -3    0.95    0.58
  -6  -4  -4    0.21    0.81
   6   4   4    1.12    1.27
  -6  -4  -4    1.60    1.12
  -6  -4  -5   35.68    4.99
   6   4   5   38.49    2.67
  -6  -4  -5   37.03    6.15
  -6  -4  -6  125.72    5.17
   6   4   6  161.50    6.09
  -6  -4  -6  132.59    5.09
  -6  -4  -7  147.65    5.23
   6   4   7  175.18    6.29
  -6  -4  -7  140.45   15.85
  -6  -4  -8  136.07    8.29
   6   4   8  146.92    9.01
  -6  -4  -8  123.90   15.95
  -6  -4  -9   82.92    4.13
   6   4   9   79.71   28.52
   6   4   9   55.03    4.89
  -6  -4 -10   70.34   48.13
   6   4  10   68.68   47.40
   6   4  10    0.40    1.01
   6   4  11   -0.24    0.83
  -6  -4 -12   82.54    6.14
  -6  -4 -13   49.42    3.22
  -6  -4 -14  158.98   20.52
  -6  -4 -15  117.88    6.97
  -6  -4 -16   -1.28    1.57
  -6  -4 -17   25.39    2.98
  -6  -4 -18   21.48    4.44
  -6  -5  14   28.40    3.09
   6   5 -13   51.55    4.11
  -6  -5  13   38.30    3.85
   6   5 -12    8.49    5.37
  -6  -5  12    9.69    5.92
   6   5 -11   90.61    6.82
  -6  -5  11   57.85    5.16
   6   5 -10    2.13    1.65
  -6  -5  10    0.67    1.78
   6   5  -9    6.96    4.50
  -6  -5   9    2.96    2.50
   6   5  -8  224.73    8.89
  -6  -5   8  189.85    6.57
   6   5  -7  363.52    8.60
  -6  -5   7  326.32    8.73
   6   5  -6  284.13   16.71
  -6  -5   6  237.11   14.35
   6   5  -5   69.31   46.78
  -6  -5   5   54.44    3.70
   6   5  -4   10.00    3.85
  -6  -5   4   11.23    2.09
   6   5  -3  117.65    6.30
  -6  -5   3   93.08    5.23
   6   5  -2    2.15    1.53
  -6  -5   2    1.47    1.36
   6   5  -1   56.21    3.38
  -6  -5   1   43.50    3.02
   6   5   0   70.73    3.48
  -6  -5   0   64.93    3.56
   6   5   1    8.77    2.51
  -6  -5  -1    6.60    2.14
   6   5   2  312.39   17.91
  -6  -5  -2  243.62   14.51
   6   5   3    5.58    1.79
  -6  -5  -3    2.94    0.88
   6   5   4    7.59    2.11
  -6  -5  -4    1.94    1.21
   6   5   5 1006.59   54.69
  -6  -5  -5  786.42   43.00
  -6  -5  -6  402.38   12.96
   6   5   6  524.36   16.95
  -6  -5  -6  409.83   15.94
  -6  -5  -7  326.62   11.15
   6   5   7  418.81   14.03
  -6  -5  -7  358.69   12.52
  -6  -5  -8    9.31    6.45
   6   5   8   13.68    2.79
  -6  -5  -8   10.93    1.89
   6   5  10   -0.41    1.06
  -6  -5 -11   17.32    2.00
   6   5  11   -0.32    0.95
   6   5  12    0.79    0.29
  -6  -5 -13   10.38    6.64
  -6  -5 -14  116.22    6.89
  -6  -5 -15   16.07    2.61
  -6  -5 -16    7.62    2.32
  -6  -5 -17   34.01    3.11
   6   6 -12    2.24    2.23
  -6  -6  12    1.44    1.85
   6   6 -11    1.85    2.04
  -6  -6  11    0.23    1.70
   6   6 -10   53.30    4.85
  -6  -6  10   37.99    5.77
   6   6  -9   48.57    4.60
  -6  -6   9   38.48    8.72
   6   6  -8   21.57    4.84
  -6  -6   8   22.78    4.55
   6   6  -7    8.32    5.22
  -6  -6   7    9.33    5.86
   6   6  -6   -0.27    1.71
  -6  -6   6    2.32    1.83
   6   6  -5   82.75   14.61
  -6  -6   5   96.94    5.22
   6   6  -4    4.72    2.36
  -6  -6   4    5.88    3.36
   6   6  -3   96.17    6.74
  -6  -6   3   77.24    5.94
   6   6  -2    1.76    1.93
  -6  -6   2    1.15    1.48
   6   6  -1    2.20    2.13
  -6  -6   1    2.70    2.13
   6   6   0    0.48    1.37
  -6  -6   0    0.96    0.86
   6   6   1  100.20    5.01
  -6  -6  -1   82.90   10.34
   6   6   2   72.89   49.11
  -6  -6  -2   49.75    5.70
   6   6   3  179.88    7.19
  -6  -6  -3  149.95   14.73
   6   6   4    0.61    1.27
  -6  -6  -4   -1.35    1.26
   6   6   5    0.04    1.25
  -6  -6  -5    2.50    2.38
   6   6   6   36.49    6.82
  -6  -6  -6   39.44    4.47
   6   6   7    2.80    2.23
  -6  -6  -7    2.78    2.15
   6   6   9    0.49    0.73
  -6  -6 -10    1.45    1.17
   6   6  10    0.47    0.62
   6   6  11    1.21    1.00
   6   6  12   -0.70    1.02
  -6  -6 -13   19.83    2.30
  -6  -6 -14    7.94    4.69
   6   7 -10    1.63    1.92
  -6  -7  10    2.41    2.20
   6   7  -9    0.58    1.71
  -6  -7   9    2.71    2.38
   6   7  -8    6.85    4.80
  -6  -7   8    3.38    2.68
   6   7  -7   49.67    4.87
  -6  -7   7   38.23    3.70
   6   7  -6  429.10  258.46
  -6  -7   6  345.62   20.85
   6   7  -5   99.38    6.35
  -6  -7   5   63.65    8.51
   6   7  -4    1.32    0.96
  -6  -7   4   -1.93    1.85
   6   7  -3   20.13    2.36
  -6  -7   3   18.46    3.45
   6   7  -2   14.31    2.40
  -6  -7   2   13.05    1.87
   6   7  -1    0.29    1.30
  -6  -7   1    0.66    1.28
   6   7   0    2.39    1.36
  -6  -7   0    3.31    2.50
   6   7   1   27.54    2.79
  -6  -7  -1   22.25    2.86
   6   7   2  174.29    5.53
  -6  -7  -2  125.32    5.34
   6   7   3   17.89    1.97
  -6  -7  -3   15.01    2.28
   6   7   4    1.28    0.79
  -6  -7  -4   -0.30    1.26
  -6  -7  -5   29.26    3.70
  -6  -7  -6  180.90   22.92
  -6  -7  -7  329.38   10.89
   6   7   8    0.80    0.98
   6   7   9   -0.14    1.05
   6   7  10    1.87    1.26
   6   7  11    0.52    0.46
   6   7  12    0.42    1.34
  -6  -8   8    1.77    2.00
   6   8  -7    3.06    3.25
  -6  -8   7    2.36    1.61
   6   8  -6    3.30    2.45
  -6  -8   6    2.46    1.68
   6   8  -5   33.68    3.55
  -6  -8   5   20.93    4.85
   6   8  -4    9.98    5.97
  -6  -8   4   12.89    2.16
   6   8  -3    3.88    2.80
  -6  -8   3    3.38    2.31
   6   8  -2  162.26   10.89
  -6  -8   2  125.78   11.45
   6   8  -1   50.42    4.50
  -6  -8   1   40.23    4.64
   6   8   0   -0.16    1.08
  -6  -8   0   -0.08    1.67
  -6  -8  -1   11.08    6.54
  -6  -8  -2    3.25    2.48
  -6  -8  -3    0.77    1.55
  -6  -8  -4   45.99    4.67
  -6  -8  -5    2.02    1.54
  -6  -8  -6   47.33    7.04
   6   8   8    1.82    1.20
   6   8   9    0.73    0.93
   6   8  10   -0.08    1.21
  -6  -9   3    6.13    2.11
  -6  -9   2   49.42    9.48
  -6  -9   1   14.25    3.93
  -6  -9   0    7.66    2.43
  -6  -9  -1    3.02    2.65
  -6  -9  -2    2.48    2.26
  -6  -9  -3   11.87    2.95
  -6  -9  -4   29.26    5.44
  -6  -9  -5   36.70    7.50
   6   9   7    3.38    2.48
  -7   6   2   40.38    8.04
  -7   6   1   49.83   12.06
  -7   6   0   23.58    5.21
  -7   6  -1   40.02    6.79
  -7   6  -2    2.13    2.04
  -7   6  -3  156.97   22.36
  -7   6  -4   81.43   11.42
  -7   6  -5    4.63    3.30
  -7   6  -6   10.90    3.17
  -7   5   5    2.85    2.00
  -7   5   4    2.88    2.02
  -7   5   3    2.30    1.55
  -7   5   2    3.57    2.45
  -7   5   1   27.23    3.42
  -7   5   0   24.00    4.14
  -7   5  -1    1.71    1.34
  -7   5  -2    8.52    4.97
   7  -5   2    4.71    2.99
  -7   5  -3    9.41    5.53
   7  -5   3    8.83    5.29
  -7   5  -4   -0.71    1.62
   7  -5   4    0.39    1.06
  -7   5  -5    8.98    5.30
   7  -5   5    5.97    3.65
  -7   5  -6    6.14    3.87
   7  -5   6    1.00    0.82
  -7   5  -7   96.88   16.49
   7  -5   7   69.43   10.71
  -7   5  -8  387.21   10.59
   7  -5   8  286.24    9.27
  -7   5  -9   36.91    7.96
   7  -5   9   25.24    6.47
  -7   5 -10   43.84    6.95
   7  -5  10   38.31    7.54
  -7   4   6   10.40    5.99
  -7   4   5    1.11    1.04
  -7   4   4   29.07    3.86
  -7   4   3    1.92    1.61
  -7   4   2   77.11   10.41
   7  -4  -2   66.41    5.34
  -7   4   1  107.65   11.84
   7  -4  -1   87.74    6.55
  -7   4   0   43.38    5.64
   7  -4   0   33.85    4.97
  -7   4  -1   13.41    1.79
   7  -4   1    9.72    6.14
  -7   4  -2    7.10    4.46
   7  -4   2    4.85    3.12
  -7   4  -3    6.33    4.01
   7  -4   3    5.84    3.69
  -7   4  -4   51.00    8.34
   7  -4   4   42.69    3.55
  -7   4  -5    2.75    1.84
   7  -4   5    1.35    1.64
  -7   4  -6    1.55    1.42
   7  -4   6   -1.36    1.27
  -7   4  -7   58.84    4.98
   7  -4   7   38.49    7.83
  -7   4  -8   47.87    9.98
   7  -4   8   41.18   25.81
  -7   4  -9   73.79   11.27
   7  -4   9   49.66    9.35
  -7   4 -10    3.89    2.30
   7  -4  10    1.69    1.99
  -7   4 -11    3.53    2.48
   7  -4  11    2.22    1.67
  -7   4 -12  463.65   11.34
   7  -4  12  366.37   10.38
  -7   4 -13   17.71    4.42
   7  -4  13   16.23    2.59
  -7   3   6   14.91    4.10
  -7   3   5  137.15    9.88
  -7   3   4   66.37   11.37
   7  -3  -4   66.85    5.44
  -7   3   3    9.49    2.17
   7  -3  -3   10.58    2.11
  -7   3   2    0.66    0.83
   7  -3  -2   -0.77    1.27
  -7   3   1    1.98    1.30
   7  -3  -1   -1.22    1.15
  -7   3   0  129.74   10.25
   7  -3   0  122.03    4.77
  -7   3  -1   34.52    4.22
   7  -3   1   29.24    3.30
  -7   3  -2  135.41   11.39
   7  -3   2  128.24    8.46
  -7   3  -3    1.87    1.17
   7  -3   3    2.57    1.57
  -7   3  -4   19.99    3.19
   7  -3   4   17.09    2.46
  -7   3  -5   51.08    3.80
   7  -3   5   38.30    4.80
  -7   3  -6    1.99    1.28
   7  -3   6    1.03    1.45
  -7   3  -7    7.40    4.98
   7  -3   7    5.12    3.62
  -7   3  -8    4.45    3.04
   7  -3   8    5.49    3.72
  -7   3  -9   79.68   12.36
   7  -3   9   70.88    8.48
  -7   3 -10   10.34    2.82
   7  -3  10   15.61    3.66
  -7   3 -11   24.23    3.14
   7  -3  11   18.18    3.31
  -7   3 -12    5.68    3.64
   7  -3  12    4.85    2.97
  -7   3 -13   49.32    4.23
   7  -3  13   36.97    8.83
  -7   3 -14   52.47    9.58
   7  -3  14   38.55    8.43
  -7   3 -15   10.11    2.93
   7  -3  15   11.07    2.10
   7  -2  -7    1.87    1.23
  -7   2   6    3.97    1.90
   7  -2  -6    4.95    2.39
  -7   2   5   16.90    3.16
   7  -2  -5   15.54    3.43
  -7   2   4  325.61   20.84
   7  -2  -4  348.64   19.86
  -7   2   3   19.23    2.53
   7  -2  -3   19.59    2.38
  -7   2   2    0.91    0.93
   7  -2  -2    1.95    1.59
  -7   2   1   47.09    6.73
   7  -2  -1   48.86    6.49
  -7   2   0  236.40    8.70
   7  -2   0  233.91   18.16
  -7   2  -1    1.82    0.79
   7  -2   1    0.30    1.63
  -7   2  -2    2.52    1.26
   7  -2   2    2.55    1.80
  -7   2  -3   43.65    5.93
   7  -2   3   37.12    3.12
  -7   2  -4   10.36    3.77
   7  -2   4    7.35    3.14
  -7   2  -5    3.28    2.57
   7  -2   5    3.72    2.93
  -7   2  -6  200.48   12.15
   7  -2   6  177.05   24.40
  -7   2  -7  175.28   10.92
   7  -2   7  144.30   15.28
  -7   2  -8   17.61    2.46
   7  -2   8   20.37    2.91
  -7   2  -9   71.03   10.87
   7  -2   9   70.32    9.07
  -7   2 -10  352.10   11.70
   7  -2  10  300.16   10.53
  -7   2 -11   15.01    3.40
   7  -2  11   12.48    3.08
  -7   2 -12    0.63    1.23
   7  -2  12    3.85    2.95
  -7   2 -13  118.34   12.84
   7  -2  13   92.46    7.01
  -7   2 -14   10.43    6.29
   7  -2  14    8.57    5.18
  -7   2 -15    5.13    3.41
   7  -2  15    8.44    2.41
  -7   2 -16   41.03    9.16
  -7   1  11    1.08    0.93
  -7   1  10    2.43    1.56
   7  -1  -9    1.63    1.21
  -7   1   9    1.89    1.73
   7  -1  -8   34.77    2.72
  -7   1   8   28.11    4.86
   7  -1  -7   17.75    2.42
  -7   1   7   18.88    2.09
   7  -1  -6   89.57   15.49
  -7   1   6  103.56    6.93
  -7   1   5   23.07    2.84
   7  -1  -5   28.37    3.97
  -7   1   5   27.97    2.18
  -7   1   4   12.89    1.54
   7  -1  -4   13.57    3.27
  -7   1   4   11.33    2.31
  -7   1   3    2.05    1.07
   7  -1  -3    0.75    1.36
  -7   1   2    9.54    1.73
   7  -1  -2    8.63    1.57
  -7   1   1   23.52    4.68
   7  -1  -1   27.39    3.40
  -7   1   0  271.57   10.04
   7  -1   0  269.84   10.44
  -7   1  -1    1.73    1.03
   7  -1   1    3.15    1.36
  -7   1  -2   36.45    3.82
   7  -1   2   40.15    6.10
  -7   1  -3   23.83    3.99
   7  -1   3   21.69    4.01
  -7   1  -4  258.82   10.01
   7  -1   4  242.48    9.62
  -7   1  -5  156.95   11.14
   7  -1   5  141.01   19.71
  -7   1  -6   36.66    6.06
   7  -1   6   30.50    3.13
  -7   1  -7  132.54    6.07
   7  -1   7  117.79    5.99
  -7   1  -8   -0.02    1.49
   7  -1   8    1.95    2.14
  -7   1  -9   60.20   12.40
   7  -1   9   53.84    7.59
  -7   1 -10  162.87   22.09
   7  -1  10  148.12    6.68
  -7   1 -11  110.75    9.56
   7  -1  11   96.01    5.29
  -7   1 -12    6.33    4.10
   7  -1  12    4.84    3.59
  -7   1 -13   -1.17    1.73
   7  -1  13    1.94    2.08
  -7   1 -14   19.29    2.69
   7  -1  14   14.37    2.78
  -7   1 -15   87.44   17.42
   7  -1  15   77.00   14.04
  -7   1 -16   41.70    9.91
  -7   1 -17   71.32   13.67
  -7   0  13   10.43    2.27
  -7   0  12    1.14    1.51
  -7   0  11   18.84    3.84
   7   0 -10   36.48    3.11
  -7   0  10   36.25    8.43
   7   0  -9   27.79    2.59
  -7   0   9   26.57    4.79
   7   0  -8   10.32    2.68
  -7   0   8    9.60    1.58
   7   0  -7   10.44    2.57
  -7   0   7    7.11    3.51
   7   0  -6   -1.90    1.29
  -7   0   6    0.16    1.13
   7   0  -5   28.59    5.34
  -7   0   5   24.31    4.03
   7   0  -4    8.25    2.33
  -7   0   4    7.74    1.33
  -7   0   3   96.84   12.78
   7   0  -3  127.63   16.89
  -7   0   3   80.79   13.04
  -7   0   2   74.07    5.96
   7   0  -2   72.71    3.87
  -7   0   2   41.59    7.64
  -7   0   1  180.20   19.37
   7   0  -1  176.35   11.07
  -7   0   0   50.73    6.33
   7   0   0   54.13    6.76
  -7   0  -1   48.97    2.69
   7   0   1   46.54    3.01
  -7   0  -2    2.74    0.86
   7   0   2    0.60    1.47
  -7   0  -3   11.82    3.13
   7   0   3   11.37    3.03
  -7   0  -4   20.39    2.44
   7   0   4   21.39    3.09
  -7   0  -5    2.79    1.11
   7   0   5    3.28    1.13
  -7   0  -6   -1.30    1.39
   7   0   6    5.18    1.34
  -7   0  -7    1.12    1.53
   7   0   7    3.40    1.31
  -7   0  -8    3.04    1.44
   7   0   8    0.99    1.68
  -7   0  -9    8.63    1.57
   7   0   9   10.37    2.34
  -7   0 -10  353.93   20.14
   7   0  10  348.04   20.44
  -7   0 -11  623.90   11.31
   7   0  11  558.06   10.48
  -7   0 -12   25.19    4.26
   7   0  12   29.24    2.66
  -7   0 -13   56.62    9.23
   7   0  13   61.51    4.76
  -7   0 -14   30.61    6.94
   7   0  14   20.76    4.86
  -7   0 -15  195.26   12.64
   7   0  15  173.03   11.07
  -7   0 -16   -0.13    1.86
  -7   0 -17   16.67    3.46
  -7  -1  13   32.90    6.30
  -7  -1  12    4.74    3.12
   7   1 -11    7.63    4.68
  -7  -1  11    5.94    3.68
   7   1 -10   13.40    2.94
  -7  -1  10   11.07    2.80
   7   1  -9   86.64    4.68
  -7  -1   9   75.53   14.71
   7   1  -8    4.25    2.75
  -7  -1   8    3.67    2.54
   7   1  -7   -1.30    1.45
  -7  -1   7   -0.78    1.28
   7   1  -6  408.79   22.93
  -7  -1   6  354.36   20.03
   7   1  -5   50.84    7.17
  -7  -1   5   41.53    6.56
   7   1  -4    7.14    1.97
  -7  -1   4    5.80    1.18
   7   1  -3   10.03    1.79
  -7  -1   3    7.13    1.37
   7   1  -2    5.27    2.16
  -7  -1   2    3.33    1.47
  -7  -1   1    3.02    0.90
   7   1  -1    4.01    1.68
  -7  -1   1    5.13    1.60
  -7  -1   0   84.48    8.86
   7   1   0   93.58   14.83
  -7  -1   0   62.15   10.80
  -7  -1  -1   82.09    3.65
   7   1   1   87.12   14.65
  -7  -1  -1   43.17    6.13
  -7  -1  -2   19.48    2.88
   7   1   2   22.25    4.34
  -7  -1  -3   46.50    5.29
   7   1   3   44.41    3.31
  -7  -1  -4  330.06   18.70
   7   1   4  322.01   18.54
  -7  -1  -5    9.48    2.53
   7   1   5   15.38    2.71
  -7  -1  -6  175.89   15.50
   7   1   6  168.27   10.55
  -7  -1  -7   17.56    2.49
   7   1   7   16.91    4.21
  -7  -1  -8  330.94   11.80
   7   1   8  308.76   11.35
  -7  -1  -9   12.12    1.58
   7   1   9    9.70    3.90
  -7  -1 -10    5.28    3.97
   7   1  10    8.96    2.19
  -7  -1 -11   22.50    2.39
   7   1  11   25.84    3.17
  -7  -1 -12    3.20    2.07
   7   1  12    3.20    2.04
  -7  -1 -13   33.75    3.51
   7   1  13   29.57    2.83
  -7  -1 -14   86.60    5.77
   7   1  14   67.42   12.17
  -7  -1 -16    3.50    1.94
  -7  -1 -17   42.27    9.40
  -7  -1 -18    1.34    1.66
  -7  -2  13   31.66    3.40
   7   2 -12    7.61    4.55
  -7  -2  12    5.66    3.93
   7   2 -11    1.21    1.49
  -7  -2  11    0.35    1.43
   7   2 -10    7.57    2.22
  -7  -2  10    7.40    2.28
   7   2  -9    8.84    5.60
  -7  -2   9    3.50    2.30
   7   2  -8    6.61    3.28
  -7  -2   8    7.43    3.54
   7   2  -7   56.06    3.53
  -7  -2   7   42.54    3.04
   7   2  -6   41.73    3.80
  -7  -2   6   31.22    5.99
   7   2  -5   11.35    2.10
  -7  -2   5    5.71    2.49
   7   2  -4    7.25    1.91
  -7  -2   4   10.00    3.72
   7   2  -3   10.66    2.85
  -7  -2   3    7.71    1.56
   7   2  -2   18.23    4.28
  -7  -2   2   15.09    1.69
   7   2  -1  981.05   53.61
  -7  -2   1  741.21   40.52
   7   2   0   56.93   11.17
  -7  -2   0   40.94    2.47
  -7  -2  -1    5.33    1.39
   7   2   1    7.72    2.26
  -7  -2  -1    6.43    1.78
  -7  -2  -2   17.69    1.59
   7   2   2   15.12    3.92
  -7  -2  -2   12.45    2.10
  -7  -2  -3    9.55    2.51
   7   2   3   12.30    3.13
  -7  -2  -3    7.68    2.01
  -7  -2  -4    8.30    2.69
   7   2   4   10.04    2.58
  -7  -2  -5   54.41    8.56
   7   2   5   56.44    3.43
  -7  -2  -6    7.03    1.08
   7   2   6    6.84    1.81
  -7  -2  -7  118.95    5.38
   7   2   7  120.43   17.74
  -7  -2  -8  102.73   12.41
   7   2   8   94.47   14.20
  -7  -2  -9    6.79    2.60
   7   2   9    6.59    2.52
  -7  -2 -10   69.34    9.91
   7   2  10   63.51   11.71
  -7  -2 -11  178.32    9.21
   7   2  11  188.97    6.04
  -7  -2 -12  861.68   23.71
   7   2  12  812.43  468.23
  -7  -2 -13    5.98    3.81
   7   2  13    3.51    2.65
  -7  -2 -14   44.39    6.26
   7   2  14   35.97    6.54
  -7  -2 -15   14.21    8.98
  -7  -2 -16   66.30    5.56
  -7  -2 -17    1.96    1.61
  -7  -3  13   -0.97    1.45
   7   3 -12    0.94    1.59
  -7  -3  12    2.29    1.86
   7   3 -11   14.30    2.09
  -7  -3  11   13.84    3.22
   7   3 -10    2.67    2.24
  -7  -3  10    1.40    1.31
   7   3  -9    1.09    1.70
  -7  -3   9    0.30    1.31
   7   3  -8   53.81   31.24
  -7  -3   8   45.25    3.79
   7   3  -7    0.82    1.08
  -7  -3   7    1.31    1.62
   7   3  -6    2.50    2.26
  -7  -3   6    1.04    1.58
   7   3  -5   16.00    2.21
  -7  -3   5    9.67    1.66
   7   3  -4   14.94    2.92
  -7  -3   4    6.30    2.48
   7   3  -3   49.47    7.54
  -7  -3   3   37.50    2.75
   7   3  -2   33.47    3.80
  -7  -3   2   26.96    4.57
   7   3  -1    0.64    1.43
  -7  -3   1    0.16    0.49
   7   3   0   49.27    5.16
  -7  -3   0   41.09    4.06
   7   3   1   16.50    2.43
  -7  -3  -1   14.37    1.70
   7   3   2    9.06    2.60
  -7  -3  -2    6.85    2.06
   7   3   3  337.93   19.45
  -7  -3  -3  259.82   14.88
  -7  -3  -4    0.01    2.19
   7   3   4    5.69    2.07
  -7  -3  -4    0.78    0.80
  -7  -3  -5    2.14    0.97
   7   3   5    4.85    1.34
  -7  -3  -5    1.60    1.17
  -7  -3  -6    7.48    1.22
   7   3   6    5.86    1.31
  -7  -3  -7    6.62    2.59
   7   3   7    8.27    3.26
  -7  -3  -8    3.75    1.41
   7   3   8    2.16    1.48
  -7  -3  -9  114.64   15.77
   7   3   9  124.64    8.03
  -7  -3 -10   -2.06    1.28
   7   3  10   -0.03    1.56
  -7  -3 -11   59.08    9.82
   7   3  11   47.35    9.19
  -7  -3 -12   16.08    2.76
   7   3  12   18.53    2.14
  -7  -3 -13    2.55    2.21
  -7  -3 -14   20.70    4.40
  -7  -3 -15   60.85   11.83
  -7  -3 -16  140.61    6.68
  -7  -3 -17    3.36    2.32
   7   4 -12    8.47    2.25
  -7  -4  12    9.76    2.64
   7   4 -11    2.83    2.33
  -7  -4  11   -0.75    1.51
   7   4 -10   35.93    3.62
  -7  -4  10   27.86    2.82
   7   4  -9   19.99    3.06
  -7  -4   9   12.10    2.02
   7   4  -8    5.05    3.50
  -7  -4   8    5.75    1.77
   7   4  -7    3.81    3.23
  -7  -4   7    3.97    2.95
   7   4  -6   28.29    3.30
  -7  -4   6   15.42    2.27
   7   4  -5   -0.06    1.57
  -7  -4   5    0.17    0.60
   7   4  -4  105.97   19.55
  -7  -4   4   81.16   10.83
   7   4  -3    3.97    3.25
  -7  -4   3    3.28    2.79
   7   4  -2   -0.24    1.06
  -7  -4   2   -0.68    1.05
   7   4  -1   42.12    3.05
  -7  -4   1   35.02    2.84
   7   4   0  292.48   10.55
  -7  -4   0  219.93    8.46
   7   4   1   18.74    4.39
  -7  -4  -1   12.67    1.87
   7   4   2   19.57    2.36
  -7  -4  -2   17.76    2.61
   7   4   3   98.34    5.03
  -7  -4  -3   73.30    8.64
   7   4   4    1.20    1.59
  -7  -4  -4    0.18    0.96
   7   4   5   35.45    4.23
  -7  -4  -5   27.16    3.53
  -7  -4  -6   -0.17    0.94
   7   4   6    2.13    1.01
  -7  -4  -6    2.17    1.24
  -7  -4  -7    5.62    4.11
   7   4   7   11.47    2.11
  -7  -4  -7    4.82    3.37
  -7  -4  -8   77.39   13.34
   7   4   8  103.14    7.16
  -7  -4  -9   84.64   11.10
   7   4   9   89.23   18.18
  -7  -4 -10   81.65    3.89
   7   4  10   76.17   14.14
  -7  -4 -11    1.27    0.57
   7   4  11    2.04    1.70
  -7  -4 -12   93.07    9.23
  -7  -4 -13  301.28   14.20
  -7  -4 -14   -1.78    1.69
  -7  -4 -15    1.28    1.06
   7   5 -11   11.85    2.65
  -7  -5  11    9.42    2.59
   7   5 -10    0.57    1.75
  -7  -5  10    2.31    2.51
   7   5  -9   21.79    2.97
  -7  -5   9   11.07    3.28
   7   5  -8    6.87    4.27
  -7  -5   8    5.82    3.70
   7   5  -7   10.58    3.12
  -7  -5   7    9.54    2.02
   7   5  -6  168.08    9.07
  -7  -5   6  145.98    8.15
   7   5  -5   57.63    4.43
  -7  -5   5   40.08    7.34
   7   5  -4    6.78    4.69
  -7  -5   4    2.17    1.21
   7   5  -3   47.10    3.61
  -7  -5   3   41.64    3.14
   7   5  -2   51.19   13.42
  -7  -5   2   51.58    4.28
   7   5  -1   -0.69    1.46
  -7  -5   1    2.62    2.33
   7   5   0  120.42    8.22
  -7  -5   0   92.06    6.64
   7   5   1   58.01   10.17
  -7  -5  -1   46.47    9.30
   7   5   2    3.56    2.90
  -7  -5  -2   -1.26    1.06
   7   5   3   78.01   12.30
  -7  -5  -3   55.97    6.57
   7   5   4  144.24   15.53
  -7  -5  -4  119.51    7.90
   7   5   5  427.67   23.91
  -7  -5  -5  327.24   18.50
   7   5   6  118.49    5.16
  -7  -5  -6   83.04   10.98
   7   5   7   52.29    6.65
  -7  -5  -7   35.96    5.61
   7   5   8   20.27    2.35
  -7  -5  -8   13.08    2.23
   7   5   9    3.56    2.32
   7   6 -10    8.71    3.63
  -7  -6  10    4.93    3.51
   7   6  -9    1.92    1.43
  -7  -6   9   -0.12    1.66
   7   6  -8    1.36    1.78
  -7  -6   8    3.88    3.08
   7   6  -7    4.25    3.00
  -7  -6   7    4.23    3.39
   7   6  -6    4.15    2.96
  -7  -6   6    2.21    2.01
   7   6  -5   18.31    2.53
  -7  -6   5   14.15    2.45
   7   6  -4    5.07    3.33
  -7  -6   4    3.30    2.32
   7   6  -3   43.27    3.70
  -7  -6   3   21.54    5.19
   7   6  -2    1.14    1.61
  -7  -6   2    2.66    2.47
   7   6  -1  134.16    6.17
  -7  -6   1  112.22    5.53
   7   6   0  127.62    5.93
  -7  -6   0  102.05    5.27
   7   6   1  211.41    8.04
  -7  -6  -1  168.94    6.96
  -7  -6  -2   13.66    2.10
   7   6   3    3.96    2.74
  -7  -6  -3    3.43    2.57
   7   6   4    0.91    0.76
  -7  -6  -4    0.59    1.24
   7   6   5    0.44    1.04
  -7  -6  -5    1.99    1.25
   7   6   6   25.64    2.72
  -7  -6  -6   19.50    3.33
  -7  -6  -7   15.45    3.06
   7   7  -8   27.72    6.48
  -7  -7   8   23.64    3.52
   7   7  -7   66.74   15.15
  -7  -7   7   66.37    4.73
   7   7  -6   64.14    4.34
  -7  -7   6   42.48    9.33
   7   7  -5   35.35    3.17
  -7  -7   5   23.52    4.59
   7   7  -4   -0.08    1.75
  -7  -7   4    2.49    2.13
   7   7  -3    2.92    2.60
  -7  -7   3    2.36    1.96
   7   7  -2    1.74    1.79
  -7  -7   2    5.46    3.78
   7   7  -1    4.22    2.73
  -7  -7   1    5.43    3.38
   7   7   0    9.22    5.45
  -7  -7   0    4.76    3.09
   7   7   1   55.76    8.49
  -7  -7  -1   41.82   25.42
   7   7   2    5.48    3.40
  -7  -7  -2    3.84    2.36
   7   7   3   12.21    7.06
  -7  -7  -3   14.50    2.56
  -7  -7  -4  209.88   13.20
  -7  -7  -5  284.57   20.03
  -7  -7  -6   70.70   11.15
  -7  -7  -7   34.89    5.18
  -7  -8   3    1.78    1.62
  -7  -8   2   -0.08    1.53
  -7  -8   1    4.23    3.05
  -7  -8   0    6.84    1.76
  -7  -8  -1   15.44    2.09
  -7  -8  -2    8.34    1.98
  -7  -8  -3    5.69    1.77
  -7  -8  -4    5.92    1.38
  -8   4   0    4.59    3.03
  -8   4  -1   17.80    3.11
  -8   4  -2    5.35    3.70
  -8   4  -3    8.39    2.06
   8  -4   3    9.46    1.92
  -8   4  -4    2.49    2.26
   8  -4   4    1.69    1.48
   8  -4   5    4.20    2.97
  -8   4  -6   57.77    4.60
   8  -4   6   27.81    9.43
  -8   4  -7    2.66    2.13
   8  -4   7   -0.24    1.71
  -8   4  -8    9.82    2.56
   8  -4   8    6.73    2.11
  -8   3   2    4.64    2.87
   8  -3  -2    4.83    3.25
  -8   3   1   14.56    2.81
   8  -3  -1   16.02    2.42
  -8   3   0    0.76    0.72
   8  -3   0    1.29    1.55
  -8   3  -1   53.73    6.69
   8  -3   1   57.67    4.94
  -8   3  -2  145.97   24.23
   8  -3   2  162.79   10.53
  -8   3  -3   30.38    5.00
   8  -3   3   24.65    5.71
  -8   3  -4   43.13    9.22
   8  -3   4   37.55    6.62
  -8   3  -5   16.87    2.48
   8  -3   5   14.31    2.37
  -8   3  -6    2.29    2.20
   8  -3   6    1.77    1.17
  -8   3  -7    3.44    1.87
   8  -3   7    4.87    3.69
   8  -3   8   10.49    2.52
  -8   3  -9   -0.57    1.81
   8  -3   9    1.97    1.73
   8  -3  10    2.37    2.33
  -8   3 -11    4.36    3.53
   8  -3  11    4.45    3.37
   8  -2  -4   -0.41    1.32
   8  -2  -3    4.40    2.77
  -8   2   2   51.28    7.65
   8  -2  -2   49.47    9.40
  -8   2   1  186.26    9.79
   8  -2  -1  188.34   17.60
  -8   2   0   65.37    9.65
   8  -2   0   76.51    5.67
  -8   2  -1    6.01    1.61
  -8   2  -2   19.11    4.64
   8  -2   2   18.54    3.93
  -8   2  -3   16.34    3.78
   8  -2   3   23.28    5.00
  -8   2  -4  188.44   15.49
   8  -2   4  178.69    9.92
  -8   2  -5    5.71    1.56
   8  -2   5    5.06    2.80
  -8   2  -6  233.90   11.78
   8  -2   6  199.62   10.83
  -8   2  -7   21.72    6.20
   8  -2   7   18.56    4.48
  -8   2  -8  149.56   12.86
   8  -2   8  153.62   10.42
  -8   2  -9    1.40    1.65
   8  -2   9    4.82    3.40
  -8   2 -10   16.67    2.44
   8  -2  10   12.46    2.75
  -8   2 -11   69.91   12.55
   8  -2  11   65.71    4.79
  -8   2 -12   58.29    9.38
   8  -2  12   64.30    4.73
  -8   2 -13    0.95    2.00
   8  -2  13    2.50    2.62
   8  -1  -6    0.66    1.35
   8  -1  -5   19.24    3.84
   8  -1  -4    1.72    1.79
   8  -1  -3   36.39    8.35
   8  -1  -2   29.38    5.78
  -8   1   1    2.72    0.85
   8  -1  -1   -1.27    1.51
  -8   1   0   57.29   34.02
   8  -1   0   61.83    4.08
   8  -1   1    1.88    0.55
  -8   1  -2    5.62    3.60
   8  -1   2    6.22    3.88
  -8   1  -3    2.36    1.36
   8  -1   3    2.68    0.83
  -8   1  -4    1.84    1.34
   8  -1   4   -1.73    1.45
  -8   1  -5    1.78    0.99
   8  -1   5    0.43    1.72
  -8   1  -6   94.54    4.90
   8  -1   6   81.64    4.91
  -8   1  -7   30.84    5.55
   8  -1   7   32.09    3.79
  -8   1  -8    5.62    3.08
   8  -1   8    8.43    2.41
  -8   1  -9   31.75   15.41
   8  -1   9   28.82   14.61
  -8   1 -10   65.84    9.31
   8  -1  10   71.19    6.04
  -8   1 -11   35.36    3.08
   8  -1  11   28.29    5.83
  -8   1 -12  103.56   15.89
   8  -1  12   73.27   14.22
  -8   1 -13   -1.73    1.96
   8  -1  13    0.11    1.53
  -8   1 -14   28.94    3.54
   8   0  -7    6.22    3.96
   8   0  -6   30.84   14.19
   8   0  -5   11.72    3.01
   8   0  -4    0.21    1.50
   8   0  -3    4.53    2.97
   8   0  -2    1.20    1.17
   8   0  -1    1.89    2.42
   8   0   0  153.89    5.90
  -8   0  -1   52.47    9.60
   8   0   1   65.58   12.47
  -8   0  -2   62.05    8.82
   8   0   2   67.94   13.69
  -8   0  -3    4.01    2.24
   8   0   3    3.86    2.84
  -8   0  -4    1.61    1.22
   8   0   4   -1.92    1.78
  -8   0  -5  216.60    5.96
   8   0   5  186.79    6.17
  -8   0  -6   23.86    2.38
   8   0   6   25.18    5.18
  -8   0  -7  114.44   14.13
   8   0   7  119.24    6.37
  -8   0  -8   57.27   33.66
   8   0   8   48.86    9.07
  -8   0  -9   45.51    6.52
   8   0   9   46.33    4.10
  -8   0 -10    6.30    2.07
   8   0  10    6.14    1.96
  -8   0 -11   26.26    5.16
   8   0  11   22.87    3.70
  -8   0 -12  113.18   10.32
   8   0  12  105.47    7.70
  -8   0 -13    1.86    2.04
   8   0  13    2.01    2.16
  -8   0 -14   -0.19    1.31
  -8   0 -15   24.69    3.76
   8   1  -8   22.67    2.70
   8   1  -7   12.46    7.40
   8   1  -6   10.15    2.71
   8   1  -5   21.15    4.17
   8   1  -4   90.74    4.94
   8   1  -3   11.61    7.52
   8   1  -2   15.53    3.19
   8   1  -1    1.32    0.97
   8   1   0   13.78    2.26
   8   1   1    3.42    1.90
   8   1   2   65.78    4.34
  -8  -1  -3    3.80    1.90
   8   1   3    3.42    2.15
  -8  -1  -4  171.44    5.08
   8   1   4  184.06    6.18
  -8  -1  -5   39.94    5.87
   8   1   5   32.34    5.22
  -8  -1  -6    7.09    3.55
   8   1   6    6.17    3.37
  -8  -1  -7   29.57    4.66
   8   1   7   23.79    3.22
  -8  -1  -8   -1.03    1.46
   8   1   8    0.13    1.84
  -8  -1  -9   54.99    4.37
   8   1   9   44.09    3.93
  -8  -1 -10   25.81    5.90
   8   1  10   25.84    4.90
  -8  -1 -11   29.33    6.55
   8   1  11   25.41    5.75
  -8  -1 -12    6.04    3.83
   8   1  12    5.96    3.68
  -8  -1 -13    7.01    4.25
   8   1  13    5.79    3.57
  -8  -1 -14   -0.20    1.64
   8   2  -9   -2.50    1.50
   8   2  -8   13.17    8.42
  -8  -2   8   11.04    2.25
   8   2  -7   10.23    6.14
  -8  -2   7    5.17    3.38
   8   2  -6   16.25    4.64
  -8  -2   6   23.51    4.51
   8   2  -5   15.91    4.50
  -8  -2   5    9.66    2.22
   8   2  -4   16.25    2.51
  -8  -2   4   12.94    2.09
   8   2  -3    7.32    4.89
  -8  -2   3    5.42    3.62
   8   2  -2   18.20    2.54
   8   2  -1    3.59    2.33
   8   2   0    9.88    2.16
   8   2   1    4.68    2.71
   8   2   2    0.77    0.77
   8   2   3    1.54    1.04
   8   2   4   -0.79    1.68
   8   2   5    5.03    2.99
  -8  -2  -6   61.69   12.41
   8   2   6   88.25   14.34
  -8  -2  -7  151.89    6.07
   8   2   7  153.05    6.85
  -8  -2  -8    2.21    0.86
   8   2   8    4.14    3.20
  -8  -2  -9   74.26   14.26
   8   2   9   75.00    5.60
  -8  -2 -10  223.55   11.49
   8   2  10  211.10   11.25
  -8  -2 -11   44.25    6.74
   8   2  11   56.06    5.34
  -8  -2 -12    0.73    1.56
   8   2  12    0.36    0.61
  -8  -2 -13    2.75    1.35
  -8  -2 -14    0.60    1.59
   8   3  -9    2.63    2.04
   8   3  -8    0.61    1.04
  -8  -3   8    1.83    1.68
   8   3  -7   43.97   10.63
  -8  -3   7   39.21    3.35
   8   3  -6   60.96    5.49
  -8  -3   6   44.08    4.25
   8   3  -5    7.27    1.93
  -8  -3   5    3.55    2.46
   8   3  -4   23.10    5.44
  -8  -3   4   21.27    4.05
   8   3  -3    9.46    5.98
  -8  -3   3    8.42    5.35
   8   3  -2   -2.73    1.64
  -8  -3   2    0.78    0.41
   8   3  -1    1.26    1.18
  -8  -3   1    1.88    1.56
   8   3   0   22.06    2.97
  -8  -3   0   12.22    2.20
   8   3   1    0.13    1.52
   8   3   2    4.68    2.46
   8   3   3   64.78    4.24
   8   3   4   80.00    4.60
   8   3   5   15.86    2.18
   8   3   6   12.14    7.59
   8   3   7    9.05    5.88
   8   3   8   36.45    5.40
  -8  -3  -9    4.32    2.66
   8   3   9    6.91    1.90
  -8  -3 -10   16.69    3.84
   8   3  10   20.29    4.28
   8   3  11   64.39    5.41
   8   4  -9   40.88    4.00
   8   4  -8   59.48    4.57
  -8  -4   8   39.30    3.64
   8   4  -7    4.01    2.65
  -8  -4   7    2.37    1.93
   8   4  -6   46.67    3.87
  -8  -4   6   31.42    2.98
   8   4  -5   19.32    2.50
  -8  -4   5   16.76    3.07
   8   4  -4   46.86    8.49
  -8  -4   4   29.31    5.16
   8   4  -3    3.69    2.79
  -8  -4   3   -0.29    1.19
   8   4  -2   -0.22    1.80
  -8  -4   2    0.87    1.31
   8   4  -1  209.11    8.27
  -8  -4   1  138.35    5.95
   8   4   0  141.43    7.84
  -8  -4   0   76.38    9.93
   8   4   1  120.60    5.89
  -8  -4  -1   82.92    4.65
   8   4   2  132.10    6.44
   8   4   3    8.95    5.67
   8   4   4  133.31    6.40
   8   4   5    4.27    3.11
   8   4   6   11.09    2.46
   8   4   7   10.09    2.38
   8   4   9    4.59    3.18
   8   5  -8    8.56    2.33
   8   5  -7    3.04    2.69
   8   5  -6   10.99    2.49
  -8  -5   6    9.17    2.22
   8   5  -5    2.47    1.69
  -8  -5   5    1.64    1.72
   8   5  -4   68.97    7.21
  -8  -5   4   47.98    4.39
   8   5  -3   17.57    2.51
  -8  -5   3   11.42    2.29
   8   5  -2   22.50    4.12
  -8  -5   2   15.38    3.02
   8   5  -1   11.45    2.98
  -8  -5   1    6.68    2.01
   8   5   0    2.96    2.54
  -8  -5   0   -0.24    1.16
   8   5   1    5.33    3.26
  -8  -5  -1    6.01    1.91
   8   5   2   18.99    5.52
   8   5   3   60.44    4.66
   8   5   4    1.40    1.70
   8   5   5  354.01   16.86
   8   5   6  310.76   18.36
   8   5   7   24.40    2.67
   8   6  -6    2.45    2.35
   8   6  -5    6.35    1.92
  -8  -6   5    1.90    1.63
   8   6  -4    1.18    2.02
  -8  -6   4    4.19    2.72
   8   6  -3    6.41    2.13
  -8  -6   3    5.22    1.75
  -8  -6   2    1.80    1.85
   8   6  -1   43.04    7.80
  -8  -6   1   30.48    6.02
   8   6   0   33.85    3.10
  -8  -6   0   20.67    3.00
   8   6   1   34.41    3.06
  -8  -6  -1   29.93    2.94
   8   6   2    0.61    0.81
  -8  -6  -2    1.10    1.44
   8   6   3    9.83    5.93
   8   6   4   21.77    2.90
   9  -2   1    8.04    2.27
   9  -2   2    1.48    1.86
   9  -2   3    7.43    1.99
   9  -2   4    1.92    2.16
   9  -2   5    1.66    1.46
   9  -2   6    7.96    2.03
   9  -2   7    0.01    1.83
   9  -2   8    9.91    2.65
   9  -1  -2   12.22    2.68
   9  -1  -1    7.03    1.58
   9  -1   0   62.50   13.97
   9  -1   1  100.27   21.32
   9  -1   2    5.37    4.13
   9  -1   3    5.02    3.28
   9  -1   4    2.38    2.27
   9  -1   5    7.17    2.26
   9  -1   6   14.11    2.42
   9  -1   7    1.76    1.34
   9  -1   8    2.00    1.84
   9  -1   9   27.47    6.39
   9  -1  10   12.66    2.29
   9   0  -4    2.46    2.21
   9   0  -3    6.65    1.71
   9   0  -2   42.83    3.53
   9   0  -1  376.49   22.88
   9   0   0    6.54    3.85
   9   0   1   38.01    8.41
   9   0   2    6.78    4.07
   9   0   3   51.88   11.80
   9   0   4   -0.61    1.79
   9   0   5   30.85    3.27
   9   0   6   32.04    6.62
   9   0   7    2.03    2.34
   9   0   8    2.34    2.41
   9   0   9   16.50    5.16
   9   0  10  162.47    6.83
   9   1  -5    1.50    1.82
   9   1  -4    6.32    4.15
   9   1  -3    3.24    2.38
   9   1  -2   20.37    5.17
   9   1  -1    9.31    5.72
   9   1   0   29.99    3.45
   9   1   1   77.98   15.80
   9   1   2   23.64    5.79
   9   1   3   10.92    6.76
   9   1   4   48.74    3.72
   9   1   5   57.64   11.12
   9   1   6   -1.25    1.88
   9   1   7   14.13    2.70
   9   1   8   -0.71    1.87
   9   1   9   57.56    9.60
   9   1  10   38.93    3.99
   9   2  -5   13.91    2.80
   9   2  -3   -0.93    1.70
   9   2  -2    0.11    1.60
   9   2  -1   59.52   13.32
   9   2   0  120.64    8.39
   9   2   1   46.11    5.86
   9   2   2   22.25    3.03
   9   2   3   25.97    3.18
   9   2   4   10.75    6.57
   9   2   5    3.23    1.94
   9   2   6   44.22    3.84
   9   2   7   25.19    5.75
   9   2   8   44.52   10.13
   9   2   9    8.40    2.66
   9   3  -6    0.13    1.86
   9   3  -5   24.94    3.15
   9   3  -4   30.73    6.89
   9   3  -3    0.31    1.85
   9   3  -2  313.72    9.52
   9   3  -1  193.76   12.58
   9   3   0    2.57    1.55
   9   3   1   55.61    5.35
   9   3   2    2.75    2.31
   9   3   3   17.82    3.31
   9   3   4    8.51    5.12
   9   3   5   11.89    7.06
   9   3   6   14.35    2.51
   9   3   7    1.02    1.10
   9   3   8    9.92    3.35
   9   4  -5    3.29    2.52
   9   4  -4    0.00    1.63
   9   4  -3   -0.85    1.61
   9   4  -2   19.18    2.62
   9   4  -1   39.73    3.69
   9   4   0   33.06    3.29
   9   4   1    4.28    3.48
   9   4   2  304.35   10.57
   9   4   3  376.84   10.47
   9   4   4    1.11    1.84
   9   4   5    2.59    2.31
   9   4   6    0.36    1.53
   9   5  -2   28.86    6.65
   9   5  -1    4.52    3.50
   9   5   0    5.85    4.08
   9   5   1   -0.09    1.82
   9   5   2    1.45    2.12
   0   0   0    0.00    0.00
;
_shelx_hkl_checksum              35431
loop_
_space_group_symop_operation_xyz
'x, y, z'
'-x, -y, -z'
loop_
_atom_site_label
_atom_site_type_symbol
_atom_site_fract_x
_atom_site_fract_y
_atom_site_fract_z
_atom_site_U_iso_or_equiv
_atom_site_adp_type
_atom_site_occupancy
_atom_site_site_symmetry_order
_atom_site_calc_flag
_atom_site_refinement_flags_posn
_atom_site_refinement_flags_adp
C001 C 1.1208(4) 0.7069(4) 0.61860(18) 0.0211(6) Uani 1 1 d . .
C002 C 1.2458(4) 0.6655(4) 0.6980(2) 0.0244(6) Uani 1 1 d . .
C004 C 0.9023(5) 0.7804(4) 0.46785(19) 0.0283(6) Uani 1 1 d . .
C005 C 0.9043(4) 0.7819(4) 0.6282(2) 0.0249(6) Uani 1 1 d . .
H005 H 0.8316 0.8075 0.6861 0.030 Uiso 1 1 calc R U
C007 C 0.7942(4) 0.8194(4) 0.5519(2) 0.0287(6) Uani 1 1 d . .
H007 H 0.6467 0.8712 0.5577 0.034 Uiso 1 1 calc R U
C008 C 1.2271(4) 0.6742(4) 0.53388(19) 0.0262(6) Uani 1 1 d . .
H008 H 1.3759 0.6276 0.5277 0.031 Uiso 1 1 calc R U
C009 C 1.1188(5) 0.7089(4) 0.4573(2) 0.0319(7) Uani 1 1 d . .
H009 H 1.1917 0.6840 0.3993 0.038 Uiso 1 1 calc R U
N1 N 1.1386(4) 0.6422(4) 0.77820(17) 0.0315(6) Uani 1 1 d . .
H1A H 1.2080 0.6171 0.8260 0.038 Uiso 1 1 calc R U
H1B H 0.9983 0.6519 0.7835 0.038 Uiso 1 1 calc R U
O1 O 1.4436(3) 0.6528(3) 0.68811(15) 0.0331(5) Uani 1 1 d . .
Cl1 Cl 0.76136(15) 0.82336(11) 0.37495(6) 0.0448(3) Uani 1 1 d . .
C013 C 0.3749(4) 1.0796(4) 0.10738(18) 0.0251(6) Uani 1 1 d . .
C014 C 0.3007(4) 0.7162(4) 0.18411(18) 0.0242(6) Uani 1 1 d . .
C015 C 0.4896(4) 0.7901(4) 0.19585(19) 0.0267(6) Uani 1 1 d . .
H015 H 0.5926 0.7170 0.2302 0.032 Uiso 1 1 calc R U
C016 C 0.1484(4) 0.8265(4) 0.1355(2) 0.0299(6) Uani 1 1 d . .
H016 H 0.0188 0.7785 0.1285 0.036 Uiso 1 1 calc R U
C017 C 0.1856(4) 1.0059(4) 0.0975(2) 0.0290(6) Uani 1 1 d . .
H017 H 0.0812 1.0801 0.0643 0.035 Uiso 1 1 calc R U
C018 C 0.4238(4) 1.2659(4) 0.06427(18) 0.0269(6) Uani 1 1 d . .
C019 C 0.5256(4) 0.9691(4) 0.1575(2) 0.0289(6) Uani 1 1 d . .
H019 H 0.6542 1.0180 0.1653 0.035 Uiso 1 1 calc R U
O2 O 0.5963(3) 1.3265(3) 0.06761(14) 0.0300(5) Uani 1 1 d . .
O3 O 0.2711(3) 1.3624(3) 0.02064(15) 0.0336(5) Uani 1 1 d . .
H3 H 0.3105 1.4662 -0.0021 0.050 Uiso 1 1 calc R U
O4 O 0.2614(3) 0.5397(3) 0.21979(14) 0.0290(5) Uani 1 1 d . .
H4 H 0.3648 0.4885 0.2473 0.044 Uiso 1 1 calc R U
loop_
_atom_site_aniso_label
_atom_site_aniso_U_11
_atom_site_aniso_U_22
_atom_site_aniso_U_33
_atom_site_aniso_U_23
_atom_site_aniso_U_13
_atom_site_aniso_U_12
C001 0.0208(12) 0.0186(11) 0.0246(13) 0.0022(9) -0.0059(10) -0.0037(9)
C002 0.0184(12) 0.0195(12) 0.0352(15) 0.0024(10) -0.0045(11) -0.0025(9)
C004 0.0405(16) 0.0209(13) 0.0287(15) 0.0031(11) -0.0193(12) -0.0119(11)
C005 0.0204(12) 0.0251(13) 0.0291(14) 0.0041(11) -0.0034(10) -0.0035(10)
C007 0.0217(12) 0.0260(13) 0.0392(16) 0.0080(12) -0.0099(11) -0.0043(10)
C008 0.0257(13) 0.0204(12) 0.0312(15) 0.0003(11) -0.0012(11) -0.0008(10)
C009 0.0402(16) 0.0239(13) 0.0302(15) 0.0016(11) -0.0004(12) -0.0032(11)
N1 0.0203(11) 0.0448(15) 0.0283(13) 0.0067(11) -0.0067(9) -0.0007(10)
O1 0.0179(9) 0.0408(12) 0.0403(12) 0.0138(9) -0.0075(8) -0.0049(8)
Cl1 0.0645(6) 0.0337(5) 0.0417(5) 0.0082(3) -0.0300(4) -0.0096(4)
C013 0.0239(13) 0.0259(13) 0.0236(13) 0.0017(10) -0.0006(10) 0.0001(10)
C014 0.0207(12) 0.0258(13) 0.0249(13) 0.0023(10) -0.0003(10) -0.0019(10)
C015 0.0241(13) 0.0273(14) 0.0291(14) 0.0039(11) -0.0098(11) -0.0014(10)
C016 0.0183(12) 0.0336(15) 0.0375(16) 0.0061(12) -0.0059(11) -0.0031(11)
C017 0.0234(13) 0.0307(14) 0.0315(15) 0.0071(11) -0.0066(11) 0.0010(11)
C018 0.0274(13) 0.0292(14) 0.0222(13) 0.0036(11) -0.0023(11) 0.0003(11)
C019 0.0224(13) 0.0287(14) 0.0359(16) 0.0030(12) -0.0056(11) -0.0045(11)
O2 0.0285(10) 0.0311(11) 0.0307(11) 0.0075(8) -0.0060(8) -0.0060(8)
O3 0.0337(11) 0.0313(11) 0.0374(12) 0.0123(9) -0.0143(9) -0.0060(8)
O4 0.0217(9) 0.0283(10) 0.0375(12) 0.0098(8) -0.0077(8) -0.0048(7)
loop_
_atom_type_symbol
_atom_type_description
_atom_type_scat_dispersion_real
_atom_type_scat_dispersion_imag
_atom_type_scat_source
C C 0.0033 0.0016 'International Tables Vol C Tables 4.2.6.8 and 6.1.1.4'
H H 0.0000 0.0000 'International Tables Vol C Tables 4.2.6.8 and 6.1.1.4'
N N 0.0061 0.0033 'International Tables Vol C Tables 4.2.6.8 and 6.1.1.4'
O O 0.0106 0.0060 'International Tables Vol C Tables 4.2.6.8 and 6.1.1.4'
Cl Cl 0.1484 0.1585 'International Tables Vol C Tables 4.2.6.8 and 6.1.1.4'
loop_
_geom_angle_atom_site_label_1
_geom_angle_atom_site_label_2
_geom_angle_atom_site_label_3
_geom_angle
C008 C001 C005 119.9(3)
C008 C001 C002 118.3(2)
C005 C001 C002 121.7(2)
O1 C002 N1 121.8(3)
O1 C002 C001 120.2(3)
N1 C002 C001 118.0(2)
C007 C004 C009 121.5(3)
C007 C004 Cl1 118.5(2)
C009 C004 Cl1 120.1(3)
C001 C005 C007 119.7(3)
C001 C005 H005 120.2
C007 C005 H005 120.2
C004 C007 C005 119.4(3)
C004 C007 H007 120.3
C005 C007 H007 120.3
C001 C008 C009 121.0(3)
C001 C008 H008 119.5
C009 C008 H008 119.5
C004 C009 C008 118.5(3)
C004 C009 H009 120.8
C008 C009 H009 120.8
C002 N1 H1A 120.0
C002 N1 H1B 120.0
H1A N1 H1B 120.0
C019 C013 C017 118.7(3)
C019 C013 C018 119.0(3)
C017 C013 C018 122.2(2)
O4 C014 C016 118.8(2)
O4 C014 C015 121.5(2)
C016 C014 C015 119.6(3)
C019 C015 C014 119.9(2)
C019 C015 H015 120.0
C014 C015 H015 120.0
C017 C016 C014 120.0(3)
C017 C016 H016 120.0
C014 C016 H016 120.0
C016 C017 C013 120.9(3)
C016 C017 H017 119.6
C013 C017 H017 119.6
O2 C018 O3 122.2(3)
O2 C018 C013 122.9(3)
O3 C018 C013 114.9(2)
C015 C019 C013 120.8(3)
C015 C019 H019 119.6
C013 C019 H019 119.6
C018 O3 H3 109.5
C014 O4 H4 109.5
loop_
_geom_bond_atom_site_label_1
_geom_bond_atom_site_label_2
_geom_bond_distance
C001 C008 1.384(4)
C001 C005 1.393(4)
C001 C002 1.498(4)
C002 O1 1.241(3)
C002 N1 1.329(4)
C004 C007 1.386(5)
C004 C009 1.388(5)
C004 Cl1 1.729(3)
C005 C007 1.400(4)
C005 H005 0.9500
C007 H007 0.9500
C008 C009 1.396(4)
C008 H008 0.9500
C009 H009 0.9500
N1 H1A 0.8800
N1 H1B 0.8800
C013 C019 1.400(4)
C013 C017 1.399(4)
C013 C018 1.474(4)
C014 O4 1.356(3)
C014 C016 1.392(4)
C014 C015 1.404(4)
C015 C019 1.380(4)
C015 H015 0.9500
C016 C017 1.383(4)
C016 H016 0.9500
C017 H017 0.9500
C018 O2 1.237(4)
C018 O3 1.314(4)
C019 H019 0.9500
O3 H3 0.8400
O4 H4 0.8400
loop_
_geom_torsion_atom_site_label_1
_geom_torsion_atom_site_label_2
_geom_torsion_atom_site_label_3
_geom_torsion_atom_site_label_4
_geom_torsion
C008 C001 C002 O1 18.7(4)
C005 C001 C002 O1 -159.5(3)
C008 C001 C002 N1 -161.0(3)
C005 C001 C002 N1 20.8(4)
C008 C001 C005 C007 1.5(4)
C002 C001 C005 C007 179.6(2)
C009 C004 C007 C005 -1.5(4)
Cl1 C004 C007 C005 178.7(2)
C001 C005 C007 C004 0.3(4)
C005 C001 C008 C009 -2.3(4)
C002 C001 C008 C009 179.5(2)
C007 C004 C009 C008 0.7(4)
Cl1 C004 C009 C008 -179.4(2)
C001 C008 C009 C004 1.1(4)
O4 C014 C015 C019 179.1(3)
C016 C014 C015 C019 -1.5(4)
O4 C014 C016 C017 -179.2(3)
C015 C014 C016 C017 1.4(4)
C014 C016 C017 C013 -0.2(5)
C019 C013 C017 C016 -0.8(4)
C018 C013 C017 C016 177.1(3)
C019 C013 C018 O2 2.7(4)
C017 C013 C018 O2 -175.2(3)
C019 C013 C018 O3 -178.2(3)
C017 C013 C018 O3 3.9(4)
C014 C015 C019 C013 0.5(4)
C017 C013 C019 C015 0.6(4)
C018 C013 C019 C015 -177.3(3)
