#------------------------------------------------------------------------------
#$Date: 2019-11-26 01:05:04 +0200 (Tue, 26 Nov 2019) $
#$Revision: 242230 $
#$URL: file:///home/coder/svn-repositories/cod/cif/4/13/22/4132226.cif $
#------------------------------------------------------------------------------
#
# This file is available in the Crystallography Open Database (COD),
# http://www.crystallography.net/
#
# All data on this site have been placed in the public domain by the
# contributors.
#
data_4132226
loop_
_publ_author_name
'Saha, Subhankar'
'Desiraju, Gautam R.'
_publ_section_title
;
 Acid&#x00B7;&#x00B7;&#x00B7;Amide Supramolecular Synthon in Cocrystals:
 From Spectroscopic Detection to Property Engineering.
;
_journal_issue                   20
_journal_name_full               'Journal of the American Chemical Society'
_journal_page_first              6361
_journal_page_last               6373
_journal_paper_doi               10.1021/jacs.8b02435
_journal_volume                  140
_journal_year                    2018
_chemical_formula_sum            'C14 H12 N2 O6'
_chemical_formula_weight         304.26
_space_group_crystal_system      triclinic
_space_group_IT_number           2
_space_group_name_Hall           '-P 1'
_space_group_name_H-M_alt        'P -1'
_atom_sites_solution_hydrogens   geom
_audit_creation_method           SHELXL-2014
_cell_angle_alpha                88.57(2)
_cell_angle_beta                 84.457(18)
_cell_angle_gamma                82.348(19)
_cell_formula_units_Z            2
_cell_length_a                   6.451(4)
_cell_length_b                   6.728(5)
_cell_length_c                   15.300(10)
_cell_measurement_reflns_used    2418
_cell_measurement_temperature    150(2)
_cell_measurement_theta_max      33.7
_cell_measurement_theta_min      3.1
_cell_volume                     655.0(8)
_computing_cell_refinement
;
CrystalClear-SM Expert 2.0 rc14 (Rigaku, 2009)
;
_computing_data_collection
;
CrystalClear-SM Expert 2.0 rc14 (Rigaku, 2009)
;
_computing_data_reduction
;
CrystalClear-SM Expert 2.0 rc14 (Rigaku, 2009)
;
_computing_structure_refinement  'SHELXL-14 (Sheldrick, 2014)'
_computing_structure_solution    'SHELXL-14 (Sheldrick, 2014)'
_diffrn_ambient_temperature      150(2)
_diffrn_detector_area_resol_mean 13.6612
_diffrn_measured_fraction_theta_full 0.994
_diffrn_measured_fraction_theta_max 0.994
_diffrn_measurement_device
;
XtaLABmini: Fixed Chi 2 circle
;
_diffrn_measurement_device_type
;
Rigaku Mercury375R (2x2 bin mode)
;
_diffrn_measurement_method       'profile data from \w-scans'
_diffrn_radiation_type           MoK\a
_diffrn_radiation_wavelength     0.71073
_diffrn_reflns_av_R_equivalents  0.0381
_diffrn_reflns_av_unetI/netI     0.0345
_diffrn_reflns_Laue_measured_fraction_full 0.994
_diffrn_reflns_Laue_measured_fraction_max 0.994
_diffrn_reflns_limit_h_max       7
_diffrn_reflns_limit_h_min       -7
_diffrn_reflns_limit_k_max       8
_diffrn_reflns_limit_k_min       -8
_diffrn_reflns_limit_l_max       18
_diffrn_reflns_limit_l_min       -18
_diffrn_reflns_number            6132
_diffrn_reflns_point_group_measured_fraction_full 0.994
_diffrn_reflns_point_group_measured_fraction_max 0.994
_diffrn_reflns_theta_full        25.242
_diffrn_reflns_theta_max         25.989
_diffrn_reflns_theta_min         1.337
_exptl_absorpt_coefficient_mu    0.123
_exptl_absorpt_correction_T_max  1.000
_exptl_absorpt_correction_T_min  0.855
_exptl_absorpt_correction_type   multi-scan
_exptl_absorpt_process_details   'Jacobson, R. (1998) Private communication'
_exptl_crystal_colour            Colourless
_exptl_crystal_density_diffrn    1.543
_exptl_crystal_description       Block
_exptl_crystal_F_000             316
_exptl_crystal_size_max          0.190
_exptl_crystal_size_mid          0.190
_exptl_crystal_size_min          0.180
_refine_diff_density_max         0.278
_refine_diff_density_min         -0.249
_refine_diff_density_rms         0.057
_refine_ls_extinction_method     none
_refine_ls_goodness_of_fit_ref   1.096
_refine_ls_hydrogen_treatment    constr
_refine_ls_matrix_type           full
_refine_ls_number_parameters     199
_refine_ls_number_reflns         2553
_refine_ls_number_restraints     0
_refine_ls_restrained_S_all      1.096
_refine_ls_R_factor_all          0.0455
_refine_ls_R_factor_gt           0.0407
_refine_ls_shift/su_max          0.004
_refine_ls_shift/su_mean         0.001
_refine_ls_structure_factor_coef Fsqd
_refine_ls_weighting_details
'w=1/[\s^2^(Fo^2^)+(0.0765P)^2^+0.1651P] where P=(Fo^2^+2Fc^2^)/3'
_refine_ls_weighting_scheme      calc
_refine_ls_wR_factor_gt          0.1190
_refine_ls_wR_factor_ref         0.1308
_reflns_Friedel_coverage         0.000
_reflns_number_gt                2304
_reflns_number_total             2553
_reflns_threshold_expression     'I > 2\s(I)'
_cod_data_source_file            ja8b02435_si_004.cif
_cod_data_source_block           5E
_cod_database_code               4132226
_shelx_space_group_comment
;
The symmetry employed for this shelxl refinement is uniquely defined
by the following loop, which should always be used as a source of
symmetry information in preference to the above space-group names.
They are only intended as comments.
;
_shelx_estimated_absorpt_t_min   0.977
_shelx_estimated_absorpt_t_max   0.978
_shelxl_version_number           2014-3
_shelx_res_file
;
TITL datap-1 in P-1
CELL  0.71073   6.4510   6.7276  15.3004   88.566   84.457   82.348
ZERR     2.00   0.0042   0.0045   0.0104    0.022    0.018    0.019
LATT   1
SFAC  C    H    N    O
UNIT  28   24   4    12
MERG   2
OMIT    -2.00  52.00
FMAP   2
PLAN   20
ACTA
BOND  $H
CONF
HTAB
TEMP  -123
SIZE  0.18 0.19 0.19
L.S.   4
WGHT    0.076500    0.165100
FVAR       1.11095
MOLE    1
C003  1    0.373925    0.575628    0.107100    11.00000    0.02411    0.02077 =
         0.01783   -0.00103   -0.00113   -0.00309
C005  1   -0.128990   -0.210685    0.376150    11.00000    0.01823    0.01412 =
         0.02333    0.00238   -0.00306   -0.00441
C006  1    0.084249   -0.274348    0.523466    11.00000    0.02034    0.01590 =
         0.02238    0.00164   -0.00525   -0.00578
C010  1   -0.253899   -0.171484    0.298201    11.00000    0.01952    0.01628 =
         0.02531    0.00070   -0.00483   -0.00413
C012  1    0.085413   -0.280769    0.367675    11.00000    0.01906    0.01875 =
         0.02198    0.00151   -0.00015   -0.00473
AFIX  43
H012  2    0.156995   -0.307191    0.311110    11.00000   -1.20000
AFIX   0
C013  1    0.294910    0.209804    0.183467    11.00000    0.02030    0.02012 =
         0.01837   -0.00039    0.00109   -0.00279
C014  1   -0.129794   -0.210495    0.534479    11.00000    0.02220    0.01791 =
         0.02302   -0.00095    0.00058   -0.00492
AFIX  43
H014  2   -0.201643   -0.189364    0.591333    11.00000   -1.20000
AFIX   0
C015  1    0.188731    0.497971    0.094771    11.00000    0.02417    0.02480 =
         0.02208    0.00256   -0.00656   -0.00137
AFIX  43
H015  2    0.088963    0.570816    0.060226    11.00000   -1.20000
AFIX   0
C016  1    0.477531    0.288982    0.198186    11.00000    0.02282    0.02183 =
         0.02342    0.00182   -0.00742   -0.00255
AFIX  43
H016  2    0.574742    0.218780    0.234617    11.00000   -1.20000
AFIX   0
C017  1    0.194019   -0.311863    0.441737    11.00000    0.01656    0.01676 =
         0.02591    0.00176   -0.00297   -0.00310
AFIX  43
H017  2    0.340385   -0.357844    0.436663    11.00000   -1.20000
AFIX   0
C019  1   -0.235562   -0.178483    0.459490    11.00000    0.01660    0.01706 =
         0.02677   -0.00016   -0.00096   -0.00230
AFIX  43
H019  2   -0.382269   -0.134118    0.464946    11.00000   -1.20000
AFIX   0
C020  1    0.516494    0.469733    0.159620    11.00000    0.02242    0.02229 =
         0.02526   -0.00042   -0.00533   -0.00668
AFIX  43
H020  2    0.641934    0.522404    0.169023    11.00000   -1.20000
AFIX   0
C021  1    0.149130    0.316153    0.132331    11.00000    0.01901    0.02749 =
         0.02616    0.00269   -0.00488   -0.00596
AFIX  43
H021  2    0.023180    0.263943    0.123337    11.00000   -1.20000
AFIX   0
C022  1    0.424909    0.764218    0.063810    11.00000    0.02665    0.02131 =
         0.01744   -0.00123   -0.00364   -0.00332
N1    3    0.200563   -0.303523    0.601868    11.00000    0.02474    0.02010 =
         0.02286    0.00075   -0.00473   -0.00555
N2    3   -0.149256   -0.145900    0.220456    11.00000    0.02043    0.03351 =
         0.02146    0.00299   -0.00582   -0.00472
AFIX  93
H2A   2   -0.217637   -0.123317    0.173386    11.00000   -1.20000
H2B   2   -0.011577   -0.151541    0.216042    11.00000   -1.20000
AFIX   0
O1    4    0.592074    0.830295    0.069912    11.00000    0.02783    0.02433 =
         0.02394    0.00414   -0.00549   -0.00825
O2    4    0.278502    0.855554    0.016980    11.00000    0.03375    0.02478 =
         0.03077    0.00993   -0.01292   -0.00909
AFIX  83
H2    2    0.317955    0.961071   -0.005458    11.00000   -1.50000
AFIX   0
O3    4    0.254434    0.029353    0.217348    11.00000    0.01853    0.02311 =
         0.02893    0.00784   -0.00563   -0.00503
AFIX  83
H3    2    0.352932   -0.019842    0.246631    11.00000   -1.50000
AFIX   0
O4    4    0.393073   -0.331724    0.590843    11.00000    0.02057    0.05417 =
         0.03048    0.00244   -0.00764   -0.00341
O5    4    0.101285   -0.297083    0.673828    11.00000    0.03212    0.05147 =
         0.02043   -0.00172   -0.00183   -0.00442
O6    4   -0.447526   -0.165081    0.308220    11.00000    0.01800    0.03261 =
         0.02882    0.00813   -0.00580   -0.00508
HKLF    4

REM  datap-1 in P-1
REM R1 =  0.0407 for    2304 Fo > 4sig(Fo)  and  0.0455 for all    2553 data
REM    199 parameters refined using      0 restraints

END

WGHT      0.0746      0.1663

REM Instructions for potential hydrogen bonds
EQIV $1 -x+1, -y-1, -z+1
HTAB C017 O4_$1
EQIV $2 x-1, y-1, z
HTAB N2 O1_$2
HTAB N2 O3
EQIV $3 -x+1, -y+2, -z
HTAB O2 O1_$3
EQIV $4 x+1, y, z
HTAB O3 O6_$4

REM Highest difference peak  0.278,  deepest hole -0.249,  1-sigma level  0.057
Q1    1   0.3825  0.2584  0.1980  11.00000  0.05    0.24
Q2    1   0.2708  0.5675  0.1140  11.00000  0.05    0.24
Q3    1  -0.0232 -0.0628  0.2211  11.00000  0.05    0.24
Q4    1  -0.1776 -0.1862  0.3424  11.00000  0.05    0.24
Q5    1   0.2443  0.2502  0.1409  11.00000  0.05    0.22
Q6    1   0.4811  0.3836  0.1892  11.00000  0.05    0.22
Q7    1   0.1499  0.4130  0.1344  11.00000  0.05    0.21
Q8    1   0.2116  0.2683  0.1709  11.00000  0.05    0.19
Q9    1  -0.1818 -0.2301  0.4173  11.00000  0.05    0.18
Q10   1   0.0604  0.1952  0.0968  11.00000  0.05    0.16
Q11   1   0.1046  0.8840  0.0205  11.00000  0.05    0.15
Q12   1   0.5096  0.8854  0.0149  11.00000  0.05    0.13
Q13   1   0.1813  0.5744 -0.0614  11.00000  0.05    0.12
Q14   1   0.5341  0.9283  0.1451  11.00000  0.05    0.12
Q15   1   0.1555 -0.3629  0.3149  11.00000  0.05    0.12
Q16   1  -0.2687  0.0888  0.1597  11.00000  0.05    0.12
Q17   1   0.3230  1.1562  0.0226  11.00000  0.05    0.12
Q18   1  -0.4308 -0.0232  0.2786  11.00000  0.05    0.12
Q19   1   0.6452  0.1751  0.1998  11.00000  0.05    0.12
Q20   1   0.4900  0.6420  0.2230  11.00000  0.05    0.11
;
_shelx_res_checksum              70592
_shelx_hkl_file
;
   0   0  -1   -0.15    0.06
   0   0  -1   -0.08    0.03
   0   0   1   -0.13    0.06
   0   0  -1   -0.12    0.05
   0   0  -2    0.60    0.16
   0   0   3  210.17    2.77
   0   0   3  199.58    2.50
   0   0  -3  197.59    2.86
   0   0   4  292.28    3.85
   0   0   4  279.32    3.49
   0   0  -4  288.43    3.98
   0   0   5  159.38    4.96
   0   0   6    5.11    0.71
   0   0   6    6.11    1.01
   0   0  -6    5.21    0.71
   0   0   7  248.21    3.98
   0   0   7  231.53    3.36
   0   0  -7  244.81    4.28
   0   0   8  689.37   12.30
   0   0   8  639.97   11.49
   0   0  -8  690.02   12.55
   0   0   9  167.27    4.56
   0   0   9  173.76    4.20
   0   0  -9  171.36    4.21
   0   0  10  464.04    8.51
   0   0  10  434.45    6.93
   0   0 -10  462.14    8.40
   0   0  11   21.59    3.64
   0   0  11   15.50    1.40
   0   0 -11   18.25    1.92
   0   0  12   94.13    3.67
   0   0  12   89.36    2.82
   0   0 -12  103.57    3.93
   0   0  13  498.23   12.14
   0   0  13  447.94   11.24
   0   0 -13  511.68   12.98
   0   0  14   12.80    2.35
   0   0  14    9.31    1.08
   0   0 -14   15.45    1.83
   0   0  15   35.95    2.49
   0   0  15   24.57    4.48
   0   0 -15   42.14    2.82
   0   0  16    0.01    0.50
   0   0 -16    1.31    1.26
   0   0  17   11.38    1.64
   0   0 -17   11.70    1.80
   0   0  18    1.41    1.07
   0   0 -18    2.22    1.28
   0   0  19   29.93    2.68
   0   0 -19   29.05    3.20
   0   0 -20   12.58    3.02
   0   0 -21   18.32    2.72
   0   0 -22    0.81    0.87
   0   0 -23   12.23    2.52
   0   1 -23    7.52    2.37
   0   1 -22    1.37    1.35
   0   1 -21   72.20   16.09
   0  -1  20  155.53    8.98
   0   1 -20  181.60    6.28
   0  -1  19   61.89   13.24
   0   1 -19   87.66    4.53
   0  -1  18   -0.48    0.98
   0   1 -18    2.14    1.80
   0  -1  17   10.77    1.67
   0   1 -17    9.31    1.73
   0  -1  16   46.96    3.09
   0   1 -16   47.60    3.11
   0  -1  15   14.39    1.69
   0   1 -15   17.32    1.99
   0  -1  14  379.59   11.94
   0   1 -14  409.33   10.35
   0  -1  13 1326.10   29.35
   0   1 -13 1366.53   30.76
   0  -1  12  283.29    5.70
   0  -1  12  241.81    3.59
   0   1 -12  277.34    6.01
   0  -1  11   -0.19    0.70
   0  -1  11    0.31    0.28
   0   1 -11   -0.40    0.85
   0  -1  10   63.46    3.62
   0  -1  10   57.07    1.86
   0   1 -10   65.70    2.56
   0  -1   9   23.24    1.41
   0  -1   9   21.21    1.40
   0   1  -9   31.22    5.01
   0  -1   8   -0.09    0.88
   0  -1   8    1.82    0.30
   0   1  -8    3.20    0.79
   0  -1   7  435.23    8.31
   0  -1   7  380.48    6.45
   0   1  -7  401.05    7.86
   0  -1   6   -0.71    2.17
   0  -1   6    0.92    0.21
   0   1  -6    1.99    0.63
   0  -1   5  177.61    3.14
   0  -1   5  158.45    3.31
   0   1  -5  163.61    3.09
   0  -1   4    6.48    0.76
   0   1  -4    4.54    0.67
   0  -1   3   69.00    2.43
   0   1  -3   63.51    1.93
   0  -1   3   62.34    1.85
   0   1  -3   59.91    2.57
   0  -1   2  261.18    3.40
   0  -1   2  256.71    2.77
   0   1  -2  235.18    3.14
   0  -1   1   30.55    1.10
   0  -1   1   34.26    1.13
   0  -1   1   32.15    1.17
   0  -1   0   31.54    1.06
   0  -1   0   29.25    1.04
   0  -1   0   26.86    0.97
   0   1   1   52.94    1.67
   0   1   1   56.53    1.69
   0  -1  -1   52.01    1.73
   0  -1  -1   53.44    1.73
   0   1   2  452.34    4.70
   0  -1  -2  500.94    5.73
   0  -1  -2  481.51    5.47
   0   1   3  866.67    8.83
   0  -1  -3  931.97   10.05
   0   1   5 2322.73   23.20
   0   1   5 2216.39   23.57
   0  -1  -5 2342.96   24.26
   0   1   6  226.53    3.62
   0   1   6  224.55    4.52
   0  -1  -6  222.51    4.39
   0   1   7  204.50    3.32
   0   1   7  202.72    3.88
   0  -1  -7  195.92    3.73
   0   1   8  167.97    4.62
   0   1   8  162.31    3.38
   0  -1  -8  165.67    4.83
   0   1   9   93.94    2.52
   0   1   9   88.40    2.50
   0  -1  -9   92.99    6.83
   0   1  10   34.92    2.10
   0   1  10   32.81    1.83
   0  -1 -10   37.23    2.06
   0   1  11   69.85    2.63
   0   1  11   69.70    3.06
   0  -1 -11   75.48    2.78
   0   1  12   59.28    4.84
   0   1  12   55.30    2.23
   0  -1 -12   60.87    2.80
   0   1  13  184.58    6.12
   0   1  13  179.53    5.89
   0  -1 -13  191.46    6.05
   0   1  14 1422.89  133.98
   0   1  14 1347.64   14.14
   0  -1 -14 1483.32  139.85
   0  -1 -15    1.32    1.35
   0   1  16    2.96    0.85
   0  -1 -16    3.43    1.40
   0   1  17   61.02    8.76
   0  -1 -17   79.34    3.83
   0   1  18    4.35    1.18
   0  -1 -18    7.30    1.90
   0  -1 -19   18.34    2.50
   0  -1 -20    4.05    1.25
   0  -1 -21    1.93    1.40
   0  -1 -22    0.81    1.27
   0  -1 -23   -0.03    1.27
   0   2 -23   16.98    2.35
   0   2 -22    0.80    1.36
   0  -2  21    0.47    1.00
   0   2 -21   -0.44    1.24
   0  -2  20    0.02    1.00
   0   2 -20    1.13    1.76
   0  -2  19    8.51    1.62
   0   2 -19   11.07    1.95
   0  -2  18    2.95    1.10
   0   2 -18    3.91    1.73
   0  -2  17  113.75    6.48
   0   2 -17  128.73    6.89
   0  -2  16  456.00   14.20
   0   2 -16  477.81    8.58
   0  -2  15  503.02   17.91
   0   2 -15  492.09   18.10
   0  -2  14    4.71    2.00
   0   2 -14    6.82    1.66
   0  -2  13  104.18    5.18
   0   2 -13  128.00    4.60
   0  -2  12  956.48   21.99
   0   2 -12  885.85   20.66
   0  -2  11   59.30    3.00
   0   2 -11   67.74    3.11
   0  -2  10   51.91    2.17
   0   2 -10   59.07    2.82
   0  -2   9  399.72    7.47
   0   2  -9  381.81    7.26
   0  -2   8   11.20    1.41
   0   2  -8   10.37    1.02
   0  -2   7   95.41    3.07
   0   2  -7   86.73    2.97
   0  -2   6  286.88    6.05
   0   2  -6  261.52    5.61
   0  -2   5   90.02    3.33
   0  -2   5   85.62    2.55
   0   2  -5   84.24    3.15
   0  -2   4  103.32    3.63
   0  -2   4  100.08    2.99
   0   2  -4   97.51    3.41
   0  -2   3 1013.12   11.40
   0  -2   3  964.08    9.96
   0   2  -3  874.31   10.01
   0  -2   2   76.21    2.71
   0  -2   2   73.23    2.38
   0  -2   2   72.95    2.58
   0  -2   1   18.20    0.92
   0  -2   1   18.43    0.94
   0  -2   1   22.43    1.09
   0   2   2 1267.21   12.85
   0  -2  -2 1410.71   16.21
   0  -2  -2 1419.26   15.10
   0   2   3   92.77    2.83
   0  -2  -3   95.85    3.53
   0  -2  -3  101.82    4.29
   0   2   4  563.81    6.14
   0  -2  -4  609.81    7.89
   0   2   5   10.71    1.46
   0   2   5   11.03    2.16
   0  -2  -5   11.00    0.91
   0   2   6    8.78    1.08
   0   2   6    9.36    1.23
   0  -2  -6    9.02    0.87
   0   2   7  254.63    4.84
   0   2   7  253.37    6.50
   0  -2  -7  270.08    5.85
   0   2   8  858.31   14.49
   0   2   8  861.99   15.56
   0  -2  -8  883.15   15.84
   0   2   9    2.77    0.48
   0   2   9    4.98    0.94
   0  -2  -9    3.41    0.75
   0   2  10   53.47    2.16
   0   2  10   56.13    6.06
   0  -2 -10   51.29    2.45
   0   2  11   60.96    6.09
   0   2  11   53.49    2.82
   0  -2 -11   56.79    2.69
   0   2  12   90.68    7.14
   0   2  12   80.36    5.56
   0  -2 -12   88.62    3.16
   0   2  13   17.75    2.02
   0   2  13   19.32    3.85
   0  -2 -13   17.72    1.83
   0   2  14   28.51    1.66
   0   2  14   35.10    4.67
   0  -2 -14   35.79    2.61
   0   2  15   63.35    3.12
   0   2  15   64.87    4.87
   0  -2 -15   77.24    4.31
   0   2  16   18.91    2.99
   0   2  16   16.85    3.76
   0  -2 -16   21.67    1.94
   0   2  17    1.06    0.81
   0  -2 -17    3.83    1.56
   0   2  18  152.24    5.78
   0  -2 -18  174.28    7.13
   0  -2 -19    3.76    1.86
   0  -2 -20   83.78    5.59
   0  -2 -21    3.10    1.49
   0  -2 -22    0.96    1.40
   0  -2 -23    1.52    1.56
   0   3 -22    3.03    1.42
   0  -3  21    5.54    1.71
   0   3 -21    8.86    2.43
   0  -3  20   11.79    2.21
   0   3 -20   11.03    2.40
   0   3 -19    0.50    1.19
   0  -3  18    0.18    1.11
   0   3 -18   -0.82    1.06
   0  -3  17    9.70    1.68
   0   3 -17    8.15    1.72
   0  -3  16    4.44    1.30
   0   3 -16    5.75    1.37
   0  -3  15   89.84    8.36
   0   3 -15   97.87    5.01
   0  -3  14  124.51    5.70
   0   3 -14  139.62    7.04
   0  -3  13 1261.89   25.60
   0   3 -13 1209.67   25.61
   0  -3  12   -5.44    1.32
   0   3 -12    0.06    1.40
   0  -3  11  958.49   22.03
   0   3 -11  891.44   21.05
   0  -3  10   65.49    2.98
   0   3 -10   74.71    3.29
   0  -3   9   79.45    2.76
   0   3  -9   80.02    2.87
   0  -3   8  326.84    9.81
   0   3  -8  307.52    9.31
   0  -3   7   44.56    2.85
   0   3  -7   45.78    2.11
   0  -3   6    9.83    1.99
   0  -3   6    7.81    0.46
   0   3  -6    6.90    1.37
   0  -3   5  574.01   11.01
   0  -3   5  555.47    9.36
   0   3  -5  520.34   10.23
   0  -3   4   66.11    2.37
   0  -3   4   60.13    1.71
   0   3  -4   56.69    2.28
   0  -3   3   71.53    2.45
   0  -3   3   70.32    1.99
   0  -3   2  282.43    4.72
   0  -3   2  273.69    3.99
   0  -3   2  278.88    4.95
   0  -3   1 2191.05   22.72
   0  -3   1 2191.77   22.64
   0  -3   1 2148.15   22.57
   0  -3   0  650.01    7.99
   0  -3   0  638.55    8.29
   0  -3   0  659.54    8.24
   0  -3  -1  505.77    6.18
   0  -3  -1  504.82    7.70
   0  -3  -1  511.35    7.03
   0   3   2    2.14    0.35
   0  -3  -2    3.88    1.05
   0  -3  -2    2.46    0.64
   0   3   3   51.99    1.69
   0  -3  -3   60.29    2.34
   0  -3  -3   61.23    2.20
   0   3   4  714.51   11.88
   0  -3  -4  797.33   14.08
   0   3   5  625.77   10.49
   0   3   5  638.20   11.97
   0  -3  -5  687.70   12.65
   0   3   6  473.65    8.16
   0   3   6  493.17    9.97
   0  -3  -6  536.96   10.29
   0   3   7  153.41    2.84
   0   3   7  168.34    9.01
   0  -3  -7  167.66    4.14
   0   3   8   15.74    0.86
   0   3   8   20.71    3.06
   0  -3  -8   21.31    4.03
   0   3   9   14.16    1.56
   0   3   9   15.45    2.57
   0  -3  -9   14.74    1.75
   0   3  10   45.72    4.14
   0   3  10   49.40    2.72
   0  -3 -10   49.98    2.50
   0   3  11    7.22    0.87
   0   3  11    7.81    1.39
   0  -3 -11    8.55    1.35
   0   3  12   15.82    1.66
   0   3  12   21.84    2.95
   0  -3 -12   18.48    2.02
   0   3  13    0.70    0.72
   0  -3 -13   -1.18    1.08
   0   3  14   66.00    4.96
   0  -3 -14   73.13    3.44
   0   3  15   58.82    5.33
   0  -3 -15   57.12    3.54
   0   3  16    3.15    0.74
   0  -3 -16    3.61    1.39
   0   3  17   39.14    7.73
   0  -3 -17   59.46    4.24
   0   3  18   15.27    3.39
   0  -3 -18   17.24    2.28
   0  -3 -19   16.44    2.61
   0  -3 -20    1.74    1.18
   0  -3 -21    2.99    1.42
   0  -3 -22    8.34    2.11
   0  -4  21   48.10    4.32
   0   4 -21   47.87    4.31
   0  -4  20   12.39    2.22
   0   4 -20   11.57    3.43
   0  -4  19   27.94    2.85
   0   4 -19   31.94    3.46
   0  -4  18    9.58    1.89
   0   4 -18    8.50    1.76
   0  -4  17    0.59    1.33
   0   4 -17    1.85    1.30
   0  -4  16   21.41    2.53
   0   4 -16   23.34    5.39
   0  -4  15   19.76    4.42
   0   4 -15   21.53    3.33
   0  -4  14   40.40    2.88
   0   4 -14   45.90    7.28
   0  -4  13    0.90    1.51
   0   4 -13    0.70    1.17
   0  -4  12  339.83    8.36
   0   4 -12  330.06    8.86
   0  -4  11  560.02   12.85
   0   4 -11  563.62   12.95
   0  -4  10   28.89    2.57
   0   4 -10   37.38    7.21
   0  -4   9  376.30    9.95
   0   4  -9  346.75    9.71
   0  -4   8    3.44    3.05
   0   4  -8    6.74    1.31
   0  -4   7  467.64   13.82
   0   4  -7  412.44   13.54
   0  -4   6   36.37    2.00
   0   4  -6   32.27    5.31
   0  -4   5   43.70    2.07
   0  -4   5   43.63    1.43
   0   4  -5   41.16    2.74
   0  -4   4   44.82    6.38
   0  -4   4   33.64    1.50
   0   4  -4   28.39    1.62
   0  -4   3   26.36    1.49
   0  -4   3   25.29    1.27
   0  -4   3   26.82    1.96
   0  -4   2   53.58    1.99
   0  -4   2   55.94    1.90
   0  -4   2   56.03    2.30
   0  -4   1  973.79   16.84
   0  -4   1  983.64   17.00
   0  -4   1  983.33   17.24
   0  -4   0  230.73    4.95
   0  -4   0  236.16    5.47
   0  -4  -1 1765.29   29.01
   0  -4  -1 1841.33   30.73
   0  -4  -1 1870.65   31.19
   0  -4  -2    0.01    1.62
   0   4   3  676.77    9.92
   0  -4  -3  782.67   12.14
   0   4   4  687.90    9.80
   0   4   4  707.17   12.35
   0  -4  -4  767.94   12.05
   0   4   5   19.14    1.15
   0   4   5   23.94    4.27
   0  -4  -5   21.11    1.53
   0   4   6    0.48    0.35
   0   4   6    0.58    0.50
   0  -4  -6    0.88    0.96
   0   4   7  128.64    7.63
   0  -4  -7  133.37    5.69
   0   4   8   12.38    1.69
   0  -4  -8   11.48    1.34
   0   4   9   27.52    4.72
   0  -4  -9   25.88    5.15
   0   4  10  176.11    8.72
   0  -4 -10  181.12    8.24
   0   4  11   55.70    7.04
   0  -4 -11   48.99    2.61
   0   4  12  195.34    8.55
   0  -4 -12  217.09    6.33
   0   4  13   -0.42    1.18
   0  -4 -13   -0.55    1.04
   0   4  14    4.16    0.82
   0  -4 -14    3.77    1.25
   0   4  15    0.79    0.78
   0  -4 -15    1.46    1.04
   0   4  16   19.80    3.22
   0  -4 -16   17.35    3.89
   0  -4 -17    0.45    0.69
   0   4  18    7.23    2.84
   0  -4 -18   11.22    2.68
   0   4  19    9.20    3.85
   0  -4 -19   11.57    2.83
   0  -4 -20   21.80    7.00
   0  -4 -21    3.71    1.40
   0  -5  20    1.22    1.34
   0   5 -20    0.30    1.25
   0  -5  19    2.53    1.27
   0   5 -19    4.52    2.01
   0  -5  18    3.00    1.51
   0   5 -18    5.54    1.43
   0  -5  17   58.35    4.44
   0   5 -17   68.36    4.96
   0  -5  16   46.31    3.79
   0   5 -16   37.62    8.88
   0  -5  15   19.62    2.27
   0   5 -15   26.07    4.80
   0  -5  14   75.74    4.59
   0   5 -14   71.16    9.45
   0  -5  13   37.66    2.88
   0   5 -13   37.20    6.01
   0  -5  12  151.20    9.95
   0   5 -12  162.39    6.61
   0  -5  11  151.27    9.05
   0   5 -11  153.02    6.73
   0  -5  10    4.22    1.80
   0   5 -10    5.47    1.07
   0  -5   9   22.57    1.94
   0   5  -9   23.63    2.86
   0  -5   8  169.86    5.00
   0   5  -8  139.90    7.72
   0  -5   7  230.08    5.38
   0   5  -7  197.73    5.65
   0  -5   6   23.64    2.02
   0   5  -6   18.10    2.76
   0   5  -6   24.40    4.01
   0  -5   5   38.81    2.22
   0   5  -5   29.05    4.83
   0   5  -5   39.24    4.84
   0  -5   4   60.09    7.78
   0   5  -4   47.93    2.32
   0  -5   3  153.75    3.85
   0  -5   3  156.83    4.11
   0  -5   2    5.42    0.90
   0  -5   2    5.03    1.05
   0  -5   1  503.98   14.05
   0  -5   1  488.31   14.78
   0  -5   0   16.73    1.58
   0  -5   0   17.11    1.75
   0  -5  -1  125.77    5.60
   0  -5  -1  131.81    4.73
   0   5   2   27.85    2.07
   0   5   2   30.75    5.33
   0  -5  -2   30.95    1.79
   0   5   3  127.28    2.80
   0   5   3  134.14    5.84
   0  -5  -3  156.23    4.08
   0   5   4  228.58    3.87
   0   5   4  248.61    6.00
   0  -5  -4  274.47    5.65
   0   5   5  313.94    8.74
   0  -5  -5  343.44    6.48
   0   5   6    1.92    0.66
   0  -5  -6    2.98    1.11
   0   5   7  688.83   17.79
   0  -5  -7  716.04   17.07
   0   5   8    2.30    0.63
   0  -5  -8    1.65    0.90
   0   5   9    2.03    0.64
   0  -5  -9    1.97    1.35
   0   5  10   10.89    1.64
   0  -5 -10   11.32    1.49
   0   5  11    2.14    0.90
   0  -5 -11    0.18    0.58
   0   5  12   10.89    1.59
   0  -5 -12    7.12    1.48
   0   5  13   19.77    3.19
   0  -5 -13   19.12    4.02
   0   5  14   70.55    8.81
   0  -5 -14   66.49    5.60
   0   5  15   40.85    7.14
   0  -5 -15   35.74    5.10
   0   5  16   -0.12    1.12
   0  -5 -16    1.29    0.67
   0   5  17   53.01    9.58
   0  -5 -17   44.97    5.63
   0   5  18   -0.17    1.10
   0  -5 -18    0.56    0.89
   0  -5 -19    1.37    1.21
   0  -5 -20    5.21    1.67
   0  -6  19    4.83    1.57
   0  -6  18    1.75    1.32
   0   6 -18   -0.85    1.27
   0  -6  17    5.93    1.54
   0   6 -17    4.68    0.98
   0  -6  16   30.08    2.89
   0   6 -16   31.51    5.85
   0  -6  15    1.76    1.41
   0   6 -15    2.27    1.08
   0  -6  14   96.92    4.57
   0   6 -14   88.85    7.79
   0  -6  13   44.02    3.11
   0   6 -13   46.54    4.96
   0  -6  12   82.97    4.66
   0   6 -12   85.59    4.81
   0  -6  11    5.88    2.01
   0   6 -11    6.25    1.51
   0  -6  10  134.62    5.07
   0   6 -10  122.14    4.77
   0  -6   9   38.81    2.64
   0   6  -9   34.06    7.28
   0  -6   8  219.49   12.00
   0   6  -8  206.02    8.88
   0  -6   7  109.02    4.72
   0   6  -7  109.07    5.24
   0  -6   6   -0.18    0.74
   0   6  -6    1.03    0.56
   0  -6   5   80.80    9.54
   0   6  -5   64.66    2.86
   0   6  -5   69.22   10.40
   0  -6   4    4.70    1.10
   0   6  -4    5.22    1.24
   0   6  -4    5.45    0.81
   0  -6   3   13.34    1.96
   0   6  -3    9.93    1.99
   0  -6   3   10.99    1.40
   0  -6   2    1.50    0.70
   0   6  -2    1.61    0.37
   0  -6   2    2.50    1.31
   0  -6   1    4.59    0.88
   0   6  -1    5.16    1.58
   0  -6   1    6.67    1.31
   0  -6  -1    2.11    1.08
   0   6   1   -1.05    0.68
   0  -6  -1    1.15    0.89
   0   6   2   18.56    3.22
   0   6   2   24.77    4.71
   0  -6  -2   23.97    2.16
   0   6   3   67.75    6.06
   0   6   3   81.68    5.13
   0  -6  -3   86.25    6.18
   0   6   4   40.19    5.22
   0  -6  -4   46.78    6.12
   0   6   5   44.44    5.70
   0  -6  -5   44.19    2.42
   0   6   6   27.05    4.15
   0  -6  -6   24.29    2.02
   0   6   7   35.94    6.38
   0  -6  -7   34.20    2.48
   0   6   8    4.03    1.04
   0  -6  -8    3.98    1.19
   0   6   9    4.96    1.66
   0  -6  -9    6.54    1.32
   0   6  10    2.33    0.74
   0  -6 -10   -0.38    0.88
   0   6  11   22.76    2.57
   0  -6 -11   20.38    1.88
   0   6  12   81.16   10.67
   0  -6 -12   74.90    4.25
   0   6  13  107.41   11.16
   0  -6 -13  100.53    4.82
   0   6  14    4.83    3.45
   0  -6 -14    6.98    1.47
   0   6  15    2.25    0.81
   0  -6 -15    4.64    1.44
   0   6  16    1.31    0.90
   0  -6 -16    0.91    1.97
   0   6  17    0.67    0.71
   0  -6 -17    3.60    1.54
   0   6  18    4.29    2.11
   0  -6 -18    7.98    1.70
   0  -7  17   16.31    6.60
   0  -7  16    3.96    2.05
   0   7 -16    0.97    0.92
   0  -7  15   12.23    2.15
   0   7 -15   10.18    1.92
   0  -7  14    5.94    1.86
   0   7 -14    6.99    1.60
   0  -7  13   -0.38    1.20
   0   7 -13    2.80    1.44
   0  -7  12   36.01    3.03
   0   7 -12   27.70    6.24
   0  -7  11   43.44    9.74
   0   7 -11   42.75   10.06
   0  -7  10  102.85    9.19
   0   7 -10   90.36   13.42
   0  -7   9   94.97    4.61
   0   7  -9   92.96    4.82
   0  -7   8   31.70    2.82
   0   7  -8   30.53    5.66
   0  -7   7   56.23    3.65
   0   7  -7   50.94    8.54
   0  -7   6  163.99    5.55
   0   7  -6  137.12    5.53
   0  -7   5   40.23    2.57
   0   7  -5   33.83    4.93
   0  -7   4    4.59    1.11
   0   7  -4    2.89    0.64
   0   7  -4    4.72    1.13
   0  -7   3   17.62    1.84
   0   7  -3   14.03    3.27
   0  -7   2   24.73    1.94
   0   7  -2   18.72    2.83
   0  -7   2   21.85    2.07
   0  -7   1   12.70    1.32
   0   7  -1    9.36    2.65
   0  -7   1   13.27    1.68
   0  -7   0  121.40    5.13
   0   7   0  114.33    6.15
   0  -7   0  130.57    6.14
   0   7   1    6.31    1.34
   0   7   1    8.26    1.78
   0  -7  -1    9.07    1.58
   0   7   2   71.58   11.33
   0  -7  -2   82.35    4.38
   0   7   3   11.43    2.25
   0  -7  -3   14.70    2.53
   0   7   4   75.85   10.20
   0  -7  -4   79.66    3.92
   0   7   5   76.50    5.32
   0  -7  -5   78.82    4.11
   0   7   6   36.46    7.01
   0  -7  -6   39.77    6.61
   0   7   7   37.79    6.30
   0  -7  -7   40.48    3.12
   0   7   8    4.10    0.97
   0  -7  -8    2.65    1.12
   0   7   9   33.42    5.28
   0  -7  -9   40.98    3.28
   0   7  10    2.86    0.89
   0  -7 -10    2.97    0.90
   0   7  11   12.17    2.62
   0  -7 -11    9.35    1.39
   0   7  12    0.79    1.52
   0  -7 -12    0.60    1.05
   0   7  13    9.32    1.62
   0  -7 -13   11.32    1.79
   0   7  14   42.14    6.09
   0  -7 -14   36.23    3.01
   0   7  15    2.55    0.91
   0  -7 -15    2.07    1.25
   0   7  16    1.32    1.00
   0   7  17    1.47    1.05
   0  -8  14   10.33    3.15
   0  -8  13    5.95    1.69
   0  -8  12    0.61    1.18
   0   8 -12    3.00    1.71
   0  -8  11    3.66    1.88
   0   8 -11    0.57    0.70
   0  -8  10    0.78    1.17
   0   8 -10    0.21    0.64
   0  -8   9    0.82    1.09
   0   8  -9    0.89    0.93
   0  -8   8    2.79    1.46
   0   8  -8   -0.20    1.00
   0  -8   7   99.60    4.23
   0   8  -7   76.54   15.73
   0  -8   6   48.02    3.26
   0   8  -6   39.42    7.62
   0  -8   5    3.84    0.96
   0   8  -5    2.94    1.06
   0  -8   4    4.63    1.04
   0   8  -4    3.15    0.77
   0  -8   3    1.02    0.82
   0  -8   2    3.18    0.79
   0   8  -2    2.78    0.59
   0  -8   2    4.70    1.24
   0   8  -1    6.27    1.00
   0  -8   1    9.91    1.71
   0   8   0   97.51    8.13
   0  -8   0  107.23    5.55
   0   8   1  123.54    8.16
   0  -8  -1  142.22    6.36
   0   8   2    2.52    0.78
   0  -8  -2    7.04    1.41
   0   8   3   12.43    2.10
   0  -8  -3   14.71    2.21
   0   8   4   35.86    7.46
   0   8   5    1.56    0.61
   0   8   6   22.18    4.99
   0  -8  -6   23.01    2.29
   0   8   7    1.29    1.10
   0  -8  -7    4.46    1.55
   0   8   8   21.34    4.70
   0  -8  -8   20.87    4.72
   0   8   9    1.29    0.55
   0  -8  -9    1.78    1.58
   0   8  10    1.20    0.62
   0  -8 -10    3.60    1.85
   0   8  11    1.24    0.73
   0  -8 -11    4.28    1.89
   0   8  12   32.10    7.46
   0   8  13   -0.83    1.41
   0   8  14   45.86    9.71
   0   8  15    1.78    1.10
   0   9  -5   14.42    2.64
   0   9  -4   14.36    3.02
   0   9  -3    3.89    1.11
   0   9  -2   -0.03    0.82
   0  -9   1    1.17    0.98
   0  -9   0   27.26    2.36
   0   9   1   -0.24    0.83
   0  -9  -1   -0.08    0.86
   0   9   2    1.57    0.89
   0  -9  -2    0.07    0.62
   0   9   3    8.52    1.70
   0  -9  -3    6.00    1.38
   0   9   4    3.02    1.00
   0  -9  -4    3.40    1.57
   0   9   5   12.39    2.73
   0   9   6    6.15    1.70
   0  -9  -6    5.40    1.56
   0   9   7   11.52    3.28
   0   9   8   13.86    3.64
   0   9   9    5.67    1.27
   0   9  10    2.23    1.31
   0   9  11    1.16    1.03
   0   9  12    1.02    0.79
  -1   9  11    3.54    1.13
  -1   9  10    4.97    1.95
  -1   9   9    9.82    2.78
  -1   9   8    5.39    1.89
  -1   9   7   11.39    2.82
   1  -9  -7   18.22    2.58
  -1   9   6  148.53    9.00
   1  -9  -6  156.05    8.40
  -1   9   5    8.77    2.40
   1  -9  -5   12.30    2.10
  -1   9   4    2.36    0.99
   1  -9  -4    8.05    1.61
  -1   9   3    1.08    0.70
   1  -9  -3    0.79    1.24
  -1   9   2    0.94    0.92
   1  -9  -2    4.32    1.49
   1  -9  -1   10.41    2.52
   1  -9   0    0.30    1.06
   1  -9   1   32.84    3.13
  -1   9  -3   -0.33    1.03
  -1   9  -4    1.70    0.82
  -1   9  -5    2.32    0.95
  -1   9  -6   12.00    2.84
  -1   9  -7   27.34    7.26
  -1   9  -8    5.52    1.50
  -1   8  14   13.97    4.97
  -1   8  13    2.13    1.47
  -1   8  12    1.40    1.09
   1  -8 -12    0.73    1.07
  -1   8  11    1.05    0.71
   1  -8 -11    2.92    1.86
  -1   8  10    2.03    0.97
   1  -8 -10    2.97    1.55
  -1   8   9    2.20    1.01
   1  -8  -9    2.97    1.99
  -1   8   8   34.98    5.19
   1  -8  -8   35.09    8.37
  -1   8   7    9.89    1.95
   1  -8  -7   11.06    2.04
  -1   8   6    2.43    1.07
   1  -8  -6    1.63    1.38
  -1   8   5   -0.51    1.15
   1  -8  -5    1.41    1.02
  -1   8   4   48.69    8.38
  -1   8   3    0.77    0.62
  -1   8   2   86.84   10.07
   1  -8  -2  109.82    5.35
  -1   8   1    9.83    1.99
   1  -8  -1   11.86    1.73
  -1   8   0    3.28    0.80
   1  -8   0    4.13    0.94
  -1   8  -1    8.48    2.48
   1  -8   1   15.43    2.17
   1  -8   2   14.83    1.89
   1  -8   4    1.88    0.85
  -1   8  -4    0.90    1.15
   1  -8   5   54.30    2.87
  -1   8  -5   46.97   11.43
   1  -8   6  183.88    5.45
  -1   8  -6  159.60   10.07
   1  -8   7    4.94    1.35
  -1   8  -7    6.24    1.38
   1  -8   8   21.53    2.48
  -1   8  -8   19.79    3.31
   1  -8   9   24.46    2.43
  -1   8  -9   19.99    5.16
   1  -8  10   25.75    6.52
  -1   8 -10   28.05    6.51
   1  -8  11   39.93    8.10
  -1   8 -11   51.08   11.51
   1  -8  12    0.80    0.75
  -1   8 -12    0.03    0.70
   1  -8  13    8.45    2.45
  -1   8 -13    7.92    2.15
  -1   7  16    1.69    2.10
  -1   7  15    3.79    1.38
   1  -7 -15    4.35    1.59
  -1   7  14   24.37    5.48
   1  -7 -14   43.18    4.02
  -1   7  13    1.30    0.60
   1  -7 -13    1.13    1.26
  -1   7  12    7.53    1.58
   1  -7 -12    6.37    1.89
  -1   7  11   10.47    1.64
   1  -7 -11   13.49    2.28
  -1   7  10    2.27    0.86
   1  -7 -10    3.08    1.39
  -1   7   9   23.19    3.20
   1  -7  -9   21.79    2.52
  -1   7   8   10.21    2.30
   1  -7  -8   11.40    1.94
  -1   7   7   49.16    8.61
   1  -7  -7   52.11    3.78
  -1   7   6   40.07    7.07
   1  -7  -6   40.13    7.95
  -1   7   5   28.48    4.37
   1  -7  -5   30.31    2.67
  -1   7   4    1.19    1.16
   1  -7  -4    1.12    1.01
  -1   7   3    1.81    0.64
   1  -7  -3    0.61    0.98
  -1   7   2    6.03    1.65
   1  -7  -2    7.56    1.59
  -1   7   1    7.68    1.39
   1  -7  -1   11.03    2.80
  -1   7   0   68.83   10.81
   1  -7   0   82.98    5.23
   1  -7   1   10.10    1.23
  -1   7  -1   10.71    2.06
   1  -7   1   14.13    1.73
   1  -7   2    7.09    0.98
  -1   7  -2    5.89    1.09
   1  -7   2    9.62    1.78
   1  -7   3   23.55    1.77
  -1   7  -3   19.86    4.01
   1  -7   3   28.08    2.40
   1  -7   4   77.51    3.24
   1  -7   5    5.98    1.74
  -1   7  -5    5.75    1.45
   1  -7   6    3.72    1.04
  -1   7  -6    2.75    0.97
   1  -7   7    5.53    1.04
  -1   7  -7    3.59    1.09
   1  -7   8   28.94    6.35
  -1   7  -8   31.41    5.43
   1  -7   9   94.06    5.01
  -1   7  -9   83.85   12.73
   1  -7  10   50.65    3.09
  -1   7 -10   44.24    9.11
   1  -7  11   13.72    1.79
  -1   7 -11   12.39    1.65
   1  -7  12  138.52    7.79
  -1   7 -12  126.11   14.08
   1  -7  13   47.16    3.34
  -1   7 -13   39.20    9.21
   1  -7  14    2.64    1.24
  -1   7 -14    3.50    1.89
   1  -7  15    0.45    1.19
  -1   7 -15    1.92    1.90
   1  -7  16   -0.05    1.39
  -1   7 -16    0.72    1.00
   1  -6 -18    0.49    1.21
  -1   6  17    0.74    1.22
   1  -6 -17    1.34    1.51
  -1   6  16    1.45    0.98
   1  -6 -16    3.39    1.61
  -1   6  15    1.61    0.95
   1  -6 -15    1.49    1.21
  -1   6  14   31.82    8.31
   1  -6 -14   42.99    3.13
  -1   6  13   33.59    7.15
   1  -6 -13   32.50    3.51
  -1   6  12    1.27    1.27
   1  -6 -12    1.28    1.27
  -1   6  11   50.70    7.00
   1  -6 -11   38.89    3.20
  -1   6  10   49.47   10.70
   1  -6 -10   61.83    4.21
  -1   6   9  108.84    6.43
   1  -6  -9  112.62    4.29
  -1   6   8    0.86    0.89
   1  -6  -8    1.55    1.16
  -1   6   7   34.32    6.31
   1  -6  -7   35.05    2.38
  -1   6   6    8.86    2.30
   1  -6  -6    8.16    1.40
  -1   6   5    7.77    1.20
   1  -6  -5    6.66    1.40
  -1   6   4    0.32    0.50
   1  -6  -4    1.01    0.47
  -1   6   3   12.85    2.57
   1  -6  -3   10.96    1.88
  -1   6   2   17.78    2.97
   1  -6  -2   18.77    2.15
   1  -6  -1  126.10    3.56
  -1   6   1  129.60    4.43
   1  -6  -1  140.33    4.87
   1  -6   0  282.36    6.63
  -1   6   0  262.40   10.33
   1  -6   0  302.59   11.14
   1  -6   1   19.53    1.52
  -1   6  -1   17.14    3.52
   1  -6   1   19.12    1.82
   1  -6   2   10.14    1.52
  -1   6  -2    8.55    1.57
   1  -6   2   13.73    2.55
   1  -6   3   13.38    1.41
  -1   6  -3   14.62    2.57
   1  -6   3   14.49    1.86
   1  -6   4    3.06    0.69
  -1   6  -4    1.50    0.53
   1  -6   4    4.76    1.47
   1  -6   5  142.43    4.48
  -1   6  -5  118.49    5.87
   1  -6   6    2.70    0.99
  -1   6  -6    3.55    0.91
   1  -6   7    4.47    1.38
  -1   6  -7    3.66    0.81
   1  -6   8    6.20    1.31
  -1   6  -8    8.16    1.24
   1  -6   9    1.08    1.04
  -1   6  -9   -0.40    0.93
   1  -6  10   27.44    2.32
  -1   6 -10   23.79    4.61
   1  -6  11    8.86    1.60
  -1   6 -11   10.83    2.40
   1  -6  12  115.30    5.44
  -1   6 -12  107.50    5.81
   1  -6  13   60.80    3.59
  -1   6 -13   59.78   10.06
   1  -6  14   22.48    4.50
  -1   6 -14   22.03    5.25
   1  -6  15   -0.77    1.18
  -1   6 -15    1.91    0.82
   1  -6  16   18.91    2.70
  -1   6 -16   18.05    2.55
   1  -6  17   22.69    3.24
  -1   6 -17   15.94    3.08
   1  -6  18   72.21    5.27
  -1   6 -18   52.43   14.29
   1  -5 -20    2.46    1.33
   1  -5 -19    2.84    1.20
  -1   5  18    0.12    1.16
   1  -5 -18    0.94    0.85
  -1   5  17   13.86    4.12
   1  -5 -17   18.47    4.13
  -1   5  16    4.40    2.35
   1  -5 -16    7.19    1.84
  -1   5  15    2.10    1.16
   1  -5 -15    0.48    1.19
  -1   5  14   16.81    3.95
   1  -5 -14   17.23    2.12
  -1   5  13   12.53    2.11
   1  -5 -13    9.66    1.77
  -1   5  12    6.47    0.96
   1  -5 -12    6.19    1.52
  -1   5  11   13.50    2.67
   1  -5 -11    9.33    1.54
  -1   5  10    0.32    0.51
   1  -5 -10    1.54    1.09
  -1   5   9   29.78    4.39
   1  -5  -9   34.50    2.56
  -1   5   8   97.06    6.73
   1  -5  -8  105.57    4.24
  -1   5   7   96.75    6.84
   1  -5  -7  113.95   11.37
  -1   5   6  130.48    7.98
   1  -5  -6  155.59    4.45
  -1   5   5  286.44    9.43
   1  -5  -5  306.64    8.58
  -1   5   4   12.45    2.21
   1  -5  -4   11.77    1.39
  -1   5   3  188.83    4.75
   1  -5  -3  184.40    6.72
   1  -5  -2    6.26    0.72
  -1   5   2    5.19    1.28
   1  -5  -2    7.11    1.16
   1  -5  -1   21.10    1.13
  -1   5   1   21.48    3.32
   1  -5  -1   20.59    1.79
   1  -5   0  195.08    4.24
  -1   5   0  192.21    5.87
   1  -5   0  199.36    7.39
   1  -5   1   64.83    2.90
  -1   5  -1   63.68    3.63
   1  -5   1   66.75    3.02
   1  -5   2    0.14    0.52
  -1   5  -2   -0.21    0.52
   1  -5   2    0.68    0.41
   1  -5   3   13.88    2.59
  -1   5  -3   13.31    2.58
   1  -5   3   17.34    1.63
   1  -5   4  118.55    4.34
  -1   5  -4  111.19    3.47
   1  -5   4  126.46    4.78
   1  -5   5 1625.27   36.14
  -1   5  -5 1404.94   30.61
  -1   5  -5 1394.51   31.41
   1  -5   6   29.96    4.55
  -1   5  -6   28.84    4.42
   1  -5   7    1.41    0.69
  -1   5  -7    0.98    0.88
   1  -5   8    0.58    1.29
  -1   5  -8   -0.56    0.98
   1  -5   9   24.13    4.91
  -1   5  -9   22.06    3.45
   1  -5  10   10.06    2.19
  -1   5 -10    8.14    2.12
   1  -5  11   14.80    3.22
  -1   5 -11   12.38    2.24
   1  -5  12   45.10    9.23
  -1   5 -12   44.23    5.74
   1  -5  13  142.27    9.23
  -1   5 -13  136.82    7.09
   1  -5  14    4.04    1.31
  -1   5 -14    8.81    1.72
   1  -5  15    3.26    1.23
  -1   5 -15    2.51    1.30
   1  -5  16   41.31    3.35
  -1   5 -16   32.11    3.15
   1  -5  17   21.55    4.12
  -1   5 -17   19.26    2.49
   1  -5  18    4.39    1.57
  -1   5 -18    1.65    1.42
   1  -5  19    1.41    1.32
  -1   5 -19    3.87    1.45
   1  -5  20    0.30    0.78
  -1   5 -20   -0.53    1.25
   1  -4 -21    7.13    2.48
   1  -4 -20    7.95    2.07
   1  -4 -19    0.86    1.36
  -1   4  18    1.77    1.24
   1  -4 -18    0.49    1.20
  -1   4  17    1.98    1.16
   1  -4 -17    0.28    1.19
  -1   4  16   16.59    3.26
   1  -4 -16   14.45    2.05
  -1   4  15    6.98    2.17
   1  -4 -15    7.47    1.93
  -1   4  14    5.31    1.00
   1  -4 -14    4.26    1.59
  -1   4  13  231.19    8.39
   1  -4 -13  251.44    8.99
  -1   4  12    1.10    0.94
   1  -4 -12    0.48    0.73
  -1   4  11    0.61    1.00
   1  -4 -11    3.04    1.36
  -1   4  10    6.13    1.14
   1  -4 -10    6.03    1.39
  -1   4   9  107.13    5.67
   1  -4  -9  113.91    4.47
  -1   4   8   32.88    5.44
   1  -4  -8   26.84    2.00
  -1   4   7    5.92    0.92
   1  -4  -7    5.73    1.07
  -1   4   6   38.56    6.54
   1  -4  -6   33.15    1.92
  -1   4   5   45.92    7.34
   1  -4  -5   42.27    2.23
  -1   4   4   -0.48    0.86
   1  -4  -4    0.79    0.72
  -1   4   3   71.37    3.53
  -1   4   3   81.40    3.50
   1  -4  -3   92.59    3.09
   1  -4  -2  135.65    2.65
   1  -4  -2  140.56    3.89
   1  -4  -1 1338.72   18.15
  -1   4   1 1269.97   20.59
   1  -4  -1 1405.80   20.58
   1  -4   0  406.27    6.97
  -1   4   0  362.58    7.27
   1  -4   0  419.24    9.39
   1  -4   1    8.63    0.90
  -1   4  -1    7.97    1.23
   1  -4   1    7.32    1.06
   1  -4   2    7.89    1.49
  -1   4  -2    8.24    1.57
   1  -4   2    5.86    0.95
   1  -4   3    6.29    1.29
  -1   4  -3    3.90    0.62
   1  -4   3    4.76    0.92
   1  -4   4    6.15    0.80
  -1   4  -4    6.31    1.01
   1  -4   4    6.73    1.01
   1  -4   5  887.41   23.95
  -1   4  -5  765.03   20.08
  -1   4  -5  772.26   21.85
   1  -4   6   -0.12    0.90
  -1   4  -6    0.78    0.23
  -1   4  -6    0.93    0.94
   1  -4   7   -3.05   10.14
  -1   4  -7   -0.22    0.81
   1  -4   8 1263.73   16.05
  -1   4  -8 1152.81   16.98
   1  -4   9 1042.67   23.79
  -1   4  -9 1024.89   24.11
   1  -4  10   67.75    4.10
  -1   4 -10   65.49    5.90
   1  -4  11    7.48    1.63
  -1   4 -11    7.70    1.36
   1  -4  12    5.17    1.28
  -1   4 -12    7.09    2.02
   1  -4  13   15.60    1.91
  -1   4 -13   17.41    2.21
   1  -4  14    2.83    1.58
  -1   4 -14   -0.94    1.00
   1  -4  15   13.97    1.83
  -1   4 -15    9.27    1.71
   1  -4  16    5.21    1.55
  -1   4 -16    6.81    1.77
   1  -4  17    4.82    1.20
  -1   4 -17    4.15    1.35
   1  -4  18   23.33    5.87
  -1   4 -18   29.57    7.40
   1  -4  19  142.37    6.31
  -1   4 -19  139.32    6.24
   1  -4  20   88.97    5.85
  -1   4 -20   95.32    6.39
   1  -4  21    4.58    1.61
  -1   4 -21    7.22    2.34
   1  -3 -22   26.93    7.99
   1  -3 -21   11.15    2.19
   1  -3 -20    1.20    1.33
   1  -3 -19   18.70    2.43
  -1   3  18   11.93    2.24
   1  -3 -18   19.55    2.38
  -1   3  17    5.85    1.35
   1  -3 -17    7.12    1.71
  -1   3  16   25.84    2.32
   1  -3 -16   26.36    2.58
  -1   3  15   14.00    2.89
   1  -3 -15   10.39    1.58
  -1   3  14   84.91    5.84
   1  -3 -14   85.34    4.56
  -1   3  13  102.98    6.33
   1  -3 -13  105.72    4.57
  -1   3  12  188.03   10.07
   1  -3 -12  179.26    5.83
  -1   3  11  373.40   10.13
   1  -3 -11  389.71    7.25
  -1   3  10   43.89    3.31
   1  -3 -10   39.30    2.67
  -1   3   9    0.00    0.92
   1  -3  -9   -0.38    0.97
  -1   3   8  639.66   17.90
   1  -3  -8  682.84   19.03
  -1   3   7  153.59    4.61
   1  -3  -7  160.61    4.59
  -1   3   6   52.61    2.68
   1  -3  -6   57.83    2.28
  -1   3   5    5.99    1.22
   1  -3  -5    4.75    0.83
  -1   3   4   28.55    1.99
   1  -3  -4   32.91    1.66
  -1   3   3    5.52    0.69
  -1   3   3    7.03    1.18
   1  -3  -3    6.62    0.86
  -1   3   2    5.60    1.34
   1  -3  -2    6.38    0.79
   1  -3  -1  230.27    4.69
  -1   3   1  224.05    5.29
   1  -3  -1  252.11    5.50
   1  -3   0  483.54    8.47
  -1   3   0  466.18    8.91
   1  -3   0  513.37    9.68
   1  -3   1  407.01    7.45
  -1   3  -1  374.32    7.05
   1  -3   1  415.40    8.11
   1  -3   2  225.14    4.73
  -1   3  -2  210.84    4.63
   1  -3   2  234.10    5.44
   1  -3   3 1040.89   17.82
  -1   3  -3  937.89   15.69
   1  -3   3 1027.12   17.91
   1  -3   4    4.80    1.67
  -1   3  -4    3.98    0.71
   1  -3   5 1392.63   23.68
  -1   3  -5 1262.96   22.43
   1  -3   6  565.70    9.95
  -1   3  -6  549.45    9.59
   1  -3   7  423.11    7.89
  -1   3  -7  407.08    7.74
   1  -3   8    2.37    1.05
  -1   3  -8    3.15    0.79
   1  -3   9   68.28    2.79
  -1   3  -9   61.79    7.89
   1  -3  10   82.71    3.47
  -1   3 -10   79.22    3.26
   1  -3  11   27.22    5.25
  -1   3 -11   19.83    1.95
   1  -3  12  863.86   11.89
  -1   3 -12  822.57   11.62
   1  -3  13 1160.46   21.06
  -1   3 -13 1129.75   20.47
   1  -3  14    7.29    1.55
  -1   3 -14   12.86    2.41
   1  -3  15    1.45    1.25
  -1   3 -15    2.16    1.29
   1  -3  16   30.44    2.62
  -1   3 -16   28.27    3.94
   1  -3  17   -0.30    1.24
  -1   3 -17    0.61    1.01
   1  -3  18    2.71    1.12
  -1   3 -18    5.34    2.12
   1  -3  19   15.86    3.12
  -1   3 -19   20.99    4.35
   1  -3  20   26.09    6.78
  -1   3 -20   21.01    6.39
   1  -3  21    9.09    2.12
  -1   3 -21   13.39    2.64
  -1   3 -22   13.57    2.42
   1  -2 -23   -1.20    1.33
   1  -2 -22   -0.38    1.14
   1  -2 -21   30.40    3.26
   1  -2 -20   15.72    2.25
   1  -2 -19   -0.94    1.22
  -1   2  18   24.15    2.16
   1  -2 -18   29.62    6.72
  -1   2  17   38.27    6.89
   1  -2 -17   48.46    9.72
  -1   2  16    2.17    0.83
   1  -2 -16    2.57    1.28
  -1   2  15   41.82    2.59
   1  -2 -15   36.77    2.58
  -1   2  14   10.75    1.51
   1  -2 -14   11.53    1.68
  -1   2  13   83.54    5.11
   1  -2 -13   97.13    4.11
  -1   2  12   51.51    5.14
  -1   2  12   58.18    4.99
   1  -2 -12   69.93    2.98
  -1   2  11   66.50    2.13
  -1   2  11   81.57    3.92
   1  -2 -11   83.38    3.47
  -1   2  10  699.23   18.39
  -1   2  10  728.90   20.11
   1  -2 -10  755.70   21.73
  -1   2   9   13.06    2.00
   1  -2  -9   11.77    2.56
  -1   2   8 3265.73  198.04
  -1   2   8 3551.10  215.90
   1  -2  -8 3749.44  227.79
  -1   2   7 1443.18   26.42
   1  -2  -7 1561.14   26.69
  -1   2   6  951.55   15.22
  -1   2   6  972.30   17.18
   1  -2  -6 1018.06   17.75
  -1   2   5    6.65    1.55
   1  -2  -5    8.09    0.97
  -1   2   4   40.11    2.28
   1  -2  -4   44.90    2.25
  -1   2   3  140.32    4.72
   1  -2  -3  155.80    5.07
   1  -2  -2  321.04    3.42
  -1   2   2  309.88    4.86
   1  -2  -2  338.05    4.96
   1  -2  -1   83.92    2.60
  -1   2   1   78.26    2.88
   1  -2  -1   92.15    3.21
   1  -2   0 1741.06   17.55
  -1   2   0 1676.66   17.54
   1  -2   0 1784.56   19.11
   1  -2   1  830.73    9.15
  -1   2  -1  823.28    9.18
   1  -2   1  849.32   10.20
   1  -2   2  114.47    3.74
  -1   2  -2  109.92    3.49
   1  -2   2  115.79    3.89
   1  -2   3   65.31    2.56
  -1   2  -3   57.73    1.94
   1  -2   3   59.69    2.37
   1  -2   4    4.61    0.66
  -1   2  -4    5.38    0.61
   1  -2   5    5.22    1.07
  -1   2  -5    6.93    0.70
  -1   2  -5    8.76    1.74
   1  -2   6 1972.55   33.73
  -1   2  -6 1772.22   29.70
   1  -2   7  109.47    3.70
  -1   2  -7  117.84    3.79
   1  -2   8  327.41    6.47
  -1   2  -8  303.82    6.18
   1  -2   9   19.00    1.82
  -1   2  -9   20.59    4.39
   1  -2  10   12.51    1.59
  -1   2 -10   10.28    1.36
   1  -2  12   36.41    2.20
  -1   2 -12   33.93    2.15
   1  -2  13   12.56    1.96
  -1   2 -13   10.32    1.59
   1  -2  14    2.35    1.57
  -1   2 -14    0.91    1.09
   1  -2  15    1.88    0.89
  -1   2 -15    3.05    1.63
   1  -2  16   11.50    1.56
  -1   2 -16    7.25    1.91
   1  -2  17  427.69   18.03
  -1   2 -17  443.01    8.67
   1  -2  18   72.33    4.00
  -1   2 -18   69.33    4.37
   1  -2  19   38.77    3.35
  -1   2 -19   41.17    3.30
   1  -2  20   75.88    5.18
  -1   2 -20   73.83    5.45
   1  -2  21   12.51    3.23
  -1   2 -21   18.56    2.84
  -1   2 -23   -0.31    1.33
   1  -1 -23    0.53    1.29
   1  -1 -22    1.15    1.31
   1  -1 -21    7.23    2.07
   1  -1 -20    3.13    1.50
   1  -1 -19    2.60    1.40
   1  -1 -18   13.67    2.16
  -1   1  17   10.54    1.70
   1  -1 -17   15.16    2.20
  -1   1  16   13.08    1.35
  -1   1  16   11.22    2.84
   1  -1 -16   17.33    2.07
  -1   1  15    6.62    1.18
  -1   1  15    5.83    1.04
   1  -1 -15    5.72    1.47
  -1   1  14    1.18    0.48
  -1   1  14    1.73    0.94
   1  -1 -14    1.75    0.67
  -1   1  13    3.57    0.61
  -1   1  13    3.46    0.63
   1  -1 -13    4.28    1.22
  -1   1  12    3.67    0.87
  -1   1  12    6.02    1.45
   1  -1 -12    4.28    1.13
  -1   1  11  139.22    3.08
  -1   1  11  141.41    3.66
   1  -1 -11  148.67    4.16
  -1   1  10   13.55    1.26
  -1   1  10   14.11    1.61
   1  -1 -10   13.31    1.62
  -1   1   9    0.51    0.41
   1  -1  -9    0.09    0.88
  -1   1   8  274.91    5.30
  -1   1   8  279.63    8.81
   1  -1  -8  296.05    7.63
  -1   1   7  456.11    8.05
  -1   1   7  438.71   12.76
   1  -1  -7  503.80    9.71
  -1   1   6 4248.70   41.71
  -1   1   6 4261.59   42.85
   1  -1  -6 4405.94   44.52
  -1   1   5   59.10    1.97
   1  -1  -5   66.69    2.70
  -1   1   4 3969.79   38.32
  -1   1   4 3824.75   38.82
   1  -1  -4 4132.92   41.23
   1  -1  -3 9999.98  186.29
  -1   1   2 4092.53   41.77
   1  -1  -2 4280.49   42.13
   1  -1  -1    4.28    0.50
  -1   1   1    4.26    1.33
   1  -1  -1    3.26    0.39
   1  -1   0   48.75    1.63
  -1   1   0   49.29    1.79
   1  -1   0   52.12    1.88
   1  -1   1  281.69    3.61
  -1   1  -1  262.43    3.33
   1  -1   1  265.23    3.69
   1  -1   2  373.65    4.77
  -1   1  -2  346.97    4.00
   1  -1   2  363.44    4.66
   1  -1   3  486.62    6.10
  -1   1  -3  482.35    5.11
  -1   1  -3  447.31    5.63
   1  -1   4 5658.44  105.78
  -1   1  -4 4930.68   48.80
   1  -1   5  241.75    4.14
  -1   1  -5  239.36    2.58
  -1   1  -5  216.48    4.03
   1  -1   6 3433.53   35.10
  -1   1  -6 3098.50   31.95
   1  -1   7   77.65    2.72
   1  -1   7   65.44    1.42
  -1   1  -7   72.63    2.54
   1  -1   8  563.98   10.71
  -1   1  -8  525.46   10.05
   1  -1   9   83.74    2.98
  -1   1  -9   79.59    2.69
   1  -1  10  131.84    3.77
  -1   1 -10  124.81    3.67
   1  -1  11    1.31    1.17
  -1   1 -11    0.55    0.59
   1  -1  12  934.01   12.99
  -1   1 -12  872.75   14.79
   1  -1  13   50.39    2.56
  -1   1 -13   54.59    7.62
   1  -1  14    3.93    1.25
  -1   1 -14    3.28    1.00
   1  -1  15  121.00    5.87
  -1   1 -15  121.14    4.69
   1  -1  16   18.68    1.70
  -1   1 -16   22.38    3.84
   1  -1  17   60.12    3.31
  -1   1 -17   57.93    3.46
   1  -1  18    1.42    1.36
  -1   1 -18    1.38    1.23
   1  -1  19    7.86    2.29
  -1   1 -19    5.53    1.37
   1  -1  20    1.11    1.24
  -1   1 -20    0.13    1.24
   1  -1  21    6.46    1.51
  -1   1 -21    5.86    1.80
  -1   1 -22    0.40    1.28
  -1   1 -23    0.39    0.79
   1   0 -23   60.11    5.20
   1   0 -22   44.77    3.98
   1   0 -21   59.29    4.46
   1   0 -20   85.56    5.83
   1   0 -19    9.76    2.13
  -1   0  18    2.48    0.92
   1   0 -18    4.46    1.51
  -1   0  17    2.22    1.06
   1   0 -17    2.62    1.06
  -1   0  16   20.08    1.65
  -1   0  16   17.84    1.61
   1   0 -16   23.97    3.05
  -1   0  15    1.96    0.83
   1   0 -15   -0.10    0.70
  -1   0  14    2.16    0.66
  -1   0  14    2.72    0.83
   1   0 -14    0.69    1.08
  -1   0  13    3.18    0.58
  -1   0  13    1.74    0.98
   1   0 -13    1.32    0.92
  -1   0  12  183.32    4.38
  -1   0  12  186.45    4.02
   1   0 -12  198.09    4.97
  -1   0  11   20.97    1.35
  -1   0  11   18.90    3.32
   1   0 -11   19.43    2.12
  -1   0  10    5.64    1.36
  -1   0  10    5.78    1.57
   1   0 -10    3.31    1.42
  -1   0   9  712.27   10.76
  -1   0   9  711.28   10.73
   1   0  -9  739.50   11.80
  -1   0   8  277.57    5.62
  -1   0   8  271.50    5.51
   1   0  -8  292.93    6.33
  -1   0   7   87.37    3.36
  -1   0   7   82.36    3.30
   1   0  -7   88.48    2.86
  -1   0   6  287.06    4.19
  -1   0   6  268.43    4.05
   1   0  -6  277.78    4.48
  -1   0   5   11.97    0.84
  -1   0   5    8.88    0.77
   1   0  -5   10.37    0.83
  -1   0   4  139.71    4.27
  -1   0   4  134.93    4.26
   1   0  -4  139.67    4.61
  -1   0   3   83.44    2.62
  -1   0   3   80.72    2.79
   1   0  -3   85.74    2.97
   1   0  -1 3233.26   31.41
  -1   0   1 3330.95   32.60
   1   0  -1 3435.58   33.34
   1   0   0  162.12    4.70
  -1   0   0  149.28    4.40
   1   0   0  160.43    4.59
   1   0   1 2923.83   28.62
  -1   0  -1 2956.15   28.84
   1   0   1 2944.37   28.54
   1   0   2 3711.24   36.32
  -1   0  -2 3633.59   35.29
  -1   0  -2 3245.86   31.68
   1   0   3   36.94    1.54
  -1   0  -3   35.42    1.31
  -1   0  -3   33.40    2.04
   1   0   4  117.71    3.81
  -1   0  -4  122.14    3.67
  -1   0  -4  112.62    3.60
   1   0   5   78.00    2.79
  -1   0  -5   80.89    2.56
  -1   0  -5   76.07    2.71
   1   0   6  111.51    3.82
  -1   0  -6  111.78    3.47
  -1   0  -6  105.41    3.64
   1   0   7  150.18    5.06
  -1   0  -7  143.31    4.42
  -1   0  -7  134.94    4.67
   1   0   8 2015.34   33.32
  -1   0  -8 1937.75   32.61
   1   0   9   31.10    4.86
   1   0   9   24.46    1.90
  -1   0  -9   25.07    1.56
   1   0  10  399.42    7.35
   1   0  10  356.56    5.79
  -1   0 -10  381.30    7.22
   1   0  11    0.39    0.27
   1   0  11    0.84    0.16
  -1   0 -11   -1.09    1.01
   1   0  13   22.65    1.90
  -1   0 -13   25.99    3.26
   1   0  14   69.63    4.57
  -1   0 -14   73.57    4.18
   1   0  15    3.19    1.13
  -1   0 -15    2.81    1.08
   1   0  16   15.32    1.66
  -1   0 -16   18.66    2.11
   1   0  17   97.09    4.64
  -1   0 -17  104.29    4.43
   1   0  18    5.24    1.30
  -1   0 -18    5.39    1.32
   1   0  19    3.12    0.69
  -1   0 -19    5.57    1.60
   1   0  20   36.91    2.71
  -1   0 -20   41.37    3.18
  -1   0 -21   33.01    3.42
  -1   0 -22    6.23    2.98
  -1   0 -23    0.21    1.40
   1   1 -23   16.74    2.66
   1   1 -22   18.81    2.82
   1   1 -21    1.57    1.39
   1   1 -20   57.33    4.52
  -1  -1  19  106.94    4.47
   1   1 -19  115.74    5.12
  -1  -1  18  225.27    7.84
   1   1 -18  218.20    8.17
  -1  -1  17    0.47    0.93
   1   1 -17    1.31    1.26
  -1  -1  16    2.76    1.03
   1   1 -16    1.13    1.15
   1   1 -15    2.20    1.71
  -1  -1  14  168.44    5.90
   1   1 -14  174.01    5.79
  -1  -1  13    1.12    0.89
  -1  -1  13    1.19    0.54
   1   1 -13   -0.90    1.24
  -1  -1  12   29.68    3.70
  -1  -1  12   25.45    1.43
   1   1 -12   26.17    1.93
  -1  -1  11   58.03    3.58
  -1  -1  11   54.04    1.82
   1   1 -11   66.19    2.70
  -1  -1  10   92.07    2.66
  -1  -1  10   82.23    2.93
   1   1 -10   92.73    2.92
  -1  -1   9   23.84    3.50
  -1  -1   9   16.62    1.17
   1   1  -9   22.55    3.39
  -1  -1   8  291.88    7.98
  -1  -1   8  282.17    5.86
   1   1  -8  300.78    6.99
  -1  -1   7 2033.50   33.66
  -1  -1   7 1920.84   31.15
  -1  -1   6  297.97    9.14
  -1  -1   6  285.64    4.03
   1   1  -6  301.28    5.92
  -1  -1   5 2396.56   24.72
  -1  -1   5 2302.11   23.17
   1   1  -5 2322.56   23.97
  -1  -1   4  186.10    3.11
  -1  -1   4  179.34    2.72
   1   1  -4  178.95    3.54
  -1  -1   3   84.28    2.84
  -1  -1   3   80.05    2.61
   1   1  -3   75.21    2.58
  -1  -1   2  838.42    9.19
  -1  -1   2  827.58    8.88
   1   1  -2  772.06    8.17
  -1  -1   1  224.18    3.12
  -1  -1   1  221.58    3.01
   1   1  -1  195.11    2.36
   1   1   0   72.66    2.38
  -1  -1   0   81.26    2.62
   1   1   0   65.39    1.95
   1   1   0   70.24    2.06
   1   1   1   56.30    2.05
  -1  -1  -1   61.71    2.37
   1   1   1   56.57    1.69
  -1  -1  -1   59.55    1.74
   1   1   2  762.60    8.31
  -1  -1  -2  778.01    8.52
  -1  -1  -2  747.15    7.66
   1   1   3  102.17    3.28
  -1  -1  -3   99.94    3.23
  -1  -1  -3   95.97    2.97
   1   1   4 2413.00   24.42
  -1  -1  -4 2448.19   24.72
  -1  -1  -4 2335.80   23.44
   1   1   5  538.25    6.63
  -1  -1  -5  528.27    6.49
  -1  -1  -5  512.96    6.35
   1   1   6   17.52    2.80
  -1  -1  -6   15.59    2.15
  -1  -1  -6   12.41    0.87
   1   1   7  167.61    4.29
  -1  -1  -7  176.82    3.36
  -1  -1  -7  163.87    4.14
   1   1   8  223.23    4.93
  -1  -1  -8  232.61    4.88
  -1  -1  -8  203.24    4.65
   1   1   9    7.37    0.94
  -1  -1  -9    7.05    0.97
   1   1  10   22.76    1.60
   1   1  10   20.75    2.78
  -1  -1 -10   18.51    1.42
   1   1  11    5.36    0.88
   1   1  11    7.27    1.27
  -1  -1 -11    3.21    1.60
   1   1  12 1489.40   17.40
   1   1  12 1361.20   15.94
  -1  -1 -12 1517.48   18.48
   1   1  13  495.37   12.07
   1   1  13  460.20   11.83
  -1  -1 -13  496.42   12.97
   1   1  14   37.75    2.58
   1   1  14   30.82    4.67
  -1  -1 -14   39.20    2.99
   1   1  15   18.73    1.73
   1   1  15   16.80    3.29
  -1  -1 -15   26.14    2.37
   1   1  16  232.43   10.07
   1   1  16  198.88    7.94
  -1  -1 -16  234.53    9.72
   1   1  17   30.60    2.32
  -1  -1 -17   29.65    2.50
   1   1  18   -0.27    0.90
  -1  -1 -18    2.59    0.95
   1   1  19    2.81    1.02
  -1  -1 -19    2.94    1.30
  -1  -1 -20    0.74    1.21
  -1  -1 -21    7.68    2.15
  -1  -1 -22    7.04    1.86
  -1  -1 -23    9.20    1.98
   1   2 -22    9.30    2.05
   1   2 -21    3.77    1.78
  -1  -2  20   75.23    5.40
   1   2 -20   83.26    5.87
  -1  -2  19  132.67    4.92
   1   2 -19  142.59    5.51
  -1  -2  18   34.41    2.52
   1   2 -18   36.83    3.22
  -1  -2  17   12.76    1.67
   1   2 -17   11.07    1.97
  -1  -2  16   65.28    3.08
   1   2 -16   68.68    3.77
  -1  -2  15  125.13    5.66
   1   2 -15  143.27    6.73
  -1  -2  14  206.69    5.85
   1   2 -14  220.28    6.73
  -1  -2  13   68.66    3.80
   1   2 -13   81.94    9.48
  -1  -2  12   28.33    4.24
   1   2 -12   31.75    4.59
  -1  -2  11   34.67    4.04
   1   2 -11   30.51    2.09
  -1  -2  10    0.83    0.85
  -1  -2  10    2.48    0.49
   1   2 -10    3.37    0.96
  -1  -2   9  897.03   14.04
  -1  -2   8   17.53    1.44
  -1  -2   8   19.02    1.39
   1   2  -8   20.60    3.80
  -1  -2   7    0.55    0.68
  -1  -2   7    0.46    0.26
   1   2  -7    0.80    0.43
  -1  -2   6   12.79    1.49
  -1  -2   6   11.44    0.78
   1   2  -6   10.68    0.97
  -1  -2   5  639.11    8.39
   1   2  -5  592.22    8.26
  -1  -2   4 1778.53   19.19
  -1  -2   4 1697.34   17.42
   1   2  -4 1589.75   16.88
  -1  -2   3 1169.72   13.20
  -1  -2   3 1144.63   12.18
   1   2  -3 1034.69   11.29
  -1  -2   2  157.53    5.09
  -1  -2   2  159.87    5.45
   1   2  -2  140.55    4.47
  -1  -2   0 7598.55  141.61
  -1  -2   0 7305.59  136.17
  -1  -2   0 7142.22  132.78
   1   2   2  969.09   11.11
  -1  -2  -2 1034.13   11.63
  -1  -2  -2 1043.88   10.94
   1   2   3   30.31    1.35
  -1  -2  -3   28.79    1.79
  -1  -2  -3   30.48    1.26
   1   2   4    4.25    0.48
  -1  -2  -4    4.84    0.73
  -1  -2  -4    5.42    0.51
   1   2   5  183.88    3.10
  -1  -2  -5  185.68    3.53
  -1  -2  -5  181.86    3.14
   1   2   6   73.25    2.52
  -1  -2  -6   75.52    2.56
  -1  -2  -6   73.56    2.33
   1   2   7   92.53    3.02
  -1  -2  -7   95.82    2.99
  -1  -2  -7   90.18    2.79
   1   2   8   -0.38    0.63
  -1  -2  -8    1.63    0.70
  -1  -2  -8    0.58    0.93
   1   2   9  244.86    5.15
  -1  -2  -9  254.14    5.26
  -1  -2  -9  239.68    5.18
   1   2  10   32.88    1.73
   1   2  10   31.71    5.32
  -1  -2 -10   28.27    1.60
   1   2  11   19.94    1.44
   1   2  11   20.46    3.87
  -1  -2 -11   19.90    1.65
   1   2  12  659.31   15.53
   1   2  12  622.17   14.75
  -1  -2 -12  665.05   15.97
   1   2  13  309.81    5.97
   1   2  13  288.89    8.63
  -1  -2 -13  294.50    7.05
   1   2  14   32.38    1.96
   1   2  14   33.22    4.96
  -1  -2 -14   32.23    2.17
   1   2  15    2.43    1.23
   1   2  15    1.37    0.37
  -1  -2 -15    1.35    1.01
   1   2  16   38.77    2.11
   1   2  16   45.83    2.56
  -1  -2 -16   53.17    3.45
   1   2  17    2.38    0.70
   1   2  17    2.92    0.67
  -1  -2 -17    2.47    1.23
   1   2  18   15.21    1.65
  -1  -2 -18   18.28    2.22
  -1  -2 -19    2.71    1.32
  -1  -2 -20    4.46    1.86
  -1  -2 -21    4.65    1.56
  -1  -2 -22   -0.57    1.06
   1   3 -21   -0.83    1.22
  -1  -3  20    0.90    1.06
   1   3 -20    0.96    1.27
  -1  -3  19    3.26    1.45
   1   3 -19    3.08    1.48
  -1  -3  18   51.56    3.31
   1   3 -18   51.03    3.39
  -1  -3  17   26.02    3.49
   1   3 -17   27.18    2.44
  -1  -3  16   34.33    3.31
   1   3 -16   38.87    7.11
  -1  -3  15   50.97    2.88
   1   3 -15   53.82    3.13
  -1  -3  14   48.03    3.05
   1   3 -14   55.52    3.57
  -1  -3  13  685.61   14.07
   1   3 -13  680.02   13.61
  -1  -3  12   63.71    3.63
   1   3 -12   71.35    4.30
  -1  -3  11  123.29    4.59
   1   3 -11  121.38    4.41
  -1  -3  10    4.24    1.08
   1   3 -10    4.38    1.21
  -1  -3   9   43.15    2.18
  -1  -3   9   39.50    2.25
   1   3  -9   43.16    2.20
  -1  -3   8  400.06   11.75
  -1  -3   8  373.50   10.04
   1   3  -8  362.74   10.71
  -1  -3   7   43.88    2.45
  -1  -3   7   40.97    1.73
   1   3  -7   44.37    2.19
  -1  -3   6  570.63    9.69
  -1  -3   6  532.10    7.85
   1   3  -6  528.53    8.79
  -1  -3   5  880.36   15.79
   1   3  -5  787.55   14.21
  -1  -3   4  468.50    9.07
  -1  -3   4  457.65    8.23
   1   3  -4  422.32    8.34
  -1  -3   3  175.58    3.82
  -1  -3   3  175.63    3.23
   1   3  -3  158.81    3.40
  -1  -3   2   51.58    2.29
  -1  -3   2   51.40    2.13
   1   3  -2   43.46    3.25
  -1  -3   1 2100.58   22.24
  -1  -3   1 2146.90   22.45
  -1  -3   1 2093.67   21.58
  -1  -3   0  521.27    7.22
  -1  -3   0  521.56    6.92
  -1  -3   0  501.99    6.25
   1   3   1    2.33    0.55
  -1  -3  -1    2.49    0.55
  -1  -3  -1    1.40    0.41
   1   3   2   58.71    5.17
  -1  -3  -2   56.93    2.43
  -1  -3  -2   55.58    2.10
   1   3   3  983.95   16.56
  -1  -3  -3 1091.41   18.77
  -1  -3  -3 1041.19   17.43
   1   3   4    0.76    0.34
  -1  -3  -4    1.14    0.81
  -1  -3  -4    0.51    0.48
   1   3   5  619.80   10.87
  -1  -3  -5  682.70   12.55
  -1  -3  -5  651.57   11.94
   1   3   6  384.63    7.80
  -1  -3  -6  399.59    8.22
  -1  -3  -6  395.15    8.29
   1   3   7  462.71    7.35
  -1  -3  -7  495.38    8.70
  -1  -3  -7  489.70    8.18
   1   3   8   53.94    2.61
  -1  -3  -8   59.90    2.54
  -1  -3  -8   56.47    2.20
   1   3   9   24.53    2.97
  -1  -3  -9   25.90    1.87
  -1  -3  -9   24.63    1.64
   1   3  10   43.16    2.68
   1   3  10   46.83    2.56
  -1  -3 -10   45.82    2.31
   1   3  11    2.85    0.72
   1   3  11    0.49    0.58
  -1  -3 -11    1.20    0.95
   1   3  12   18.23    2.62
   1   3  12   18.25    3.11
  -1  -3 -12   15.35    1.65
   1   3  13 1121.37   21.88
   1   3  13 1077.43   23.89
  -1  -3 -13 1171.92   24.09
   1   3  14  295.31    6.56
   1   3  14  287.85    8.88
  -1  -3 -14  301.09    7.46
   1   3  15    6.71    1.01
   1   3  15    8.79    1.29
  -1  -3 -15    8.58    1.25
   1   3  16  140.03   14.18
  -1  -3 -16  151.90    4.90
   1   3  17    2.24    1.08
  -1  -3 -17    3.98    1.16
   1   3  18    4.64    0.72
  -1  -3 -18    7.33    1.81
  -1  -3 -19    0.46    1.19
  -1  -3 -20    1.43    1.32
  -1  -3 -21    0.94    1.17
  -1  -4  20   24.52    7.46
   1   4 -20   22.40    3.08
  -1  -4  19    1.07    1.29
   1   4 -19   -0.54    1.20
  -1  -4  18   83.77    5.52
   1   4 -18   82.96    7.80
  -1  -4  17   16.29    2.16
   1   4 -17   14.30    1.98
  -1  -4  16    1.38    1.20
   1   4 -16    1.55    1.20
  -1  -4  15    4.19    1.44
   1   4 -15    5.86    0.95
  -1  -4  14   99.84    4.18
   1   4 -14  109.00    4.55
  -1  -4  13   64.63    3.51
   1   4 -13   73.66    4.06
  -1  -4  12  103.62    5.58
   1   4 -12  105.38    4.27
  -1  -4  11   20.76    1.77
   1   4 -11   20.73    1.89
  -1  -4  10   18.69    1.88
   1   4 -10   14.10    2.15
  -1  -4   9   25.77    1.97
   1   4  -9   28.42    5.08
  -1  -4   8  427.02    7.67
  -1  -4   8  377.25    5.38
   1   4  -8  391.19    6.96
  -1  -4   7    0.99    3.90
  -1  -4   7   -0.06    0.27
  -1  -4   6    0.87    0.40
  -1  -4   6   -0.33    0.31
   1   4  -6    1.53    0.50
  -1  -4   5  248.72    7.83
  -1  -4   5  231.98    6.71
   1   4  -5  209.15    7.17
  -1  -4   4  509.61    9.16
  -1  -4   4  503.14    7.98
   1   4  -4  454.88    9.46
  -1  -4   3   12.66    1.24
  -1  -4   3   11.86    1.52
   1   4  -3   12.62    2.39
  -1  -4   2  696.94   11.01
  -1  -4   2  676.72   10.37
  -1  -4   1 1484.07   25.08
  -1  -4   1 1450.30   24.49
  -1  -4   1 1445.05   24.18
  -1  -4   0 2107.72   35.13
  -1  -4   0 2006.54   33.55
  -1  -4   0 2040.29   33.50
   1   4   1 3584.77   60.45
  -1  -4  -1 4223.25   61.55
  -1  -4  -1 4031.84   46.61
   1   4   2   81.85    3.96
  -1  -4  -2   88.50    6.18
  -1  -4  -2  110.55    6.66
   1   4   3  959.92   13.87
  -1  -4  -3 1078.26   16.21
  -1  -4  -3 1041.67   14.99
   1   4   4    7.64    1.07
  -1  -4  -4    6.77    1.11
  -1  -4  -4    6.31    0.75
   1   4   5    9.50    0.81
  -1  -4  -5   10.54    1.33
  -1  -4  -5   10.96    0.98
   1   4   6   13.67    1.24
  -1  -4  -6   17.19    2.04
  -1  -4  -6   18.11    1.86
   1   4   7   16.62    2.31
  -1  -4  -7   17.10    2.02
  -1  -4  -7   14.62    1.53
   1   4   8    1.38    0.54
  -1  -4  -8    3.95    1.34
  -1  -4  -8    1.00    0.73
   1   4   9   24.91    1.37
  -1  -4  -9   23.46    1.79
   1   4  10   23.69    3.44
   1   4  10   28.17    5.05
  -1  -4 -10   28.31    1.80
   1   4  11   93.75    7.52
   1   4  11  113.72    8.02
  -1  -4 -11  117.46    3.96
   1   4  12   11.35    1.53
   1   4  12   14.63    3.14
  -1  -4 -12   13.74    2.93
   1   4  13  177.21   13.45
  -1  -4 -13  181.84    7.77
   1   4  14  148.41    7.85
  -1  -4 -14  163.39    6.96
   1   4  15    1.60    0.40
  -1  -4 -15    1.72    1.11
   1   4  16    3.74    0.94
  -1  -4 -16    2.39    1.26
   1   4  17   59.71    8.44
  -1  -4 -17   71.18    3.80
   1   4  18   11.53    2.12
  -1  -4 -18   16.54    1.96
   1   4  19    3.98    1.18
  -1  -4 -19    3.40    1.51
  -1  -4 -20    2.17    1.33
  -1  -4 -21   23.85    6.78
  -1  -5  20   12.21    3.97
  -1  -5  19   28.11    2.92
   1   5 -19   15.69    5.53
  -1  -5  18    4.30    1.69
   1   5 -18    2.58    1.38
  -1  -5  17   51.19    8.33
   1   5 -17   57.26    4.50
  -1  -5  16   26.01    3.09
   1   5 -16   24.93    2.57
  -1  -5  15    3.89    1.55
   1   5 -15    7.81    1.69
  -1  -5  14  229.26    9.31
   1   5 -14  240.54    9.70
  -1  -5  13  224.16   10.66
   1   5 -13  223.62   11.84
  -1  -5  12  123.93    4.69
   1   5 -12  126.57    5.02
  -1  -5  11   23.90    1.98
   1   5 -11   28.76    5.15
  -1  -5  10    3.47    1.33
   1   5 -10    1.20    0.63
  -1  -5   9   81.86    9.69
   1   5  -9   68.43    3.25
  -1  -5   8   63.11    4.26
   1   5  -8   55.72    5.37
  -1  -5   7   15.10    4.10
  -1  -5   7   12.40    1.89
   1   5  -7   13.56    2.43
  -1  -5   6   42.18    2.32
  -1  -5   6   40.50    2.71
   1   5  -6   40.09    6.48
  -1  -5   5    7.87    1.28
  -1  -5   5    6.58    0.99
   1   5  -5    9.79    1.87
  -1  -5   4  294.54    5.92
  -1  -5   4  270.81    4.75
   1   5  -4  240.83    6.23
  -1  -5   3  167.70    4.18
  -1  -5   3  164.47    3.71
   1   5  -3  146.43    4.02
  -1  -5   2   33.82    1.98
  -1  -5   2   25.69    1.71
  -1  -5   2   23.78    1.47
  -1  -5   1   56.12    2.25
  -1  -5   1   53.40    2.19
  -1  -5   1   50.72    2.01
  -1  -5   0   60.17    2.20
  -1  -5   0   60.43    2.33
  -1  -5   0   55.56    2.71
   1   5   1   -0.02    0.43
  -1  -5  -1    0.30    0.70
  -1  -5  -1    0.35    0.60
   1   5   2   19.40    3.15
  -1  -5  -2   20.19    2.05
  -1  -5  -2   20.21    1.85
   1   5   3   28.07    2.45
  -1  -5  -3   33.01    2.17
  -1  -5  -3   31.29    5.33
   1   5   4  243.88    5.02
  -1  -5  -4  282.74    5.84
  -1  -5  -4  279.49    5.20
   1   5   5  154.05    3.33
  -1  -5  -5  165.38    4.75
  -1  -5  -5  160.77    3.91
   1   5   6   36.56    1.65
  -1  -5  -6   41.83    2.67
  -1  -5  -6   37.15    1.89
   1   5   7    4.02    0.67
  -1  -5  -7    3.65    1.20
  -1  -5  -7    2.03    0.70
   1   5   8    5.99    0.73
  -1  -5  -8    9.79    1.30
   1   5   9    5.27    0.90
   1   5   9    8.13    1.77
  -1  -5  -9    7.24    1.44
   1   5  10   40.72    5.65
  -1  -5 -10   42.84    4.10
   1   5  11    3.48    0.97
  -1  -5 -11    3.05    0.97
   1   5  12    1.34    0.72
  -1  -5 -12    0.64    0.44
   1   5  13   82.36   11.54
  -1  -5 -13   71.35    5.11
   1   5  14  251.94   13.71
  -1  -5 -14  241.42   10.85
   1   5  15    2.05    0.71
  -1  -5 -15    3.67    0.97
   1   5  16    1.06    0.62
  -1  -5 -16   -1.37    1.09
   1   5  17  106.63    5.25
  -1  -5 -17  119.66    4.97
   1   5  18   17.16    2.98
  -1  -5 -18   18.24    2.30
  -1  -5 -19    1.23    1.18
  -1  -6  18    1.85    1.47
  -1  -6  17   -0.37    1.28
   1   6 -17   -0.41    1.10
  -1  -6  16    7.90    1.87
   1   6 -16    9.22    2.83
  -1  -6  15   24.09    6.03
   1   6 -15   25.08    4.90
  -1  -6  14   45.85    5.55
   1   6 -14   45.27    7.72
  -1  -6  13  156.56    5.60
   1   6 -13  142.70    5.00
  -1  -6  12   73.22   11.90
   1   6 -12   69.85   11.97
  -1  -6  11   67.22   13.40
   1   6 -11   73.03    4.51
  -1  -6  10    2.36    1.44
   1   6 -10    2.51    0.68
  -1  -6   9   93.36    4.64
   1   6  -9   76.44    3.80
  -1  -6   8    2.42    1.09
   1   6  -8    1.03    0.62
  -1  -6   7    3.70    1.04
   1   6  -7    4.58    0.79
  -1  -6   6    1.62    1.27
  -1  -6   6    1.80    0.66
   1   6  -6    2.90    0.73
  -1  -6   5   32.39    2.17
  -1  -6   5   32.45    1.72
   1   6  -5   27.25    4.63
  -1  -6   4  135.44    4.85
  -1  -6   4  123.24    3.94
   1   6  -4  106.88    3.99
  -1  -6   3   63.67    3.56
  -1  -6   3   66.32    3.50
   1   6  -3   56.54    6.31
  -1  -6   2   22.95    1.88
  -1  -6   2   20.85    1.73
  -1  -6   1  124.22    3.62
  -1  -6   1  119.34    3.59
  -1  -6   1  117.14    3.94
  -1  -6   0  756.70   10.02
  -1  -6   0  723.29    9.36
   1   6   1  296.74    8.32
  -1  -6  -1  337.59    6.33
  -1  -6  -1  330.67    6.57
   1   6   2  237.24    4.72
  -1  -6  -2  278.92    5.93
  -1  -6  -2  269.21   13.03
   1   6   3    3.93    0.67
  -1  -6  -3    5.14    1.02
  -1  -6  -3    6.15    1.31
   1   6   4   40.77    4.55
  -1  -6  -4   48.73    3.20
  -1  -6  -4   45.36    2.71
   1   6   5   63.15    4.94
  -1  -6  -5   84.37    5.08
  -1  -6  -5   74.77    3.13
   1   6   6  119.16    3.63
  -1  -6  -6  132.62    4.43
  -1  -6  -7    3.74    1.10
   1   6   8   20.12    4.06
  -1  -6  -8   24.04    1.91
   1   6   9    0.69    0.41
  -1  -6  -9    0.63    0.85
   1   6  10   10.90    2.17
  -1  -6 -10   14.54    1.53
   1   6  11    1.77    0.85
  -1  -6 -11    0.70    0.77
   1   6  12   33.58    5.36
  -1  -6 -12   30.78    2.75
   1   6  13   12.06    1.67
  -1  -6 -13    9.99    1.54
   1   6  14    3.33    1.10
  -1  -6 -14    4.73    1.12
   1   6  15   16.18    3.22
  -1  -6 -15   19.78    2.31
   1   6  16    4.78    1.22
  -1  -6 -16    4.10    1.65
   1   6  17    4.45    1.78
  -1  -6 -17    3.36    1.13
   1   6  18   34.05    7.19
  -1  -7  17   20.12    2.71
  -1  -7  16    2.83    1.75
  -1  -7  15    3.23    2.05
  -1  -7  14    9.50    3.51
  -1  -7  13   79.88    5.39
   1   7 -13   79.70    5.20
  -1  -7  12  205.08    7.35
   1   7 -12  202.33    5.95
  -1  -7  11    0.86    1.36
   1   7 -11    1.63    0.89
  -1  -7  10    3.47    1.12
   1   7 -10    3.92    1.23
  -1  -7   9    2.34    1.33
   1   7  -9    0.74    0.74
  -1  -7   8   28.56    2.76
   1   7  -8   26.66    4.70
  -1  -7   7    2.52    1.47
   1   7  -7    1.25    0.53
  -1  -7   6    8.81    1.49
   1   7  -6    6.03    1.06
  -1  -7   5   14.20    1.99
  -1  -7   5   12.04    1.60
   1   7  -5   11.40    1.50
  -1  -7   4   25.70    2.20
  -1  -7   4   18.87    3.34
   1   7  -4   18.27    3.12
  -1  -7   3    9.01    1.35
  -1  -7   3    7.99    1.76
   1   7  -3    9.54    1.79
  -1  -7   2    0.68    0.77
  -1  -7   2    0.47    0.58
  -1  -7   1   93.38    4.53
  -1  -7   1   92.29    4.57
  -1  -7   1   93.84    4.53
   1   7   0   72.79    8.68
  -1  -7   0   92.17    5.71
  -1  -7   0   88.13    4.62
   1   7   1   16.88    2.47
  -1  -7  -1   24.61    2.38
  -1  -7  -1   18.81    3.63
   1   7   2   30.72    3.73
  -1  -7  -2   36.81    2.45
  -1  -7  -2   34.50    2.22
   1   7   3    9.14    1.25
  -1  -7  -3   13.46    2.75
   1   7   4  108.58    8.16
  -1  -7  -4  139.90    5.44
   1   7   5  153.98   12.16
  -1  -7  -5  153.34    6.08
   1   7   6    5.00    1.06
  -1  -7  -6    5.58    1.25
   1   7   7   77.10   13.15
  -1  -7  -7   76.23    3.32
   1   7   8    1.30    0.90
  -1  -7  -8    0.86    1.30
   1   7   9   52.46    8.66
  -1  -7  -9   54.05    3.32
   1   7  10  108.08    7.04
  -1  -7 -10  108.70    4.96
   1   7  11   42.34    6.19
  -1  -7 -11   36.81    2.88
   1   7  12   12.85    2.02
  -1  -7 -12    7.81    1.45
   1   7  13    2.41    0.93
  -1  -7 -13    1.74    1.00
   1   7  14    7.80    1.48
  -1  -7 -14    8.66    1.56
   1   7  15    1.44    0.97
   1   7  16    2.28    0.92
   1   7  17   23.08    5.53
  -1  -8  14    3.23    1.74
  -1  -8  13   22.66    2.94
  -1  -8  12   10.27    1.98
  -1  -8  11   93.92    4.98
  -1  -8  10    0.90    1.41
  -1  -8   9   19.33    2.28
   1   8  -9   11.27    2.69
  -1  -8   8  123.37    4.95
   1   8  -8   80.52   13.76
  -1  -8   7    1.41    1.07
   1   8  -7    0.78    0.52
  -1  -8   6    5.09    1.30
   1   8  -6    3.58    0.83
   1   8  -5    2.06    0.87
  -1  -8   4   23.33    2.29
   1   8  -4   17.72    3.19
  -1  -8   3   28.79    2.34
   1   8  -3   18.13    3.95
   1   8  -3   21.87    5.18
   1   8  -2    0.77    0.47
   1   8  -2   -0.11    0.74
   1   8  -1   14.17    3.31
   1   8  -1   15.41    2.72
   1   8   0    3.94    0.81
   1   8   0    4.37    1.03
  -1  -8   0    4.16    1.25
   1   8   1   11.89    2.17
   1   8   1   18.84    3.03
  -1  -8  -1   20.02    2.12
   1   8   2   56.84   10.18
  -1  -8  -2   59.66    3.53
   1   8   3   27.49    5.12
  -1  -8  -3   30.02    4.98
   1   8   4  104.39    5.11
  -1  -8  -4  107.18    6.29
   1   8   5    0.93    0.69
  -1  -8  -5    1.86    1.33
   1   8   6   25.05    4.13
  -1  -8  -6   18.79    2.00
   1   8   7    1.72    0.88
  -1  -8  -7    0.97    0.93
   1   8   8    1.49    0.64
  -1  -8  -8    0.61    0.85
   1   8   9    3.77    1.03
  -1  -8  -9    9.40    2.47
   1   8  10   42.28    9.43
   1   8  11   20.52    6.67
   1   8  12   45.18    7.91
   1   8  13   82.52   11.83
   1   8  14   58.90   11.80
   1   8  15    4.90    1.88
  -1  -9   8   11.85    2.10
  -1  -9   7  138.01    5.26
  -1  -9   6   11.72    1.89
   1   9   0   -0.24    0.78
   1   9   1    1.53    0.54
   1   9   2    5.93    1.73
   1   9   3    0.93    0.92
   1   9   5   38.79    8.23
   1   9   6   42.68    9.69
   1   9   7   13.86    3.54
   1   9   8    1.90    1.07
   1   9   9    0.68    1.07
   1   9  10    2.51    0.97
   1   9  11    6.05    1.75
   1   9  12    3.25    1.10
   2  -9  -7   34.51    4.10
   2  -9  -5   50.51    4.27
   2  -9  -2    3.95    1.57
   2  -9  -1    0.35    0.44
   2  -9   0    1.12    1.11
   2  -9   1   10.14    1.94
   2  -9   2    6.92    1.50
  -2   9  -4   55.76   17.08
  -2   9  -5   19.67    5.08
  -2   9  -6    4.85    1.79
  -2   9  -7    3.59    1.53
  -2   9  -8    3.91    1.04
  -2   8  13   -1.38    1.42
  -2   8  12    2.46    1.60
   2  -8 -12    0.64    1.23
  -2   8  11   -0.18    1.38
   2  -8 -11    1.03    1.09
  -2   8  10    1.71    0.88
   2  -8 -10    1.10    1.12
  -2   8   9    2.54    1.65
   2  -8  -9    4.16    1.27
  -2   8   8    2.72    1.45
   2  -8  -8    1.89    1.62
   2  -8  -7    4.13    1.31
  -2   8   6   -0.24    1.15
   2  -8  -6    3.53    1.38
  -2   8   5   24.66    4.89
   2  -8  -5   30.33    3.14
  -2   8   4    6.61    1.61
   2  -8  -4    8.04    1.67
  -2   8   3   17.72    4.00
   2  -8  -3   22.11    2.57
  -2   8   2    9.26    2.40
   2  -8  -2   18.31    2.24
  -2   8   1    1.30    0.65
   2  -8  -1    1.54    1.24
  -2   8   0   14.68    3.82
   2  -8   0   25.89    3.83
   2  -8   1    1.22    1.10
   2  -8   2   -0.49    0.99
   2  -8   3   17.37    2.36
  -2   8  -5   65.03   10.93
  -2   8  -6    9.98    3.16
  -2   8  -7  252.40    7.33
  -2   8  -8    1.25    0.65
  -2   8  -9   18.09    2.97
  -2   8 -10    2.32    0.95
  -2   8 -11    1.45    0.80
  -2   8 -12    0.04    1.06
  -2   8 -13   27.75    8.22
  -2   7  15    2.63    1.75
   2  -7 -15    4.59    1.91
  -2   7  14    6.75    2.48
   2  -7 -14    7.03    2.09
  -2   7  13   55.31    4.24
   2  -7 -13   61.23    4.17
  -2   7  12    4.76    1.03
   2  -7 -12    1.69    1.19
  -2   7  11    3.40    0.84
   2  -7 -11    3.29    1.52
  -2   7  10    2.37    1.05
  -2   7   9   -0.38    1.05
   2  -7  -9    0.58    1.19
  -2   7   8   62.84   10.46
   2  -7  -8   60.28    3.59
  -2   7   7   50.01   11.88
   2  -7  -7   69.38    4.31
  -2   7   6  290.49   15.48
   2  -7  -6  301.39   13.94
  -2   7   5   43.32    6.58
   2  -7  -5   48.35    3.72
  -2   7   4    2.83    1.23
   2  -7  -4    2.22    1.27
  -2   7   3   95.34   15.37
   2  -7  -3  128.47    6.83
  -2   7   2   20.69    4.36
   2  -7  -2   31.34    2.84
  -2   7   1   17.34    3.58
   2  -7  -1   24.94    2.39
  -2   7   0    0.97    0.32
   2  -7   0    0.65    0.78
  -2   7  -1    5.35    0.84
   2  -7   1    5.58    1.49
  -2   7  -2    3.36    0.83
   2  -7   2    5.52    1.31
   2  -7   3   18.79    4.46
  -2   7  -3   21.27    1.74
   2  -7   3   28.80    2.48
   2  -7   4   55.94    3.38
   2  -7   4   64.67    4.34
   2  -7   5   27.12    2.31
  -2   7  -5   26.66    3.49
   2  -7   6   42.56    8.46
  -2   7  -6   42.27    6.11
   2  -7   7    9.16    1.39
  -2   7  -7    8.47    2.27
   2  -7   8    1.47    0.87
  -2   7  -8    1.67    1.30
   2  -7   9    0.39    0.86
  -2   7  -9    1.80    0.79
   2  -7  10    8.05    1.56
  -2   7 -10    8.52    2.22
   2  -7  11   35.14    3.16
  -2   7 -11   29.84    5.94
   2  -7  12   -1.04    1.12
  -2   7 -12    0.65    0.95
   2  -7  13    7.21    1.87
  -2   7 -13    2.38    0.74
   2  -7  14    4.91    1.54
  -2   7 -14    4.54    2.60
   2  -7  15    6.52    1.95
  -2   7 -15   12.74    2.38
   2  -7  16    5.07    2.12
  -2   7 -16    1.75    1.40
  -2   6  17   -0.24    1.47
   2  -6 -17    2.95    1.51
  -2   6  16    2.64    2.20
   2  -6 -16    1.04    1.29
  -2   6  15    5.07    1.73
   2  -6 -15    4.35    1.86
  -2   6  14   23.64    3.11
   2  -6 -14   15.81    2.29
  -2   6  13    5.81    1.51
   2  -6 -13    7.39    1.78
   2  -6 -12    3.77    1.26
  -2   6  11    1.22    1.24
   2  -6 -11    1.72    1.69
  -2   6  10   13.97    1.98
   2  -6 -10   17.22    2.14
  -2   6   9  139.04    8.89
   2  -6  -9  159.92    8.16
  -2   6   8    7.14    1.72
   2  -6  -8    8.51    1.81
  -2   6   7    7.33    2.15
   2  -6  -7    8.17    1.60
  -2   6   6    0.79    0.98
   2  -6  -6    1.69    1.28
  -2   6   5   11.03    2.61
   2  -6  -5   14.83    3.04
  -2   6   4   41.76    7.08
   2  -6  -4   51.04    7.36
  -2   6   3  162.04    6.38
  -2   6   2  308.65    8.30
   2  -6  -2  339.11    8.63
  -2   6   1    2.92    1.10
   2  -6  -1    4.38    1.34
   2  -6   0    2.82    0.62
  -2   6   0    2.08    0.51
   2  -6   0    5.19    1.24
   2  -6   1  711.96   14.09
   2  -6   1  816.90   16.06
   2  -6   2  191.93    4.89
  -2   6  -2  185.29    5.32
   2  -6   2  202.80   10.81
   2  -6   3    1.57    0.73
  -2   6  -3    0.17    0.58
   2  -6   3    0.11    1.10
   2  -6   4   24.28    1.87
  -2   6  -4   19.13    1.53
   2  -6   4   23.36    2.11
   2  -6   5   51.01    3.16
   2  -6   6   21.08    2.93
  -2   6  -6   20.89    4.00
   2  -6   7  161.20    8.75
  -2   6  -7  139.09    8.20
   2  -6   8   10.57    1.30
  -2   6  -8   15.16    3.14
   2  -6   9    1.47    0.94
  -2   6  -9    0.67    0.54
   2  -6  10   19.00    2.07
  -2   6 -10   17.70    4.01
   2  -6  11    2.24    1.19
  -2   6 -11    0.64    0.53
   2  -6  12    2.28    1.70
  -2   6 -12    1.56    0.70
   2  -6  13    3.35    1.74
  -2   6 -13    5.12    1.21
   2  -6  14    5.15    1.75
  -2   6 -14    6.47    1.70
   2  -6  15    0.88    1.27
  -2   6 -15   -0.04    1.25
   2  -6  16   12.38    3.87
  -2   6 -16   12.98    2.93
   2  -6  17   25.38    4.55
  -2   6 -17   27.52    3.21
   2  -6  18    2.19    1.89
  -2   6 -18    1.38    1.01
   2  -5 -19    5.33    1.70
  -2   5  18   57.03   14.82
   2  -5 -18   83.17    5.62
  -2   5  17   11.64    3.30
   2  -5 -17   17.27    2.27
  -2   5  16   57.45   11.17
   2  -5 -16   76.61    5.45
  -2   5  15    6.98    1.45
   2  -5 -15    4.79    1.67
   2  -5 -14    3.67    1.69
  -2   5  13   17.42    2.28
   2  -5 -13   16.55    2.11
  -2   5  12    2.35    1.04
   2  -5 -12    1.88    1.19
  -2   5  11    6.29    2.20
   2  -5 -11    9.21    1.77
  -2   5  10    3.08    0.77
   2  -5 -10    0.77    1.07
  -2   5   9    7.51    3.05
   2  -5  -9    8.63    1.65
  -2   5   8   46.96    3.04
   2  -5  -8   55.52    2.97
  -2   5   7  176.30    8.34
   2  -5  -7  202.46    6.13
  -2   5   6  128.53    6.46
   2  -5  -6  158.94    5.55
  -2   5   5    1.13    0.62
   2  -5  -5    0.09    1.06
  -2   5   4   50.03    3.95
   2  -5  -4   58.90    3.58
  -2   5   3   17.87    3.04
   2  -5  -3   19.60    1.92
  -2   5   2   30.43    4.27
   2  -5  -2   29.39    2.22
   2  -5  -1   46.25    1.57
  -2   5   1   47.70    7.53
   2  -5  -1   50.05    2.59
   2  -5   0   41.80    1.57
  -2   5   0   40.43    7.02
   2  -5   0   39.66    2.29
   2  -5   1   85.06    2.37
  -2   5  -1   91.23    3.11
   2  -5   1   93.64    5.94
   2  -5   2  365.36    9.26
  -2   5  -2  354.53   10.03
   2  -5   2  410.25   11.21
   2  -5   3  449.04   10.88
  -2   5  -3  428.75   10.30
   2  -5   3  490.42   12.72
   2  -5   4  106.65    5.87
  -2   5  -4  103.49    4.68
   2  -5   4  132.44    5.87
   2  -5   5 1096.09   14.28
  -2   5  -5 1024.92   10.94
   2  -5   6  312.48    6.31
  -2   5  -6  284.99    7.75
   2  -5   7   78.59    4.52
  -2   5  -7   79.23   11.67
   2  -5   8   -0.10    0.97
  -2   5  -8    1.46    0.64
   2  -5   9   13.58    1.56
  -2   5  -9   17.28    3.30
   2  -5  10   57.91    3.48
  -2   5 -10   52.61    3.42
   2  -5  11   18.84    2.05
  -2   5 -11   18.37    3.26
   2  -5  12  153.83    8.58
  -2   5 -12  141.78    7.53
   2  -5  13    2.43    1.80
  -2   5 -13    2.04    0.85
   2  -5  14    1.28    1.23
  -2   5 -14    2.22    1.34
   2  -5  15   44.48    9.13
  -2   5 -15   42.31    3.52
   2  -5  16    1.61    1.38
  -2   5 -16    0.31    1.17
   2  -5  17   -0.03    1.27
  -2   5 -17   -0.44    1.20
   2  -5  18    5.38    1.40
  -2   5 -18    4.91    1.75
   2  -5  19   15.61    2.34
  -2   5 -19   15.82    4.03
   2  -5  20    1.41    1.30
  -2   5 -20   -1.19    1.28
   2  -4 -20   18.22    4.68
   2  -4 -19   44.24   11.38
  -2   4  18   10.04    2.05
   2  -4 -18    9.48    3.74
  -2   4  17   29.73    7.17
   2  -4 -17   26.74    6.08
  -2   4  16    3.41    1.12
   2  -4 -16    4.79    1.68
  -2   4  15   79.84   10.43
   2  -4 -15   81.82    4.84
  -2   4  14  347.91    7.81
   2  -4 -14  318.96   25.22
  -2   4  13    6.35    1.61
   2  -4 -13   10.45    2.67
  -2   4  12   34.81    2.68
   2  -4 -12   42.55    8.06
  -2   4  11   13.91    2.74
   2  -4 -11   13.68    1.78
  -2   4  10    1.22    0.82
   2  -4 -10    2.13    1.28
  -2   4   9    8.21    1.86
   2  -4  -9    4.53    1.31
  -2   4   8   22.68    4.57
   2  -4  -8   23.85    2.16
  -2   4   7    1.92    0.66
   2  -4  -7   -0.38    0.92
  -2   4   6   13.31    2.74
   2  -4  -6   13.48    1.51
  -2   4   5    0.52    0.67
   2  -4  -5    0.39    0.83
  -2   4   4   16.76    2.91
   2  -4  -4   15.02    1.43
  -2   4   3    6.16    1.31
   2  -4  -3    7.49    1.16
   2  -4  -2   36.84    2.12
  -2   4   2   40.23    2.17
   2  -4  -2   41.28    2.10
   2  -4  -1  289.00    8.04
  -2   4   1  301.37    9.24
   2  -4  -1  304.47    9.56
   2  -4   0   72.64    2.11
  -2   4   0   70.34    5.20
   2  -4   0   83.70    2.95
   2  -4   1  263.04    7.96
  -2   4  -1  258.01    8.34
   2  -4   1  264.09   10.17
   2  -4   2    0.45    0.50
  -2   4  -2   -0.18    0.58
   2  -4   2    0.38    0.79
   2  -4   3   48.17    2.00
  -2   4  -3   46.84    1.82
   2  -4   3   49.09    2.33
   2  -4   4  129.77    4.96
  -2   4  -4  123.83    4.06
   2  -4   4  128.05    5.98
   2  -4   5   -0.19    0.73
  -2   4  -5    1.76    0.45
   2  -4   6   27.79    4.33
  -2   4  -6   25.70    4.92
   2  -4   7  618.65   15.15
  -2   4  -7  565.35   14.05
   2  -4   8    1.00    1.53
  -2   4  -8    9.79    2.12
   2  -4   9  760.67   11.15
  -2   4  -9  680.77   14.06
   2  -4  10  107.25    4.19
  -2   4 -10  115.03    4.87
   2  -4  11  211.84    7.41
  -2   4 -11  188.50    5.96
   2  -4  12    2.72    1.09
  -2   4 -12    1.82    0.96
   2  -4  13   -0.72    1.11
  -2   4 -13    0.50    1.02
   2  -4  14   29.20    2.54
  -2   4 -14   28.81    5.23
   2  -4  15   19.76    2.35
  -2   4 -15   17.60    3.66
   2  -4  16   31.05    2.98
  -2   4 -16   39.61    3.31
   2  -4  17  362.44    8.71
  -2   4 -17  342.23    8.87
   2  -4  18   47.50    4.25
  -2   4 -18   43.55    9.79
   2  -4  19    5.55    1.88
  -2   4 -19    5.68    1.39
   2  -4  20   17.44    3.90
  -2   4 -20   14.34    4.43
   2  -4  21    0.41    0.76
  -2   4 -21    3.79    2.03
   2  -3 -21    5.76    1.68
   2  -3 -20    2.35    1.48
   2  -3 -19    1.52    0.91
  -2   3  18   22.84    6.33
   2  -3 -18   37.27    7.90
  -2   3  17    4.82    1.61
   2  -3 -17    2.47    1.51
  -2   3  16   18.53    2.19
   2  -3 -16   16.30    3.87
  -2   3  15    2.91    1.42
   2  -3 -15    2.59    0.79
  -2   3  14   67.00    9.84
   2  -3 -14   76.03   10.31
  -2   3  13  322.61   12.37
   2  -3 -13  326.81   13.67
  -2   3  12   33.92    2.67
   2  -3 -12   39.94    2.95
  -2   3  11  303.79    9.46
   2  -3 -11  321.48    8.94
  -2   3  10  542.97    8.98
   2  -3 -10  570.61    9.52
  -2   3   9  256.71    7.64
   2  -3  -9  257.85    7.54
  -2   3   8   -1.03    1.02
   2  -3  -8   -0.78    0.92
  -2   3   7   81.20    4.64
   2  -3  -7   87.01    2.98
  -2   3   6  301.96    9.40
   2  -3  -6  321.61    9.81
  -2   3   5    1.02    0.75
   2  -3  -5    1.57    0.63
  -2   3   4  356.56    7.13
   2  -3  -4  364.87    7.05
  -2   3   3   34.22    5.95
   2  -3  -3   33.06    1.72
   2  -3  -2    5.42    0.84
  -2   3   2    7.34    1.42
   2  -3  -2    6.37    0.93
   2  -3  -1    1.85    0.32
  -2   3   1    1.90    0.51
   2  -3  -1    1.96    0.76
   2  -3   0  294.10    5.82
  -2   3   0  289.01    6.12
   2  -3   0  296.92    6.47
   2  -3   1    2.23    0.44
  -2   3  -1    3.94    0.65
   2  -3   1    2.73    0.65
   2  -3   2   91.03    2.75
  -2   3  -2   82.50    3.52
   2  -3   2   91.92    3.35
   2  -3   3  101.95    4.36
  -2   3  -3  104.74    2.58
   2  -3   3  116.26    3.30
   2  -3   4 1028.36   15.08
  -2   3  -4  947.24   13.23
   2  -3   4 1052.30   15.95
   2  -3   5    1.89    3.08
  -2   3  -5    3.25    0.50
  -2   3  -5    4.16    0.95
   2  -3   6   79.54    2.66
  -2   3  -6   73.07    1.45
  -2   3  -6   72.02    2.82
   2  -3   7  116.20    4.48
  -2   3  -7  104.20    4.47
   2  -3   8   58.51    2.69
  -2   3  -8   51.62    2.57
   2  -3   9   27.56    4.22
  -2   3  -9   20.88    2.87
   2  -3  10    0.20    1.12
  -2   3 -10    1.37    0.95
   2  -3  11   40.15    3.09
  -2   3 -11   41.57    7.08
   2  -3  12   29.85    5.34
  -2   3 -12   26.18    4.50
   2  -3  13    5.27    1.48
  -2   3 -13    4.74    1.32
   2  -3  14   57.04    3.74
  -2   3 -14   47.22    3.32
   2  -3  15   33.22    2.73
  -2   3 -15   34.71    2.87
   2  -3  16    8.44    1.82
  -2   3 -16    9.74    1.94
   2  -3  17    1.55    1.38
  -2   3 -17    2.42    1.32
   2  -3  18    4.16    1.69
  -2   3 -18    9.88    1.92
   2  -3  19    2.28    1.38
  -2   3 -19    0.73    1.28
   2  -3  20    6.75    1.94
  -2   3 -20    7.83    1.96
   2  -3  21   65.13    4.99
  -2   3 -21   70.87    5.58
  -2   3 -22    3.33    1.39
   2  -2 -22    2.03    1.40
   2  -2 -21    4.16    1.52
   2  -2 -20   20.10    2.57
   2  -2 -19    3.85    1.57
   2  -2 -18    4.19    1.51
  -2   2  17    2.54    1.52
   2  -2 -17    0.24    1.24
  -2   2  16    1.92    0.95
   2  -2 -16    0.11    1.17
  -2   2  15   20.41    2.50
   2  -2 -15   24.27    2.29
  -2   2  14   94.32    4.79
   2  -2 -14  104.23    5.18
  -2   2  13  107.36    5.41
   2  -2 -13  118.70    4.51
  -2   2  12   46.93    3.38
   2  -2 -12   47.77    2.69
  -2   2  11    0.46    0.53
   2  -2 -11    0.91    1.07
  -2   2  10  234.25    7.48
   2  -2 -10  254.61    5.89
  -2   2   9  250.65    5.49
   2  -2  -9  270.23    5.78
  -2   2   8    3.73    1.45
   2  -2  -8   10.22    2.38
  -2   2   7  659.46   10.95
   2  -2  -7  713.39   12.08
  -2   2   6  834.57   13.37
   2  -2  -6  921.88   14.21
  -2   2   5  139.34    4.14
   2  -2  -5  154.92    5.46
  -2   2   4  106.08    3.35
   2  -2  -4  119.67    3.54
  -2   2   3  121.57    3.57
   2  -2  -2  130.07    2.80
  -2   2   2  138.98    3.94
   2  -2  -2  144.21    3.89
   2  -2  -1  130.81    3.98
  -2   2   1  143.61    4.90
   2  -2  -1  146.30    4.90
   2  -2   0   32.62    1.88
  -2   2   0   34.92    2.19
   2  -2   0   37.99    1.86
   2  -2   1 1735.16   18.09
  -2   2  -1 1683.29   17.94
   2  -2   1 1765.12   19.23
   2  -2   2   -0.19    1.12
  -2   2  -2    0.08    0.36
   2  -2   2    2.29    0.90
   2  -2   3  118.92    3.41
  -2   2  -3  110.18    2.84
   2  -2   3  117.92    3.48
   2  -2   4  160.32    4.24
  -2   2  -4  155.28    3.75
   2  -2   4  164.18    4.41
   2  -2   5 1133.67   19.54
  -2   2  -5 1061.96   17.37
  -2   2  -5  998.63   17.53
   2  -2   6   38.18    9.20
  -2   2  -6   37.26    2.10
  -2   2  -6   38.44    2.09
   2  -2   7   16.71    1.30
  -2   2  -7   16.70    3.03
   2  -2   8  346.74    6.94
  -2   2  -8  322.09    6.53
   2  -2   9  266.37    9.37
  -2   2  -9  237.11    7.70
   2  -2  10   40.96    6.00
  -2   2 -10   34.57    7.08
   2  -2  11  293.89    8.33
  -2   2 -11  247.84    7.21
   2  -2  12   13.13    2.17
  -2   2 -12   10.35    1.50
   2  -2  13    1.79    1.64
  -2   2 -13    0.54    1.06
   2  -2  14    1.41    1.13
  -2   2 -14    3.63    1.07
   2  -2  15    1.44    1.26
  -2   2 -15    0.95    0.56
   2  -2  16   13.04    2.25
  -2   2 -16   19.95    4.45
   2  -2  17    6.75    1.65
  -2   2 -17    7.36    1.79
   2  -2  18  279.27   12.25
  -2   2 -18  302.39   10.46
   2  -2  19  124.30    6.50
  -2   2 -19  125.29    6.68
   2  -2  20   15.08    2.18
  -2   2 -20   14.45    3.06
   2  -2  21    0.79    0.80
  -2   2 -21    0.90    1.29
   2  -2  22    0.73    1.31
  -2   2 -22   -0.40    1.31
  -2   2 -23    0.79    1.43
   2  -1 -22    1.94    1.82
   2  -1 -21   -0.05    1.13
   2  -1 -20   11.26    2.69
   2  -1 -19    1.87    1.29
   2  -1 -18    5.27    1.72
  -2   1  17   19.09    2.14
   2  -1 -17   23.30    2.59
  -2   1  16   15.09    1.78
   2  -1 -16   15.30    1.99
  -2   1  15   33.53    2.42
   2  -1 -15   38.84    2.72
  -2   1  14   31.25    1.72
  -2   1  14   30.97    2.34
   2  -1 -14   36.81    2.46
  -2   1  13   -0.25    0.46
  -2   1  13   -0.27    0.92
  -2   1  12  125.11    3.63
  -2   1  12  125.13    6.88
   2  -1 -12  145.46    4.44
  -2   1  11   31.35    3.97
  -2   1  11   36.46    5.63
   2  -1 -11   35.25    2.13
  -2   1  10   80.86    3.96
  -2   1  10   87.37    4.90
   2  -1 -10   94.58    3.47
  -2   1   9  104.92    7.56
  -2   1   9   98.45    2.93
   2  -1  -9  113.56    4.40
  -2   1   8  330.18    5.29
  -2   1   8  334.06    6.57
   2  -1  -8  355.54    6.86
  -2   1   7    1.85    0.33
  -2   1   7    1.00    0.48
   2  -1  -7    1.20    0.60
  -2   1   6  684.67   11.55
  -2   1   6  685.18   12.54
   2  -1  -6  721.81   13.11
   2  -1  -5  288.52    5.49
  -2   1   5  304.71    6.52
   2  -1  -5  331.56    7.18
   2  -1  -4  151.29    4.59
  -2   1   4  160.76    4.33
   2  -1  -4  170.10    4.31
   2  -1  -3    0.07    0.18
  -2   1   3    1.24    0.38
   2  -1  -3   -0.30    0.51
   2  -1  -2  593.20    6.52
  -2   1   2  604.42    7.73
   2  -1  -2  622.68    7.69
   2  -1  -1    9.56    1.45
  -2   1   1    6.70    0.91
   2  -1  -1    8.71    0.77
   2  -1   0  677.85    7.62
  -2   1   0  659.93    7.96
   2  -1   0  676.63    8.03
   2  -1   1  148.82    4.61
  -2   1  -1  148.31    4.72
   2  -1   1  156.99    5.01
   2  -1   2  461.11    5.94
  -2   1  -2  438.70    5.53
   2  -1   2  459.95    5.97
   2  -1   3  163.28    5.37
  -2   1  -3  161.97    3.70
   2  -1   3  166.14    4.01
   2  -1   4 2905.76   29.88
  -2   1  -4 2810.50   27.97
  -2   1  -4 2551.28   26.90
   2  -1   5   79.22    3.10
  -2   1  -5   80.27    2.66
  -2   1  -5   72.64    2.79
   2  -1   6 1491.14   25.15
  -2   1  -6 1376.17   22.30
  -2   1  -6 1310.73   22.51
   2  -1   7  429.48    8.64
  -2   1  -7  407.63    7.01
  -2   1  -7  379.32    7.59
   2  -1   8  386.59    7.29
  -2   1  -8  371.35    5.39
  -2   1  -8  348.38    6.49
   2  -1   9  175.95    4.51
  -2   1  -9  161.12    4.31
   2  -1  10  131.51    5.04
  -2   1 -10  119.87    4.70
   2  -1  11   27.20    3.56
  -2   1 -11   15.26    1.43
   2  -1  12   57.56    2.66
  -2   1 -12   53.65    2.61
   2  -1  13   17.21    1.89
  -2   1 -13   13.15    2.70
   2  -1  14   42.26    2.96
  -2   1 -14   48.81    7.19
   2  -1  15  137.83    6.28
  -2   1 -15  118.49    6.02
   2  -1  16    5.94    1.60
  -2   1 -16    6.05    1.54
   2  -1  17   -0.29    1.22
  -2   1 -17    1.31    1.14
   2  -1  18    7.96    1.43
  -2   1 -18    5.54    1.66
   2  -1  19    7.18    1.73
  -2   1 -19   13.81    2.53
   2  -1  20    1.14    0.77
  -2   1 -20    0.65    1.20
   2  -1  21    1.56    0.54
  -2   1 -21    2.30    1.54
  -2   1 -22   14.13    2.43
  -2   1 -23   -0.06    1.50
   2   0 -22   43.03    4.05
   2   0 -21    2.34    1.34
   2   0 -20    1.34    1.33
   2   0 -19    1.36    1.13
   2   0 -18    1.27    1.15
   2   0 -17   24.54    2.82
  -2   0  16   31.90    2.08
   2   0 -16   34.50    2.86
  -2   0  15   32.54    1.88
  -2   0  15   38.81    2.19
   2   0 -15   37.26    2.62
  -2   0  14   25.67    4.24
  -2   0  14   28.82    2.16
   2   0 -14   34.77    2.41
  -2   0  13   56.10    2.29
  -2   0  13   55.61    2.50
   2   0 -13   57.35    2.95
  -2   0  12   21.27    1.33
  -2   0  12   24.33    1.63
   2   0 -12   22.27    1.81
  -2   0  11  171.18    3.74
  -2   0  11  172.75    4.20
   2   0 -11  189.66    4.92
  -2   0  10  174.24    6.88
  -2   0  10  178.42    5.87
   2   0 -10  188.43    6.54
  -2   0   9  347.26    9.92
  -2   0   9  351.25   10.19
   2   0  -9  351.70   10.49
  -2   0   8   23.34    1.52
  -2   0   8   21.11    1.40
   2   0  -8   24.29    1.67
  -2   0   7  203.75    4.33
  -2   0   7  198.06    4.68
   2   0  -7  220.91    5.15
  -2   0   6  115.02    3.03
  -2   0   6  102.02    3.15
   2   0  -6  113.72    3.29
  -2   0   5  247.09    3.71
  -2   0   5  236.57    4.25
   2   0  -5  246.67    4.14
  -2   0   4  251.42    4.02
  -2   0   4  246.93    4.25
   2   0  -4  259.79    4.04
   2   0  -3 1119.45   11.98
  -2   0   3 1215.47   13.56
   2   0  -3 1211.98   13.08
   2   0  -2  188.65    2.86
  -2   0   2  195.08    3.46
   2   0  -2  196.10    2.97
   2   0  -1    6.18    1.26
  -2   0   1    5.25    0.73
   2   0  -1    6.29    0.47
   2   0   0  701.49    7.97
  -2   0   0  689.02    8.10
   2   0   0  686.28    7.48
   2   0   1   57.94    2.31
  -2   0  -1   55.15    2.66
   2   0   1   56.60    1.90
   2   0   2   97.39    3.27
  -2   0  -2   95.12    3.23
   2   0   2   93.24    2.96
   2   0   3  503.75    6.76
  -2   0  -3  491.18    5.99
  -2   0  -3  439.48    5.66
   2   0   4  524.22    6.87
  -2   0  -4  502.90    6.09
  -2   0  -4  468.12    6.13
   2   0   5 1113.89   13.18
  -2   0  -5 1066.17   11.63
  -2   0  -5  977.40   11.42
   2   0   6 1321.30   15.14
  -2   0  -6 1268.76   13.52
  -2   0  -6 1171.78   13.19
   2   0   7   79.90    2.78
  -2   0  -7   77.89    2.18
  -2   0  -7   68.31    2.44
   2   0   8  551.51   11.07
  -2   0  -8  545.75    9.78
  -2   0  -8  528.69    9.99
   2   0   9  204.19    4.80
  -2   0  -9  201.49    4.12
  -2   0  -9  194.16    4.46
   2   0  10   22.15    1.77
  -2   0 -10   20.81    1.01
  -2   0 -10   18.68    1.48
   2   0  11   16.95    2.05
  -2   0 -11   13.08    1.18
  -2   0 -11   13.81    1.58
   2   0  12   88.46    3.51
   2   0  12   72.78    2.60
  -2   0 -12   89.31    3.47
   2   0  13   37.35    2.41
   2   0  13   23.65    3.94
  -2   0 -13   32.76    2.26
   2   0  14    1.99    1.46
  -2   0 -14    1.96    1.04
   2   0  15    0.36    1.14
  -2   0 -15    2.54    1.50
   2   0  16   52.37    4.87
  -2   0 -16   54.33    3.52
   2   0  17   26.09    2.43
  -2   0 -17   23.58    2.36
   2   0  18   75.06    4.30
  -2   0 -18   75.40    4.60
   2   0  19  426.69    8.77
  -2   0 -19  431.59    8.86
   2   0  20    9.44    1.86
  -2   0 -20    8.84    1.98
   2   0  21   13.24    2.43
  -2   0 -21   14.55    2.29
  -2   0 -22    1.42    0.71
  -2   0 -23   20.89    2.86
   2   1 -22    9.28    2.10
   2   1 -21   65.12    5.17
   2   1 -20    4.83    1.71
   2   1 -19   21.88    3.80
  -2  -1  18   15.30    1.86
   2   1 -18   17.89    2.49
  -2  -1  17   32.83    6.96
   2   1 -17   47.84    3.90
  -2  -1  16  139.33    7.32
   2   1 -16  148.19    8.64
  -2  -1  15    0.98    0.66
  -2  -1  15    1.00    0.87
   2   1 -15    1.49    0.88
  -2  -1  14   22.55    1.85
  -2  -1  14   21.71    3.40
   2   1 -14   28.17    4.33
  -2  -1  13   -0.01    0.71
  -2  -1  13    0.94    0.64
   2   1 -13   -0.19    0.91
  -2  -1  12  285.42    5.34
  -2  -1  12  285.30    5.00
   2   1 -12  296.57    6.17
  -2  -1  11  125.77    3.18
  -2  -1  11  128.72    3.38
   2   1 -11  132.04    3.91
  -2  -1  10   42.51    4.00
  -2  -1  10   41.23    1.81
   2   1 -10   44.89    2.16
  -2  -1   9   -0.22    0.81
  -2  -1   9   -0.09    0.57
   2   1  -9    0.34    0.89
  -2  -1   8 1060.19   15.59
  -2  -1   8 1030.77   14.94
   2   1  -8 1046.79   15.55
  -2  -1   7  214.68    4.88
  -2  -1   7  199.97    5.17
   2   1  -7  208.94    4.80
  -2  -1   6  443.22    8.41
  -2  -1   6  434.49    8.24
   2   1  -6  434.89    8.23
  -2  -1   5  770.95   13.46
  -2  -1   5  763.77   13.32
   2   1  -5  747.05   12.95
  -2  -1   4  189.77    3.37
  -2  -1   4  182.35    3.36
   2   1  -4  179.32    3.02
  -2  -1   3  784.93    9.40
  -2  -1   3  777.78    9.24
   2   1  -3  767.43    8.56
   2   1  -2   34.00    1.57
  -2  -1   2   34.92    1.65
   2   1  -2   34.73    1.32
   2   1  -1  752.99    9.00
  -2  -1   1  796.54    9.28
   2   1  -1  779.51    8.03
   2   1   0  606.56    7.72
  -2  -1   0  640.33    7.73
   2   1   0  604.27    6.07
   2   1   1  147.78    4.75
  -2  -1  -1  156.36    4.94
  -2  -1  -1  123.87    3.49
   2   1   2  109.09    3.65
  -2  -1  -2  112.13    3.74
  -2  -1  -2   96.48    2.85
   2   1   3 1416.29   15.36
  -2  -1  -3 1429.93   15.35
  -2  -1  -3 1287.82   13.04
   2   1   4  382.17    5.50
  -2  -1  -4  379.52    5.25
  -2  -1  -4  353.29    4.49
   2   1   5 3825.73   38.71
  -2  -1  -5 3771.79   37.87
  -2  -1  -5 3525.03   35.11
   2   1   6 1078.71   18.52
  -2  -1  -6 1040.60   17.58
  -2  -1  -6  993.31   17.18
   2   1   7 1155.72   19.91
  -2  -1  -7 1134.20   19.14
  -2  -1  -7 1080.11   18.40
   2   1   8  165.53    5.81
  -2  -1  -8  157.72    4.03
  -2  -1  -8  146.88    4.03
   2   1   9  195.98    4.62
  -2  -1  -9  186.49    3.98
  -2  -1  -9  189.11    4.28
   2   1  10   10.89    1.60
  -2  -1 -10   11.83    1.25
  -2  -1 -10   10.78    1.30
   2   1  11    4.36    1.08
  -2  -1 -11    3.32    0.73
  -2  -1 -11    2.92    0.70
   2   1  12   14.23    1.93
  -2  -1 -12    8.51    1.14
   2   1  13   40.44    2.74
   2   1  13   37.70    3.20
  -2  -1 -13   44.34    2.94
   2   1  14   65.10    3.06
   2   1  14   50.60    2.78
  -2  -1 -14   63.39    3.01
   2   1  15    0.73    0.51
   2   1  15    0.98    0.34
  -2  -1 -15    0.67    1.33
   2   1  16   84.43   10.18
  -2  -1 -16   79.57    4.16
   2   1  17   18.75    2.09
  -2  -1 -17   18.49    2.05
   2   1  18    2.14    0.90
  -2  -1 -18    4.58    1.36
   2   1  19    9.18    1.72
  -2  -1 -19   13.40    2.40
   2   1  20    0.42    0.96
  -2  -1 -20    1.22    1.04
  -2  -1 -21    1.01    1.24
  -2  -1 -22    7.64    1.91
   2   2 -21    1.57    1.35
   2   2 -20    9.06    1.83
  -2  -2  19   15.02    3.73
   2   2 -19   22.08    4.46
  -2  -2  18    1.19    1.34
   2   2 -18   -0.14    1.33
  -2  -2  17    8.30    2.16
   2   2 -17   10.97    1.90
  -2  -2  16   37.56    7.50
   2   2 -16   47.86    3.69
  -2  -2  15    0.81    0.57
   2   2 -15    0.51    1.06
  -2  -2  14   10.71    1.26
   2   2 -14   13.43    1.95
  -2  -2  13   29.99    2.09
  -2  -2  13   25.77    1.36
   2   2 -13   32.37    2.20
  -2  -2  12   49.12    2.98
  -2  -2  12   51.68    2.73
   2   2 -12   54.21    3.30
  -2  -2  11   91.93    3.06
  -2  -2  11   91.84    2.41
   2   2 -11   96.54    3.29
  -2  -2  10   20.78    4.40
  -2  -2  10   17.45    1.21
   2   2 -10   14.96    1.49
  -2  -2   9   42.68    2.04
  -2  -2   9   40.54    1.65
   2   2  -9   44.63    2.03
  -2  -2   8    0.28    0.54
  -2  -2   8    0.27    0.26
   2   2  -8    0.94    0.83
  -2  -2   7 1608.44   23.37
  -2  -2   7 1582.44   21.68
   2   2  -7 1563.46   95.20
  -2  -2   6  106.95    3.55
  -2  -2   6   98.67    3.92
   2   2  -6   95.79    2.96
  -2  -2   5  137.79    3.94
  -2  -2   5  138.35    3.65
   2   2  -5  128.87    3.64
  -2  -2   4  316.15    6.54
  -2  -2   4  303.68    6.01
   2   2  -4  280.34    5.42
  -2  -2   3   94.76    3.45
  -2  -2   3   95.48    3.38
   2   2  -3   91.42    3.15
  -2  -2   2  134.21    4.57
  -2  -2   2  120.91    4.10
   2   2  -2  110.71    3.58
   2   2  -1    0.62    0.36
  -2  -2   1    1.41    0.51
   2   2  -1    0.97    0.18
   2   2   0  119.54    4.06
  -2  -2   0  131.47    4.38
   2   2   0  108.12    3.18
   2   2   1  117.48    3.98
  -2  -2  -1  127.93    4.35
   2   2   2  395.73    5.75
  -2  -2  -2  413.90    5.90
  -2  -2  -2  380.52    4.08
   2   2   3   85.59    3.29
  -2  -2  -3   84.01    3.17
  -2  -2  -3   82.71    2.61
   2   2   4 1319.23   14.93
  -2  -2  -4 1347.45   15.16
  -2  -2  -4 1268.96   13.16
   2   2   5   81.08    2.61
  -2  -2  -5   81.45    2.67
  -2  -2  -5   78.69    2.24
   2   2   6  365.70    7.29
  -2  -2  -6  364.20    7.29
  -2  -2  -6  362.41    6.85
   2   2   7 1366.09   23.34
  -2  -2  -7 1379.03   23.42
  -2  -2  -7 1273.23   21.36
   2   2   8   85.47    3.01
  -2  -2  -8   83.08    3.63
  -2  -2  -8   70.59    3.50
   2   2   9  814.96   12.68
  -2  -2  -9  811.31   12.56
  -2  -2  -9  768.61   12.07
   2   2  10    6.01    1.23
  -2  -2 -10    6.42    1.08
  -2  -2 -10    5.39    1.35
   2   2  11   71.86    3.03
  -2  -2 -11   68.74    3.21
  -2  -2 -11   66.09    3.69
   2   2  12   74.22    2.78
  -2  -2 -12   75.83    2.69
  -2  -2 -12   69.27    2.68
   2   2  13  206.49    4.85
  -2  -2 -13  203.91    5.05
   2   2  14   60.31    2.83
   2   2  14   56.04    4.14
  -2  -2 -14   56.58    2.72
   2   2  15   22.28    2.12
   2   2  15   15.79    2.42
  -2  -2 -15   14.94    1.82
   2   2  16    1.58    0.93
   2   2  16    3.75    0.51
  -2  -2 -16    4.48    1.06
   2   2  17  118.36    6.04
   2   2  17   86.19    7.18
  -2  -2 -17  107.81    6.22
   2   2  18    6.69    1.56
  -2  -2 -18    5.01    1.27
   2   2  19  127.87    4.74
  -2  -2 -19  131.90    5.13
  -2  -2 -20   71.52    4.89
  -2  -2 -21   19.43    2.87
  -2  -2 -22    5.84    1.42
   2   3 -20    0.64    0.79
  -2  -3  19    2.19    1.16
   2   3 -19    0.70    1.23
  -2  -3  18    8.63    1.61
   2   3 -18    6.85    1.60
  -2  -3  17   25.16    5.10
   2   3 -17   33.59    3.13
  -2  -3  16   10.28    1.69
   2   3 -16    7.54    1.55
  -2  -3  15   12.16    1.70
   2   3 -15   14.05    1.88
  -2  -3  14    0.52    1.02
   2   3 -14    1.22    0.79
  -2  -3  13   29.95    2.70
   2   3 -13   36.12    2.47
  -2  -3  12    9.47    1.51
   2   3 -12   10.39    1.89
  -2  -3  11  119.02    3.85
  -2  -3  11  116.04    2.72
   2   3 -11  116.92    3.94
  -2  -3  10    2.95    0.82
  -2  -3  10    1.79    0.54
   2   3 -10    2.38    0.86
  -2  -3   9   42.59    5.52
  -2  -3   9   40.87    1.77
   2   3  -9   38.74    5.88
  -2  -3   8  566.78   16.09
  -2  -3   8  538.44   14.61
   2   3  -8  549.71   15.60
  -2  -3   7  155.41    5.49
  -2  -3   7  140.87    4.53
   2   3  -7  137.20    4.68
  -2  -3   6  468.98    8.46
  -2  -3   6  442.51    7.26
   2   3  -6  414.55    7.81
  -2  -3   5  149.14    3.92
  -2  -3   5  141.23    3.32
   2   3  -5  129.90    3.10
  -2  -3   4   39.14    1.93
  -2  -3   4   40.02    3.03
   2   3  -4   37.82    3.36
  -2  -3   3  277.77    6.10
  -2  -3   3  265.22    5.56
   2   3  -3  243.24    5.03
  -2  -3   2  307.34    6.48
  -2  -3   2  303.86    6.23
   2   3  -2  260.21    5.12
  -2  -3   1   18.91    2.16
   2   3  -1   17.46    1.81
   2   3   0  131.64    3.79
  -2  -3   0  143.44    3.90
   2   3   0  119.39    2.87
   2   3   1   27.18    1.44
  -2  -3  -1   28.04    1.56
  -2  -3  -1   26.00    0.99
   2   3   2  281.30    6.04
  -2  -3  -2  305.68    6.43
  -2  -3  -2  273.56    4.94
   2   3   3   29.38    1.63
  -2  -3  -3   31.59    1.76
  -2  -3  -3   29.98    1.10
   2   3   4  996.49   17.28
  -2  -3  -4 1021.95   17.92
  -2  -3  -4  982.85   16.33
   2   3   5  131.81    3.73
  -2  -3  -5  137.79    4.11
  -2  -3  -5  128.23    3.27
   2   3   6  199.07    4.28
  -2  -3  -6  190.56    4.49
  -2  -3  -6  185.70    4.38
   2   3   7  349.07    6.44
  -2  -3  -7  343.17    6.75
  -2  -3  -7  333.05    5.88
   2   3   8  515.63   14.32
  -2  -3  -8  535.26   15.10
  -2  -3  -8  523.97   14.41
   2   3   9  248.80    7.63
  -2  -3  -9  271.64    8.54
  -2  -3  -9  242.25    7.38
   2   3  10   23.18    1.64
  -2  -3 -10   24.92    1.94
  -2  -3 -10   22.73    1.58
   2   3  11  171.30    5.88
  -2  -3 -11  174.23    5.54
  -2  -3 -11  160.72    5.10
   2   3  12  181.36    5.31
  -2  -3 -12  190.90    4.76
  -2  -3 -12  176.99    4.35
   2   3  13   43.33    2.31
  -2  -3 -13   38.81    2.32
   2   3  14   15.86    1.74
   2   3  14   17.52    2.93
  -2  -3 -14   15.72    1.78
   2   3  15   14.10    1.47
   2   3  15   13.26    1.82
  -2  -3 -15   15.72    1.85
   2   3  16   23.78    1.92
   2   3  16   23.49    4.08
  -2  -3 -16   21.14    1.91
   2   3  17    2.08    0.73
  -2  -3 -17    1.36    1.01
   2   3  18  125.03    5.55
  -2  -3 -18  141.19    4.95
  -2  -3 -19   38.42    3.06
  -2  -3 -20    2.42    1.34
  -2  -3 -21   25.78    3.11
  -2  -4  19   39.97    3.64
   2   4 -19   50.24    4.43
  -2  -4  18   -1.91    1.10
   2   4 -18    1.73    1.29
  -2  -4  17    0.75    1.08
   2   4 -17    0.70    1.22
  -2  -4  16   12.31    3.75
   2   4 -16    9.98    1.74
  -2  -4  15   15.32    2.84
   2   4 -15   12.54    2.19
  -2  -4  14   16.21    2.83
   2   4 -14   16.48    2.10
  -2  -4  13   18.00    3.65
   2   4 -13   18.17    2.12
  -2  -4  12   24.27    5.18
   2   4 -12   21.85    3.89
  -2  -4  11   35.95    3.25
   2   4 -11   39.87    5.88
  -2  -4  10   14.64    1.78
   2   4 -10   11.99    2.05
  -2  -4   9   -0.28    0.79
  -2  -4   9    0.84    0.37
   2   4  -9    0.69    0.67
  -2  -4   8    2.86    0.97
  -2  -4   8    1.87    0.68
   2   4  -8    3.96    0.92
  -2  -4   7   -0.43    0.86
  -2  -4   7    0.21    0.41
   2   4  -7   -0.67    0.56
  -2  -4   6  157.24    4.45
  -2  -4   6  142.48    3.20
   2   4  -6  135.77    3.29
  -2  -4   5   31.45    1.94
  -2  -4   5   27.25    1.47
   2   4  -5   31.87    1.54
  -2  -4   4   29.45    1.81
  -2  -4   4   17.81    3.15
   2   4  -4   17.23    2.46
  -2  -4   3    0.78    0.67
   2   4  -3   -0.02    0.34
  -2  -4   2  503.96    8.85
  -2  -4   2  480.40    8.17
   2   4  -2  416.61    6.95
  -2  -4   1  395.47    7.34
  -2  -4   1  388.80    7.17
   2   4  -1  321.28    6.06
   2   4   0  462.64    8.10
  -2  -4   0  494.29    8.53
  -2  -4   0  476.11    7.28
   2   4   1   73.81    2.56
  -2  -4  -1   79.94    4.64
  -2  -4  -1   77.97    2.87
   2   4   2   12.21    3.33
  -2  -4  -2   12.82    1.51
  -2  -4  -2   17.25    2.31
   2   4   3   69.64    2.35
  -2  -4  -3   77.72    5.09
  -2  -4  -3   66.10    1.92
   2   4   4   34.07    1.85
  -2  -4  -4   40.34    2.16
  -2  -4  -4   35.54    1.42
   2   4   5   30.50    1.58
  -2  -4  -5   27.83    1.82
  -2  -4  -5   28.13    1.22
   2   4   6  281.03    9.53
  -2  -4  -6  301.85    9.35
  -2  -4  -6  282.43    8.14
   2   4   7   20.40    1.55
  -2  -4  -7   21.79    1.88
  -2  -4  -7   21.12    1.30
   2   4   8  391.49    6.41
  -2  -4  -8  398.23    7.36
  -2  -4  -8  381.24    6.18
   2   4   9  108.62    5.49
  -2  -4  -9  113.19    3.75
  -2  -4  -9  105.63    3.06
   2   4  10   86.04    5.28
  -2  -4 -10   97.66    5.68
  -2  -4 -10   84.97    5.39
   2   4  11  124.21    4.37
  -2  -4 -11  133.64    4.95
  -2  -4 -11  111.63    5.62
   2   4  12  437.84    8.91
  -2  -4 -12  476.63   10.57
  -2  -4 -12  431.47    9.31
   2   4  13   15.66    1.39
  -2  -4 -13   15.00    1.56
   2   4  14   33.67    2.13
   2   4  14   36.14    5.77
  -2  -4 -14   37.86    2.33
   2   4  15    0.66    0.74
   2   4  15    0.08    0.51
  -2  -4 -15   -0.13    0.68
   2   4  16    0.87    0.71
  -2  -4 -16    2.53    1.35
   2   4  17   11.99    1.92
  -2  -4 -17   12.30    1.77
   2   4  18   59.35    7.55
  -2  -4 -18   76.64    4.06
  -2  -4 -19   56.22    4.05
  -2  -4 -20    2.01    1.28
  -2  -5  19   28.45    3.23
  -2  -5  18    1.58    1.40
   2   5 -18   -0.27    1.17
  -2  -5  17    8.36    2.34
   2   5 -17   11.65    2.01
  -2  -5  16    3.24    1.14
   2   5 -16    1.50    1.25
  -2  -5  15    0.83    1.27
   2   5 -15    0.75    0.79
  -2  -5  14   45.99    3.23
   2   5 -14   46.29    8.30
  -2  -5  13   44.22    3.44
   2   5 -13   46.71    3.45
  -2  -5  12   88.51    3.97
   2   5 -12   89.89    3.80
  -2  -5  11  108.63    5.03
   2   5 -11  109.33    6.91
  -2  -5  10    6.01    1.43
   2   5 -10    6.14    0.87
  -2  -5   9    2.89    1.34
   2   5  -9    2.69    0.87
  -2  -5   8   93.61    4.01
  -2  -5   8   83.65    2.82
   2   5  -8   82.93    3.56
  -2  -5   7  289.51    6.59
  -2  -5   7  269.61    4.68
   2   5  -7  249.26    5.63
  -2  -5   6  268.12    5.97
  -2  -5   6  252.50    4.53
   2   5  -6  224.36    5.25
  -2  -5   5   27.35    1.94
  -2  -5   5   30.88    4.36
   2   5  -5   30.38    3.75
  -2  -5   4   16.16    1.68
  -2  -5   4   15.67    2.50
   2   5  -4   14.06    1.96
  -2  -5   3   11.11    1.33
  -2  -5   3   11.95    1.25
   2   5  -3   11.51    1.94
  -2  -5   2   16.62    1.45
  -2  -5   2   23.63    3.82
   2   5  -2   13.44    2.35
  -2  -5   1  166.60    4.18
   2   5  -1  128.00    4.52
   2   5   0   42.45    6.14
  -2  -5   0   45.97    2.61
  -2  -5   0   47.43    1.94
   2   5   1   17.31    2.66
  -2  -5  -1   16.89    1.52
   2   5   2  125.29    5.62
  -2  -5  -2  133.61    3.80
  -2  -5  -2  122.16    6.39
   2   5   3  160.24    4.43
  -2  -5  -3  168.41    4.47
  -2  -5  -3  161.76    3.37
   2   5   4   59.96    5.12
  -2  -5  -4   73.34    9.38
  -2  -5  -4   61.48    2.32
   2   5   5   84.50    2.67
  -2  -5  -5   95.80    4.60
  -2  -5  -5   86.21    2.43
   2   5   6    3.35    0.63
  -2  -5  -6    3.61    1.15
  -2  -5  -6    3.70    0.84
   2   5   7   21.34    1.41
  -2  -5  -7   25.89    2.53
  -2  -5  -7   20.91    1.42
   2   5   8  144.10    4.17
  -2  -5  -8  155.27    4.84
  -2  -5  -8  137.77    3.49
   2   5   9   40.94    5.60
  -2  -5  -9   43.30    2.81
  -2  -5  -9   37.49    1.95
   2   5  10   23.06    3.02
  -2  -5 -10   30.23    2.48
  -2  -5 -10   25.36    1.93
   2   5  11    3.88    0.85
  -2  -5 -11    4.74    1.56
  -2  -5 -11    4.66    1.29
   2   5  12  256.92   10.87
  -2  -5 -12  269.63   15.48
   2   5  13  136.28    5.44
  -2  -5 -13  127.61    4.25
   2   5  14   88.92   14.52
  -2  -5 -14   85.63    6.16
   2   5  15    5.28    0.98
  -2  -5 -15    2.69    0.86
   2   5  16   45.72    7.60
  -2  -5 -16   43.37    2.92
   2   5  17    1.30    0.74
  -2  -5 -17    2.94    1.54
   2   5  18    0.38    0.49
  -2  -5 -18    2.48    1.60
  -2  -6  18    7.47    2.04
  -2  -6  17    7.25    1.99
  -2  -6  16    3.67    1.53
  -2  -6  15   41.27    3.80
   2   6 -15   26.37    6.58
  -2  -6  14    2.24    1.34
   2   6 -14    1.33    0.93
  -2  -6  13   50.18    3.70
   2   6 -13   38.99    2.85
  -2  -6  12   15.46    2.16
   2   6 -12   16.96    1.85
  -2  -6  11   76.86    4.36
   2   6 -11   74.68   11.62
  -2  -6  10   12.77    1.99
   2   6 -10   13.77    1.79
  -2  -6   9   34.32    2.57
   2   6  -9   30.84    5.02
  -2  -6   8    3.20    1.97
   2   6  -8   -0.32    0.70
  -2  -6   7   38.02    2.87
  -2  -6   7   34.88    1.78
   2   6  -7   32.38    5.77
  -2  -6   6  142.55    5.02
  -2  -6   6  124.90    3.76
   2   6  -6  114.66    4.64
  -2  -6   5    0.89    0.98
  -2  -6   5    2.34    0.86
   2   6  -5    2.60    0.50
  -2  -6   4  137.82    4.94
  -2  -6   4  129.24    4.21
   2   6  -4  112.70    3.91
  -2  -6   3  226.17    6.61
  -2  -6   3  207.08    5.76
   2   6  -3  180.39    5.58
  -2  -6   2  258.53    5.80
  -2  -6   2  255.37    5.27
   2   6  -2  212.17    5.65
   2   6  -1  231.21    6.75
  -2  -6   1  259.52    5.54
   2   6  -1  217.18    4.42
   2   6   0  575.67   11.65
  -2  -6   0  678.02   10.14
  -2  -6   0  625.92    8.02
  -2  -6  -1  416.02    7.74
   2   6   2   64.25   10.04
  -2  -6  -2   68.26    4.36
  -2  -6  -2   66.35    7.91
   2   6   3  485.18   10.86
  -2  -6  -3  541.47    9.27
  -2  -6  -3  490.68    7.42
   2   6   4  239.79    7.64
  -2  -6  -4  283.53    8.01
  -2  -6  -4  247.87    6.18
   2   6   5    1.15    0.94
  -2  -6  -5    0.21    1.13
  -2  -6  -5    1.68    0.71
   2   6   6  185.47    4.91
  -2  -6  -6  210.17    6.39
  -2  -6  -6  189.53    4.96
   2   6   7  280.39    6.37
  -2  -6  -7  323.02    8.44
  -2  -6  -7  294.02    6.72
   2   6   8    2.64    0.60
  -2  -6  -8    4.48    1.43
  -2  -6  -8    2.83    0.76
   2   6   9    2.72    0.52
  -2  -6  -9    0.85    1.06
  -2  -6  -9    1.55    0.72
  -2  -6 -10   30.90    2.90
  -2  -6 -10   24.47    1.86
  -2  -6 -11   25.49    2.03
   2   6  12  170.41    9.46
  -2  -6 -12  174.94    7.15
   2   6  13   45.81   10.12
  -2  -6 -13   49.31    3.14
   2   6  14   20.52    3.64
  -2  -6 -14   21.04    2.12
   2   6  15   -0.17    1.22
  -2  -6 -15    0.87    0.92
   2   6  16    6.33    1.75
   2   6  17    0.58    0.65
   2   6  18    2.14    0.81
  -2  -7  16   22.14    3.41
  -2  -7  15   36.38    3.44
  -2  -7  14   16.91    2.16
  -2  -7  13  126.04    5.24
  -2  -7  12   31.63    2.86
   2   7 -12   23.72    5.39
  -2  -7  11   21.62    2.69
   2   7 -11   19.79    2.04
  -2  -7  10   36.39    3.30
   2   7 -10   24.30    4.87
  -2  -7   9   -1.11    1.36
   2   7  -9   -0.72    0.77
  -2  -7   8    9.38    2.00
   2   7  -8    7.77    1.64
  -2  -7   7   18.52    2.09
   2   7  -7   13.26    2.46
  -2  -7   6    1.82    1.15
  -2  -7   6    1.49    0.62
   2   7  -6    0.79    0.55
  -2  -7   5  132.74    4.73
  -2  -7   5  123.63    4.53
   2   7  -5  112.05    4.00
  -2  -7   4    2.04    0.99
  -2  -7   4    0.47    0.64
   2   7  -4    1.04    0.37
  -2  -7   3   14.88    1.73
  -2  -7   3   10.85    1.56
   2   7  -3   11.30    2.07
   2   7  -2   66.96   10.74
  -2  -7   2   74.25    4.22
   2   7  -2   56.96    8.49
   2   7  -1    2.22    1.14
  -2  -7   1    0.81    0.85
   2   7  -1    0.35    0.34
   2   7   0    8.10    1.49
  -2  -7   0   12.67    1.85
   2   7   1    8.81    1.73
  -2  -7  -1   11.48    1.80
  -2  -7  -1    7.99    1.72
   2   7   2    1.10    0.88
  -2  -7  -2    3.84    1.41
  -2  -7  -2    1.24    0.79
   2   7   3    6.97    1.07
  -2  -7  -3    6.07    1.38
  -2  -7  -3    5.69    1.21
   2   7   4   18.54    1.82
  -2  -7  -4   19.05    1.98
  -2  -7  -4   18.78    1.65
   2   7   5    0.36    0.68
  -2  -7  -5    2.00    1.55
  -2  -7  -5    1.08    0.56
   2   7   6    1.97    0.59
  -2  -7  -6    4.04    1.73
  -2  -7  -6    1.80    0.66
  -2  -7  -7  204.42    9.82
  -2  -7  -7  165.81    8.73
  -2  -7  -8  451.49   19.23
  -2  -7  -8  373.50   15.35
  -2  -7  -9   12.32    1.55
   2   7  10   96.84    5.28
  -2  -7 -10   90.66    4.18
   2   7  11  178.54    7.04
   2   7  12    3.02    1.06
   2   7  13   64.63   12.79
   2   7  14   48.94    7.69
   2   7  15   26.47    3.62
   2   7  16   22.25    5.22
   2   7  17   27.23    6.04
  -2  -8  14    2.44    1.72
  -2  -8  13  221.01   11.73
  -2  -8  12   12.76    2.46
  -2  -8  11   63.37    4.23
  -2  -8  10   59.30    3.78
  -2  -8   9  104.32    6.39
  -2  -8   8   14.69    2.04
  -2  -8   7    0.44    1.11
  -2  -8   6   -0.25    0.97
  -2  -8   5   12.92    2.01
  -2  -8   4    7.82    1.41
   2   8  -3   -0.38    0.87
  -2  -8   3    0.15    0.73
   2   8  -2   30.97    3.60
  -2  -8   2   33.82    2.45
   2   8  -1  195.76    8.27
  -2  -8   1  238.41    9.32
   2   8   0  189.71    7.67
  -2  -8   0  230.71    9.11
   2   8   1  127.47   16.46
  -2  -8  -1  169.54    7.34
   2   8   2   34.52    4.27
  -2  -8  -2   45.72    3.69
   2   8   3    1.84    0.63
  -2  -8  -3    3.07    2.14
  -2  -8  -4   20.53    6.92
  -2  -8  -5    0.92    0.61
   2   8   8    0.97    0.85
   2   8   9   14.68    3.13
   2   8  10    9.46    1.77
   2   8  11   20.28    4.54
   2   8  12  136.61    5.84
   2   8  13    1.27    1.27
   2   8  14    1.64    0.74
   2   8  15   36.92    8.38
  -2  -9  10    5.52    1.57
  -2  -9   9   74.96    5.44
  -2  -9   8  149.56    8.48
  -2  -9   7   38.25    3.54
   2   9  -5   49.76   10.97
   2   9  -4   47.03   12.08
   2   9  -3    0.95    1.18
   2   9  -2    4.53    1.53
   2   9   3    2.08    1.17
   2   9   4   20.38    3.81
   2   9   5   21.75    5.02
   2   9   6    2.35    0.60
   2   9   7    0.80    0.80
   2   9   8   -0.59    1.12
   2   9   9    6.81    1.70
   2   9  10    4.16    1.79
   2   9  11    2.19    1.19
   2   9  12    1.55    1.25
   3  -9  -5    1.33    0.94
   3  -9  -3    5.52    2.38
   3  -9  -2    1.91    1.34
   3  -9  -1    1.16    0.75
   3  -9   0    0.42    1.33
   3  -9   1   33.97    4.08
   3  -9   2   33.94    3.51
  -3   9  -4    2.82    0.97
  -3   9  -5   14.92    4.33
  -3   9  -6    9.20    2.64
  -3   8  11   23.37    6.65
   3  -8 -11   27.00    2.93
  -3   8  10    4.64    1.43
   3  -8 -10    3.01    1.80
  -3   8   9   32.08    7.92
   3  -8  -9   47.59    4.48
   3  -8  -8    2.75    1.39
  -3   8   7    7.30    2.15
   3  -8  -7   14.10    2.47
  -3   8   6   36.62    7.95
  -3   8   5    5.47    1.68
  -3   8   4    2.45    1.42
   3  -8  -4    8.21    2.17
  -3   8   3    7.07    2.14
  -3   8   2    4.05    2.15
   3  -8  -2    2.49    1.14
  -3   8   1    4.82    1.09
   3  -8  -1    6.46    1.95
   3  -8   0   -0.86    1.16
   3  -8   1    6.94    2.26
   3  -8   2    7.02    1.84
   3  -8   3    0.23    1.17
  -3   8  -5   30.75    5.84
  -3   8  -6   47.94    9.63
  -3   8  -7   54.11   10.41
  -3   8  -8   38.15    7.71
  -3   8  -9    5.36    1.43
  -3   8 -10    1.08    1.18
  -3   8 -11    0.00    1.22
  -3   8 -12    1.92    1.25
  -3   7  14    6.13    2.33
   3  -7 -14    1.53    1.37
  -3   7  13    1.91    1.08
   3  -7 -13    2.05    1.37
  -3   7  12    8.44    2.28
   3  -7 -12    4.92    1.45
  -3   7  11   20.04    3.75
   3  -7 -11   20.89    2.96
  -3   7  10   25.81    5.81
   3  -7 -10   25.86    2.80
  -3   7   9    6.15    1.64
   3  -7  -9   12.29    2.01
  -3   7   8   94.67    6.12
   3  -7  -8  106.77    6.64
  -3   7   7  140.44    5.86
   3  -7  -7  134.84    5.52
  -3   7   6   -0.74    1.50
   3  -7  -6    1.26    1.43
  -3   7   5  395.98    8.57
  -3   7   4   31.27    2.56
   3  -7  -4   42.45    3.35
  -3   7   3   32.59    2.69
   3  -7  -3   49.29    8.22
  -3   7   2  214.20   15.11
   3  -7  -2  225.14    9.66
  -3   7   1   62.59    3.80
   3  -7  -1   68.96   11.68
  -3   7   0   -0.08    0.87
   3  -7   0    0.58    1.10
  -3   7  -1    1.31    0.47
   3  -7   1    0.32    0.42
  -3   7  -2   62.25    3.35
   3  -7   2   72.17   11.00
   3  -7   3    6.57    1.67
   3  -7   4   11.37    1.77
   3  -7   6   63.13    3.07
  -3   7  -6   51.54    9.15
   3  -7   7   40.07    8.51
  -3   7  -7   49.41    8.74
   3  -7   8    0.48    1.25
  -3   7  -8    0.92    0.60
   3  -7   9    3.76    1.08
  -3   7  -9    6.86    1.89
   3  -7  10    3.47    1.63
   3  -7  11   13.94    2.01
  -3   7 -11   14.57    2.65
   3  -7  12   -0.59    1.07
  -3   7 -12    0.91    0.64
   3  -7  13   10.04    1.90
  -3   7 -13    9.66    2.67
  -3   7 -14    0.73    1.39
  -3   7 -15    0.86    0.98
  -3   6  16    1.53    1.89
   3  -6 -16    1.04    1.32
  -3   6  15    0.71    1.73
   3  -6 -15    6.37    1.93
  -3   6  14    3.33    1.74
   3  -6 -14    0.34    1.10
  -3   6  13    1.22    0.76
   3  -6 -13   -0.87    1.12
  -3   6  12    3.05    2.35
   3  -6 -12    0.72    1.21
  -3   6  11   11.85    3.21
   3  -6 -11    8.56    1.59
  -3   6  10   17.55    3.75
   3  -6 -10   14.97    2.20
  -3   6   9    0.15    1.35
   3  -6  -9    1.30    1.27
  -3   6   8    3.03    1.48
   3  -6  -8    1.40    1.21
  -3   6   7    0.43    1.28
   3  -6  -7    1.00    1.31
  -3   6   6   37.33    3.37
   3  -6  -6   41.65    3.54
  -3   6   5    6.58    1.35
   3  -6  -5   12.29    1.87
  -3   6   4   21.98    2.39
   3  -6  -4   28.19    2.39
  -3   6   3    0.74    0.96
   3  -6  -3    1.28    1.63
  -3   6   2   19.46    1.73
   3  -6  -2   25.72    2.39
  -3   6   1  433.47   13.41
   3  -6  -1  458.37   14.53
  -3   6   0  107.45    5.64
   3  -6   0  122.80    5.54
  -3   6  -1   23.16    3.57
  -3   6  -2  174.13    6.36
   3  -6   2  196.48    7.86
   3  -6   3  241.53    7.90
  -3   6  -3  228.38    8.47
   3  -6   3  257.70    9.89
   3  -6   4    7.80    1.06
  -3   6  -4    8.20    1.34
   3  -6   4    8.49    1.62
   3  -6   5   66.01    6.41
   3  -6   5   81.69    4.11
   3  -6   6  378.31   14.56
  -3   6  -6  346.93    9.12
   3  -6   7   39.64    5.57
  -3   6  -7   44.13    7.34
   3  -6   8   73.62    3.96
  -3   6  -8   70.56   10.45
   3  -6   9  246.80   13.33
  -3   6  -9  255.36   21.66
   3  -6  10   23.36    3.46
  -3   6 -10   26.20    5.24
   3  -6  11    7.26    1.57
  -3   6 -11    3.59    1.05
   3  -6  12   11.54    2.47
  -3   6 -12    9.37    2.64
   3  -6  13    5.53    2.40
  -3   6 -13    6.55    1.93
   3  -6  14    1.04    0.82
  -3   6 -14    0.25    0.58
   3  -6  15    1.76    1.07
  -3   6 -15    1.84    0.54
   3  -6  16   15.13    3.64
  -3   6 -16   16.46    5.79
   3  -6  17   28.61    7.72
  -3   6 -17   27.02    6.41
   3  -5 -18    0.93    1.45
  -3   5  17   40.57   14.66
   3  -5 -17   84.35    5.90
  -3   5  16    7.45    2.49
   3  -5 -16    5.75    1.89
  -3   5  15   -0.34    1.43
   3  -5 -15    2.25    1.32
  -3   5  14    9.80    2.19
   3  -5 -14    9.55    2.15
  -3   5  13    1.40    1.32
   3  -5 -13    0.75    1.34
  -3   5  12    1.95    0.72
   3  -5 -12   -0.22    1.13
  -3   5  11    1.59    1.19
   3  -5 -11    0.61    1.21
  -3   5  10   63.57    8.78
   3  -5 -10   66.34    4.39
  -3   5   9   -0.03    1.41
   3  -5  -9    3.42    1.41
  -3   5   8  102.80    5.06
   3  -5  -8  100.72    4.87
  -3   5   7  333.79   12.78
   3  -5  -7  360.60   13.64
  -3   5   6  356.10   13.85
   3  -5  -6  390.19   14.65
  -3   5   5   95.70    3.99
   3  -5  -5  113.94    4.61
  -3   5   4  100.51    4.03
   3  -5  -4  116.73    4.48
  -3   5   3   23.69    2.08
   3  -5  -3   35.86    5.26
  -3   5   2   46.12    6.61
   3  -5  -2   50.66    3.03
  -3   5   1   -0.41    0.82
   3  -5  -1    1.88    1.17
   3  -5   0    4.20    0.75
  -3   5   0    6.80    1.55
   3  -5   0    5.50    1.39
   3  -5   1   30.57    4.83
  -3   5  -1   34.82    2.34
   3  -5   1   41.39    7.46
   3  -5   2   10.06    1.50
  -3   5  -2   10.07    2.52
   3  -5   2   15.12    1.68
   3  -5   3  142.39    4.26
  -3   5  -3  138.46    4.28
   3  -5   3  149.31    5.23
   3  -5   4   45.22    2.26
  -3   5  -4   43.10    2.00
   3  -5   4   54.55    8.49
   3  -5   5   38.41    2.20
  -3   5  -5   37.52    1.96
   3  -5   5   44.49    2.93
   3  -5   6  268.59    6.84
  -3   5  -6  243.01   11.08
   3  -5   7    0.43    1.35
  -3   5  -7    0.56    0.69
   3  -5   8   17.46    1.61
  -3   5  -8   21.47    4.11
   3  -5   9    5.56    1.28
  -3   5  -9    7.00    1.22
   3  -5  10    1.79    1.08
  -3   5 -10    0.71    0.59
   3  -5  11    9.33    1.42
  -3   5 -11   13.61    2.47
   3  -5  12   12.81    1.84
  -3   5 -12   19.38    2.90
   3  -5  13  238.02   10.24
  -3   5 -13  222.73    8.39
   3  -5  14   51.00    6.13
  -3   5 -14   44.84    8.89
   3  -5  15    2.59    1.44
  -3   5 -15    0.14    1.20
   3  -5  16    1.07    1.35
  -3   5 -16    3.20    1.43
   3  -5  17   52.47    3.70
  -3   5 -17   52.46    3.85
   3  -5  18    2.80    1.35
  -3   5 -18    5.84    1.95
   3  -5  19    8.27    2.37
  -3   5 -19    7.23    2.12
   3  -4 -19   34.60    3.94
  -3   4  18   41.63    4.12
   3  -4 -18   38.94    4.06
  -3   4  17   62.68    5.35
   3  -4 -17   72.87    4.35
  -3   4  16   22.82    8.28
   3  -4 -16   36.37    3.43
  -3   4  15   13.53    2.13
   3  -4 -15   12.01    1.79
  -3   4  14   11.03    2.88
   3  -4 -14   12.66    2.89
  -3   4  13   86.97    5.50
   3  -4 -13   82.12    4.77
  -3   4  12   58.34    8.92
   3  -4 -12   71.44    4.86
  -3   4  11    6.75    1.56
   3  -4 -11    4.92    1.63
  -3   4  10    1.40    0.74
   3  -4 -10    3.64    1.18
  -3   4   9    6.93    1.53
   3  -4  -9    4.01    1.31
  -3   4   8    3.02    0.92
   3  -4  -8    5.92    1.70
  -3   4   7   45.09    2.83
   3  -4  -7   49.92    2.77
  -3   4   6  152.01    7.35
   3  -4  -6  174.00    4.93
  -3   4   5   12.58    2.97
   3  -4  -5   13.89    1.69
  -3   4   4  104.28    5.29
   3  -4  -4  113.77    5.70
  -3   4   3   82.30    4.97
   3  -4  -3   95.02    3.31
  -3   4   2  123.34    7.08
   3  -4  -2  131.14    4.68
   3  -4  -1   57.27    4.98
  -3   4   1   59.10    3.41
   3  -4  -1   71.28    3.29
   3  -4   0  300.94    4.63
  -3   4   0  306.59    6.19
   3  -4   0  316.74    6.68
   3  -4   1   26.00    1.35
  -3   4  -1   25.98    2.37
   3  -4   1   27.56    2.05
   3  -4   2   21.10    1.33
  -3   4  -2   20.62    2.70
   3  -4   2   23.52    1.71
   3  -4   3  173.28    5.12
  -3   4  -3  172.81    5.12
   3  -4   3  191.16    6.00
   3  -4   4   10.29    1.03
  -3   4  -4   11.75    1.31
   3  -4   4   11.77    1.44
   3  -4   5    5.37    1.33
  -3   4  -5    7.43    0.84
   3  -4   5    7.15    1.29
   3  -4   6  267.72    5.45
  -3   4  -6  243.42    3.94
  -3   4  -6  239.29    5.67
   3  -4   7   99.88    5.00
  -3   4  -7  101.47   10.24
   3  -4   8  123.54    4.37
  -3   4  -8  109.97    5.10
   3  -4   9   13.98    1.61
  -3   4  -9   20.05    2.86
   3  -4  10   13.28    2.47
  -3   4 -10   12.08    1.82
   3  -4  11    7.42    1.39
  -3   4 -11    9.76    1.66
   3  -4  12    0.38    1.13
  -3   4 -12    1.87    0.68
   3  -4  13    0.87    1.20
  -3   4 -13    2.68    1.36
   3  -4  14    8.80    1.54
  -3   4 -14    9.66    1.88
   3  -4  15    6.12    1.57
  -3   4 -15    2.28    0.99
   3  -4  16   15.36    3.40
  -3   4 -16   12.64    3.52
   3  -4  17   39.16    3.55
  -3   4 -17   37.66    3.51
   3  -4  18    4.18    1.89
  -3   4 -18    3.22    1.70
   3  -4  19   60.25    4.79
  -3   4 -19   41.60   10.18
   3  -4  20   16.42    2.61
  -3   4 -20   11.56    3.68
   3  -3 -20   18.24    2.69
   3  -3 -19  106.14    6.64
  -3   3  18   30.63    3.05
   3  -3 -18   19.31    2.71
  -3   3  17   82.53    9.19
   3  -3 -17  101.11    6.52
  -3   3  16   37.50    3.06
   3  -3 -16   31.27    2.80
  -3   3  15   24.11    2.79
   3  -3 -15   25.59    2.76
  -3   3  14   55.11    9.33
   3  -3 -14   61.00   12.57
  -3   3  13   57.08    3.59
   3  -3 -13   73.72   10.97
  -3   3  12  119.85    7.45
   3  -3 -12  118.60    6.34
  -3   3  11    5.53    1.76
   3  -3 -11    7.06    1.19
  -3   3  10  130.73    4.97
   3  -3 -10  131.36    6.17
  -3   3   9    8.16    1.51
   3  -3  -9   12.41    1.99
  -3   3   8   36.89    3.24
   3  -3  -8   38.67    2.76
  -3   3   7  228.28    7.07
   3  -3  -7  252.00    7.42
  -3   3   6  215.44    5.29
   3  -3  -6  235.96    5.49
  -3   3   5  378.33    7.63
   3  -3  -5  405.60    7.35
  -3   3   4  316.06    9.74
   3  -3  -4  360.55   10.84
  -3   3   3  267.47    8.48
   3  -3  -3  289.52    8.92
   3  -3  -2  287.01    7.82
  -3   3   2  298.10    9.13
   3  -3  -2  316.45    9.59
   3  -3  -1    8.40    1.36
  -3   3   1    9.08    1.78
   3  -3  -1    7.81    1.31
   3  -3   0   53.74    2.01
  -3   3   0   60.93    2.68
   3  -3   0   63.27    2.38
   3  -3   1   55.54    1.66
  -3   3  -1   63.38    2.32
   3  -3   1   63.34    4.00
   3  -3   2  257.20    7.66
  -3   3  -2  255.64    7.72
   3  -3   2  268.39    8.31
   3  -3   3    9.16    2.69
  -3   3  -3    6.84    1.00
   3  -3   3   10.89    2.36
   3  -3   4  120.01    4.40
  -3   3  -4  114.19    3.92
   3  -3   4  122.84    4.62
   3  -3   5    3.02    0.92
  -3   3  -5    4.27    0.86
   3  -3   5    4.38    1.04
   3  -3   6   50.30    2.38
  -3   3  -6   48.12    1.74
  -3   3  -6   52.45    8.44
   3  -3   7    8.81    1.96
  -3   3  -7    8.15    1.24
   3  -3   8  174.56    5.73
  -3   3  -8  150.69    5.52
   3  -3   9   35.53    6.71
  -3   3  -9   26.78    4.41
   3  -3  10   23.75    2.16
  -3   3 -10   22.94    3.41
   3  -3  11    6.76    1.53
  -3   3 -11    8.43    1.85
   3  -3  12   19.23    2.12
  -3   3 -12   20.31    3.67
   3  -3  13   50.01    3.78
  -3   3 -13   41.38    7.50
   3  -3  14  115.02    4.91
  -3   3 -14   98.65    7.59
   3  -3  15    2.92    1.52
  -3   3 -15    3.97    1.60
   3  -3  16   16.06    2.56
  -3   3 -16   14.27    2.03
   3  -3  17   33.72    3.16
  -3   3 -17   27.30    2.90
   3  -3  18    3.26    1.77
  -3   3 -18    1.27    1.27
   3  -3  19    6.17    2.50
  -3   3 -19    6.84    2.17
   3  -3  20   24.50    3.53
  -3   3 -20   18.35    5.33
   3  -3  21    5.20    1.97
  -3   3 -21    2.54    1.48
   3  -2 -21    1.18    0.89
   3  -2 -20   46.22   15.68
   3  -2 -19   57.88   10.35
  -3   2  18    1.89    1.24
   3  -2 -18    2.54    1.42
  -3   2  17    9.45    1.69
   3  -2 -17    9.60    2.27
  -3   2  16    9.22    1.93
   3  -2 -16    8.10    2.01
  -3   2  15   14.95    2.02
   3  -2 -15   17.14    4.26
  -3   2  14   15.01    2.19
   3  -2 -14   14.15    3.26
  -3   2  13  205.91    7.86
   3  -2 -13  199.81   10.09
  -3   2  12    1.87    1.34
   3  -2 -12    2.25    1.22
  -3   2  11  183.93    8.32
   3  -2 -11  194.10    7.41
  -3   2  10   24.97    5.38
   3  -2 -10   23.85    2.13
  -3   2   9   46.18    6.85
   3  -2  -9   43.56    2.57
  -3   2   8   88.70    6.88
   3  -2  -8   88.89    3.68
  -3   2   7    3.61    1.39
   3  -2  -7    6.46    1.18
  -3   2   6   91.99    8.11
   3  -2  -6   90.41    2.97
  -3   2   5   30.16    5.18
   3  -2  -5   28.85    1.69
   3  -2  -4   27.36    1.05
  -3   2   4   30.23    2.56
   3  -2  -4   32.75    1.74
   3  -2  -3  723.46    9.99
  -3   2   3  746.79   12.23
   3  -2  -3  786.13   12.41
   3  -2  -2   21.49    1.83
  -3   2   2   21.47    1.76
   3  -2  -2   24.24    1.50
   3  -2  -1  993.64   16.59
  -3   2   1 1015.52   17.89
   3  -2  -1 1083.78   18.90
   3  -2   0 1445.76   23.92
  -3   2   0 1467.02   24.99
   3  -2   0 1560.79   26.54
   3  -2   1  144.51    3.78
  -3   2  -1  138.86    4.00
   3  -2   1  151.71    4.23
   3  -2   2  806.82   14.15
  -3   2  -2  754.29   13.41
   3  -2   2  800.99   14.94
   3  -2   3  121.50    3.23
  -3   2  -3  114.14    2.93
   3  -2   3  125.19    3.42
   3  -2   4  207.18    4.67
  -3   2  -4  195.89    3.95
   3  -2   4  209.41    4.73
   3  -2   5   65.35    2.36
  -3   2  -5   65.53    1.97
  -3   2  -5   61.57    2.81
   3  -2   6   75.24    2.74
  -3   2  -6   75.58    2.19
  -3   2  -6   64.71    2.68
   3  -2   7  200.92    6.64
  -3   2  -7  185.98    5.37
  -3   2  -7  176.67    6.67
   3  -2   8   41.97    2.24
  -3   2  -8   35.80    1.96
   3  -2   9   43.87    2.44
  -3   2  -9   40.49    7.37
   3  -2  10   13.20    1.78
  -3   2 -10   14.74    2.43
   3  -2  11    0.97    1.51
  -3   2 -11   -0.09    0.88
   3  -2  12  112.41    4.83
  -3   2 -12   95.82    5.50
   3  -2  13   87.92    4.11
  -3   2 -13   84.07    3.84
   3  -2  14   -1.05    1.50
  -3   2 -14    3.44    1.58
   3  -2  15   50.31    3.05
  -3   2 -15   50.82    9.02
   3  -2  16   23.94    2.47
  -3   2 -16   22.16    2.54
   3  -2  17   73.21   11.37
  -3   2 -17   78.34    4.45
   3  -2  18    2.87    2.13
  -3   2 -18    2.39    1.31
   3  -2  19    1.14    1.33
  -3   2 -19    1.35    1.02
   3  -2  20    1.08    1.39
  -3   2 -20    1.59    1.25
   3  -2  21    8.36    2.61
  -3   2 -21    9.33    2.25
   3  -2  22    9.15    2.05
  -3   2 -22   10.91    2.58
   3  -1 -21    0.00    1.28
   3  -1 -20    1.91    1.42
   3  -1 -19  151.76    5.84
   3  -1 -18    7.94    1.74
  -3   1  17   99.71    4.05
   3  -1 -17  124.90    5.26
  -3   1  16   25.96    2.66
   3  -1 -16   26.70    2.92
  -3   1  15   -1.29    0.96
   3  -1 -15    0.74    1.12
  -3   1  14   14.81    1.63
   3  -1 -14   12.52    1.72
  -3   1  13  147.38    6.54
   3  -1 -13  165.46    7.18
  -3   1  12    3.18    0.99
   3  -1 -12    3.51    1.69
  -3   1  11    2.35    0.58
  -3   1  11    0.16    1.14
   3  -1 -11    4.34    1.00
  -3   1  10   12.13    1.75
   3  -1 -10   13.15    1.56
   3  -1  -9   14.10    1.93
  -3   1   9   16.49    1.88
   3  -1  -9   18.68    1.54
   3  -1  -8   77.26    2.01
  -3   1   8   87.36    3.09
   3  -1  -8   89.82    2.93
   3  -1  -7   93.46    2.08
  -3   1   7  102.29    3.26
   3  -1  -7  108.22    3.47
   3  -1  -6  298.23    5.15
  -3   1   6  325.47    6.75
   3  -1  -6  334.83    6.48
   3  -1  -5    0.64    0.13
  -3   1   5    2.61    0.82
   3  -1  -5    0.31    0.45
   3  -1  -4    0.25    0.29
  -3   1   4   -0.82    0.88
   3  -1  -4    1.16    0.61
   3  -1  -3  138.46    3.42
  -3   1   3  138.59    4.18
   3  -1  -3  149.94    4.02
   3  -1  -2   40.02    1.48
  -3   1   2   41.88    2.17
   3  -1  -2   42.58    1.79
   3  -1  -1  194.39    4.27
  -3   1   1  190.08    4.64
   3  -1  -1  195.88    4.36
   3  -1   0    3.67    0.64
  -3   1   0    3.30    0.67
   3  -1   1 2159.58   35.19
  -3   1  -1 2134.02   35.06
   3  -1   1 2116.88   34.58
   3  -1   2  120.39    3.51
  -3   1  -2  116.22    3.34
   3  -1   2  118.72    3.29
   3  -1   3  188.70    4.58
  -3   1  -3  176.77    3.53
   3  -1   3  177.72    4.08
   3  -1   4    5.65    0.94
  -3   1  -4    5.61    0.78
   3  -1   5  317.76    7.37
  -3   1  -5  302.56    5.99
  -3   1  -5  284.48    6.41
   3  -1   6  503.31    9.25
  -3   1  -6  480.36    7.40
  -3   1  -6  446.67    7.80
   3  -1   7   50.31    2.26
  -3   1  -7   48.54    1.57
  -3   1  -7   47.87    2.62
   3  -1   8   18.11    2.12
  -3   1  -8   19.43    1.54
  -3   1  -8   20.23    3.31
   3  -1   9   54.94    2.86
  -3   1  -9   49.55    2.65
  -3   1  -9   48.21    2.18
   3  -1  10   40.31    6.87
  -3   1 -10   30.80    1.94
   3  -1  11   69.09    4.00
  -3   1 -11   62.69    2.73
   3  -1  12    2.43    0.95
  -3   1 -12    1.40    0.71
   3  -1  13   16.07    1.78
  -3   1 -13   16.40    2.75
   3  -1  14  218.02    6.48
  -3   1 -14  208.51    6.36
   3  -1  15    0.39    0.57
  -3   1 -15    3.29    1.25
   3  -1  16    7.24    1.65
  -3   1 -16    5.84    1.27
   3  -1  17   78.21    4.69
  -3   1 -17   82.37    4.74
   3  -1  18   10.37    1.78
  -3   1 -18   10.47    1.84
   3  -1  19    0.46    0.40
  -3   1 -19    0.20    0.75
   3  -1  20   24.37    3.00
  -3   1 -20   28.06    3.14
   3  -1  21    6.70    1.79
  -3   1 -21    7.98    2.10
  -3   1 -22   31.65    3.56
   3   0 -21    5.72    1.83
   3   0 -20    2.15    1.40
   3   0 -19   93.41    4.75
   3   0 -18   14.46    2.19
   3   0 -17   10.59    1.84
  -3   0  16    0.89    0.97
   3   0 -16    0.25    1.14
  -3   0  15   47.61    3.30
   3   0 -15   61.84    3.46
  -3   0  14    4.11    0.83
  -3   0  14    4.45    1.11
   3   0 -14    4.78    1.09
  -3   0  13  372.12    7.71
  -3   0  13  386.65    8.84
   3   0 -13  392.48    9.26
  -3   0  12  139.43    4.15
  -3   0  12  156.34    5.11
   3   0 -12  160.45    5.44
  -3   0  11   36.82    2.22
  -3   0  11   41.11    2.86
   3   0 -11   44.21    2.94
  -3   0  10   96.42    2.68
  -3   0  10   99.84    3.44
   3   0 -10  101.31    3.23
  -3   0   9   42.32    1.88
  -3   0   9   43.91    2.63
   3   0  -9   45.88    2.26
  -3   0   8   43.45    1.76
  -3   0   8   41.46    2.34
   3   0  -8   46.71    2.17
  -3   0   7   55.16    2.48
   3   0  -7   61.43    2.33
   3   0  -6  146.90    3.68
  -3   0   6  167.32    4.33
   3   0  -6  168.48    3.94
   3   0  -5    6.81    1.02
  -3   0   5    6.48    1.18
   3   0  -5    6.92    0.79
   3   0  -4   72.47    2.56
  -3   0   4   79.12    2.88
   3   0  -4   79.37    2.59
   3   0  -3  219.55    4.87
  -3   0   3  228.87    5.34
   3   0  -3  224.69    4.87
   3   0  -2  166.28    4.29
  -3   0   2  175.07    3.91
   3   0  -2  170.17    4.08
   3   0  -1   61.60    2.41
  -3   0   1   60.18    2.74
   3   0  -1   60.54    2.27
   3   0   0 1837.92   19.55
  -3   0   0 1865.97   20.26
   3   0   0 1818.87   18.84
   3   0   2   84.14    3.22
   3   0   3   28.86    1.47
  -3   0  -3   29.77    2.24
  -3   0  -3   24.39    1.27
   3   0   4  133.38    4.08
  -3   0  -4  130.52    3.50
  -3   0  -4  115.52    3.18
   3   0   5  106.62    3.54
  -3   0  -5   99.96    2.88
  -3   0  -5   92.00    2.67
   3   0   6  200.62    4.95
  -3   0  -6  191.14    4.23
  -3   0  -6  178.75    4.38
   3   0   7  241.84    5.41
  -3   0  -7  230.15    4.35
  -3   0  -7  212.66    4.42
   3   0   8    4.34    1.03
  -3   0  -8    3.47    0.59
  -3   0  -8    5.02    0.94
   3   0   9  245.33    7.96
  -3   0  -9  232.70    6.77
  -3   0  -9  229.20    7.12
   3   0  10  338.31    6.59
  -3   0 -10  324.99    4.92
  -3   0 -10  296.48    6.51
   3   0  11    9.45    1.74
  -3   0 -11    7.30    1.15
  -3   0 -11    6.31    0.97
   3   0  12    2.94    0.91
  -3   0 -12    2.67    0.58
  -3   0 -12    2.39    0.88
   3   0  13   -0.06    1.00
  -3   0 -13    0.74    0.84
   3   0  14    3.08    1.19
  -3   0 -14    4.47    1.10
   3   0  15   54.68    3.95
  -3   0 -15   43.25    3.39
   3   0  16   36.09    2.76
  -3   0 -16   31.87    5.54
   3   0  17  138.78    7.92
  -3   0 -17  125.93    6.67
   3   0  18   38.44    5.47
  -3   0 -18   39.62    3.01
   3   0  19   66.62    3.93
  -3   0 -19   55.49    3.56
   3   0  20    2.51    1.26
  -3   0 -20    4.69    1.65
   3   0  21    7.13    1.83
  -3   0 -21   11.76    2.36
  -3   0 -22   15.21    2.61
   3   1 -21    0.68    1.33
   3   1 -20    7.37    1.85
   3   1 -19    1.20    1.24
   3   1 -18    8.90    1.70
   3   1 -17    4.08    1.45
  -3  -1  16   47.90    3.35
   3   1 -16   54.03    3.65
  -3  -1  15   10.00    1.35
  -3  -1  15   10.74    1.47
   3   1 -15    9.41    1.53
  -3  -1  14    6.11    1.05
  -3  -1  14    4.64    1.17
   3   1 -14    5.28    1.28
  -3  -1  13    8.50    1.13
  -3  -1  13    8.96    2.30
   3   1 -13   10.95    1.68
  -3  -1  12   78.54    3.15
  -3  -1  12   72.70    8.16
   3   1 -12   77.02    3.33
  -3  -1  11   43.82    2.58
  -3  -1  11   59.99    7.45
   3   1 -11   45.76    3.26
  -3  -1  10  111.36    4.04
  -3  -1  10  107.17    4.59
   3   1 -10  107.87    5.46
  -3  -1   9   70.05    2.72
  -3  -1   9   69.01    3.89
   3   1  -9   69.88    2.82
  -3  -1   8    0.49    0.53
   3   1  -8   -0.46    0.71
  -3  -1   7   20.76    1.31
  -3  -1   7   23.15    1.79
   3   1  -7   24.11    4.54
  -3  -1   6    3.47    0.64
  -3  -1   6    2.73    0.88
   3   1  -6    3.95    0.70
  -3  -1   5   17.83    1.56
   3   1  -5   16.99    1.04
   3   1  -4  241.03    5.59
  -3  -1   4  263.90    5.88
   3   1  -4  258.71    5.18
   3   1  -3   87.12    3.31
  -3  -1   3   95.37    4.17
   3   1  -3   91.62    2.53
   3   1  -2  673.29   12.31
  -3  -1   2  720.23   13.00
   3   1  -2  684.26   11.51
   3   1  -1  277.03    6.24
  -3  -1   1  296.33    6.27
   3   1  -1  282.33    5.03
   3   1   0  472.90    7.08
  -3  -1   0  508.69    7.12
   3   1   0  469.72    5.21
   3   1   1    9.88    1.03
  -3  -1  -1    9.54    1.03
   3   1   1    7.77    0.46
   3   1   2  652.54    8.54
   3   1   3   55.99    2.22
  -3  -1  -3   54.39    2.17
  -3  -1  -3   45.11    1.53
   3   1   4    7.28    0.85
  -3  -1  -4    7.73    0.94
  -3  -1  -4    6.73    1.21
   3   1   5   19.01    1.35
  -3  -1  -5   21.94    3.45
  -3  -1  -5   17.05    1.29
   3   1   6  608.88   11.60
  -3  -1  -6  594.38   10.98
  -3  -1  -6  548.57    9.88
   3   1   7   15.79    1.35
  -3  -1  -7   20.09    3.41
  -3  -1  -7   15.52    1.01
   3   1   8   97.88    3.30
  -3  -1  -8   96.04    2.76
  -3  -1  -8   92.35    2.66
   3   1   9    1.42    1.06
  -3  -1  -9    0.73    0.41
  -3  -1  -9    0.87    0.68
   3   1  10   14.41    2.22
  -3  -1 -10   15.45    2.42
  -3  -1 -10   12.17    1.09
   3   1  11  259.07    8.71
  -3  -1 -11  241.53    7.62
  -3  -1 -11  227.31    6.34
   3   1  12   58.23    2.79
  -3  -1 -12   52.44    7.01
  -3  -1 -12   52.54    2.44
   3   1  13   16.54    2.13
  -3  -1 -13   10.16    1.49
  -3  -1 -13   10.46    1.74
   3   1  14   77.45    9.74
  -3  -1 -14   71.83    2.56
  -3  -1 -14   71.01    3.29
   3   1  15   18.05    2.16
  -3  -1 -15   15.17    1.69
   3   1  16   19.19    2.23
  -3  -1 -16   15.06    1.84
   3   1  17   28.06    2.65
  -3  -1 -17   22.44    1.95
   3   1  18    2.41    1.24
  -3  -1 -18    1.44    1.03
   3   1  19   14.29    2.11
  -3  -1 -19   13.46    2.05
   3   1  20   12.72    1.91
  -3  -1 -20    9.53    2.44
  -3  -1 -21   29.09    8.96
  -3  -1 -22    5.28    1.55
   3   2 -20   -0.54    1.21
   3   2 -19    1.66    1.84
  -3  -2  18    3.56    1.35
   3   2 -18    5.36    1.78
  -3  -2  17    1.16    1.08
   3   2 -17    0.05    1.07
  -3  -2  16    2.60    1.16
   3   2 -16    2.36    1.19
  -3  -2  15    1.00    0.84
   3   2 -15    0.31    1.14
  -3  -2  14   13.40    1.71
  -3  -2  14   13.77    1.54
   3   2 -14   14.83    3.01
  -3  -2  13   78.20    3.94
  -3  -2  13   81.51    3.91
   3   2 -13   78.86    4.40
  -3  -2  12  400.94    8.88
  -3  -2  12  391.13    8.16
   3   2 -12  387.72    9.49
  -3  -2  11    2.94    1.00
  -3  -2  11    2.08    0.75
   3   2 -11    3.95    1.07
  -3  -2  10    4.96    1.17
  -3  -2  10    2.63    0.58
   3   2 -10    3.44    0.89
  -3  -2   9    3.85    0.92
  -3  -2   9    2.17    0.77
   3   2  -9    1.76    0.56
  -3  -2   8    0.12    0.62
  -3  -2   8    0.72    0.76
   3   2  -8    1.05    0.62
  -3  -2   7   14.80    1.56
  -3  -2   7   17.90    3.44
   3   2  -7   13.12    1.38
  -3  -2   6   71.26    2.54
  -3  -2   6   72.36    3.05
   3   2  -6   67.51    2.16
  -3  -2   5   93.87    6.29
  -3  -2   5   93.19    6.23
   3   2  -5   85.23    5.82
  -3  -2   4  137.82    3.57
   3   2  -4  128.20    2.96
   3   2  -3  354.04    9.54
  -3  -2   3  389.85    7.86
   3   2  -3  365.95    6.57
   3   2  -2  119.64    3.65
  -3  -2   2  146.72    4.14
   3   2  -2  131.05    2.94
   3   2  -1   44.28    1.93
  -3  -2   1   45.38    2.06
   3   2  -1   44.77    2.12
   3   2   0   19.13    1.27
  -3  -2   0   19.39    1.42
   3   2   1 2130.45   35.31
  -3  -2  -1 2212.80   36.48
   3   2   2  204.99    4.86
  -3  -2  -2  213.60    5.05
   3   2   3  235.85    5.37
  -3  -2  -3  255.23    5.69
   3   2   4   -0.34    0.61
  -3  -2  -4   -0.10    0.63
  -3  -2  -4   -0.10    0.15
   3   2   5  698.46   13.06
  -3  -2  -5  688.41   12.65
  -3  -2  -5  651.55   11.07
   3   2   6    5.88    0.85
  -3  -2  -6    6.39    1.02
  -3  -2  -6    4.71    0.83
   3   2   7    1.61    1.04
  -3  -2  -7    2.33    0.97
   3   2   8    0.29    0.67
  -3  -2  -8    0.51    0.62
  -3  -2  -8    0.85    0.61
   3   2   9  187.37    7.36
  -3  -2  -9  170.95    6.18
  -3  -2  -9  162.33    5.16
   3   2  10  100.73    3.77
  -3  -2 -10  101.39    3.41
  -3  -2 -10   93.99    3.04
   3   2  11   17.82    1.65
  -3  -2 -11   14.41    2.84
  -3  -2 -11   10.84    1.21
   3   2  12  278.82    5.96
  -3  -2 -12  285.69    5.45
  -3  -2 -12  264.69    5.21
   3   2  13  131.96    4.90
  -3  -2 -13  131.06    4.34
  -3  -2 -13  121.75    4.12
   3   2  14   12.82    1.73
  -3  -2 -14   12.99    1.55
  -3  -2 -14   13.22    2.41
   3   2  15  143.35    5.91
  -3  -2 -15  135.91    5.68
   3   2  16   41.75    2.81
   3   2  16   25.36    5.39
  -3  -2 -16   31.10    7.21
   3   2  17   11.88    1.90
  -3  -2 -17   10.61    5.45
   3   2  18   49.14    3.32
  -3  -2 -18   52.00    3.40
   3   2  19  112.85    5.59
  -3  -2 -19  119.97    4.87
  -3  -2 -20   60.86    4.40
  -3  -2 -21    4.53    1.39
   3   3 -19   31.33    4.14
  -3  -3  18   17.00    2.37
   3   3 -18   12.36    3.30
  -3  -3  17   22.54    2.24
   3   3 -17   26.02    3.04
  -3  -3  16   28.74    2.45
   3   3 -16   29.61    3.00
  -3  -3  15   35.71    3.23
   3   3 -15   34.01    3.02
  -3  -3  14    2.02    1.03
   3   3 -14    1.13    1.30
  -3  -3  13   36.24    2.50
   3   3 -13   42.50    2.59
  -3  -3  12   22.54    1.96
  -3  -3  12   21.78    1.58
   3   3 -12   21.60    2.07
  -3  -3  11    1.58    1.43
  -3  -3  11    0.74    0.52
   3   3 -11   -0.20    0.74
  -3  -3  10    2.74    0.99
  -3  -3  10    1.34    0.46
   3   3 -10    1.67    0.62
  -3  -3   9    3.46    1.03
  -3  -3   9    4.79    0.86
   3   3  -9    4.99    1.01
  -3  -3   8   96.85    3.60
  -3  -3   8   95.16    8.61
   3   3  -8   89.56    2.71
  -3  -3   7   54.00    2.71
  -3  -3   7   52.60    2.32
   3   3  -7   47.36    2.09
  -3  -3   6    5.15    1.01
  -3  -3   6    5.06    1.40
   3   3  -6    4.42    0.89
  -3  -3   5   39.24    2.80
  -3  -3   5   38.98    1.82
   3   3  -5   38.53    1.72
  -3  -3   4  105.56    4.76
  -3  -3   4  102.97    3.12
   3   3  -4   93.49    2.31
   3   3  -3  115.02    7.20
  -3  -3   3  117.00    3.32
   3   3  -3  100.64    3.49
   3   3  -2    3.20    0.66
  -3  -3   2    2.94    0.67
   3   3  -2    2.00    0.27
   3   3  -1    3.59    0.71
  -3  -3   1    3.32    0.61
   3   3  -1    2.19    0.25
   3   3   0   12.89    2.95
  -3  -3   0   13.81    2.12
   3   3   1    8.17    1.76
  -3  -3  -1    8.32    1.63
   3   3   2  477.40    8.51
  -3  -3  -2  498.42    9.13
   3   3   3  108.28    3.15
  -3  -3  -3  110.68    3.36
  -3  -3  -4  296.96    6.08
   3   3   5   20.04    2.18
  -3  -3  -5   17.37    1.53
  -3  -3  -5   15.67    2.29
   3   3   6 1145.46   30.51
  -3  -3  -6 1173.17    9.65
   3   3   7    5.78    1.03
  -3  -3  -7    4.78    1.00
  -3  -3  -7    3.98    0.58
   3   3   8   -0.18    0.85
  -3  -3  -8   -0.20    0.72
  -3  -3  -8    1.18    0.41
   3   3   9   33.58    2.17
  -3  -3  -9   36.88    2.31
  -3  -3  -9   32.24    1.62
   3   3  10   56.62    2.75
  -3  -3 -10   64.32    3.39
  -3  -3 -10   61.25    2.16
   3   3  11    7.93    1.23
  -3  -3 -11    9.97    1.38
  -3  -3 -11    9.22    1.18
   3   3  12    2.56    1.60
  -3  -3 -12    1.45    0.93
  -3  -3 -12    1.22    1.01
   3   3  13   63.88    2.99
  -3  -3 -13   66.88    2.96
  -3  -3 -13   64.63    2.89
   3   3  14    2.09    0.64
  -3  -3 -14    1.06    0.97
  -3  -3 -14    1.24    0.63
   3   3  15  132.97    4.25
  -3  -3 -15  135.52    4.18
  -3  -3 -15  128.07    4.08
   3   3  16  357.93   15.95
   3   3  16  287.48   17.40
  -3  -3 -16  331.93   14.10
   3   3  17   93.99    4.54
   3   3  17   73.72    4.21
  -3  -3 -17   89.08    4.45
   3   3  18    3.37    1.56
  -3  -3 -18    1.30    1.17
  -3  -3 -19   47.15    3.76
  -3  -3 -20   15.56    2.09
  -3  -4  18    2.35    1.16
   3   4 -18    1.78    1.64
  -3  -4  17    1.25    1.14
   3   4 -17    0.62    1.04
  -3  -4  16   -0.83    1.02
   3   4 -16    1.61    1.56
  -3  -4  15   14.83    1.99
   3   4 -15   18.92    2.30
  -3  -4  14  107.08    5.66
   3   4 -14  110.80    5.54
  -3  -4  13   12.04    1.78
   3   4 -13   14.34    1.86
  -3  -4  12   19.67    1.98
   3   4 -12   22.36    2.02
  -3  -4  11  428.29   15.74
  -3  -4  11  373.29   13.30
   3   4 -11  393.41   14.99
  -3  -4  10    1.90    1.30
  -3  -4  10    1.05    0.58
   3   4 -10   -0.04    0.68
  -3  -4   9   35.12    2.39
  -3  -4   9   33.70    4.11
   3   4  -9   29.03    4.39
  -3  -4   8   27.11    2.39
  -3  -4   8   31.33    2.95
   3   4  -8   32.38    2.18
  -3  -4   7  129.07    4.80
  -3  -4   7  119.78    4.73
   3   4  -7  113.48    3.96
  -3  -4   6    2.27    0.98
  -3  -4   6    1.00    0.67
   3   4  -6    1.44    0.80
  -3  -4   5  247.27    5.52
  -3  -4   5  233.83    5.66
   3   4  -5  215.65    4.84
  -3  -4   4  328.78    6.59
  -3  -4   4  314.69    8.25
   3   4  -4  269.68    4.78
  -3  -4   3  841.65   22.84
   3   4  -3  721.56   19.13
   3   4  -2   89.15    2.98
  -3  -4   2   98.22    4.39
   3   4  -2   86.30    1.70
   3   4  -1  282.76    8.95
  -3  -4   1  301.92    9.15
   3   4  -1  243.79    6.96
   3   4   0    5.08    1.51
  -3  -4   0    4.11    1.05
   3   4   0    2.89    0.54
   3   4   1   38.53    6.21
  -3  -4  -1   34.49    2.10
   3   4   2  103.25    4.34
  -3  -4  -2  113.21    5.63
   3   4   3   20.29    3.53
  -3  -4  -3   21.66    1.78
  -3  -4  -3   12.39    2.02
   3   4   4    1.26    0.54
  -3  -4  -4    1.16    1.08
  -3  -4  -4    1.18    0.26
   3   4   5  143.90    5.16
  -3  -4  -5  153.33    5.58
  -3  -4  -5  138.57    4.14
   3   4   6   25.01    1.91
  -3  -4  -6   25.94    1.95
  -3  -4  -6   20.85    1.04
   3   4   7  252.92    5.29
  -3  -4  -7  272.74    5.90
  -3  -4  -7  239.81    4.04
   3   4   8   50.84    7.59
  -3  -4  -8   43.16    2.55
  -3  -4  -8   37.81    1.77
   3   4   9    0.87    0.57
  -3  -4  -9    0.55    0.55
  -3  -4  -9    1.15    0.75
   3   4  10    1.68    0.85
  -3  -4 -10    3.20    3.03
  -3  -4 -10    1.21    0.75
   3   4  11    2.54    1.42
  -3  -4 -11    1.32    0.72
  -3  -4 -11    0.96    0.53
   3   4  12    8.31    1.58
  -3  -4 -12   12.89    1.73
  -3  -4 -12    6.99    1.07
   3   4  13   22.70    1.99
  -3  -4 -13   29.37    2.42
  -3  -4 -13   27.80    1.91
   3   4  14    2.10    0.74
  -3  -4 -14    3.40    1.40
  -3  -4 -14    2.23    0.99
  -3  -4 -15    1.45    0.83
   3   4  16    5.75    1.46
   3   4  16    3.85    1.20
  -3  -4 -16    3.26    1.03
   3   4  17    1.48    1.02
  -3  -4 -17   -0.38    0.95
   3   4  18   16.69    3.24
  -3  -4 -18   21.42    2.13
  -3  -5  18   44.80    3.92
  -3  -5  17    4.37    1.29
  -3  -5  16   23.98    2.64
  -3  -5  15    0.53    1.05
   3   5 -15    1.79    1.15
  -3  -5  14    2.24    1.28
   3   5 -14    3.62    1.56
  -3  -5  13   25.80    2.29
   3   5 -13   23.90    4.38
  -3  -5  11    4.91    1.23
   3   5 -11    7.13    1.37
  -3  -5  10   28.29    2.61
   3   5 -10   20.62    3.70
  -3  -5   9  135.84    6.55
  -3  -5   9  112.75    4.95
   3   5  -9  109.91    8.00
  -3  -5   8   24.52    2.15
  -3  -5   8   19.64    1.46
   3   5  -8   24.36    1.75
  -3  -5   7   -0.92    0.94
  -3  -5   7    0.77    0.60
  -3  -5   6  265.05    7.49
  -3  -5   6  253.11    6.49
   3   5  -6  235.28    6.44
  -3  -5   5   83.14    4.72
  -3  -5   5   81.15    4.13
   3   5  -5   69.71    3.35
  -3  -5   4   11.89    1.54
  -3  -5   4   10.70    1.38
   3   5  -4    8.61    1.12
  -3  -5   3    0.56    0.68
   3   5  -3    0.45    0.36
   3   5  -2   18.44    2.73
  -3  -5   2   20.28    1.80
   3   5  -2   15.14    2.10
   3   5  -1  100.58    6.85
  -3  -5   1  106.42    3.36
   3   5  -1   84.69    2.31
   3   5   0 1101.35   25.59
  -3  -5   0 1141.47   25.64
   3   5   1 1068.11   24.91
  -3  -5  -1 1134.82   26.01
   3   5   2    2.45    1.09
  -3  -5  -2    1.48    1.54
  -3  -5  -2    0.72    0.47
   3   5   3  233.16    6.92
  -3  -5  -3  240.46    7.13
   3   5   4  129.08    4.53
  -3  -5  -4  137.54    7.80
  -3  -5  -4  112.62    6.15
   3   5   5   44.82    2.23
  -3  -5  -5   43.59    2.54
  -3  -5  -5   37.63    3.38
   3   5   6  181.98    7.21
  -3  -5  -6  219.48    5.49
  -3  -5  -6  194.32    3.48
   3   5   7  286.29    5.73
  -3  -5  -7  294.60    6.56
  -3  -5  -7  269.10    4.39
   3   5   8   12.61    1.99
  -3  -5  -8   14.83    2.09
  -3  -5  -8   11.08    1.46
   3   5   9    1.29    0.51
  -3  -5  -9    2.80    1.39
  -3  -5  -9    2.30    0.64
   3   5  10   11.35    1.52
  -3  -5 -10    8.88    1.48
  -3  -5 -10    6.56    0.94
  -3  -5 -11    0.44    1.07
  -3  -5 -11    0.94    0.69
   3   5  12    7.13    1.30
  -3  -5 -12    7.93    1.63
  -3  -5 -12    5.41    1.26
   3   5  13   33.84    8.21
  -3  -5 -13   59.76    4.19
  -3  -5 -13   36.76    6.24
   3   5  14   26.18    4.25
  -3  -5 -14   35.41    3.17
  -3  -5 -14   27.03    7.03
  -3  -5 -15    2.89    1.18
   3   5  16    2.92    1.18
   3   5  17    6.85    1.93
  -3  -6  17    5.53    1.89
  -3  -6  15    6.21    1.99
  -3  -6  14    3.58    1.64
  -3  -6  13    1.52    1.70
  -3  -6  12    5.94    1.64
   3   6 -12    5.70    1.42
  -3  -6  11   18.05    2.21
   3   6 -11   16.99    1.86
  -3  -6  10    8.83    1.61
   3   6 -10    5.76    1.33
  -3  -6   9    8.94    1.74
   3   6  -9    7.17    1.40
  -3  -6   8    4.89    1.51
  -3  -6   8    3.24    0.86
   3   6  -8    4.77    1.42
  -3  -6   7    3.92    1.10
  -3  -6   7    4.05    0.87
   3   6  -7    3.29    0.79
  -3  -6   6   18.26    1.95
  -3  -6   6   19.65    1.78
   3   6  -6   11.37    2.37
  -3  -6   5    0.91    0.91
  -3  -6   5    2.29    0.72
   3   6  -5    1.61    0.58
  -3  -6   4    8.69    2.07
   3   6  -4    6.00    1.36
   3   6  -3    9.98    1.79
  -3  -6   3    8.87    1.45
   3   6  -3    7.02    0.98
   3   6  -2   11.78    1.56
  -3  -6   2   13.14    1.38
   3   6  -1   73.94    5.56
  -3  -6   1   85.68    4.38
   3   6   0   48.44    9.46
  -3  -6   0   58.43    8.15
   3   6   1   50.32    7.81
  -3  -6  -1   59.63    7.53
   3   6   2    1.64    0.89
  -3  -6  -2    2.16    0.86
   3   6   3   34.40    5.64
  -3  -6  -3   41.12    2.77
   3   6   4  461.20   12.08
  -3  -6  -4  497.53   10.92
   3   6   5  799.35   15.03
  -3  -6  -5  794.53   16.29
   3   6   6    3.96    1.70
  -3  -6  -6   -0.41    1.08
   3   6   7    2.60    0.87
  -3  -6  -7    1.29    1.10
   3   6   8  190.39    6.78
  -3  -6  -8  217.09    8.24
   3   6   9   48.30    5.22
  -3  -6  -9   51.49    3.90
   3   6  10   43.16    8.65
  -3  -6 -10   81.70    4.41
   3   6  11   68.23   12.68
  -3  -6 -11  113.37    6.46
  -3  -6 -12   -1.02    1.22
  -3  -6 -13   51.29    3.89
   3   6  15   40.54    7.89
   3   6  16    1.14    0.73
   3   6  17    4.13    1.07
  -3  -7  16  142.76    8.20
  -3  -7  15  139.24    7.98
  -3  -7  14   -2.27    1.44
  -3  -7  13    1.44    1.44
  -3  -7  12   69.58    4.17
  -3  -7  11   42.10    3.71
  -3  -7  10    0.14    1.20
  -3  -7   9    3.67    1.78
  -3  -7   8   38.29    3.19
  -3  -7   7   20.31    2.56
  -3  -7   6   21.54    2.59
  -3  -7   6   19.23    1.97
  -3  -7   5   69.44    4.14
   3   7  -4    1.68    0.99
  -3  -7   4    1.74    0.67
   3   7  -3    1.13    0.85
  -3  -7   3    0.66    1.03
   3   7  -2   23.11    3.11
  -3  -7   2   25.15    2.07
   3   7  -1   -0.18    0.92
  -3  -7   1   -0.52    0.82
   3   7   0    2.85    0.50
  -3  -7   0    2.71    0.85
   3   7   1    4.21    0.98
  -3  -7  -1    5.11    1.15
   3   7   2   47.67    6.78
  -3  -7  -2   53.87    8.25
   3   7   3    0.25    1.03
  -3  -7  -3    1.10    1.20
   3   7   4   11.64    2.35
  -3  -7  -4   17.92    2.12
   3   7   5    2.14    0.90
  -3  -7  -5    0.80    1.08
   3   7   6    1.87    0.68
  -3  -7  -6    2.83    1.60
   3   7   7  126.21    6.78
  -3  -7  -7  160.86    8.27
   3   7   8   26.84    4.23
  -3  -7  -8   47.65    4.44
  -3  -7  -9   96.63    4.97
  -3  -7 -10    8.69    2.06
  -3  -7 -11    7.15    2.15
  -3  -7 -12  139.38    6.36
   3   7  14   35.68    8.44
   3   7  15   -0.32    1.15
   3   7  16    3.43    1.06
  -3  -8  13    1.64    1.52
  -3  -8  12  266.99   12.99
  -3  -8  11   92.21    6.16
  -3  -8  10   13.64    2.43
  -3  -8   9   11.79    1.89
  -3  -8   8   45.09    3.86
  -3  -8   7   17.39    2.25
   3   8  -6    2.81    0.83
   3   8  -5    2.17    0.95
   3   8  -4    6.24    1.18
  -3  -8   4    4.91    1.27
   3   8  -3    9.46    2.09
  -3  -8   3   19.87    3.54
   3   8  -2    1.75    0.67
  -3  -8   2    2.10    1.11
   3   8  -1  311.74    7.32
  -3  -8   1  335.64   10.62
   3   8   0   28.16    4.51
  -3  -8   0   31.93    2.80
   3   8   1  151.71    7.98
  -3  -8  -1  185.06    7.02
   3   8   2    0.48    0.60
  -3  -8  -2    2.27    1.60
   3   8   3    0.17    0.52
  -3  -8  -3    1.64    1.14
   3   8   4    1.78    1.19
  -3  -8  -4    3.84    1.36
   3   8   5    0.38    0.84
  -3  -8  -5    1.55    1.19
  -3  -8  -6   22.70    2.76
  -3  -8  -7    2.25    1.27
  -3  -8  -8   41.08    3.56
  -3  -8  -9    8.47    2.54
  -3  -8 -10    9.47    2.01
   3   8  12   16.64    4.33
   3   8  13   25.21    7.53
   3   8  14    4.48    2.44
   3   8  15    0.89    1.07
   3   9  -8   57.93   15.72
   3   9  -7   35.89   10.87
   3   9  -6   21.37    6.40
   3   9  -5   38.25    8.09
   3   9  -4   13.21    3.69
   3   9  -3    0.69    0.75
   3   9  -2    5.34    1.84
   3   9  -1    1.28    1.04
  -3  -9   1    0.04    0.99
   3   9   0   10.45    1.68
  -3  -9   0   11.15    1.71
  -3  -9  -1    0.23    1.07
  -3  -9  -2  103.21    6.53
  -3  -9  -3   44.16    3.60
  -3  -9  -4   38.38    3.74
  -3  -9  -5    6.16    1.78
  -3  -9  -6    1.48    1.18
  -3  -9  -7    6.82    2.03
   3   9   9    0.32    0.94
   3   9  10    2.26    0.76
   3   9  11    5.30    2.15
   3   9  12   27.78    8.37
   4  -8  -8   90.92    6.74
   4  -8  -7   38.97    4.32
   4  -8  -6   38.41    3.83
   4  -8  -5   16.59    2.59
   4  -8  -2    6.66    2.12
   4  -8   0   54.64    3.98
   4  -8   1   22.18    2.79
   4  -8   2   24.29    3.15
   4  -8   3   10.97    2.22
  -4   8  -5    5.05    2.25
  -4   8  -6    2.14    0.94
  -4   8  -7    2.23    1.41
  -4   8  -8    1.35    0.92
  -4   8  -9    7.27    2.47
  -4   8 -10    4.07    1.03
  -4   7  12    5.54    2.48
   4  -7 -12    5.86    1.90
  -4   7  11    8.11    2.51
   4  -7 -11   15.50    2.68
  -4   7  10    1.47    1.15
   4  -7 -10    0.94    1.42
  -4   7   9    0.25    0.88
   4  -7  -9    1.36    1.24
  -4   7   8    0.92    0.95
   4  -7  -8    1.67    0.89
  -4   7   7    0.10    0.92
   4  -7  -7    1.77    1.30
  -4   7   6    9.02    3.23
   4  -7  -6   11.02    2.15
  -4   7   5   63.47   14.81
  -4   7   4   55.33   14.45
  -4   7   3   16.67    3.23
  -4   7   2    2.28    0.97
  -4   7   1   30.91    5.68
   4  -7  -1   36.71    3.22
  -4   7   0    2.38    1.13
   4  -7   0    1.83    1.33
   4  -7   1   80.13    7.04
   4  -7   2   38.62    4.65
   4  -7   3   42.11    3.16
   4  -7   4   49.39    3.97
  -4   7  -6   21.54    4.95
  -4   7  -7   51.42    7.25
  -4   7  -8    0.89    0.77
  -4   7  -9    3.64    1.14
  -4   7 -10   -0.19    1.13
  -4   7 -12    2.53    0.62
  -4   7 -13    2.03    0.68
  -4   6  15    0.05    1.83
  -4   6  14   16.05    2.87
   4  -6 -14   15.27    2.30
  -4   6  13    5.04    2.42
   4  -6 -13    3.30    1.68
  -4   6  12   80.84    8.75
   4  -6 -12  110.92    7.00
  -4   6  11   19.12    5.51
   4  -6 -11   35.27    3.24
  -4   6  10    2.09    2.47
   4  -6 -10    6.56    2.27
  -4   6   9    2.23    1.60
   4  -6  -9   -1.07    1.19
  -4   6   8   -0.37    1.34
   4  -6  -8    1.75    1.32
  -4   6   7    3.64    1.89
   4  -6  -7    2.34    1.40
  -4   6   6   30.74    6.39
   4  -6  -6   37.04    3.05
  -4   6   5    2.27    1.82
   4  -6  -5    0.81    1.22
  -4   6   4    3.59    1.59
   4  -6  -4    4.02    1.52
  -4   6   3   -0.98    1.09
   4  -6  -3   -0.80    1.24
  -4   6   2    2.49    0.96
   4  -6  -2    4.42    1.51
  -4   6   1   11.76    2.22
   4  -6  -1   15.58    3.29
  -4   6   0  124.76    6.40
   4  -6   0  138.40    7.22
  -4   6  -1   -0.16    0.84
   4  -6   1    0.62    1.10
  -4   6  -2    2.27    0.89
   4  -6   2    4.64    1.67
  -4   6  -3    0.35    0.41
   4  -6   3    0.03    1.16
   4  -6   4   43.98    3.55
   4  -6   5   63.81    3.68
   4  -6   5   70.96    4.43
   4  -6   6   69.35    3.41
  -4   6  -6   73.13    6.47
   4  -6   7  100.13    4.49
  -4   6  -7   89.13   15.40
   4  -6   8    2.82    1.46
  -4   6  -8    1.28    0.69
   4  -6   9   29.78    2.65
  -4   6  -9   28.50    3.49
   4  -6  10   84.08    3.97
  -4   6 -10   73.12   10.34
   4  -6  11   31.43    3.09
  -4   6 -11   27.63    3.10
   4  -6  12    3.85    1.58
  -4   6 -12    4.92    1.24
   4  -6  13    0.18    0.61
  -4   6 -13    1.39    0.82
   4  -6  14    1.92    1.23
  -4   6 -14   -1.36    1.14
   4  -6  15   20.12    2.59
  -4   6 -15    9.32    3.24
  -4   6 -16    2.87    1.35
   4  -5 -17    8.02    2.06
  -4   5  16    2.91    2.50
   4  -5 -16    4.22    1.47
  -4   5  15    3.86    1.89
   4  -5 -15    0.15    1.27
  -4   5  14    1.64    1.63
   4  -5 -14    3.61    1.64
  -4   5  13   12.38    1.99
   4  -5 -13   16.11    2.34
  -4   5  12    5.11    1.63
   4  -5 -12    3.40    2.14
  -4   5  11   70.70   14.22
   4  -5 -11   79.53    4.25
  -4   5  10    1.76    0.61
   4  -5 -10    2.73    1.42
  -4   5   9   -0.42    1.62
  -4   5   8  236.31   12.04
   4  -5  -8  264.73   10.54
  -4   5   7   49.98    3.81
   4  -5  -7   63.63    4.20
  -4   5   6    5.84    2.14
   4  -5  -6    4.78    1.44
  -4   5   5    1.22    0.91
   4  -5  -5    0.26    1.05
  -4   5   4   15.95    4.10
   4  -5  -4   18.08    2.45
  -4   5   3    0.93    0.85
   4  -5  -3   -1.16    1.16
  -4   5   2    1.27    1.33
   4  -5  -2    2.97    1.68
  -4   5   1    2.77    1.44
   4  -5  -1    4.07    1.33
  -4   5   0   39.44    5.91
   4  -5   0   46.77    8.73
  -4   5  -1   79.48    4.38
   4  -5   2  128.43    5.24
  -4   5  -2  137.39    6.08
   4  -5   2  151.04    6.95
   4  -5   3   34.08    4.56
  -4   5  -3   28.26    1.88
   4  -5   3   40.29    6.64
   4  -5   4   20.83    2.17
  -4   5  -4   24.96    1.97
   4  -5   4   22.80    4.07
   4  -5   5   92.54    3.97
   4  -5   5  100.74    5.02
   4  -5   6  102.17    4.46
  -4   5  -6   93.61   13.97
   4  -5   7   14.27    1.57
  -4   5  -7   15.89    3.29
   4  -5   8   28.10    2.00
  -4   5  -8   33.78    3.96
   4  -5   9   45.90    3.27
  -4   5  -9   43.55    5.92
   4  -5  10    7.32    1.58
  -4   5 -10    8.73    2.22
   4  -5  11   15.34    1.82
  -4   5 -11   18.27    3.08
   4  -5  12    2.23    1.29
  -4   5 -12    0.52    1.16
   4  -5  13   16.35    2.19
  -4   5 -13   13.11    1.96
   4  -5  14   57.08   12.47
  -4   5 -14   55.04   12.87
   4  -5  15   11.74    2.13
  -4   5 -15   11.33    2.64
   4  -5  16    2.20    1.73
  -4   5 -16    0.63    0.86
   4  -5  17    1.17    0.91
  -4   5 -17    1.73    1.39
   4  -5  18    3.80    1.71
  -4   5 -18    4.49    2.05
   4  -4 -18    2.48    1.47
   4  -4 -17    3.74    1.59
  -4   4  16   32.40    3.72
   4  -4 -16   30.78    3.34
  -4   4  15   13.20    2.49
   4  -4 -15   11.84    2.18
  -4   4  14    1.83    1.63
   4  -4 -14    1.42    1.31
  -4   4  13    4.34    1.47
   4  -4 -13    5.03    1.69
  -4   4  12   28.88    3.40
   4  -4 -12   26.83    2.80
  -4   4  11  157.69    8.57
   4  -4 -11  174.41    7.77
  -4   4  10   25.52    2.81
   4  -4 -10   28.40    2.68
  -4   4   9   27.36    4.46
   4  -4  -9   35.64    2.84
  -4   4   8    5.77    1.97
   4  -4  -8    3.55    1.40
  -4   4   7   49.30    4.07
   4  -4  -7   57.09    3.65
  -4   4   6   91.65    6.33
   4  -4  -6   99.14    5.01
  -4   4   5   72.01    5.16
   4  -4  -5   87.25    3.95
  -4   4   4    6.33    1.49
   4  -4  -4    8.16    1.53
  -4   4   3    1.66    1.10
   4  -4  -3    1.85    1.58
  -4   4   2    1.84    1.40
   4  -4  -2    0.50    1.02
  -4   4   1    2.54    1.11
   4  -4  -1   -0.19    1.00
   4  -4   0   31.50    1.92
  -4   4   0   35.12    2.68
   4  -4   0   37.59    2.69
   4  -4   1    3.84    0.76
  -4   4  -1    2.14    0.97
   4  -4   1    3.87    1.17
   4  -4   2   18.58    1.46
  -4   4  -2   17.70    1.95
   4  -4   2   24.51    3.84
   4  -4   3   81.98    3.12
  -4   4  -3   83.58    3.43
   4  -4   3   92.61    4.15
   4  -4   4    7.60    1.57
  -4   4  -4    6.16    1.52
   4  -4   4   10.35    1.96
   4  -4   5  568.59   13.82
  -4   4  -5  581.57   12.18
   4  -4   5  627.02   14.30
   4  -4   6  360.48    8.94
  -4   4  -6  377.94    7.49
  -4   4  -6  346.37   11.53
   4  -4   7  164.48    5.10
  -4   4  -7  164.08    5.71
   4  -4   8  254.84    9.88
  -4   4  -8  240.20    9.68
   4  -4   9    3.83    1.08
  -4   4  -9    2.68    1.14
   4  -4  10   31.86    2.56
  -4   4 -10   26.28    2.70
   4  -4  11    0.98    1.14
  -4   4 -11    1.31    1.04
   4  -4  12    1.48    1.20
  -4   4 -12    1.39    0.78
   4  -4  13    7.01    1.61
  -4   4 -13    6.58    1.66
   4  -4  14   65.04    5.20
  -4   4 -14   55.47    5.86
   4  -4  15   18.52    2.40
  -4   4 -15   16.93    2.39
   4  -4  16    1.88    1.37
  -4   4 -16    6.11    1.94
  -4   4 -17    0.91    1.31
   4  -4  18  117.74    7.19
  -4   4 -18   94.66    6.13
   4  -4  19   46.13    4.67
  -4   4 -19   45.25    4.32
   4  -3 -19   -0.16    1.00
   4  -3 -18    0.99    1.32
  -4   3  17    2.99    1.49
   4  -3 -17    3.53    1.81
  -4   3  16    3.36    1.32
   4  -3 -16    6.41    1.95
  -4   3  15    0.91    1.44
   4  -3 -15   -0.13    1.14
  -4   3  14    5.02    1.49
   4  -3 -14    5.89    1.63
  -4   3  13    1.03    1.50
   4  -3 -13   -0.29    1.11
  -4   3  12    6.81    2.02
   4  -3 -12    4.70    1.36
  -4   3  11    2.30    1.43
   4  -3 -11    3.78    1.09
  -4   3  10   62.39    4.03
   4  -3 -10   68.77    3.91
  -4   3   9   -0.18    1.28
   4  -3  -9    2.36    1.03
  -4   3   8  220.50   10.71
   4  -3  -8  259.57    7.14
  -4   3   7 1323.37   26.85
   4  -3  -7 1435.52   14.04
  -4   3   6  139.26    8.61
   4  -3  -6  167.30    5.58
  -4   3   5    4.39    1.68
   4  -3  -5    7.85    1.34
  -4   3   4   32.73    2.58
   4  -3  -4   31.24    2.08
  -4   3   3    5.26    1.73
   4  -3  -3    4.72    0.91
   4  -3  -2  143.59    3.77
  -4   3   2  152.13    5.20
   4  -3  -1  217.02    5.45
  -4   3   1  228.60    6.86
   4  -3  -1  244.20    7.02
   4  -3   0   59.49    2.08
  -4   3   0   64.84    3.16
   4  -3   0   69.86    3.12
   4  -3   1  125.00    2.85
  -4   3  -1  132.59    3.92
   4  -3   1  134.89    5.10
   4  -3   2    4.26    0.93
  -4   3  -2    4.41    1.07
   4  -3   2    5.15    0.87
   4  -3   3  221.76    6.16
  -4   3  -3  222.65    6.37
   4  -3   3  227.23    6.80
   4  -3   4    4.07    1.07
  -4   3  -4    5.04    1.21
   4  -3   4    6.29    1.19
   4  -3   5   99.38    3.23
  -4   3  -5  108.75    3.78
   4  -3   5  105.81    3.54
  -4   3  -6  498.74    6.56
  -4   3  -6  456.27    9.14
   4  -3   7    2.60    1.12
  -4   3  -7    2.80    0.55
  -4   3  -7    2.50    0.55
   4  -3   8   30.58    5.61
  -4   3  -8   24.00    3.88
   4  -3   9   34.75    2.39
  -4   3  -9   32.85    4.65
   4  -3  10   72.49   12.00
  -4   3 -10   59.68    3.50
   4  -3  11    4.52    1.57
  -4   3 -11    3.81    0.92
   4  -3  12  229.39   19.64
  -4   3 -12  176.93    6.92
   4  -3  13   -0.70    1.32
  -4   3 -13    0.82    1.13
   4  -3  14   56.86    6.62
  -4   3 -14   52.61    3.55
   4  -3  15    0.50    1.22
  -4   3 -15    0.50    1.03
   4  -3  16    0.26    1.35
  -4   3 -16    3.41    1.66
   4  -3  17   42.64    3.85
  -4   3 -17   31.59    6.16
   4  -3  18    7.43    2.16
  -4   3 -18    4.46    1.63
   4  -3  19  159.71    8.92
  -4   3 -19  131.29   13.75
   4  -3  20    1.06    1.43
  -4   3 -20    2.56    1.44
   4  -2 -19   14.47    2.20
   4  -2 -18   -0.54    1.24
  -4   2  17    1.64    1.28
   4  -2 -17    2.29    1.11
  -4   2  16    3.12    1.88
   4  -2 -16    1.28    1.30
  -4   2  15    0.72    1.23
   4  -2 -15    0.84    0.95
  -4   2  14    7.69    2.01
   4  -2 -14    4.95    1.47
  -4   2  13   -0.82    1.40
   4  -2 -13    0.74    1.03
  -4   2  12   -1.39    1.36
   4  -2 -12    1.07    0.70
  -4   2  11    1.62    1.47
   4  -2 -11    0.96    0.96
  -4   2  10   77.64    3.87
   4  -2 -10   74.40    3.71
  -4   2   9   25.61    2.49
   4  -2  -9   25.27    2.09
  -4   2   8   44.37    3.33
   4  -2  -8   48.27    3.26
  -4   2   7    6.99    1.76
   4  -2  -7   10.60    1.49
  -4   2   6   98.56    3.99
   4  -2  -6   97.55    3.37
  -4   2   5   23.69    2.54
   4  -2  -5   22.28    1.61
   4  -2  -4   29.16    1.60
  -4   2   4   30.74    2.83
   4  -2  -4   37.15    2.05
   4  -2  -3  110.23    2.82
  -4   2   3  119.00    3.93
   4  -2  -3  117.87    3.89
   4  -2  -2    3.19    0.82
  -4   2   2    5.17    1.71
   4  -2  -2    5.37    1.19
   4  -2  -1  109.47    6.08
  -4   2   1  111.86    4.46
   4  -2  -1  110.97    3.04
  -4   2   0    4.33    0.97
   4  -2   0    4.30    0.87
   4  -2   1   31.85    1.55
  -4   2  -1   31.36    2.07
   4  -2   1   35.03    1.83
   4  -2   2  100.92    2.92
  -4   2  -2  103.26    3.21
   4  -2   2  103.81    2.99
   4  -2   3   22.40    1.63
  -4   2  -3   20.53    2.40
   4  -2   3   22.63    1.51
   4  -2   4   87.90    2.76
  -4   2  -4   93.65    2.70
   4  -2   4   90.26    2.98
   4  -2   5   23.89    1.79
  -4   2  -5   25.33    4.07
   4  -2   6  604.09    9.43
  -4   2  -6  564.27    7.72
  -4   2  -6  503.20    7.95
   4  -2   7 1323.87   29.41
  -4   2  -7 1250.06   26.81
  -4   2  -7 1174.28   26.19
   4  -2   8   91.69    4.01
  -4   2  -8   84.51    2.28
  -4   2  -8   78.78    4.83
   4  -2   9  160.44    4.84
  -4   2  -9  134.24    6.38
   4  -2  10   93.26    5.05
  -4   2 -10   89.36    5.08
   4  -2  11   44.48    6.62
  -4   2 -11   42.98    3.50
   4  -2  12   40.72    2.71
  -4   2 -12   38.62    5.75
   4  -2  13    2.47    1.29
  -4   2 -13    2.23    1.13
   4  -2  14   10.90    1.91
  -4   2 -14    7.70    2.07
   4  -2  15   28.04    2.87
  -4   2 -15   26.85    2.73
   4  -2  16    3.98    1.60
  -4   2 -16    2.33    0.85
   4  -2  17    0.96    1.28
  -4   2 -17    1.94    0.99
   4  -2  18    0.12    1.46
  -4   2 -18    0.85    1.12
   4  -2  19   49.44   10.50
  -4   2 -19   32.96    9.84
   4  -2  20  173.45    9.45
  -4   2 -20  167.04    8.99
   4  -2  21   15.77    2.66
   4  -1 -19   55.26   15.05
   4  -1 -18   67.67    4.01
  -4   1  17    2.66    1.67
   4  -1 -17    5.55    1.68
  -4   1  16    9.04    2.66
   4  -1 -16   10.91    1.86
  -4   1  15    1.82    0.48
   4  -1 -15    2.31    0.99
  -4   1  14    2.85    1.02
   4  -1 -14    5.85    1.48
  -4   1  13    0.30    1.17
   4  -1 -13    0.03    0.48
  -4   1  12    2.29    1.00
   4  -1 -12    1.80    1.16
  -4   1  11    6.82    1.79
   4  -1 -11    9.03    1.28
  -4   1  10  268.82    7.34
   4  -1 -10  270.43    6.94
  -4   1   9    9.20    1.71
   4  -1  -9    9.04    1.40
   4  -1  -8   44.78    3.24
  -4   1   8   51.79    3.49
   4  -1  -8   54.48    3.45
   4  -1  -7  572.67   13.09
  -4   1   7  592.96   14.57
   4  -1  -7  637.03   15.74
   4  -1  -5  367.56   10.17
  -4   1   5  385.47   11.81
   4  -1  -5  403.94   11.79
   4  -1  -4   10.05    1.03
  -4   1   4   11.12    2.02
   4  -1  -4   10.38    1.22
   4  -1  -3    1.30    0.69
  -4   1   3    0.99    1.24
   4  -1  -3    1.03    0.60
   4  -1  -2   37.05    1.49
  -4   1   2   45.40    2.69
   4  -1  -2   41.49    1.85
   4  -1  -1   28.09    1.40
  -4   1   1   33.17    2.32
   4  -1  -1   27.60    1.46
   4  -1   0    1.24    0.74
  -4   1   0   -0.40    0.86
   4  -1   0    0.09    0.48
   4  -1   1   94.31    3.10
  -4   1  -1   94.87    3.16
   4  -1   1  101.17    3.18
   4  -1   2  120.32    3.31
  -4   1  -2  125.84    3.49
   4  -1   2  114.94    2.99
   4  -1   3   70.45    2.64
  -4   1  -3   70.13    2.50
   4  -1   3   68.28    2.83
   4  -1   4  180.33    6.39
  -4   1  -4  170.69    6.29
   4  -1   4  167.19    5.35
   4  -1   5    6.43    1.11
  -4   1  -5    5.89    1.03
  -4   1  -5    5.04    1.11
   4  -1   6  199.63    6.76
  -4   1  -6  179.17    5.67
  -4   1  -6  166.85    5.54
   4  -1   7  102.13    3.95
  -4   1  -7  102.64    3.11
  -4   1  -7   97.75    4.49
   4  -1   8    0.57    0.91
  -4   1  -8    0.73    0.34
   4  -1   9   -0.07    1.06
  -4   1  -9    0.28    0.36
  -4   1  -9   -0.11    0.68
   4  -1  10   32.66    2.96
  -4   1 -10   27.85    1.71
  -4   1 -10   27.50    3.78
   4  -1  11   70.76    3.18
  -4   1 -11   66.81    3.14
   4  -1  12    9.65    1.74
  -4   1 -12    8.14    1.40
   4  -1  13  376.06   14.33
  -4   1 -13  349.36   12.91
   4  -1  14   48.82    3.07
  -4   1 -14   41.78    7.05
   4  -1  15    7.49    1.46
  -4   1 -15    8.51    1.81
   4  -1  16   27.17    2.87
  -4   1 -16   21.86    4.70
   4  -1  17    6.00    1.84
  -4   1 -17    3.25    0.99
   4  -1  18    0.80    1.00
  -4   1 -18    0.51    0.92
   4  -1  19    5.30    2.27
  -4   1 -19    2.47    1.71
   4  -1  20   41.80    3.72
  -4   1 -20   37.71    3.53
   4  -1  21    1.28    1.30
  -4   1 -21    7.13    1.98
   4   0 -19   33.07    3.33
   4   0 -18   14.61    2.49
   4   0 -17    1.22    1.21
  -4   0  16    7.39    1.39
   4   0 -16    8.45    1.71
  -4   0  15   11.80    1.68
   4   0 -15   10.58    1.86
  -4   0  14   38.91    3.00
   4   0 -14   47.15    3.43
  -4   0  13    2.22    0.90
   4   0 -13    3.91    1.21
   4   0 -12   12.05    3.12
  -4   0  12   18.76    2.00
   4   0 -12   19.49    2.17
   4   0 -11   45.82    7.70
  -4   0  11   69.56    3.46
   4   0 -10    4.26    0.95
  -4   0  10    5.79    1.70
   4   0 -10   10.18    1.57
   4   0  -9   12.98    2.48
  -4   0   9   12.28    1.90
   4   0  -9   11.90    1.42
   4   0  -8    4.86    0.86
  -4   0   8    2.92    1.00
   4   0  -8    3.75    0.83
   4   0  -7   56.34    3.93
  -4   0   7   60.13    3.22
   4   0  -7   54.79    2.43
   4   0  -6  662.72    8.92
  -4   0   6  711.78   10.58
   4   0  -6  690.96   10.22
   4   0  -5   56.98    3.21
  -4   0   5   55.79    5.00
   4   0  -5   57.89    2.05
   4   0  -4  268.81    8.33
  -4   0   4  299.41    9.32
   4   0  -4  291.61    8.50
   4   0  -3   86.91    2.52
  -4   0   3   90.29    5.02
   4   0  -3   89.15    5.88
   4   0  -2  584.51    9.33
  -4   0   2  577.92   10.07
   4   0  -2  574.68    8.91
   4   0  -1  626.48    9.92
  -4   0   1  616.72   10.43
   4   0  -1  596.99    9.06
   4   0   0  135.05    3.39
  -4   0   0  135.74    3.73
   4   0   0  132.71    3.00
   4   0   1    7.31    0.90
  -4   0  -1    7.77    1.65
   4   0   1    7.69    1.22
   4   0   2   27.30    1.81
  -4   0  -2   29.80    3.49
   4   0   2   23.84    2.92
   4   0   3   14.53    2.70
  -4   0  -3   15.31    1.38
   4   0   3   11.06    0.88
   4   0   4  554.54   10.00
  -4   0  -4  542.87    9.02
  -4   0  -4  458.53    7.33
   4   0   5  277.99    6.16
  -4   0  -5  275.98    5.57
  -4   0  -5  234.88    5.04
   4   0   6    9.00    1.44
  -4   0  -6    7.68    1.15
  -4   0  -6    8.12    1.26
   4   0   7  190.87    6.70
  -4   0  -7  180.38    5.80
  -4   0  -7  159.02    5.81
   4   0   8  583.01   10.27
  -4   0  -8  558.10    8.18
  -4   0  -8  525.48    7.72
   4   0   9   20.35    2.21
  -4   0  -9   21.53    1.46
  -4   0  -9   15.28    3.25
   4   0  10   29.40    2.06
  -4   0 -10   30.53    1.57
  -4   0 -10   26.64    1.61
   4   0  11    1.16    0.75
  -4   0 -11    1.10    0.58
  -4   0 -11    2.04    0.58
   4   0  12    1.71    1.21
  -4   0 -12    1.52    0.46
  -4   0 -12    1.39    0.59
   4   0  13    5.99    1.81
  -4   0 -13    4.56    1.19
   4   0  14   17.96    3.22
  -4   0 -14   17.34    1.74
   4   0  15   44.69    5.16
  -4   0 -15   42.73    2.87
   4   0  16    1.28    1.78
  -4   0 -16    2.01    1.05
   4   0  17   13.71    2.02
  -4   0 -17   11.99    2.07
   4   0  18   52.43    3.49
  -4   0 -18   40.90    2.90
   4   0  19   20.03    2.69
  -4   0 -19   13.31    1.93
   4   0  20    2.08    1.45
  -4   0 -20    6.81    1.69
   4   0  21   -1.07    1.30
   4   1 -19  118.73    7.16
   4   1 -18  126.77    5.21
   4   1 -17    7.01    1.84
   4   1 -16    2.68    1.30
  -4  -1  15    2.66    1.21
  -4  -1  15    1.89    1.36
   4   1 -15    4.18    1.27
  -4  -1  14   17.35    1.57
  -4  -1  14   20.62    1.99
   4   1 -14   21.27    2.01
  -4  -1  13   17.07    1.61
  -4  -1  13   19.29    1.79
   4   1 -13   16.52    1.69
  -4  -1  12    4.86    1.08
  -4  -1  12    4.88    1.25
   4   1 -12    5.50    1.15
  -4  -1  11   14.33    1.33
  -4  -1  11   16.66    2.00
   4   1 -11   15.64    1.72
  -4  -1  10    5.86    1.29
   4   1 -10    5.68    1.15
   4   1  -9   50.63    7.59
  -4  -1   9   50.31    3.24
   4   1  -9   50.10    2.89
   4   1  -8   27.99    4.98
  -4  -1   8   30.47    2.25
   4   1  -8   29.81    1.80
   4   1  -7  167.90    3.97
  -4  -1   7  185.26    4.67
   4   1  -7  176.11    3.95
   4   1  -6 1174.80   14.94
  -4  -1   6 1281.06   16.00
   4   1  -6 1224.49   15.29
   4   1  -5  169.20    5.72
  -4  -1   5  182.06    6.46
   4   1  -5  180.33    5.58
   4   1  -4  154.03    5.43
  -4  -1   4  167.49    5.81
   4   1  -4  162.72    5.03
   4   1  -3   76.16    2.54
  -4  -1   3   72.85    2.87
   4   1  -3   75.27    2.01
   4   1  -2  319.01    6.48
  -4  -1   2  337.20    6.76
   4   1  -2  317.83    5.16
   4   1  -1  221.27    5.22
  -4  -1   1  230.93    7.03
   4   1  -1  222.50    3.79
   4   1   0  932.09   14.08
  -4  -1   0  960.15   14.71
   4   1   0  884.79   12.06
   4   1   1  133.27    5.60
  -4  -1  -1  140.98    3.96
   4   1   1  129.92    2.51
   4   1   2  923.47   14.18
  -4  -1  -2  927.23   14.20
   4   1   3  259.78    5.83
  -4  -1  -3  276.19    5.79
  -4  -1  -3  217.22    4.42
  -4  -1  -4   24.59    1.65
  -4  -1  -4   21.34    0.96
   4   1   5  210.62    5.10
  -4  -1  -5  204.10    4.66
  -4  -1  -5  174.80    4.03
   4   1   6  116.73    4.51
  -4  -1  -6  106.35    5.32
  -4  -1  -6   97.41    2.15
   4   1   7   53.17    3.67
  -4  -1  -7   48.17    2.28
  -4  -1  -7   44.68    3.15
   4   1   8  448.29    8.11
  -4  -1  -8  427.49    6.83
  -4  -1  -8  385.96    5.84
   4   1   9  978.64   13.63
  -4  -1  -9  926.15   11.81
  -4  -1  -9  854.35   10.81
   4   1  10  336.70   10.43
  -4  -1 -10  300.13    7.77
  -4  -1 -10  283.50    7.44
   4   1  11   24.28    4.07
  -4  -1 -11   22.38    1.79
  -4  -1 -11   17.96    1.66
   4   1  12  253.24    7.38
  -4  -1 -12  244.55    6.18
  -4  -1 -12  227.84    6.11
   4   1  13  128.17    4.89
  -4  -1 -13  116.66    4.05
  -4  -1 -13  109.77    5.13
   4   1  14   30.96    2.72
  -4  -1 -14   29.67    1.82
  -4  -1 -14   32.02    2.30
   4   1  15    2.87    1.17
  -4  -1 -15    1.37    0.78
   4   1  16    1.51    1.24
  -4  -1 -16    2.48    0.86
   4   1  17    8.36    1.81
  -4  -1 -17    7.70    1.40
   4   1  18    2.93    1.20
  -4  -1 -18    2.02    1.14
   4   1  19    2.11    1.48
  -4  -1 -19    2.06    1.54
   4   1  20    9.02    2.24
  -4  -1 -20    7.36    1.90
   4   2 -18    0.89    1.66
   4   2 -17    1.10    1.10
  -4  -2  16    1.61    1.55
   4   2 -16   -0.10    1.09
  -4  -2  15   18.30    1.80
   4   2 -15   23.02    2.44
  -4  -2  14   20.77    2.09
  -4  -2  14   16.90    2.89
   4   2 -14   22.35    2.28
  -4  -2  13   30.99    2.11
  -4  -2  13   35.86    2.56
   4   2 -13   33.31    2.24
  -4  -2  12   88.70    4.08
  -4  -2  12   94.39    4.25
   4   2 -12   95.00    4.61
  -4  -2  10    7.78    1.25
  -4  -2  10   12.06    1.60
   4   2 -10   10.19    1.27
  -4  -2   9    5.65    0.98
  -4  -2   9    5.18    0.90
   4   2  -9    6.82    1.00
  -4  -2   8   36.88    3.63
   4   2  -8   36.77    1.77
   4   2  -7    7.56    1.52
  -4  -2   7    9.16    1.73
   4   2  -7    7.01    1.09
   4   2  -6    2.86    0.60
  -4  -2   6    3.70    0.62
   4   2  -6    2.84    0.62
   4   2  -5  104.24    4.18
  -4  -2   5  110.94    5.18
   4   2  -5  102.52    2.93
   4   2  -4   64.25    2.39
  -4  -2   4   67.86    3.36
   4   2  -4   65.20    1.63
   4   2  -3   16.55    2.65
  -4  -2   3   14.95    1.79
   4   2  -3   13.77    1.81
  -4  -2   2   93.45    6.41
   4   2  -2   79.98    1.74
   4   2  -1  128.78    4.26
  -4  -2   1  133.72    3.92
   4   2   0 1534.71   23.99
  -4  -2   0 1606.35   23.07
   4   2   1   62.33    2.49
  -4  -2  -1   60.77    2.77
   4   2   2   13.99    1.28
  -4  -2  -2   18.14    1.58
   4   2   3  150.14    4.04
  -4  -2  -3  151.30    4.10
   4   2   4   58.45    2.50
  -4  -2  -4   56.21    2.68
   4   2   5    7.23    1.18
  -4  -2  -5   10.09    1.82
  -4  -2  -5    6.30    0.59
   4   2   6  108.40    5.10
  -4  -2  -6  113.14    4.90
  -4  -2  -6   99.86    1.76
   4   2   7   40.72    5.65
  -4  -2  -7   32.93    2.03
  -4  -2  -7   31.00    1.27
   4   2   8   45.55    2.92
  -4  -2  -8   41.29    2.27
  -4  -2  -8   35.01    1.56
  -4  -2  -9    3.87    0.97
  -4  -2  -9    2.70    0.64
   4   2  10  125.89    4.07
  -4  -2 -10  118.96    4.52
  -4  -2 -10  107.99    2.88
   4   2  11   11.23    1.66
  -4  -2 -11   12.99    2.01
  -4  -2 -11    9.34    1.01
   4   2  12  263.13    7.88
  -4  -2 -12  259.43    6.37
  -4  -2 -12  242.71    5.75
   4   2  13  758.32   26.17
  -4  -2 -13  693.07   23.70
  -4  -2 -13  649.01   21.99
   4   2  14  393.95   12.82
  -4  -2 -14  367.99   11.40
  -4  -2 -14  330.05   10.38
   4   2  15    2.09    1.35
  -4  -2 -15    2.04    0.86
  -4  -2 -15   -0.19    0.94
   4   2  16   65.67    4.18
  -4  -2 -16   56.69    3.44
   4   2  17   11.68    2.05
  -4  -2 -17    7.26    1.29
   4   2  18   43.27    7.55
  -4  -2 -18   34.50    8.23
   4   2  19   19.80    4.13
  -4  -2 -19   28.78    2.54
   4   2  20   12.74    3.08
   4   3 -17  155.43    5.50
  -4  -3  16    5.94    1.68
   4   3 -16    6.05    1.61
  -4  -3  15   47.98    3.17
   4   3 -15   41.33    8.05
  -4  -3  14    1.69    1.02
   4   3 -14    2.24    1.08
  -4  -3  13   42.17    3.08
  -4  -3  13   50.39    3.24
   4   3 -13   52.93    3.51
  -4  -3  12   21.91    2.08
  -4  -3  12   21.41    1.85
   4   3 -12   19.77    1.95
  -4  -3  11    4.30    1.39
  -4  -3  11    4.59    1.06
   4   3 -11    4.84    1.17
  -4  -3  10   10.75    1.60
  -4  -3  10    9.57    1.36
   4   3 -10   10.60    1.72
  -4  -3   9    3.95    1.20
  -4  -3   9    5.60    1.31
   4   3  -9    5.36    0.94
  -4  -3   8  119.15    4.41
  -4  -3   8  109.16   10.79
   4   3  -8   95.66    5.95
  -4  -3   7 1216.81   13.65
   4   3  -7 1135.11   11.91
   4   3  -6  637.05   19.50
  -4  -3   6  717.92   16.71
   4   3  -6  651.62   14.98
   4   3  -5  171.73    4.73
  -4  -3   5  200.82    5.02
   4   3  -5  179.23    3.41
   4   3  -4    3.35    0.71
  -4  -3   4    2.93    0.76
   4   3  -4    2.70    0.44
   4   3  -3    3.45    0.72
  -4  -3   3    4.74    1.18
   4   3  -2    4.46    0.95
  -4  -3   2    2.90    0.92
   4   3  -1   41.24    4.81
  -4  -3   1   34.12    2.08
   4   3   0   34.41    3.75
  -4  -3   0   35.28    2.41
   4   3   1  412.24   13.63
  -4  -3  -1  441.89   12.81
   4   3   2    1.94    0.67
  -4  -3  -2    4.39    1.17
   4   3   3  161.52    5.68
  -4  -3  -3  166.24    5.81
   4   3   4  150.41    7.23
  -4  -3  -4  163.61    5.78
   4   3   5  170.26    6.04
  -4  -3  -5  165.61    7.07
   4   3   6  192.45    4.74
  -4  -3  -6  195.23    4.87
   4   3   7   13.67    2.29
  -4  -3  -7   12.44    1.66
   4   3   8    1.66    0.76
  -4  -3  -8    1.26    0.82
  -4  -3  -8    1.38    0.41
   4   3   9    1.54    0.76
  -4  -3  -9    3.69    1.17
  -4  -3  -9    2.52    0.59
   4   3  10    0.07    0.99
  -4  -3 -10    1.39    0.89
  -4  -3 -10    0.08    0.44
   4   3  11    1.75    1.73
  -4  -3 -11   -0.08    0.89
  -4  -3 -11   -0.13    0.45
   4   3  12    1.34    0.78
  -4  -3 -12    0.95    0.34
  -4  -3 -12    0.80    0.58
   4   3  13   46.79    5.36
  -4  -3 -13   41.23    2.78
  -4  -3 -13   41.59    2.40
   4   3  14   81.56    4.01
  -4  -3 -14   78.16    3.49
  -4  -3 -14   66.45    2.94
   4   3  15    6.83    1.64
  -4  -3 -15    3.26    1.22
  -4  -3 -15    2.07    0.70
   4   3  16   53.20    3.51
  -4  -3 -16   63.63    3.74
  -4  -3 -16   68.44    3.48
   4   3  17  148.76    5.16
   4   3  18   97.60   14.83
  -4  -4  17    1.81    1.09
  -4  -4  16    4.19    1.21
  -4  -4  15    1.08    1.14
  -4  -4  14   39.64    3.12
   4   4 -14   35.54    3.97
  -4  -4  13  183.30    6.97
   4   4 -13  175.15    6.69
  -4  -4  12   35.97    2.96
   4   4 -12   35.28    2.91
  -4  -4  11   13.29    1.63
  -4  -4  11   12.66    1.52
   4   4 -11   11.49    1.29
  -4  -4  10    6.34    1.27
  -4  -4  10    5.44    1.06
   4   4 -10    5.99    1.11
  -4  -4   9   24.69    2.11
  -4  -4   9   25.95    1.96
   4   4  -9   21.71    1.63
  -4  -4   8    7.84    1.29
  -4  -4   8    9.65    1.20
   4   4  -8    7.87    1.07
  -4  -4   7   18.87    1.85
  -4  -4   7   19.12    1.76
   4   4  -7   17.17    1.29
   4   4  -6   25.01    3.92
  -4  -4   6   27.98    4.30
   4   4  -6   21.44    1.53
   4   4  -5   25.56    3.10
  -4  -4   5   25.69    2.29
   4   4  -4  239.05    7.62
  -4  -4   4  246.32    7.13
   4   4  -3 1279.42   31.07
  -4  -4   3 1399.28   30.98
   4   4  -1   20.29    3.95
  -4  -4   1   24.37    4.68
   4   4   0   53.57    8.25
  -4  -4   0   54.10    2.83
   4   4   1  507.62    8.68
  -4  -4  -1  537.87    8.90
   4   4   2   40.40    2.70
  -4  -4  -2   42.96    2.90
   4   4   3    4.55    1.09
  -4  -4  -3    3.32    0.77
   4   4   4   73.16    2.99
  -4  -4  -4   71.52    2.96
   4   4   5   43.14    2.87
  -4  -4  -5   41.92    2.57
   4   4   6   18.66    1.80
  -4  -4  -6   19.25    1.95
   4   4   7  198.94    4.90
  -4  -4  -7  202.22    6.37
   4   4   8    0.96    1.05
  -4  -4  -8    1.77    0.73
   4   4   9   26.57    2.48
  -4  -4  -9   28.85    5.11
   4   4  10    3.24    1.06
  -4  -4 -10    3.87    1.22
   4   4  11   75.57    5.15
  -4  -4 -11   79.33    5.24
   4   4  12   14.92    1.95
  -4  -4 -12   11.12    2.15
   4   4  13    4.82    1.01
  -4  -4 -13    4.22    1.27
  -4  -4 -14    1.56    1.00
   4   4  15    6.35    1.48
  -4  -4 -15    5.61    1.32
   4   4  16    0.62    0.64
  -4  -4 -16    3.24    0.92
   4   4  17    2.22    1.29
  -4  -5  17    9.31    2.01
  -4  -5  16    4.66    1.30
  -4  -5  15   14.36    2.18
  -4  -5  14   11.04    1.95
  -4  -5  13   19.30    2.23
  -4  -5  12   21.51    2.65
  -4  -5  11    5.13    1.29
  -4  -5  10   10.50    1.96
  -4  -5  10    7.89    2.07
  -4  -5   9    0.90    0.68
  -4  -5   9    1.41    0.79
  -4  -5   8    1.81    1.10
  -4  -5   7  162.06    7.17
  -4  -5   7  154.91    6.47
   4   5  -6   28.83    4.57
  -4  -5   6   25.56    5.77
   4   5  -5   -0.08    0.90
  -4  -5   5    1.42    0.91
   4   5  -4    3.53    0.67
  -4  -5   4    2.46    0.73
   4   5  -3   -0.02    0.82
  -4  -5   3    1.02    0.78
   4   5  -2    9.04    1.47
  -4  -5   2    8.17    1.52
   4   5  -1    5.04    1.08
  -4  -5   1    5.15    1.15
   4   5   0   64.73    8.27
  -4  -5   0   59.08    3.61
   4   5   1 1218.22   19.52
  -4  -5  -1 1290.08   15.28
  -4  -5  -2  137.41    4.60
   4   5   3   11.67    1.91
  -4  -5  -3   11.94    1.58
   4   5   4    8.44    1.52
  -4  -5  -4    6.63    1.54
   4   5   5    1.28    0.94
  -4  -5  -5    0.28    0.92
   4   5   6  159.96    5.30
  -4  -5  -6  166.10    8.40
   4   5   7   31.01    2.35
  -4  -5  -7   37.45    6.01
   4   5   8   41.28    5.91
  -4  -5  -8   42.25    2.91
   4   5   9   86.62    5.05
  -4  -5  -9   89.46    4.82
   4   5  10   11.29    1.88
  -4  -5 -10    8.62    1.55
   4   5  11   62.23    3.67
  -4  -5 -11   70.66    4.35
   4   5  12   55.67    4.80
  -4  -5 -12   69.46    4.38
   4   5  13   24.66    3.63
  -4  -5 -13   30.08    3.14
   4   5  14   22.55    4.90
  -4  -5 -14   27.34    2.98
   4   5  15    2.28    0.83
  -4  -5 -15    5.22    1.41
  -4  -5 -16    6.84    1.82
  -4  -6  16    2.98    1.44
  -4  -6  15   16.12    2.45
  -4  -6  14   39.03    3.50
  -4  -6  13   21.57    2.33
  -4  -6  12  130.82    7.57
  -4  -6  11   16.39    2.41
  -4  -6  10    8.01    1.74
  -4  -6   9    1.30    1.24
  -4  -6   8    7.00    1.67
  -4  -6   8    5.72    1.21
  -4  -6   7  155.68    7.25
   4   6  -6   25.55    3.59
  -4  -6   6   28.12    2.18
   4   6  -5    0.62    0.70
  -4  -6   5    1.03    0.75
   4   6  -4   61.15    7.93
  -4  -6   4   69.23    3.60
  -4  -6   3    2.06    0.95
   4   6  -2    1.80    0.66
  -4  -6   2    5.01    1.15
   4   6  -1    5.22    1.18
  -4  -6   1    6.04    1.25
   4   6   0    0.56    0.42
  -4  -6   0    1.99    1.32
   4   6   1  139.52    7.92
  -4  -6  -1  151.74    6.77
   4   6   2   45.90    5.43
  -4  -6  -2   46.44    2.99
   4   6   3    1.44    0.71
  -4  -6  -3    1.10    0.66
   4   6   4   58.73    3.46
  -4  -6  -4   57.12    3.62
   4   6   5   63.74    3.83
  -4  -6  -5   62.55    4.82
   4   6   6  117.44    5.71
  -4  -6  -6  120.94    5.53
   4   6   7   41.10    2.46
  -4  -6  -7   51.92    7.13
   4   6   8    5.67    1.10
  -4  -6  -8    7.07    1.60
   4   6   9    6.70    1.13
  -4  -6  -9    6.18    1.86
   4   6  10    1.32    0.50
  -4  -6 -10   -0.82    1.09
   4   6  11    5.66    1.46
  -4  -6 -11    5.39    1.89
   4   6  12   26.58    4.09
  -4  -6 -12   28.65    3.28
  -4  -6 -13   13.41    2.24
  -4  -6 -14    3.46    1.24
  -4  -6 -15   37.20    7.26
  -4  -7  14   32.98   10.87
  -4  -7  13   14.35    3.51
  -4  -7  12   49.11    4.32
  -4  -7  11    5.53    1.86
  -4  -7  10    1.93    1.33
   4   7  -8   17.93    4.25
   4   7  -7   62.33    8.75
   4   7  -6  165.13    8.64
  -4  -7   6  178.48    6.43
   4   7  -5    2.44    0.93
  -4  -7   5   -1.07    0.83
   4   7  -4   75.18    4.53
  -4  -7   4   78.64    4.41
   4   7  -3   67.03   10.31
  -4  -7   3   64.71    9.98
   4   7  -2   43.05    8.24
  -4  -7   2   44.95    3.70
   4   7  -1   25.37    3.46
  -4  -7   1   30.75    2.50
   4   7   0    6.35    1.36
  -4  -7   0    9.13    1.46
   4   7   1    4.56    1.17
  -4  -7  -1    0.17    0.94
   4   7   2    8.40    1.61
  -4  -7  -2   11.21    2.06
   4   7   3   21.06    2.95
  -4  -7  -3   28.67    2.84
   4   7   4    0.48    0.98
  -4  -7  -4    2.76    1.62
   4   7   5    5.29    1.28
  -4  -7  -5    4.33    1.43
   4   7   6  138.07    6.18
  -4  -7  -6  160.71   16.86
   4   7   7   34.59    2.49
  -4  -7  -7   37.75    3.53
   4   7   8    5.51    1.19
  -4  -7  -8    7.03    1.78
   4   7   9    1.54    1.53
  -4  -7  -9    2.97    1.75
  -4  -7 -10    2.24    1.09
  -4  -7 -11    5.99    1.48
  -4  -7 -12    2.12    1.74
  -4  -7 -13   17.25    2.66
  -4  -7 -14    7.01    2.21
   4   7  16    2.14    1.69
   4   8 -10   56.90   12.91
   4   8  -9    0.72    0.66
   4   8  -8   26.03    5.52
   4   8  -7   25.35    7.79
   4   8  -6   17.02    3.75
   4   8  -5    3.35    1.78
   4   8  -4   81.36   13.02
  -4  -8   4  104.56    4.31
   4   8  -3   20.46    3.07
  -4  -8   3   14.74    2.97
   4   8  -2   18.95    3.04
  -4  -8   2   18.72    2.14
   4   8  -1   32.26    2.72
  -4  -8   1   28.35    5.45
   4   8   0  138.05   18.30
  -4  -8   0  167.02    6.96
   4   8   1   36.65    5.38
  -4  -8  -1   47.87    3.36
   4   8   2    0.63    0.58
  -4  -8  -2    1.56    1.18
   4   8   3   15.11    4.04
  -4  -8  -3   22.19    2.67
   4   8   4    9.21    1.51
  -4  -8  -4   13.76    2.24
   4   8   5   13.10    1.92
  -4  -8  -5   12.43    2.24
   4   8   6    3.47    1.64
  -4  -8  -6    4.43    1.25
  -4  -8  -7    3.70    1.82
  -4  -8  -8   61.29    4.69
  -4  -8  -9    3.07    2.17
  -4  -8 -10   78.64    4.57
  -4  -8 -11    2.28    1.41
  -4  -8 -12    2.78    1.22
  -4  -8 -13   31.08    3.50
   4   8  14    3.94    2.55
   4   9  -7    1.98    1.22
   4   9  -6   12.84    3.49
   4   9  -5   17.17    2.89
   4   9  -4   31.19    4.57
   4   9  -3   13.44    2.70
   4   9  -2   16.70    2.75
   4   9  -1    0.42    0.71
  -4  -9   1    2.12    1.36
   4   9   0    7.74    2.60
  -4  -9   0   11.74    2.31
  -4  -9  -1   10.29    2.25
  -4  -9  -2    3.20    1.28
  -4  -9  -3   21.54    2.84
  -4  -9  -4   81.05    4.61
  -4  -9  -5   16.51    2.96
  -4  -9  -6   14.10    2.70
  -4  -9  -7   18.69    2.84
  -4  -9  -8   12.23    2.56
  -4  -9  -9    2.30    1.37
  -4  -9 -10    0.27    1.23
   5  -8  -4   -0.34    1.56
   5  -8  -1   17.82    4.92
   5  -8   1    2.03    1.45
   5  -8   2   30.75    3.66
   5  -8   3    6.88    2.00
  -5   8  -5   28.50    8.72
  -5   8  -6   19.72    7.45
   5  -7  -9    1.15    1.46
  -5   7   8   65.19    5.25
   5  -7  -8   72.04    5.34
  -5   7   7   32.11    3.78
   5  -7  -7   37.24    3.75
  -5   7   6    0.50    1.31
   5  -7  -6    1.54    1.52
  -5   7   5    3.02    1.87
   5  -7  -5    5.37    1.93
  -5   7   4    3.31    1.41
   5  -7  -4    7.46    2.04
  -5   7   3    8.48    2.18
  -5   7   2    0.95    1.20
   5  -7  -2    1.77    1.30
   5  -7  -1    5.10    1.93
   5  -7   0   12.22    2.22
   5  -7   1   28.48    7.13
   5  -7   2   19.97    2.83
   5  -7   3    6.86    2.21
   5  -7   4   62.51    4.17
  -5   7  -5    6.30    2.10
  -5   7  -6    8.67    2.70
  -5   7  -7   22.37    4.69
  -5   7  -8    6.81    1.51
  -5   7  -9    6.32    1.78
  -5   7 -10    3.45    1.54
  -5   7 -11    7.77    2.06
  -5   6  12    3.87    1.90
   5  -6 -12    4.74    2.10
  -5   6  11    1.19    1.74
   5  -6 -11    1.63    1.38
  -5   6  10    1.14    2.33
   5  -6 -10    0.45    1.45
  -5   6   9    3.49    1.53
   5  -6  -9    5.93    1.81
  -5   6   8   -0.44    1.43
   5  -6  -8    2.20    1.57
  -5   6   7   28.62    3.34
   5  -6  -7   24.39    5.63
  -5   6   6   33.93    3.54
   5  -6  -6   38.48    4.14
  -5   6   5    7.40    2.04
   5  -6  -5    5.11    1.82
  -5   6   4    6.26    2.11
   5  -6  -4    6.70    1.74
  -5   6   3   12.55    2.33
   5  -6  -3   16.63    2.69
  -5   6   2    5.49    1.42
   5  -6  -2    7.26    1.73
  -5   6   1   27.52    5.16
   5  -6  -1   40.77    3.12
  -5   6   0   56.40    3.47
   5  -6   0   62.97    3.96
  -5   6  -1    0.60    0.97
   5  -6   1    0.89    1.30
  -5   6  -2    1.65    0.94
   5  -6   2    1.39    0.93
   5  -6   3    9.12    1.93
   5  -6   4   18.81    2.32
  -5   6  -6  162.04    5.87
  -5   6  -7   20.14    3.53
  -5   6  -8   -0.96    1.11
  -5   6  -9    0.95    0.87
  -5   6 -10    1.44    0.82
  -5   6 -11   16.58    3.41
  -5   6 -12    8.46    2.45
  -5   6 -13    1.88    1.26
  -5   6 -14   20.15    4.46
  -5   5  14   -1.06    1.78
   5  -5 -14    0.28    1.29
  -5   5  13    0.44    1.66
   5  -5 -13    1.55    1.35
  -5   5  12    4.11    2.03
   5  -5 -12    2.38    1.53
  -5   5  11   12.57    2.07
   5  -5 -11   15.80    2.40
  -5   5  10    1.96    2.12
   5  -5 -10    1.69    1.75
  -5   5   9   36.78    3.48
   5  -5  -9   41.08    3.58
  -5   5   8   68.43    4.22
   5  -5  -8   80.47    4.74
  -5   5   7   64.18    4.09
   5  -5  -7   73.79    4.77
  -5   5   6   36.18    3.32
   5  -5  -6   38.88    2.90
  -5   5   5    0.65    1.47
   5  -5  -5    1.25    0.74
  -5   5   4    1.15    1.27
   5  -5  -4    1.73    1.14
  -5   5   3    4.57    1.94
   5  -5  -3    1.11    1.04
  -5   5   2    1.38    1.21
   5  -5  -2    3.22    1.10
  -5   5   1  147.11    7.58
   5  -5  -1  149.41    7.61
  -5   5   0   12.29    1.72
   5  -5   0   13.45    2.13
  -5   5  -1   58.35    3.93
   5  -5   1   55.93   11.86
  -5   5  -2  110.76    5.93
   5  -5   2  116.69    6.32
  -5   5  -3   13.83    1.79
   5  -5   3   16.47    2.54
   5  -5   4   56.58    8.05
  -5   5  -4   74.26    4.32
   5  -5   4   80.05    4.88
   5  -5   5   25.07    5.09
   5  -5   5   30.39    2.82
   5  -5   6    0.16    0.33
   5  -5   7   23.06    3.95
  -5   5  -7   21.96    3.65
   5  -5   8    2.00    1.02
  -5   5  -8    6.63    1.24
   5  -5   9   38.24    2.92
  -5   5  -9   32.56    5.32
   5  -5  10   15.68    3.16
  -5   5 -10   18.27    2.24
   5  -5  11   22.32    2.48
  -5   5 -11   18.50    3.12
   5  -5  12    4.10    1.56
  -5   5 -12    3.44    1.09
   5  -5  13  105.01    5.12
  -5   5 -13   77.26    9.24
   5  -5  14   76.36    5.83
  -5   5 -14   50.73   13.58
   5  -5  15    3.53    1.71
  -5   5 -15    2.27    0.85
   5  -5  16    3.44    1.72
  -5   5 -16    3.11    1.80
  -5   4  15    4.47    1.99
   5  -4 -15    5.23    1.77
  -5   4  14   19.27    2.80
   5  -4 -14   26.84    3.20
  -5   4  13   43.41    3.84
   5  -4 -13   45.46    3.37
  -5   4  12   27.55    3.49
   5  -4 -12   22.44    2.44
  -5   4  11    1.36    1.41
   5  -4 -11    2.95    1.64
  -5   4  10   16.79    2.92
   5  -4 -10   16.39    2.22
  -5   4   9    1.74    1.64
   5  -4  -9   -0.24    1.04
  -5   4   8    2.15    1.59
   5  -4  -8    1.76    0.98
  -5   4   7    0.80    1.51
   5  -4  -7    1.39    1.13
  -5   4   6   41.03    7.88
   5  -4  -6   45.30    3.36
  -5   4   5   64.52    4.06
   5  -4  -5   59.28    3.26
  -5   4   4   83.72    6.14
   5  -4  -4   98.05    3.89
  -5   4   3   27.80    2.80
   5  -4  -3   28.54    2.31
  -5   4   2    6.53    1.60
   5  -4  -2    4.27    1.31
  -5   4   1   61.33    3.77
   5  -4  -1   65.08    3.87
  -5   4   0   64.90    3.81
   5  -4   0   71.64    9.45
   5  -4   1   36.96    1.82
  -5   4  -1   38.28    2.58
   5  -4   1   49.21    3.16
   5  -4   2   43.52    2.06
  -5   4  -2   45.30    2.74
   5  -4   2   44.32    2.79
   5  -4   3  102.04    4.99
  -5   4  -3  108.04    5.16
   5  -4   3  107.11    6.20
   5  -4   4   -0.44    0.71
  -5   4  -4   -0.59    0.82
   5  -4   4    1.60    1.04
   5  -4   5  162.11    6.05
  -5   4  -5  166.88    6.10
   5  -4   5  169.19    6.62
   5  -4   6   26.78    1.92
  -5   4  -6   27.71    4.46
   5  -4   7   98.69    3.63
  -5   4  -7   88.86   12.96
   5  -4   8   53.36    6.93
  -5   4  -8   47.48    5.15
   5  -4   9   22.39    3.82
  -5   4  -9   20.01    4.03
   5  -4  10   23.07    2.55
  -5   4 -10   24.58    3.69
   5  -4  11    3.55    1.09
  -5   4 -11    2.37    0.64
   5  -4  12    5.28    1.37
  -5   4 -12    6.00    1.15
   5  -4  13   91.56    4.78
  -5   4 -13   70.71   13.03
   5  -4  14    3.84    2.10
  -5   4 -14    0.04    1.29
   5  -4  15   19.97    2.60
  -5   4 -15   23.01    2.82
   5  -4  16   36.12    7.56
   5  -4  17  126.57    7.46
  -5   4 -17  113.42    7.97
   5  -4  18  148.75    8.84
   5  -3 -17    0.77    1.25
  -5   3  16    6.06    1.98
   5  -3 -16    7.89    2.00
  -5   3  15    2.77    1.63
   5  -3 -15    2.02    1.36
  -5   3  14   25.14    2.95
   5  -3 -14   17.71    2.49
  -5   3  13   -0.65    1.57
   5  -3 -13    0.12    1.02
  -5   3  12    8.49    2.11
   5  -3 -12    7.67    1.78
  -5   3  11   14.00    2.57
   5  -3 -11   12.46    1.84
  -5   3  10    3.36    1.39
   5  -3 -10    3.07    1.30
  -5   3   9   50.42    4.09
   5  -3  -9   54.24    4.09
  -5   3   8   31.17    2.95
   5  -3  -8   37.07    3.05
  -5   3   7    3.40    1.37
   5  -3  -7    2.34    0.92
  -5   3   6   31.82    2.89
   5  -3  -6   33.73    2.72
  -5   3   5   29.34    2.77
   5  -3  -5   31.55    2.56
  -5   3   4    1.68    1.33
  -5   3   3    5.64    1.29
   5  -3  -3    5.30    1.20
  -5   3   2    1.84    1.54
   5  -3  -2    3.28    0.84
   5  -3  -1    2.71    0.75
  -5   3   1    3.09    0.85
   5  -3  -1    2.54    0.98
   5  -3   0   55.56    2.04
  -5   3   0   56.13    3.53
   5  -3   0   68.85    3.12
   5  -3   1  202.54    5.87
  -5   3  -1  217.63    6.43
   5  -3   1  225.07    7.55
   5  -3   2  147.22    5.10
  -5   3  -2  140.61    7.00
   5  -3   2  166.38    5.64
   5  -3   3   -1.32    0.81
  -5   3  -3    0.34    0.99
   5  -3   4   57.15    2.46
  -5   3  -4   59.12    2.65
   5  -3   4   63.74    2.91
   5  -3   5  246.91    6.31
  -5   3  -5  248.01    6.08
   5  -3   5  243.01    6.43
   5  -3   6    2.25    1.02
  -5   3  -6    2.27    0.93
  -5   3  -6   -0.09    0.89
   5  -3   7  211.78    8.68
  -5   3  -7  199.04    7.52
  -5   3  -7  190.03   11.87
   5  -3   8   34.26    2.68
  -5   3  -8   30.04    3.77
   5  -3   9    9.12    1.71
  -5   3  -9    6.60    1.33
   5  -3  10   13.84    2.21
  -5   3 -10   14.95    2.67
   5  -3  11   31.47    2.77
  -5   3 -11   25.07    2.88
   5  -3  12    1.14    0.79
  -5   3 -12    1.04    0.60
   5  -3  13    8.15    1.76
  -5   3 -13    7.28    2.32
   5  -3  14  158.08    6.36
  -5   3 -14  145.19    5.04
   5  -3  15    1.13    1.42
  -5   3 -15    0.85    1.32
   5  -3  16   39.47    3.92
  -5   3 -16   25.91    2.73
   5  -3  17  112.33    5.98
  -5   3 -17   95.12    7.93
   5  -3  18   29.04    5.55
  -5   3 -18   23.33    4.39
   5  -3  19   74.79    5.69
   5  -2 -17   -0.21    1.17
  -5   2  16   13.28    2.17
   5  -2 -16   15.44    2.48
  -5   2  15    1.04    0.89
   5  -2 -15    0.06    0.98
  -5   2  14   60.22   12.99
   5  -2 -14   76.19    4.13
  -5   2  13   -0.12    1.28
   5  -2 -13    0.73    1.15
  -5   2  12  213.75    8.53
   5  -2 -12  224.80    8.15
  -5   2  11   60.26    4.35
   5  -2 -11   72.09    4.68
  -5   2  10    4.08    1.77
   5  -2 -10    1.24    1.05
  -5   2   9    2.39    1.45
   5  -2  -9    0.61    0.88
  -5   2   8    0.49    1.19
   5  -2  -8    1.33    1.47
  -5   2   7    2.61    1.78
   5  -2  -7    0.87    0.99
  -5   2   6   62.76    3.49
   5  -2  -6   61.02    2.76
  -5   2   5   18.45    2.77
   5  -2  -5   19.20    1.91
  -5   2   4   47.64    6.54
   5  -2  -4   41.48    2.26
   5  -2  -3    1.96    0.43
  -5   2   3    3.72    1.58
   5  -2  -3    2.58    0.71
   5  -2  -2  228.42    4.10
  -5   2   2  238.36    5.78
   5  -2  -2  242.64    5.33
   5  -2  -1   -0.23    0.57
  -5   2   1    1.09    1.23
   5  -2  -1    0.74    0.77
   5  -2   0   55.89    3.50
  -5   2   0   48.70    2.96
   5  -2   0   47.30    2.27
   5  -2   1   47.66    2.05
  -5   2  -1   48.27    6.71
   5  -2   1   49.14    2.43
   5  -2   2   18.27    2.95
  -5   2  -2   16.27    1.76
   5  -2   2   16.71    2.76
   5  -2   3    0.95    0.61
  -5   2  -3    1.83    1.41
   5  -2   3    1.56    0.49
   5  -2   4   15.24    1.74
  -5   2  -4   19.84    1.98
   5  -2   4   21.23    1.92
   5  -2   5  718.75   10.99
  -5   2  -5  706.83    9.18
   5  -2   6  517.39   11.97
  -5   2  -6  495.54    8.36
  -5   2  -6  442.78    8.16
   5  -2   7   20.38    2.17
  -5   2  -7   21.58    1.65
  -5   2  -7   18.18    2.93
   5  -2   8    0.42    0.59
  -5   2  -8    0.27    0.43
  -5   2  -8    0.60    0.81
   5  -2   9   51.62    6.66
  -5   2  -9   43.80    7.18
   5  -2  10   55.52    3.91
  -5   2 -10   52.26    9.04
   5  -2  11   25.05    4.92
  -5   2 -11   18.87    3.26
   5  -2  12   55.41    3.62
  -5   2 -12   41.36    6.24
   5  -2  13    8.04    1.51
  -5   2 -13    4.27    1.15
   5  -2  14    2.01    1.43
  -5   2 -14    1.02    1.24
   5  -2  15   25.01    3.82
  -5   2 -15   27.01    2.67
   5  -2  16   20.48    3.02
  -5   2 -16   19.74    3.28
   5  -2  17    0.29    1.11
  -5   2 -17    4.03    1.82
   5  -2  18  442.04   10.28
  -5   2 -18  397.08    8.88
   5  -2  19   69.53    5.12
   5  -2  20   11.04    2.01
   5  -1 -17    2.97    0.90
  -5   1  16   12.56    2.01
   5  -1 -16   13.96    2.12
  -5   1  15    1.18    1.30
   5  -1 -15    1.81    0.93
  -5   1  14    8.51    1.68
   5  -1 -14    8.29    2.15
  -5   1  13    1.09    1.28
   5  -1 -13    0.97    0.97
  -5   1  12    7.13    1.89
   5  -1 -12    7.65    2.24
  -5   1  11   29.69    3.01
   5  -1 -11   26.12    4.89
  -5   1  10    0.12    1.23
   5  -1 -10    0.82    0.94
  -5   1   9   16.79    2.54
   5  -1  -9   13.50    1.55
  -5   1   8 1114.37   20.79
   5  -1  -8 1133.32   20.35
  -5   1   7  291.24    8.06
   5  -1  -7  306.35    7.53
   5  -1  -6    8.59    1.77
  -5   1   6    8.14    2.03
   5  -1  -6    9.11    1.45
   5  -1  -5    1.08    0.53
  -5   1   5    0.49    1.14
   5  -1  -5    0.98    0.72
   5  -1  -4    2.00    0.64
  -5   1   4    2.75    1.26
   5  -1  -4    1.73    0.76
   5  -1  -3   -0.11    0.47
  -5   1   3    3.12    1.69
   5  -1  -3    0.04    0.61
   5  -1  -2  128.52    3.97
  -5   1   2  133.13    4.93
   5  -1  -2  122.92    3.99
   5  -1  -1   69.32    2.32
  -5   1   1   71.20    3.09
   5  -1  -1   68.99    2.62
   5  -1   0   30.31    1.89
  -5   1   0   28.23    2.52
   5  -1   0   28.30    1.71
   5  -1   1  299.56    6.62
  -5   1  -1  296.15    6.17
   5  -1   1  290.15    5.59
   5  -1   2 1610.46   18.71
  -5   1  -2 1586.25   18.95
   5  -1   2 1501.46   17.10
   5  -1   3   21.26    1.85
  -5   1  -3   14.96    1.91
   5  -1   3   18.40    1.43
   5  -1   4  105.80    3.40
  -5   1  -4  113.93    8.97
   5  -1   4   96.28    2.72
   5  -1   5  391.58   10.32
  -5   1  -5  384.21    9.80
  -5   1  -5  323.80    8.63
   5  -1   6  113.31    5.66
  -5   1  -6  116.15    4.25
  -5   1  -6   98.92    3.79
   5  -1   7  115.99   11.54
  -5   1  -7  119.87    3.36
  -5   1  -7  106.15    4.47
   5  -1   8    7.72    1.68
  -5   1  -8    6.63    1.10
  -5   1  -8    8.80    2.07
   5  -1   9   12.56    2.80
  -5   1  -9    7.15    1.23
  -5   1  -9    6.40    1.10
  -5   1 -10    1.97    0.54
  -5   1 -10    2.54    1.41
   5  -1  11    6.90    1.64
  -5   1 -11    5.64    1.13
   5  -1  12    1.63    1.50
  -5   1 -12    1.90    0.81
   5  -1  13   17.41    2.39
  -5   1 -13   12.23    1.45
   5  -1  14    9.32    1.70
  -5   1 -14    9.40    1.36
   5  -1  15    0.84    1.38
  -5   1 -15    1.15    0.49
   5  -1  16   -0.20    1.30
  -5   1 -16    0.78    0.98
   5  -1  17    9.70    1.94
  -5   1 -17    6.83    1.51
   5  -1  18    2.66    1.49
  -5   1 -18    0.79    1.15
   5  -1  19   90.46    4.95
   5  -1  20   36.00    3.66
   5  -1  21   13.23    2.49
   5   0 -17    1.20    0.81
  -5   0  16    1.06    1.11
   5   0 -16   -0.39    1.12
  -5   0  15   23.79    2.89
   5   0 -15   17.32    7.99
  -5   0  14    1.56    1.11
   5   0 -14    2.17    1.65
  -5   0  13   26.74    3.55
   5   0 -13   25.34    3.10
  -5   0  12   43.31    8.96
   5   0 -12   51.90    3.49
  -5   0  11   42.26    8.68
   5   0 -11   37.01    2.47
   5   0 -10   17.78    3.76
  -5   0  10   35.06    2.74
   5   0 -10   26.48    2.23
   5   0  -9    0.70    0.42
  -5   0   9    1.29    1.48
   5   0  -9    1.92    0.81
   5   0  -8   39.85    2.71
  -5   0   8   38.46    3.11
   5   0  -8   41.02    6.87
   5   0  -7   14.79    2.05
  -5   0   7   16.66    2.19
   5   0  -7   18.18    1.51
   5   0  -6    6.10    1.31
  -5   0   6   10.14    2.09
   5   0  -6    7.51    1.24
   5   0  -5   15.72    1.24
  -5   0   5   16.13    2.13
   5   0  -5   15.02    1.26
   5   0  -4  272.40    7.15
  -5   0   4  282.24    8.15
   5   0  -4  275.18    7.10
   5   0  -3   62.46    2.32
  -5   0   3   66.38    3.24
   5   0  -3   61.79    2.06
   5   0  -2  264.48    5.15
  -5   0   2  268.53    6.10
   5   0  -2  251.32    4.52
   5   0  -1    2.52    1.04
  -5   0   1    1.68    1.03
   5   0  -1    0.24    0.41
   5   0   0    1.78    0.84
  -5   0   0    0.68    0.92
   5   0   0   -0.30    0.47
   5   0   1    2.02    0.78
  -5   0  -1   -0.11    0.78
   5   0   1    1.78    0.48
   5   0   2  121.48    3.62
  -5   0  -2  118.02    5.10
   5   0   2  116.91    2.77
   5   0   3   78.46    3.11
  -5   0  -3   73.03    3.96
   5   0   4    1.40    0.54
  -5   0  -4    0.61    0.80
  -5   0  -4    0.32    0.29
   5   0   5   80.05    3.40
  -5   0  -5   79.55    5.07
  -5   0  -5   69.69    6.28
   5   0   6 5480.61  206.82
  -5   0  -6 5078.51  105.82
  -5   0  -6 4601.25  173.01
   5   0   7  164.05    5.73
  -5   0  -7  152.14    5.05
  -5   0  -7  130.09    5.49
   5   0   8   13.56    2.12
  -5   0  -8   10.64    1.79
  -5   0  -8    8.71    1.36
   5   0   9    0.66    1.33
  -5   0  -9    1.52    0.34
  -5   0  -9    0.36    0.39
   5   0  10    0.55    1.28
  -5   0 -10    2.37    0.79
  -5   0 -10    1.75    0.69
   5   0  11   28.67    2.42
  -5   0 -11   23.40    1.78
  -5   0 -11   19.39    1.58
   5   0  12    3.55    1.35
  -5   0 -12    3.22    0.79
  -5   0 -12    4.15    0.93
   5   0  13   36.24    2.79
  -5   0 -13   28.27    5.01
   5   0  14   20.25    4.99
  -5   0 -14   14.64    2.74
   5   0  15   18.51    3.03
  -5   0 -15   13.32    3.16
   5   0  16   43.18    3.13
  -5   0 -16   40.49    2.80
   5   0  17    6.87    2.08
  -5   0 -17    5.10    1.41
   5   0  18   82.64    5.62
  -5   0 -18   63.58    4.63
   5   0  19  202.88    7.79
   5   0  20   35.73    7.47
   5   0  21   12.90    3.49
   5   1 -16    2.75    1.05
  -5  -1  15  149.30    5.96
   5   1 -15  151.60    5.06
  -5  -1  14  111.69    4.32
   5   1 -14  112.32    5.14
   5   1 -13    7.67    1.98
  -5  -1  13   11.16    1.79
   5   1 -13   10.21    2.07
   5   1 -12    0.24    0.45
  -5  -1  12    1.02    1.03
   5   1 -12    1.45    0.95
   5   1 -11   19.45    3.42
  -5  -1  11   27.06    2.50
   5   1 -11   28.08    2.06
   5   1 -10   15.01    2.93
  -5  -1  10   22.76    2.28
   5   1 -10   19.64    2.08
   5   1  -9    0.58    0.35
  -5  -1   9   -1.22    1.26
   5   1  -9    1.06    0.54
   5   1  -8  359.86    8.02
  -5  -1   8  359.51    8.52
   5   1  -8  363.88    7.89
   5   1  -7 1198.84   23.92
  -5  -1   7 1291.51   26.08
   5   1  -7 1196.32   24.43
   5   1  -6  563.55    8.30
  -5  -1   6  599.39    9.96
   5   1  -6  560.17    7.83
   5   1  -5   11.25    2.85
  -5  -1   5   12.07    2.50
   5   1  -5   14.71    1.24
   5   1  -4   46.53    2.97
  -5  -1   4   49.77    3.06
   5   1  -4   47.51    1.83
   5   1  -3   11.31    2.07
  -5  -1   3   14.66    1.74
   5   1  -3    9.62    0.85
   5   1  -2    0.04    0.65
  -5  -1   2    1.52    0.82
   5   1  -2    0.83    0.32
   5   1  -1   13.97    1.34
  -5  -1   1   13.21    1.76
   5   1  -1   11.99    0.85
   5   1   0   18.07    1.45
  -5  -1   0   25.50    4.29
   5   1   0   16.94    1.07
   5   1   1   19.79    1.44
  -5  -1  -1   21.78    1.82
   5   1   1   19.05    0.89
   5   1   2   49.24    7.57
  -5  -1  -2   39.51    2.26
  -5  -1  -2   26.67    2.49
   5   1   3   59.26    2.99
  -5  -1  -3   62.03    3.11
  -5  -1  -3   48.43    1.66
   5   1   4   65.85    2.97
  -5  -1  -4   63.78    2.88
  -5  -1  -4   45.46    4.00
   5   1   5  161.89    4.69
  -5  -1  -5  157.49    4.18
  -5  -1  -5  124.06    3.95
   5   1   6  175.05    5.94
  -5  -1  -6  160.27    6.40
  -5  -1  -6  130.01    3.63
   5   1   7  362.55   10.05
  -5  -1  -7  363.17    9.46
  -5  -1  -7  309.09    7.48
   5   1   8    4.47    1.29
  -5  -1  -8    2.04    0.42
   5   1   9  287.70    7.87
  -5  -1  -9  280.59    5.54
  -5  -1  -9  232.85    5.35
   5   1  10 1025.67   26.70
  -5  -1 -10 1014.71   20.39
  -5  -1 -10  909.47   18.06
   5   1  11  163.66    5.67
  -5  -1 -11  161.92    4.77
  -5  -1 -11  137.09    4.39
   5   1  12    8.49    1.74
  -5  -1 -12    8.59    1.77
  -5  -1 -12    7.97    1.08
   5   1  13   15.56    2.24
  -5  -1 -13   10.31    2.05
  -5  -1 -13   12.09    1.58
   5   1  14   -1.67    1.36
  -5  -1 -14    0.66    0.51
   5   1  15   22.35    2.69
  -5  -1 -15   21.09    2.26
   5   1  16   17.55    2.50
  -5  -1 -16   11.14    1.47
   5   1  17   39.95    3.55
  -5  -1 -17   31.60    2.42
   5   1  18   22.24    2.43
   5   1  19    0.72    1.52
   5   1  20  183.55   10.06
   5   2 -14    4.35    1.32
  -5  -2  14    7.10    1.38
   5   2 -14    7.61    1.27
   5   2 -13   43.02    8.13
  -5  -2  13   51.05    6.85
   5   2 -13   66.03    3.81
   5   2 -12    2.48    0.78
  -5  -2  12    4.95    1.00
   5   2 -12    4.88    1.13
   5   2 -11  252.64    6.09
  -5  -2  11  281.64    6.10
   5   2 -11  283.29    5.65
   5   2 -10  247.88    9.21
  -5  -2  10  281.20   11.24
   5   2 -10  267.06    8.78
   5   2  -9  211.02    8.47
  -5  -2   9  236.24   11.66
   5   2  -9  215.03    8.20
   5   2  -8   17.41    3.66
  -5  -2   8   18.07    3.03
   5   2  -8   13.80    1.30
   5   2  -7    4.62    1.19
  -5  -2   7    8.56    1.98
   5   2  -7    5.04    0.95
   5   2  -6   84.03    4.53
  -5  -2   6   83.73    5.28
   5   2  -6   82.64    3.81
   5   2  -5   84.16    5.46
  -5  -2   5   83.35    4.80
   5   2  -5   74.79    3.37
   5   2  -4    3.18    0.71
  -5  -2   4    1.76    1.10
   5   2  -4    1.38    0.38
   5   2  -3  174.10    5.76
  -5  -2   3  181.10    5.93
   5   2  -2    0.57    0.48
  -5  -2   2    0.37    0.85
   5   2  -1    4.91    0.83
  -5  -2   1    5.81    1.40
   5   2   0    2.88    0.89
  -5  -2   0    3.30    1.04
   5   2   1    1.08    0.81
  -5  -2  -1   -0.20    0.77
   5   2   2    3.17    0.95
  -5  -2  -2    3.24    0.97
   5   2   3  134.50    4.08
  -5  -2  -3  138.45    4.12
   5   2   4   11.24    2.32
  -5  -2  -4   10.49    1.53
   5   2   5   13.89    1.68
  -5  -2  -5   13.07    1.74
   5   2   6  766.21   18.33
  -5  -2  -6  711.86   18.45
   5   2   7 1015.73   13.12
  -5  -2  -7  958.69   12.06
   5   2   8  392.35    7.68
  -5  -2  -8  361.14    6.67
   5   2   9    7.36    1.46
  -5  -2  -9    9.20    1.70
   5   2  10   26.75    2.27
  -5  -2 -10   26.89    2.10
  -5  -2 -10   23.89    1.39
   5   2  11   18.70    3.75
  -5  -2 -11   17.16    1.68
  -5  -2 -11   12.96    1.34
   5   2  12    5.47    1.25
  -5  -2 -12    4.66    1.00
  -5  -2 -12    3.58    0.87
   5   2  13   57.71    3.37
  -5  -2 -13   55.84    2.83
  -5  -2 -13   52.28    2.42
   5   2  14  150.17    8.70
  -5  -2 -14  136.35    7.30
  -5  -2 -14  134.67    6.35
   5   2  15   11.87    2.55
   5   2  16   12.45    2.11
   5   2  17   11.42    2.44
   5   2  18    1.89    1.11
   5   2  19   20.49    5.51
   5   3 -14    5.39    1.57
   5   3 -13    0.69    0.50
  -5  -3  13    0.02    0.73
   5   3 -12    1.12    0.72
   5   3 -11   -0.21    0.89
  -5  -3  11    0.46    0.81
   5   3 -11    1.11    0.92
  -5  -3  10    1.11    0.65
   5   3 -10    2.65    0.87
   5   3  -9  179.71    6.95
  -5  -3   9  202.79    7.32
   5   3  -9  182.74    6.18
   5   3  -8   85.67    5.17
  -5  -3   8   77.06    4.22
   5   3  -7 1601.51   27.54
  -5  -3   7 1783.82   14.45
   5   3  -6   38.06    7.90
  -5  -3   6   34.56    3.18
   5   3  -5  964.18   20.24
  -5  -3   5 1054.89   21.69
   5   3  -4   14.31    1.51
  -5  -3   4   12.90    1.97
   5   3  -3   40.06    7.59
  -5  -3   3   45.79    3.34
   5   3  -2   11.24    2.31
  -5  -3   2    9.19    1.38
   5   3  -1   15.98    2.44
  -5  -3   1   14.27    1.59
   5   3   0   24.75    5.41
  -5  -3   0   30.55    2.30
   5   3   1  214.75    6.66
  -5  -3  -1  220.82    6.72
   5   3   2    8.57    1.34
  -5  -3  -2    9.72    1.56
   5   3   3   22.29    3.58
  -5  -3  -3   24.57    3.40
   5   3   4    0.97    0.87
  -5  -3  -4    1.04    0.73
   5   3   5   94.38    4.95
  -5  -3  -5   94.22    4.92
   5   3   6  247.24    5.78
  -5  -3  -6  238.02    5.69
   5   3   7    3.89    1.20
  -5  -3  -7    3.09    0.98
   5   3   8   69.09    3.24
  -5  -3  -8   77.60    3.30
   5   3   9   65.44    3.35
  -5  -3  -9   62.48    3.13
   5   3  10   57.91   11.67
  -5  -3 -10   56.18    3.54
   5   3  11   16.79    3.30
  -5  -3 -11   18.07    2.07
   5   3  12   82.88    4.63
  -5  -3 -12   78.43    3.65
   5   3  13   21.96    3.64
  -5  -3 -13   24.60    2.34
   5   3  14   -1.41    1.24
  -5  -3 -14   -0.03    0.83
   5   3  15    1.26    1.40
  -5  -3 -15    4.13    1.38
   5   3  16   19.28    2.37
   5   3  17    3.80    1.31
   5   3  18    0.59    1.32
   5   3  19    0.32    1.35
   5   4 -12   11.28    2.02
   5   4 -11    4.09    1.22
  -5  -4  11    4.21    1.01
   5   4 -10   21.50    3.90
  -5  -4  10   27.05    2.56
   5   4  -9   28.36    6.08
  -5  -4   9   25.99    2.26
   5   4  -8   10.35    1.82
  -5  -4   8    9.61    1.52
   5   4  -7   30.75    5.77
  -5  -4   7   30.63    2.40
   5   4  -6    7.64    1.34
  -5  -4   6    8.47    1.68
   5   4  -5  404.57    9.64
  -5  -4   5  442.89    9.94
   5   4  -4    1.05    0.77
  -5  -4   4   -1.32    1.25
   5   4  -3  340.22   13.44
  -5  -4   3  372.25    9.47
   5   4  -2   42.87    7.73
  -5  -4   2   37.40    4.07
   5   4  -1  335.49    7.07
  -5  -4   1  349.37    7.03
   5   4   0   48.38    9.40
  -5  -4   0   44.62    6.02
   5   4   1    4.67    0.95
  -5  -4  -1    5.09    1.02
   5   4   2    5.68    1.07
  -5  -4  -2    4.60    1.18
   5   4   3    0.87    1.20
  -5  -4  -3   -0.42    0.86
   5   4   4   14.25    1.72
  -5  -4  -4   16.37    2.03
   5   4   5  244.18    7.22
  -5  -4  -5  234.89    7.77
   5   4   6   67.20    3.12
  -5  -4  -6   58.48    3.18
   5   4   7  404.24    9.59
  -5  -4  -7  429.80    9.91
   5   4   8   31.91    4.99
  -5  -4  -8   27.52    2.56
   5   4   9  148.76    8.22
  -5  -4  -9  146.58    7.28
   5   4  10  186.02    7.19
  -5  -4 -10  192.62    8.37
   5   4  11   -0.72    1.12
  -5  -4 -11    1.47    1.13
   5   4  12   27.81    3.75
  -5  -4 -12   27.90    2.68
   5   4  13    5.64    1.56
  -5  -4 -13    6.61    2.11
   5   4  14    1.74    1.49
  -5  -4 -14    3.25    1.41
   5   4  15    6.22    2.08
  -5  -4 -15    2.20    1.28
   5   4  16   28.66    5.94
  -5  -4 -16   38.69    3.54
   5   4  17    3.68    1.86
   5   5 -13    3.11    1.33
   5   5 -12    2.07    1.19
   5   5 -11   23.34    5.37
   5   5 -10   44.83    7.99
  -5  -5  10   27.04    6.52
   5   5  -9   24.16    5.47
  -5  -5   9   18.11    4.12
   5   5  -8   55.06    8.87
  -5  -5   8   53.75    9.58
   5   5  -7   78.76   11.72
  -5  -5   7   89.84    5.22
   5   5  -6  211.18    7.01
  -5  -5   6  207.88    7.74
   5   5  -5  390.83   13.06
  -5  -5   5  418.23   15.78
   5   5  -4    5.26    1.40
  -5  -5   4    2.35    0.80
   5   5  -3   76.17   10.44
  -5  -5   3   80.54    4.38
   5   5  -2   10.64    1.77
  -5  -5   2   10.78    1.69
   5   5  -1   43.09    6.45
  -5  -5   1   44.07    3.28
   5   5   0    7.52    1.39
  -5  -5   0    7.10    1.75
   5   5   1    1.32    0.67
  -5  -5  -1    1.02    0.99
   5   5   2    0.77    0.66
  -5  -5  -2    2.40    1.06
   5   5   3   42.27    2.79
  -5  -5  -3   48.46    3.00
   5   5   4    5.92    1.39
  -5  -5  -4    4.97    1.41
   5   5   5  159.22    7.72
  -5  -5  -5  172.08    7.59
   5   5   6   18.29    2.16
  -5  -5  -6   18.90    2.35
   5   5   7   46.46    9.29
  -5  -5  -7   57.58    8.58
   5   5   8   30.46    3.05
  -5  -5  -8   34.84    2.79
   5   5   9  104.74    4.94
  -5  -5  -9  106.04    9.94
   5   5  10   27.99    4.76
  -5  -5 -10   31.61    2.94
   5   5  11   60.72   11.88
  -5  -5 -11   70.32    4.53
   5   5  12   -1.08    1.18
  -5  -5 -12    1.02    0.72
   5   5  13  180.46    6.66
  -5  -5 -13  179.65    6.61
   5   5  14    0.53    1.17
  -5  -5 -14    1.35    1.32
   5   5  15    5.91    1.53
  -5  -5 -15   10.17    1.84
  -5  -5 -16    6.21    1.58
   5   6 -14   11.64    3.76
   5   6 -13    3.81    2.00
   5   6 -12    8.59    2.26
   5   6 -11   20.95    3.55
   5   6 -10   26.27    5.27
   5   6  -9   -0.61    1.36
   5   6  -8  102.34   17.77
  -5  -6   8  105.74    3.86
   5   6  -7   28.52    4.31
  -5  -6   7   33.07    2.76
   5   6  -6   21.30    3.18
  -5  -6   6   28.15    2.66
   5   6  -5    7.51    1.86
  -5  -6   5    6.51    1.42
   5   6  -4  139.93   18.57
  -5  -6   4  152.48    7.50
   5   6  -3   13.76    2.49
  -5  -6   3   14.03    1.92
   5   6  -2  122.95    9.39
  -5  -6   2  132.47    4.71
   5   6  -1  192.57    6.45
  -5  -6   1  199.17    5.51
   5   6   0    5.48    1.08
  -5  -6   0    5.79    1.49
   5   6   1   38.57    4.29
  -5  -6  -1   40.25    3.10
   5   6   2   21.76    3.88
  -5  -6  -2   24.59    2.61
   5   6   3   42.69    3.47
  -5  -6  -3   39.71    2.82
   5   6   4    3.95    1.36
  -5  -6  -4    4.19    1.62
   5   6   5    2.24    0.94
  -5  -6  -5    4.10    1.54
   5   6   6   98.36   13.89
  -5  -6  -6  103.25    6.96
   5   6   7    3.72    1.14
  -5  -6  -7    1.85    0.59
   5   6   8    1.23    0.99
  -5  -6  -8    1.51    1.20
   5   6   9   45.44    6.45
  -5  -6  -9   53.95    3.90
   5   6  10   23.36    3.65
  -5  -6 -10   26.31    3.52
   5   6  11   33.34    3.01
  -5  -6 -11   34.00    5.81
   5   6  12    2.68    0.93
  -5  -6 -12    4.09    1.43
   5   6  13    3.18    1.31
  -5  -6 -13    6.58    1.89
  -5  -6 -14    1.39    1.67
  -5  -6 -15    2.05    1.30
   5   7 -13   -0.20    1.41
   5   7 -12    4.17    1.39
   5   7 -11   18.77    4.69
   5   7 -10   -0.26    1.29
   5   7  -9    5.18    1.02
   5   7  -8   16.05    2.90
   5   7  -7    7.81    1.60
   5   7  -6   23.72    4.63
  -5  -7   6   31.25    2.94
   5   7  -5   34.95    3.47
  -5  -7   5   39.78    2.97
   5   7  -4  180.45   18.79
  -5  -7   4  184.57    5.57
   5   7  -3  106.87   10.16
  -5  -7   3  105.90    4.27
   5   7  -2    0.18    0.84
  -5  -7   2    0.26    1.00
   5   7  -1    0.49    0.84
   5   7   0   64.96    8.07
  -5  -7   0   65.60    4.62
   5   7   1   12.79    1.46
  -5  -7  -1   16.52    2.38
   5   7   2    1.32    1.23
  -5  -7  -2    4.08    1.15
   5   7   3    8.58    1.66
  -5  -7  -3    8.10    1.74
   5   7   4   28.90    2.84
  -5  -7  -4   36.45    5.99
   5   7   5    0.67    1.10
  -5  -7  -5    0.31    1.09
   5   7   6   48.32    3.04
  -5  -7  -6   46.58    3.29
   5   7   7   58.02    3.17
  -5  -7  -7   79.46    4.46
   5   7   8   30.03    2.71
  -5  -7  -8   38.64    3.38
   5   7   9   21.14    2.53
  -5  -7  -9   19.46    4.64
   5   7  10   27.24    5.35
  -5  -7 -10   48.00    4.30
  -5  -7 -11   21.23    2.65
  -5  -7 -12    8.87    2.01
  -5  -7 -13   29.41    3.55
  -5  -7 -14    2.11    1.31
   5   8 -10    1.91    0.81
   5   8  -9    3.32    0.86
   5   8  -8   34.84    9.63
   5   8  -7    2.02    1.07
   5   8  -6   -0.41    0.92
   5   8  -5    0.29    0.59
   5   8  -4    0.50    0.69
   5   8  -3    6.51    1.60
  -5  -8   3    2.51    1.20
   5   8  -2    0.42    1.23
  -5  -8   2    0.69    0.67
   5   8  -1   61.73    7.78
  -5  -8   1   74.16    5.11
   5   8   0  111.26   12.95
  -5  -8   0  124.38    7.84
   5   8   1    1.46    0.72
  -5  -8  -1    1.10    1.63
   5   8   2    7.79    2.07
  -5  -8  -2    8.24    1.83
   5   8   3    2.01    1.20
  -5  -8  -3    1.26    1.07
   5   8   4    2.56    1.62
  -5  -8  -4    1.95    1.52
   5   8   5    0.79    1.11
  -5  -8  -5    1.16    1.18
   5   8   6   18.79    4.94
  -5  -8  -6   26.13    5.93
  -5  -8  -7   56.74    4.12
  -5  -8  -8    4.27    2.06
  -5  -8  -9   10.04    2.52
  -5  -8 -10    1.50    1.42
  -5  -8 -11   -0.86    1.32
  -5  -8 -12   13.70    2.33
  -5  -8 -13    5.34    1.90
   5   9  -4   26.60    6.45
   5   9  -3    3.11    1.22
   5   9  -2    1.22    0.89
   5   9  -1    1.69    0.87
  -5  -9  -1    6.60    2.18
  -5  -9  -2   10.27    2.11
  -5  -9  -3    1.30    1.09
  -5  -9  -4    0.27    0.99
  -5  -9  -5   11.72    2.17
  -5  -9  -6   45.36    4.05
  -5  -9  -7   12.71    2.14
  -5  -9  -8    0.85    1.37
  -5  -9  -9   14.52    2.92
   6  -7  -3   14.27    2.37
   6  -7   2    0.71    1.28
   6  -7   3    0.21    1.22
  -6   7  -5    1.98    1.20
  -6   7  -6    0.88    0.82
  -6   6   9    7.59    2.73
   6  -6  -9    0.52    0.78
  -6   6   8   14.28    2.85
   6  -6  -8   13.00    2.58
  -6   6   7    2.99    2.03
   6  -6  -7    3.79    1.98
  -6   6   6    0.57    1.44
  -6   6   5   10.32    1.85
   6  -6  -5   11.27    2.06
  -6   6   4    3.93    2.24
   6  -6  -4    5.73    1.75
  -6   6   3   45.57    3.67
  -6   6   2    4.32    1.88
   6  -6  -2    2.81    1.45
  -6   6   1   23.61    2.92
   6  -6  -1   23.79    2.90
   6  -6   0    8.37    1.87
   6  -6   1    3.10    1.26
   6  -6   2    2.20    1.66
   6  -6   3    1.89    1.10
   6  -6   4    6.77    1.67
  -6   6  -5    9.29    3.77
  -6   6  -6   54.42   14.36
  -6   6  -7    2.39    0.97
  -6   6  -8    2.03    0.74
  -6   6  -9   12.77    3.31
  -6   6 -10    0.99    0.71
  -6   6 -11    3.84    1.50
  -6   5  12   -0.01    1.71
  -6   5  11   11.43    2.60
   6  -5 -11   11.33    2.25
  -6   5  10    2.70    1.78
   6  -5 -10    0.37    1.25
  -6   5   9    2.78    2.51
   6  -5  -9    6.37    2.04
  -6   5   8   22.31    3.23
   6  -5  -8   19.04    4.24
  -6   5   7   23.17    2.90
   6  -5  -7   27.11    2.70
  -6   5   6    7.34    2.39
   6  -5  -6    4.61    1.55
  -6   5   5    2.66    1.48
   6  -5  -5    1.61    1.06
  -6   5   4    9.16    2.18
   6  -5  -4    8.66    1.77
  -6   5   3   13.90    2.66
  -6   5   2   15.26    2.33
  -6   5   1   18.73    4.13
   6  -5  -1   21.58    4.28
  -6   5   0   22.77    2.56
   6  -5   0   21.83    2.59
  -6   5  -1   82.73    3.93
   6  -5   1   83.41    4.28
  -6   5  -2    1.77    1.31
   6  -5   2    1.72    0.78
   6  -5   3   26.06    2.52
   6  -5   4   50.93    3.63
  -6   5  -6    6.56    2.08
  -6   5  -7   30.98    3.44
  -6   5  -8    2.36    1.26
  -6   5  -9    8.31    1.66
  -6   5 -10   16.87    3.45
  -6   5 -11  216.98   12.65
  -6   5 -12   40.52    6.75
  -6   5 -13    1.74    0.94
  -6   4  13    6.11    2.19
   6  -4 -13    3.60    1.72
  -6   4  12    0.59    1.77
   6  -4 -12    2.36    1.34
  -6   4  11    2.60    1.56
   6  -4 -11    3.84    1.59
  -6   4  10    8.50    2.65
   6  -4 -10    4.77    1.60
  -6   4   9    0.38    1.51
   6  -4  -9    1.71    1.08
  -6   4   8    0.78    1.64
   6  -4  -8    1.03    1.05
  -6   4   7   47.78    4.15
   6  -4  -7   45.54    3.56
  -6   4   6    0.55    1.60
   6  -4  -6    0.29    1.03
  -6   4   5    2.72    1.61
   6  -4  -5    1.17    0.79
  -6   4   4    0.26    1.39
  -6   4   3   71.71   12.33
   6  -4  -3   88.69    4.73
  -6   4   2   36.35    3.23
   6  -4  -2   35.75    3.09
  -6   4   1   29.12    3.01
   6  -4  -1   21.42    4.26
  -6   4   0    1.30    1.58
   6  -4   0    1.83    0.67
  -6   4  -1    2.78    1.41
   6  -4   1   -0.26    0.87
  -6   4  -2    1.46    1.21
   6  -4   2    0.83    1.19
  -6   4  -3    4.54    1.22
   6  -4   3    4.43    1.30
   6  -4   4   28.13    6.01
  -6   4  -4   35.49    2.98
   6  -4   4   42.33    3.52
   6  -4   5  196.36    7.90
   6  -4   6   96.47    8.41
  -6   4  -6  108.12    8.80
   6  -4   7    6.15    1.45
  -6   4  -7    8.97    1.15
   6  -4   8   13.49    2.27
  -6   4  -8   14.63    2.19
   6  -4   9    0.24    0.39
  -6   4  -9   -0.13    0.69
   6  -4  10   45.96    8.05
  -6   4 -10   38.69    5.50
   6  -4  11   84.22    5.74
  -6   4 -11   68.59   10.74
   6  -4  12   14.31    2.05
  -6   4 -12   11.07    2.40
   6  -4  13   19.56    2.78
  -6   4 -13   17.76    3.91
   6  -4  14  207.88   10.48
  -6   4 -14  140.56   20.74
   6  -4  15  116.28    7.62
  -6   3  14    3.78    1.82
  -6   3  13    5.70    2.73
   6  -3 -13    2.61    1.13
  -6   3  12    3.51    2.02
   6  -3 -12   -0.32    1.05
  -6   3  11    0.70    0.95
   6  -3 -11   -0.08    1.07
  -6   3  10   14.81    3.60
   6  -3 -10   17.16    2.27
  -6   3   9    8.18    2.56
   6  -3  -9    4.56    1.18
  -6   3   8  105.83    5.89
   6  -3  -8  114.27    4.80
  -6   3   7  183.14    9.31
   6  -3  -7  182.17    7.14
  -6   3   6   18.01    2.81
   6  -3  -6   21.77    2.34
  -6   3   5   50.76    4.17
   6  -3  -5   53.73    3.88
  -6   3   4    1.75    1.46
   6  -3  -4    2.33    1.33
  -6   3   3    0.69    1.34
   6  -3  -3   -0.17    0.78
  -6   3   2   63.91    3.74
   6  -3  -2   64.21    3.25
  -6   3   1   18.67    2.37
   6  -3  -1   25.82    2.27
  -6   3   0   29.39    3.21
   6  -3   0   29.31    2.57
   6  -3   1    3.64    0.89
  -6   3  -1    3.11    1.35
   6  -3   1    2.77    1.30
   6  -3   2    4.10    0.86
  -6   3  -2    5.56    1.50
   6  -3   2    6.58    1.36
   6  -3   3    2.53    1.19
  -6   3  -3    2.70    1.10
   6  -3   3    1.52    0.99
   6  -3   4   14.33    1.68
  -6   3  -4   10.16    2.13
   6  -3   4   13.69    1.82
   6  -3   5   51.15    8.18
  -6   3  -5   57.14    2.99
   6  -3   6    0.71    0.92
  -6   3  -6    0.54    0.52
  -6   3  -6    1.52    0.61
   6  -3   7    3.37    0.71
  -6   3  -7    3.52    0.76
   6  -3   8   -0.11    1.07
  -6   3  -8    1.21    0.48
   6  -3   9  111.75    5.45
  -6   3  -9   91.99    9.43
   6  -3  10    1.14    1.32
  -6   3 -10    2.19    0.68
   6  -3  11  109.98    4.68
  -6   3 -11   94.16    6.74
   6  -3  12  201.22    7.04
  -6   3 -12  152.38   18.85
   6  -3  13  110.88    9.46
  -6   3 -13   75.26   14.72
   6  -3  14    2.28    1.95
  -6   3 -14    1.66    1.10
   6  -3  15   61.23   11.84
  -6   3 -15   66.95    3.76
   6  -3  16   41.17    3.92
   6  -3  17    0.92    1.57
   6  -3  18  136.15    8.22
  -6   2  15   10.46    2.49
  -6   2  14   28.35    3.44
   6  -2 -14   24.94    2.78
  -6   2  13    7.01    2.09
   6  -2 -13    7.63    1.52
  -6   2  12   34.31    3.98
   6  -2 -12   25.21    2.44
  -6   2  11   38.16    3.59
   6  -2 -11   36.26    2.76
  -6   2  10   13.47    2.66
   6  -2 -10   11.92    1.74
   6  -2  -9    1.39    1.01
  -6   2   8    1.87    1.44
   6  -2  -8    0.44    0.85
  -6   2   7   11.06    2.31
   6  -2  -7   10.39    1.54
  -6   2   6    3.72    1.57
   6  -2  -6    3.29    1.09
  -6   2   5  109.10    4.75
   6  -2  -5  111.19    3.88
  -6   2   4  305.35   10.61
   6  -2  -4  296.55    9.77
  -6   2   3   15.93    2.79
   6  -2  -3   21.85    1.80
   6  -2  -2  882.99   29.19
  -6   2   2 1008.32   12.29
   6  -2  -2  976.34   11.10
   6  -2  -1   13.31    3.54
  -6   2   1   15.18    2.16
   6  -2  -1   19.24    1.74
   6  -2   0  132.15    6.41
  -6   2   0  151.11    6.90
   6  -2   0  137.00   12.80
   6  -2   1    7.77    1.28
  -6   2  -1    8.44    1.84
   6  -2   1    6.05    1.03
   6  -2   2    3.93    1.08
  -6   2  -2    3.72    1.28
   6  -2   2    3.48    0.82
   6  -2   3   14.21    1.54
  -6   2  -3   14.06    2.89
   6  -2   3   15.56    1.67
   6  -2   4   43.86    7.36
  -6   2  -4   40.40    6.76
   6  -2   4   40.89    2.44
   6  -2   5    2.01    0.82
  -6   2  -5    1.21    0.59
  -6   2  -5    0.67    0.51
   6  -2   6  147.91    6.30
  -6   2  -6  150.14    5.80
  -6   2  -6  118.01    6.51
   6  -2   7  151.82    6.28
  -6   2  -7  148.32    5.61
  -6   2  -7  138.95    5.56
   6  -2   8   10.70    2.01
  -6   2  -8   13.11    1.31
  -6   2  -8   10.11    1.91
   6  -2   9   49.45    7.33
  -6   2  -9   43.44    5.78
   6  -2  10    2.69    1.16
  -6   2 -10    0.89    0.70
   6  -2  11    4.46    1.63
  -6   2 -11    2.37    0.62
   6  -2  12   15.75    3.31
  -6   2 -12   14.20    2.70
   6  -2  13    8.15    1.92
  -6   2 -13    6.72    1.77
   6  -2  14   20.87    2.77
  -6   2 -14   19.16    2.03
   6  -2  15    0.75    1.33
  -6   2 -15   -0.28    0.83
   6  -2  16    4.00    1.20
   6  -2  17   99.47    7.46
   6  -2  18    3.41    1.11
   6  -2  19   16.79    2.74
  -6   1  15   17.41    2.52
  -6   1  14    6.37    2.47
   6  -1 -14    8.59    1.61
  -6   1  13    0.43    1.57
   6  -1 -13   -0.68    1.04
  -6   1  12    3.88    1.12
   6  -1 -12    2.00    1.43
  -6   1  11    3.28    1.96
   6  -1 -11    3.28    1.78
  -6   1  10    2.31    1.47
   6  -1 -10    2.19    0.87
   6  -1  -9    0.71    0.95
  -6   1   8   32.66    4.67
   6  -1  -8   29.30    2.28
  -6   1   7   33.72    5.71
   6  -1  -7   30.82    2.14
  -6   1   6   30.56    3.14
   6  -1  -6   31.61    2.06
   6  -1  -5   21.03    1.40
  -6   1   5   31.28    3.04
   6  -1  -5   25.45    1.76
   6  -1  -4    4.29    1.25
  -6   1   4    3.73    1.20
   6  -1  -4    3.85    0.87
   6  -1  -3    1.02    0.69
  -6   1   3    0.07    1.18
   6  -1  -3    0.34    0.67
   6  -1  -2   55.28    4.32
  -6   1   2   52.86    3.28
   6  -1  -2   45.22    2.25
   6  -1  -1    7.02    1.21
  -6   1   1    6.91    1.67
   6  -1  -1    7.34    1.24
   6  -1   0  701.89   14.19
  -6   1   0  731.28   14.51
   6  -1   0  674.58   12.48
   6  -1   1   76.04    3.27
  -6   1  -1   90.99    4.56
   6  -1   1   80.25    7.39
   6  -1   2  400.51    9.62
  -6   1  -2  415.07   10.30
   6  -1   2  384.26    8.84
   6  -1   3  433.23    9.48
  -6   1  -3  427.88    9.60
   6  -1   3  418.04    8.72
   6  -1   4  231.25    6.39
  -6   1  -4  232.51    6.61
   6  -1   5   11.40    2.31
  -6   1  -5   11.91    1.57
  -6   1  -5    9.35    1.98
   6  -1   6    3.03    1.33
  -6   1  -6    1.78    0.78
  -6   1  -6    1.21    0.39
   6  -1   7    6.38    1.76
  -6   1  -7    7.95    1.39
  -6   1  -7    7.79    1.50
   6  -1   8   29.59    3.37
  -6   1  -8   26.08    2.02
  -6   1  -8   18.88    2.74
   6  -1   9   -0.04    0.92
  -6   1  -9    0.64    0.33
  -6   1  -9    1.73    0.74
   6  -1  10  375.85    8.59
  -6   1 -10  308.55    7.54
   6  -1  11    3.43    1.65
  -6   1 -11    0.57    0.32
   6  -1  12  277.43   11.03
  -6   1 -12  244.39    9.35
   6  -1  13   82.74   12.11
  -6   1 -13   68.89    4.69
   6  -1  14   79.79    4.33
  -6   1 -14   64.37    3.64
   6  -1  15    2.62    1.62
  -6   1 -15    0.08    0.87
   6  -1  16    0.41    1.41
   6  -1  17   14.22    2.43
   6  -1  18   45.47    4.02
   6  -1  19    0.82    0.85
  -6   0  15   21.17    3.00
  -6   0  14   55.63    3.70
  -6   0  13   67.17    4.75
   6   0 -13   45.87   11.01
  -6   0  12    7.05    1.76
   6   0 -12    6.39    1.20
  -6   0  11    0.92    1.27
   6   0 -11    0.66    0.94
  -6   0  10   21.51    2.85
   6   0 -10   14.33    1.72
  -6   0   9    1.70    1.70
   6   0  -9    1.18    0.84
   6   0  -8   -0.18    0.48
  -6   0   8    1.39    1.18
   6   0  -8    2.48    1.28
   6   0  -7    3.83    0.83
  -6   0   7    6.83    1.62
   6   0  -7    3.64    0.92
   6   0  -6   40.80    2.07
  -6   0   6   48.89    3.22
   6   0  -6   43.23    2.17
   6   0  -5    0.59    0.68
  -6   0   5    0.48    1.02
   6   0  -5   -0.05    0.56
   6   0  -4   38.44    2.23
  -6   0   4   39.35    2.85
   6   0  -4   37.99    2.00
   6   0  -3  257.90    6.25
  -6   0   3  270.96    7.42
   6   0  -3  238.64    5.49
   6   0  -2   39.69    2.19
  -6   0   2   43.26    2.93
   6   0  -2   39.63    2.34
   6   0  -1   66.56    2.74
  -6   0   1   64.14    3.42
   6   0  -1   60.13    2.22
   6   0   0  162.73    5.37
  -6   0   0  170.14    5.77
   6   0   0  153.64    4.68
   6   0   1   15.90    3.53
  -6   0  -1   12.65    2.67
   6   0   1   10.68    1.81
   6   0   2    9.73    2.04
  -6   0  -2    8.22    1.54
   6   0   2    4.92    0.86
   6   0   3   67.78    2.93
  -6   0  -3   74.26    3.32
   6   0   4  389.89    9.72
  -6   0  -4  391.28    9.72
  -6   0  -4  299.28    7.13
   6   0   5  176.85    9.48
  -6   0  -5  174.95    5.88
  -6   0  -5  133.78    4.95
   6   0   6   77.94    3.80
  -6   0  -6   80.47    3.57
  -6   0  -6   50.24    6.85
   6   0   7  111.19    4.33
  -6   0  -7  108.19    4.00
  -6   0  -7   88.08    3.44
   6   0   8  213.62   11.72
  -6   0  -8  179.59    7.19
  -6   0  -8  152.02    6.48
   6   0   9   27.45    2.55
  -6   0  -9   27.79    4.42
  -6   0  -9   20.90    2.71
   6   0  10   23.87    2.35
  -6   0 -10   21.79    1.84
  -6   0 -10   19.58    1.63
   6   0  11   33.76    4.39
  -6   0 -11   21.62    3.94
  -6   0 -11   25.12    1.77
   6   0  12   -0.16    1.39
  -6   0 -12    0.57    0.40
   6   0  13   11.94    2.16
  -6   0 -13    8.68    2.14
   6   0  14  243.72    7.33
   6   0  15    2.57    2.22
   6   0  16   26.13    2.64
   6   0  17   10.52    3.21
   6   0  18  307.64   14.72
   6   0  19   48.11    4.56
  -6  -1  14   15.26    3.84
  -6  -1  13  147.61    8.13
  -6  -1  12   90.52    4.27
  -6  -1  11    5.09    1.75
   6   1 -11    0.68    0.82
   6   1 -10    0.72    0.43
  -6  -1  10    2.08    1.75
   6   1 -10    0.71    0.37
   6   1  -9   13.68    2.69
  -6  -1   9   17.94    2.17
   6   1  -9   11.15    1.39
   6   1  -8   62.86    4.38
  -6  -1   8   67.21    3.93
   6   1  -8   61.35    7.00
   6   1  -7    1.11    0.39
  -6  -1   7    1.00    1.06
   6   1  -7    0.78    0.57
   6   1  -6    1.71    0.63
  -6  -1   6    5.15    1.62
   6   1  -6    2.50    0.66
   6   1  -5   30.60    2.23
  -6  -1   5   34.10    2.66
   6   1  -5   31.65    1.62
   6   1  -4    1.32    0.94
  -6  -1   4    1.35    1.00
   6   1  -4    0.26    0.43
   6   1  -3    2.34    0.75
  -6  -1   3    5.55    1.31
   6   1  -2   28.80    1.96
  -6  -1   2   24.78    2.34
   6   1  -1  114.19    4.17
  -6  -1   1  110.05    5.82
   6   1   0   24.53    1.85
  -6  -1   0   27.63    2.45
   6   1   1  438.16    7.58
  -6  -1  -1  453.34    8.17
   6   1   2    1.27    0.97
  -6  -1  -2    1.11    0.91
   6   1   3   14.70    1.75
  -6  -1  -3   11.89    1.83
   6   1   4  256.42    8.04
  -6  -1  -4  259.99    7.31
   6   1   5  154.47    5.62
  -6  -1  -5  142.56    4.94
   6   1   6   76.20    3.86
  -6  -1  -6   74.26    3.23
   6   1   7    2.69    1.07
  -6  -1  -7    2.66    0.53
   6   1   8   53.37    3.68
  -6  -1  -8   51.04    3.15
   6   1   9   -0.03    1.38
  -6  -1  -9    1.24    0.90
   6   1  10  180.34    8.47
  -6  -1 -10  190.00    6.87
   6   1  11   21.21    2.12
  -6  -1 -11   17.56    1.65
   6   1  12    2.30    1.55
  -6  -1 -12    0.42    0.70
   6   1  13   69.16    9.43
   6   1  14   22.41    6.59
   6   1  15   24.67    2.75
   6   1  16    1.66    1.84
   6   1  17   37.23    7.06
   6   1  18  109.11    6.84
   6   1  19   18.57    2.97
  -6  -2  13  256.57    7.12
   6   2 -12    2.68    0.62
  -6  -2  12    3.07    1.66
   6   2 -11    8.54    1.60
  -6  -2  11   15.01    2.00
   6   2 -10   95.29    4.83
  -6  -2  10   92.91    5.05
   6   2  -9  158.71    8.29
  -6  -2   9  167.13    9.24
   6   2  -8   16.23    2.70
  -6  -2   8   14.40    2.37
   6   2  -7    1.27    0.64
  -6  -2   7    3.13    1.30
   6   2  -6    2.32    0.84
  -6  -2   6    1.46    1.06
   6   2  -5   33.49    4.68
  -6  -2   5   34.53    2.95
   6   2  -4    0.69    0.64
  -6  -2   4   -0.58    1.06
   6   2  -2    3.23    1.14
  -6  -2   2    1.06    1.02
   6   2  -1    0.35    0.95
  -6  -2   1    0.53    0.92
   6   2   0   35.58    2.61
  -6  -2   0   34.12    2.69
   6   2   1   91.00    3.98
  -6  -2  -1   91.67    3.92
   6   2   2   49.74    2.90
  -6  -2  -2   51.54    3.02
   6   2   3   38.62    8.67
  -6  -2  -3   44.19    2.81
   6   2   4    3.98    1.23
  -6  -2  -4    1.40    0.50
   6   2   5  730.56   14.60
  -6  -2  -5  714.72   14.10
   6   2   6  368.26   10.29
  -6  -2  -6  348.03    8.41
   6   2   7  231.43    7.05
  -6  -2  -7  209.87    6.25
   6   2   8  121.41    5.92
  -6  -2  -8  114.16    5.68
   6   2   9    3.50    1.51
  -6  -2  -9    5.71    1.20
   6   2  10   12.83    1.96
  -6  -2 -10   16.86    1.94
  -6  -2 -11    0.57    0.85
   6   2  12   10.09    1.94
  -6  -2 -12   10.43    1.93
   6   2  13    0.66    1.41
  -6  -2 -13    0.19    0.46
   6   2  14    5.79    1.99
   6   2  15   35.21    3.07
   6   2  16    2.79    1.98
   6   2  17    8.91    2.30
   6   2  18  174.67   10.02
   6   2  19  166.24    9.63
   6   3 -13   31.99    6.43
   6   3 -12   13.42    2.31
  -6  -3  12   18.53    2.23
   6   3 -11   33.96    7.67
  -6  -3  11   48.22    3.26
   6   3 -10    8.00    1.95
  -6  -3  10    7.22    1.38
   6   3  -9   78.42   10.39
  -6  -3   9   81.10    4.45
   6   3  -8   45.78    5.69
  -6  -3   8   43.94    3.54
   6   3  -7  356.18    8.78
  -6  -3   7  417.03    7.91
   6   3  -6  191.09   20.16
  -6  -3   6  210.35    5.79
   6   3  -5   89.40   11.06
  -6  -3   5   90.75    5.80
   6   3  -4    0.82    0.60
  -6  -3   4    1.67    1.39
   6   3  -3   61.35   10.22
  -6  -3   3   60.58    3.97
   6   3  -2   16.60    2.78
  -6  -3   2   16.56    2.10
   6   3  -1   47.36    2.80
  -6  -3   1   55.58    3.20
   6   3   0   26.47    2.26
  -6  -3   0   24.02    2.29
   6   3   1  430.13    9.83
  -6  -3  -1  448.86   10.20
   6   3   2   23.53    2.14
  -6  -3  -2   26.23    2.62
   6   3   3   40.67    2.67
  -6  -3  -3   39.50    2.83
   6   3   4    7.27    1.54
  -6  -3  -4    7.06    1.27
  -6  -3  -5  611.45   13.24
   6   3   6   62.68    4.07
  -6  -3  -6   56.77    3.78
   6   3   7   93.79    4.98
  -6  -3  -7   97.13    4.96
   6   3   8   16.36    2.65
  -6  -3  -8   14.85    2.28
   6   3   9   57.14    3.62
  -6  -3  -9   55.73    3.24
   6   3  10    0.80    0.93
  -6  -3 -10    0.37    0.95
   6   3  11   26.44    4.66
  -6  -3 -11   27.67    2.49
   6   3  12  110.03    5.74
  -6  -3 -12  114.06    5.51
   6   3  13   83.27    5.53
  -6  -3 -13   88.87    4.54
   6   3  14    3.63    1.27
  -6  -3 -14    5.53    1.46
   6   3  15   10.27    1.94
   6   3  16   23.68    2.96
   6   3  17    2.87    1.32
   6   3  18    6.50    1.99
   6   4 -13   -0.03    0.88
   6   4 -12  138.70    7.70
   6   4 -11    0.64    0.52
  -6  -4  11    1.49    1.32
   6   4 -10    0.79    0.71
   6   4  -9   15.27    3.19
  -6  -4   9   20.55    2.42
   6   4  -8    5.51    1.28
  -6  -4   8    3.92    1.07
   6   4  -7    1.08    0.52
  -6  -4   7    1.85    1.28
   6   4  -6    1.15    0.69
  -6  -4   6    1.06    1.05
   6   4  -5   23.78    2.85
  -6  -4   5   23.15    2.32
   6   4  -4    8.33    1.48
  -6  -4   4    7.23    1.47
   6   4  -3   -0.58    1.06
  -6  -4   3    1.33    0.95
   6   4  -2  110.53    5.47
  -6  -4   2  112.24    5.17
   6   4  -1   24.33    3.75
  -6  -4   1   20.58    2.06
   6   4   0    1.91    0.76
  -6  -4   0    0.09    0.98
   6   4   1  147.28    6.72
  -6  -4  -1  144.78    7.51
   6   4   2   39.50    2.73
  -6  -4  -2   39.04    6.34
   6   4   3   20.33    2.35
  -6  -4  -3   16.44    1.88
   6   4   4   23.52    2.53
  -6  -4  -4   14.94    1.79
   6   4   5  278.56   10.39
  -6  -4  -5  286.85   11.93
   6   4   6  174.22    7.12
  -6  -4  -6  168.94    7.15
   6   4   7  763.48   10.85
  -6  -4  -7  757.13   23.82
   6   4   8   73.27    4.09
  -6  -4  -8   69.45    3.81
   6   4   9  145.08   12.25
  -6  -4  -9  166.12    8.21
   6   4  10    3.45    1.85
  -6  -4 -10    2.80    1.23
   6   4  11    1.36    0.72
  -6  -4 -11    0.30    0.85
   6   4  12    1.80    1.13
  -6  -4 -12    3.06    1.08
   6   4  13    8.34    2.28
  -6  -4 -13    3.71    1.24
  -6  -4 -14    1.08    0.88
   6   4  15    8.53    1.99
  -6  -4 -15    4.93    1.81
   6   4  16   15.21    2.28
   6   5 -13   24.67    6.21
   6   5 -12    0.82    0.94
   6   5 -11   46.10   11.08
   6   5 -10    2.15    1.28
   6   5  -9   -0.98    1.18
  -6  -5   9    1.26    0.94
   6   5  -8  262.78    8.42
  -6  -5   8  266.85   10.47
   6   5  -7  266.63   17.88
  -6  -5   7  275.68    6.59
   6   5  -6  224.03    8.56
  -6  -5   6  224.96   10.83
   6   5  -5   42.17    4.64
  -6  -5   5   32.60    6.65
   6   5  -4    2.20    0.64
  -6  -5   4    0.68    1.02
   6   5  -3   45.75    3.58
  -6  -5   3   48.28    3.60
   6   5  -2   19.21    2.46
  -6  -5   2   16.51    3.20
   6   5  -1    7.74    1.25
  -6  -5   1    7.84    1.62
   6   5   0   70.63    4.12
  -6  -5   0   75.67    4.67
   6   5   1   10.02    1.79
  -6  -5  -1    9.10    1.96
   6   5   2  110.38    4.39
  -6  -5  -2  108.33    4.46
   6   5   3    7.13    1.61
  -6  -5  -3    8.42    1.40
   6   5   4    6.42    1.54
  -6  -5  -4    5.52    1.62
   6   5   5  160.48    8.04
  -6  -5  -5  162.99    8.12
   6   5   6   28.17    2.52
  -6  -5  -6   32.41    3.06
   6   5   7   91.86    6.60
  -6  -5  -7  114.48    5.90
   6   5   8    2.64    1.75
  -6  -5  -8    3.23    1.76
   6   5   9    2.42    1.30
  -6  -5  -9    4.19    1.44
   6   5  10    8.71    2.25
  -6  -5 -10    8.57    1.53
   6   5  11   23.06    3.81
  -6  -5 -11   30.27    3.22
   6   5  12    3.71    1.50
  -6  -5 -12    5.18    1.63
   6   5  13    6.26    1.71
  -6  -5 -13    4.52    1.64
   6   5  14   10.02    2.01
  -6  -5 -14   12.56    2.34
   6   5  15    1.59    1.39
  -6  -5 -15    0.57    1.15
   6   6 -12    3.38    1.33
   6   6 -11    0.86    0.88
   6   6 -10   30.24    7.40
   6   6  -9   34.82    6.27
   6   6  -8    2.21    0.93
  -6  -6   8    3.78    1.58
   6   6  -7   20.48    4.74
  -6  -6   7   23.88    2.51
   6   6  -6    0.21    0.74
  -6  -6   6    0.08    1.03
   6   6  -5   48.66    8.56
  -6  -6   5   52.14    3.27
  -6  -6   4    1.18    0.95
   6   6  -3   39.47    3.34
  -6  -6   3   34.45    3.15
   6   6  -2    5.21    1.73
  -6  -6   2    8.87    1.86
   6   6  -1    1.63    1.24
  -6  -6   1    1.18    1.05
   6   6   0    3.49    0.80
  -6  -6   0    2.58    1.08
   6   6   1   19.58    3.74
  -6  -6  -1   21.87    2.48
   6   6   2   41.74    3.27
  -6  -6  -2   47.16    3.67
   6   6   3    2.94    1.38
  -6  -6  -3    1.53    1.55
   6   6   4   47.44    3.73
  -6  -6  -4   49.11    3.76
   6   6   5   24.67    3.04
  -6  -6  -5   28.80    3.19
   6   6   6  236.23    9.01
  -6  -6  -6  225.29   10.98
   6   6   7  122.06    5.07
  -6  -6  -7  139.17    5.68
   6   6   8  123.52    8.48
  -6  -6  -8  127.70    6.65
   6   6   9    1.85    1.40
  -6  -6  -9    2.16    1.32
   6   6  10    9.24    1.83
  -6  -6 -10    8.59    2.03
   6   6  11   74.33    5.41
  -6  -6 -11   84.35    5.85
   6   6  12   16.51    4.02
  -6  -6 -12   25.44    5.67
   6   6  13    1.53    1.15
  -6  -6 -13    2.62    1.84
  -6  -6 -14    8.97    1.98
   6   7 -11   12.39    6.02
   6   7 -10    0.36    0.87
   6   7  -9    0.77    0.50
   6   7  -8   15.75    3.44
   6   7  -7   83.17   14.14
   6   7  -6  305.53   15.49
   6   7  -5   24.57    4.78
  -6  -7   5   32.45    2.97
   6   7  -4    0.62    1.26
  -6  -7   4    2.42    1.59
   6   7  -3    4.23    1.51
  -6  -7   3    2.75    1.60
   6   7  -2    2.77    1.40
  -6  -7   2    0.52    0.92
   6   7  -1    2.80    0.92
  -6  -7   1    3.36    1.34
   6   7   0    1.15    0.86
  -6  -7   0    0.29    1.11
   6   7   1   14.92    3.26
  -6  -7  -1   17.36    2.30
   6   7   2   32.00    2.63
  -6  -7  -2   37.17    2.92
   6   7   3    0.49    1.11
  -6  -7  -3    1.21    1.08
   6   7   4    4.52    1.81
  -6  -7  -4    0.52    1.15
   6   7   5   28.27    2.61
  -6  -7  -5   30.02    3.25
   6   7   6   68.09    4.83
  -6  -7  -6   76.46    5.62
   6   7   7   18.34    3.36
  -6  -7  -7   26.64    3.02
   6   7   8    2.08    1.11
  -6  -7  -8    1.02    1.30
   6   7   9    0.22    0.86
  -6  -7  -9    4.30    2.44
   6   7  10   15.34    3.05
  -6  -7 -10   23.70    4.04
  -6  -7 -11   31.46    4.27
  -6  -7 -12    0.31    1.28
  -6  -7 -13   15.79    2.99
   6   8  -8    1.02    0.87
   6   8  -7    2.66    1.27
   6   8  -6    2.64    1.34
   6   8  -5   28.98    6.47
   6   8  -4    0.93    0.99
   6   8  -3    9.71    1.67
   6   8  -2   54.34   10.70
  -6  -8   2   78.48    5.36
   6   8  -1    5.13    1.54
  -6  -8   1    6.19    2.39
   6   8   0    0.38    0.75
  -6  -8   0    0.17    0.99
   6   8   1    1.76    1.29
  -6  -8  -1    0.13    0.62
   6   8   2   13.26    2.20
  -6  -8  -2   10.91    3.32
   6   8   3    6.84    1.47
  -6  -8  -3    6.04    1.80
   6   8   4    1.70    1.28
  -6  -8  -4    0.91    1.38
   6   8   5    8.75    1.84
  -6  -8  -5    9.09    1.97
   6   8   6   16.07    2.35
  -6  -8  -6   14.59    2.37
  -6  -8  -7    3.52    1.91
  -6  -8  -8   30.97    7.46
  -6  -8  -9   23.46    3.31
  -6  -8 -10   51.85    4.62
  -6  -8 -11   15.52    2.94
  -7   5   7   17.67    3.24
  -7   5   6   -0.19    1.48
  -7   5   5    9.82    2.61
   7  -5  -5    6.09    1.76
  -7   5   4    0.58    1.36
   7  -5  -4    1.86    1.41
  -7   5   3    5.15    1.54
  -7   5   2    1.52    0.66
   7  -5  -2    2.48    1.29
  -7   5   1   59.34    3.73
   7  -5  -1   43.86   10.10
   7  -5   0   59.02   14.20
   7  -5   1    2.60    1.11
   7  -5   2   23.95    2.74
   7  -5   3    5.49    1.69
   7  -5   4    0.00    1.10
  -7   5  -5    3.97    1.11
  -7   5  -6    1.40    0.55
  -7   5  -7   23.37    4.01
  -7   4  11   41.15    4.22
  -7   4  10   23.75    3.85
  -7   4   9   24.83    3.52
  -7   4   8   32.47    3.96
  -7   4   7    2.83    2.13
   7  -4  -7    1.37    1.43
  -7   4   6    8.09    2.14
   7  -4  -6    4.86    1.51
  -7   4   5    0.24    1.47
   7  -4  -5    0.21    0.99
  -7   4   4    6.80    4.32
   7  -4  -4   13.47    2.00
  -7   4   3   -0.61    1.23
   7  -4  -3    1.87    1.23
  -7   4   2   17.05    2.79
   7  -4  -2   15.17    2.55
  -7   4   1   29.33    5.09
   7  -4  -1   33.72    3.60
  -7   4   0    0.04    1.19
   7  -4   0    2.24    1.13
  -7   4  -1    4.79    1.96
   7  -4   1    1.99    1.18
  -7   4  -2    1.64    1.43
   7  -4   2    0.45    1.07
  -7   4  -3   -1.19    0.99
   7  -4   3    0.86    1.07
   7  -4   4    1.28    1.09
  -7   4  -5    9.02    2.96
  -7   4  -6    6.16    1.78
  -7   4  -7   11.53    1.56
  -7   4  -8    3.84    1.09
  -7   4  -9    4.56    1.36
  -7   3  12    5.44    2.10
  -7   3  11   10.56    3.52
  -7   3  10    6.47    2.53
  -7   3   9   12.32    3.16
  -7   3   8   37.93    9.19
   7  -3  -8   42.85    3.68
  -7   3   7  139.46    9.98
   7  -3  -7  160.06    8.76
  -7   3   6   44.67    4.03
   7  -3  -6   44.54    3.73
  -7   3   5   71.71    4.45
   7  -3  -5   71.05    3.81
  -7   3   4   86.85    4.75
   7  -3  -4   89.43    4.06
  -7   3   3   25.86    2.96
  -7   3   2    3.64    1.54
   7  -3  -2    2.14    0.93
  -7   3   1    6.10    1.92
   7  -3  -1    2.90    1.41
  -7   3   0  143.38    6.35
   7  -3   0  129.44    5.54
  -7   3  -1   10.78    1.99
   7  -3   1    6.81    2.06
  -7   3  -2   39.12    2.92
   7  -3   2   34.04    3.01
  -7   3  -3    1.63    1.10
   7  -3   3    0.81    0.93
   7  -3   4    3.76    0.74
  -7   3  -4    5.72    1.56
   7  -3   4    3.40    0.95
   7  -3   5    9.49    1.91
  -7   3  -5    8.42    2.27
  -7   3  -5    8.31    2.47
   7  -3   6    3.27    1.44
  -7   3  -6    0.59    0.51
   7  -3   7   -0.44    1.02
   7  -3   8    0.97    0.69
  -7   3  -8    0.19    0.50
   7  -3   9    1.92    1.15
  -7   3  -9    1.52    0.98
   7  -3  10  142.79    8.13
  -7   3 -10   86.51   15.52
   7  -3  11   16.10    2.69
   7  -3  12    2.32    0.53
   7  -3  13   24.76    3.09
   7  -3  14    3.52    1.28
   7  -3  15    1.98    1.53
  -7   2  13   23.06    3.22
  -7   2  12    5.78    1.83
  -7   2  11   -0.83    1.66
  -7   2  10    1.89    1.70
  -7   2   9    7.75    1.92
  -7   2   8    4.56    1.58
   7  -2  -8    3.49    1.29
  -7   2   7   25.55    2.84
   7  -2  -7   24.67    2.18
  -7   2   6    8.74    2.64
   7  -2  -6    6.53    1.59
  -7   2   5   13.03    2.36
   7  -2  -5    9.66    1.34
  -7   2   4  220.74    8.53
   7  -2  -4  206.67    7.20
  -7   2   3   10.76    2.10
   7  -2  -3   18.66    1.98
  -7   2   2    4.12    2.07
   7  -2  -2   -0.27    0.90
  -7   2   1   87.35    5.20
   7  -2  -1   85.39    4.97
  -7   2   0  151.89    6.94
   7  -2   0  132.19    5.70
   7  -2   1    9.98    2.61
  -7   2  -1   12.75    2.11
   7  -2   1    9.68    2.17
   7  -2   2    2.83    1.26
   7  -2   2    2.68    1.01
   7  -2   3   -0.45    0.89
  -7   2  -3    2.42    1.12
   7  -2   3    0.75    0.88
   7  -2   4   52.10    3.31
  -7   2  -4   47.83    4.40
   7  -2   5   32.97    5.40
  -7   2  -5   40.02    3.60
  -7   2  -5   26.91    4.98
   7  -2   6    3.32    1.05
  -7   2  -6    2.50    1.04
  -7   2  -6    3.07    0.69
   7  -2   7  107.55    4.91
  -7   2  -7   98.13    4.52
  -7   2  -7   83.17    6.82
   7  -2   8   -0.03    0.96
  -7   2  -8    1.01    0.42
   7  -2   9    2.19    1.52
  -7   2  -9    0.53    0.33
   7  -2  10   31.43    6.47
  -7   2 -10   20.71    2.76
   7  -2  11    5.37    2.22
   7  -2  12    0.01    0.57
   7  -2  13    0.02    1.25
   7  -2  14   36.75   11.28
   7  -2  15   11.44    2.36
   7  -2  16    1.46    1.54
  -7   1  13    4.89    2.14
  -7   1  12   10.26    2.34
  -7   1  11    7.73    2.37
  -7   1  10    7.14    2.32
  -7   1   9    0.90    1.37
  -7   1   8   21.71    2.80
  -7   1   7   24.14    3.15
   7  -1  -7   14.85    1.75
  -7   1   6   89.85    4.94
   7  -1  -6   79.25    3.87
  -7   1   5    7.50    1.89
   7  -1  -5    4.91    1.02
  -7   1   4   27.85    3.20
   7  -1  -4   18.93    4.01
   7  -1  -3    2.63    0.75
  -7   1   3    1.12    1.27
   7  -1  -3    1.81    0.78
   7  -1  -2   33.65    2.36
  -7   1   2   40.83    3.51
   7  -1  -2   33.91    2.58
   7  -1  -1   12.36    2.27
  -7   1   1   11.97    1.90
   7  -1  -1   13.79    1.62
   7  -1   0  165.92    7.23
  -7   1   0  199.90    6.04
   7  -1   0  171.11    4.27
   7  -1   1   18.56    1.99
  -7   1  -1   20.28    2.77
   7  -1   1   15.21    2.90
   7  -1   2   22.74    2.12
  -7   1  -2   24.56    4.87
   7  -1   2   19.94    1.98
   7  -1   3    1.56    0.73
  -7   1  -3    0.08    0.54
   7  -1   4  131.64    7.92
  -7   1  -4  143.41    7.16
  -7   1  -4  108.62    5.51
   7  -1   5   11.42    2.14
  -7   1  -5   12.19    1.81
  -7   1  -5    7.94    1.38
   7  -1   6    4.36    2.40
  -7   1  -6    1.19    0.60
  -7   1  -6    1.65    0.47
   7  -1   7   20.29    2.16
  -7   1  -7   17.76    2.47
   7  -1   8   48.60    7.09
  -7   1  -8   49.26    3.30
   7  -1   9   23.85    5.36
   7  -1  10  247.84    7.45
   7  -1  11   15.56    2.33
   7  -1  12  177.97    6.16
   7  -1  13   26.66    2.79
   7  -1  14   12.81    2.49
   7  -1  15    9.39    2.20
   7  -1  16    3.66    1.52
   7  -1  17    4.56    1.68
   7  -1  18    6.21    2.14
  -7   0  13   13.09    2.24
  -7   0  12    1.34    1.36
  -7   0  11   26.76    3.05
  -7   0  10    4.44    1.56
  -7   0   9   24.84    2.75
  -7   0   8   12.02    2.38
  -7   0   7    4.07    2.00
  -7   0   6   15.80    2.74
   7   0  -5   12.69    2.42
  -7   0   5   19.63    2.64
   7   0  -4   11.16    1.40
  -7   0   4    9.39    1.58
   7   0  -3  108.39    5.52
  -7   0   3  109.19    6.25
   7   0  -2   47.85    7.51
  -7   0   2   50.82    4.09
   7   0  -1  113.63    3.85
  -7   0   1  121.33   13.39
   7   0   0   20.24    1.84
  -7   0   0   24.11    4.44
   7   0   1   32.46    3.71
  -7   0  -1   36.18    6.66
   7   0   2    1.63    1.12
  -7   0  -2    2.07    1.34
   7   0   3   13.92    3.35
  -7   0  -3   19.78    2.40
   7   0   4   31.77    2.58
  -7   0  -4   30.13    2.59
   7   0   5    8.02    1.61
  -7   0  -5    9.61    1.92
   7   0   6   41.42    3.24
  -7   0  -6   43.37    3.26
   7   0   7   31.25    3.49
  -7   0  -7   26.92    2.32
   7   0   8    2.87    1.06
  -7   0  -8    3.31    1.23
   7   0   9   36.99    3.25
  -7   0  -9   34.86    2.96
   7   0  10   21.79    2.57
  -7   0 -10   16.40    3.06
   7   0  11    8.04    1.83
   7   0  12   27.21    6.25
   7   0  13    9.14    1.75
   7   0  14   91.87    6.35
   7   0  15   30.30    3.15
   7   0  16    6.82    1.60
   7   0  17    2.10    1.57
   7   0  18   13.12    2.40
  -7  -1  13   27.23    3.04
  -7  -1  12   23.23    3.53
  -7  -1  11    2.94    1.93
  -7  -1  10   42.06    7.83
  -7  -1   9   51.76    4.37
   7   1  -8    1.16    0.93
  -7  -1   8    0.24    1.17
   7   1  -7    1.73    0.76
  -7  -1   7    1.96    0.92
   7   1  -6  214.94    8.27
  -7  -1   6  230.31   11.22
   7   1  -5   28.68    5.70
  -7  -1   5   33.91    5.37
   7   1  -4    9.62    1.43
  -7  -1   4    9.32    1.86
   7   1  -3    0.68    0.78
  -7  -1   3    3.54    0.99
   7   1  -2   50.48    2.72
  -7  -1   2   41.61    3.59
   7   1  -1   33.83    7.16
  -7  -1   1   30.94    3.08
   7   1   0   76.34    3.88
  -7  -1   0   81.86    4.55
   7   1   1   59.52    3.50
  -7  -1  -1   58.06    3.66
   7   1   2    2.76    0.97
  -7  -1  -2    5.59    1.44
   7   1   3   37.67    3.09
  -7  -1  -3   34.06    5.89
   7   1   4   59.60    3.91
  -7  -1  -4   60.75    3.67
   7   1   5   48.65    9.85
  -7  -1  -5   50.97    3.10
   7   1   6   44.80    7.81
  -7  -1  -6   49.31    3.13
   7   1   7    2.18    1.32
  -7  -1  -7    1.66    0.90
   7   1   8   18.81    2.06
  -7  -1  -8   19.98    3.93
   7   1   9  100.34    5.42
  -7  -1  -9   92.93    5.03
   7   1  10   16.32    5.08
  -7  -1 -10   12.76    1.58
   7   1  11  164.15    5.96
  -7  -1 -11  151.60    4.85
   7   1  12  182.35    6.20
   7   1  13  149.60   21.60
   7   1  14    1.88    1.20
   7   1  15   10.07    2.50
   7   1  16    1.60    1.82
   7   1  18    2.85    2.13
  -7  -2  12   -0.52    1.10
  -7  -2  11    4.85    1.54
  -7  -2  10   27.61    2.98
   7   2  -9   12.83    4.78
  -7  -2   9   18.15    2.45
   7   2  -8    9.30    2.39
  -7  -2   8   15.27    2.43
   7   2  -7   20.62    3.35
  -7  -2   7   22.89    2.69
   7   2  -6   11.93    1.52
  -7  -2   6   18.33    2.44
   7   2  -5    1.70    0.98
  -7  -2   5    1.34    1.18
   7   2  -4    2.94    1.41
  -7  -2   4    1.27    1.13
   7   2  -3    0.92    1.00
  -7  -2   3    1.38    1.16
   7   2  -2    0.62    0.37
  -7  -2   2    0.18    1.17
   7   2  -1  594.09    9.01
  -7  -2   1  612.60    9.78
   7   2   0    3.61    1.35
  -7  -2   0    1.08    1.23
   7   2   1    5.11    1.14
  -7  -2  -1    5.27    1.28
   7   2   2   35.77    2.68
  -7  -2  -2   39.87    2.93
   7   2   3    0.37    1.16
  -7  -2  -3    0.81    1.44
   7   2   4    0.95    1.22
  -7  -2  -4    4.98    1.87
   7   2   5   13.69    1.88
  -7  -2  -5   11.79    1.63
   7   2   6    4.14    1.38
  -7  -2  -6    2.16    1.16
   7   2   7    2.64    1.58
  -7  -2  -7    0.82    0.77
   7   2   8    0.68    0.86
  -7  -2  -8    1.28    0.96
   7   2   9    2.50    1.45
  -7  -2  -9    2.12    1.06
   7   2  10  137.62    6.17
  -7  -2 -10  127.74    5.45
   7   2  11    8.29    2.03
  -7  -2 -11    4.77    1.23
   7   2  12   14.83    1.89
   7   2  13  108.44    6.87
   7   2  14   10.31    2.28
   7   2  15   38.64    3.96
   7   2  16    6.84    1.79
   7   2  17   16.98    2.68
   7   2  18    9.99    3.06
  -7  -3  11   11.33    1.95
   7   3 -10    0.30    0.34
  -7  -3  10    1.40    1.49
   7   3  -9    3.23    0.90
  -7  -3   9    3.47    1.38
   7   3  -8   13.24    2.27
  -7  -3   8   11.75    2.61
   7   3  -7    5.64    1.10
  -7  -3   7    5.46    1.92
   7   3  -6    2.30    0.85
  -7  -3   6    1.78    1.59
   7   3  -5   12.88    2.62
  -7  -3   5   12.94    2.14
   7   3  -4    2.37    1.06
  -7  -3   4    1.36    1.03
   7   3  -3   20.94    2.25
  -7  -3   3   24.42    2.76
   7   3  -2   72.40    4.87
  -7  -3   2   72.90    4.72
   7   3  -1   15.10    1.83
  -7  -3   1   15.35    2.27
   7   3   0   94.27    3.94
  -7  -3   0  104.91    4.63
   7   3   1   23.49    2.23
  -7  -3  -1   24.27    2.71
   7   3   2    3.92    1.16
  -7  -3  -2    2.56    1.04
   7   3   3  100.12    4.19
  -7  -3  -3  102.19    4.21
   7   3   4    7.55    1.61
  -7  -3  -4    6.03    1.28
   7   3   5    6.34    1.64
  -7  -3  -5    7.83    1.80
   7   3   6   55.69    4.45
  -7  -3  -6   52.59    4.13
   7   3   7    2.24    1.50
  -7  -3  -7   -0.35    1.03
   7   3   8    1.23    1.05
  -7  -3  -8    2.46    1.00
   7   3   9    6.87    1.76
  -7  -3  -9    6.47    1.35
   7   3  10  105.42    4.83
  -7  -3 -10  105.93    4.95
   7   3  11    4.65    1.79
  -7  -3 -11    7.82    1.66
   7   3  12   55.61    4.46
  -7  -3 -12   47.01    3.25
   7   3  13   67.96   15.70
  -7  -3 -13   84.92    5.52
   7   3  14  107.91    6.32
   7   3  15    5.46    1.68
   7   3  16    6.97    1.67
   7   3  17   -0.31    1.40
   7   4 -11    0.21    0.46
   7   4 -10    8.11    2.49
  -7  -4  10    8.63    1.88
   7   4  -9    4.78    1.47
  -7  -4   9    2.46    1.39
   7   4  -8    0.37    0.59
   7   4  -7    2.47    0.45
  -7  -4   7    2.00    0.94
   7   4  -6   21.17    4.35
  -7  -4   6   24.14    2.64
   7   4  -5    5.62    1.08
  -7  -4   5    2.24    1.64
   7   4  -4   53.12    7.55
  -7  -4   4   63.53    3.92
   7   4  -3   -0.89    1.17
  -7  -4   3    0.76    1.08
   7   4  -2    1.49    1.26
  -7  -4   2    3.96    2.05
   7   4  -1   32.45    2.94
  -7  -4   1   36.47    3.28
   7   4   0  135.17    6.53
  -7  -4   0  135.68    7.93
   7   4   1    3.62    2.18
  -7  -4  -1    0.60    0.95
   7   4   2    9.63    1.76
  -7  -4  -2   10.85    1.82
   7   4   3    8.77    2.15
  -7  -4  -3    6.30    2.09
   7   4   4   89.51    5.30
  -7  -4  -4   84.35    4.95
   7   4   5   17.42    2.23
  -7  -4  -5   20.64    2.49
   7   4   6   43.88    3.12
  -7  -4  -6   44.75    3.29
   7   4   7    4.56    1.27
  -7  -4  -7    6.04    1.71
   7   4   8    4.49    1.70
  -7  -4  -8    1.54    1.08
   7   4   9    1.50    1.74
  -7  -4  -9    2.93    1.34
   7   4  10   20.01    6.08
  -7  -4 -10   22.52    2.73
   7   4  11    4.84    2.92
  -7  -4 -11    1.63    1.79
   7   4  12    3.73    1.73
  -7  -4 -12    0.76    1.15
   7   4  13    1.56    1.44
  -7  -4 -13    1.21    1.17
   7   4  14   49.50   12.75
   7   4  15    6.36    2.02
   7   4  16    3.91    1.43
   7   5 -10   -0.43    0.89
   7   5  -9    7.85    1.74
   7   5  -8    5.46    1.22
  -7  -5   8    6.59    1.91
   7   5  -7   28.48    5.48
  -7  -5   7   32.58    3.33
   7   5  -6   65.94   10.15
  -7  -5   6   75.16    5.34
   7   5  -5   43.79    7.53
  -7  -5   5   41.25    8.04
   7   5  -4    9.99    1.84
  -7  -5   4   10.15    1.69
   7   5  -3    7.56    1.93
  -7  -5   3    9.02    1.50
   7   5  -2   32.37    9.89
  -7  -5   2   46.54    6.26
   7   5  -1   20.70    2.34
  -7  -5   1   19.94    3.68
   7   5   0  142.90    5.57
  -7  -5   0  128.99    5.51
   7   5   1   26.66    2.57
  -7  -5  -1   31.46    6.26
   7   5   2    1.63    1.32
  -7  -5  -2    0.33    1.08
   7   5   3    5.68    1.60
  -7  -5  -3    9.65    1.82
   7   5   4   29.88    3.02
  -7  -5  -4   33.98    3.57
   7   5   5  147.60    5.81
  -7  -5  -5  156.65    6.14
   7   5   6   23.51    2.97
  -7  -5  -6   21.94    2.62
   7   5   7    0.82    1.74
  -7  -5  -7    3.82    1.89
   7   5   8   56.35    3.73
  -7  -5  -8   62.45    4.00
   7   5   9   24.31    2.47
  -7  -5  -9   25.50    2.68
   7   5  10   13.04    2.04
  -7  -5 -10   19.28    2.59
   7   5  11    7.44    1.78
  -7  -5 -11   12.28    2.28
   7   5  12    1.22    1.52
  -7  -5 -12    0.22    1.22
   7   5  13   25.00    2.78
  -7  -5 -13   27.87    3.27
   7   5  14   53.29    4.42
   7   6  -9    4.96    1.33
   7   6  -8    0.82    0.84
   7   6  -7    2.08    1.07
   7   6  -6   -1.00    1.25
  -7  -6   6    1.61    1.10
   7   6  -5   16.84    2.63
  -7  -6   5   14.75    1.85
   7   6  -4    1.41    0.75
  -7  -6   4   -0.33    1.00
   7   6  -3   23.40    5.73
  -7  -6   3   27.10    2.93
   7   6  -2    1.87    1.16
  -7  -6   2    1.60    1.62
  -7  -6   1   34.22    3.35
  -7  -6   0  138.28    7.95
   7   6   1   17.94    2.33
  -7  -6  -1   21.89    3.02
   7   6   2   45.87    3.54
  -7  -6  -2   47.58    3.76
   7   6   3    9.53    2.14
  -7  -6  -3    8.03    1.89
   7   6   4   49.24    4.09
  -7  -6  -4   55.88    4.54
   7   6   5   65.61    4.94
  -7  -6  -5   66.75    4.84
   7   6   6   51.05    8.62
  -7  -6  -6   56.55    4.71
   7   6   7  122.41    8.34
  -7  -6  -7  121.62    7.55
   7   6   8   41.44   10.11
  -7  -6  -8   50.52    3.94
   7   6   9   92.09   17.62
  -7  -6  -9  111.84    7.82
   7   6  10   40.17    8.79
  -7  -6 -10   45.15   10.01
   7   6  11   13.97    3.15
  -7  -6 -11   18.68    2.93
  -7  -6 -12   62.11    5.05
   7   7  -8   17.81    2.92
   7   7  -7   61.91   11.49
   7   7  -6   34.99    6.77
   7   7  -5   24.06    3.71
   7   7  -4    2.17    1.56
   7   7  -3    2.25    1.14
  -7  -7   3    1.40    1.04
   7   7  -2    1.01    0.73
  -7  -7   2    0.94    1.00
   7   7  -1    2.45    1.47
   7   7   0   -0.34    1.34
  -7  -7   0    2.02    1.16
   7   7   1   64.52    4.24
  -7  -7  -1   65.65    4.31
   7   7   2    3.80    1.54
  -7  -7  -2    4.04    1.87
   7   7   3    1.27    1.31
  -7  -7  -3    1.25    1.65
   7   7   4  102.89    5.54
  -7  -7  -4  110.92    5.23
   7   7   5   45.66    3.57
  -7  -7  -5   46.43    3.90
   7   7   6   11.43    2.08
  -7  -7  -6   15.05    3.21
   7   7   7   22.46    3.04
  -7  -7  -7   29.78    3.56
   7   7   8    0.98    1.26
  -7  -7  -8    0.08    1.22
  -7  -7  -9    0.96    1.29
  -7  -7 -10    3.71    1.92
   7   8  -3    9.78    1.77
   7   8  -2    1.57    1.39
   7   8  -1    5.31    1.55
   7   8   0    2.43    1.38
   7   8   1   16.97    2.77
  -7  -8  -1   16.14    2.69
   7   8   2    1.08    1.23
  -7  -8  -2    0.14    1.16
   7   8   3    0.35    1.20
  -7  -8  -3    1.25    1.40
  -7  -8  -4   -0.38    1.38
  -7  -8  -5   67.66    5.30
  -7  -8  -6   54.98    4.71
  -7  -8  -7   83.32    6.26
  -8   4   5    0.64    1.33
  -8   4   3    1.55    1.39
  -8   3   9   -0.79    1.56
  -8   3   8   47.50    4.67
  -8   3   7   23.28    3.45
  -8   3   6   16.87    2.68
  -8   3   5    5.78    2.30
  -8   3   4   31.26    3.58
  -8   3   3    1.83    1.53
  -8   3   2    4.99    1.92
  -8   3   1   94.13    4.92
  -8   3   0   24.38    3.05
  -8   3  -1  110.00    6.57
  -8   3  -2  114.17    6.78
  -8   2  10    2.41    1.66
  -8   2   9    6.87    2.13
  -8   2   8    2.18    2.31
  -8   2   7   40.05    4.03
  -8   2   6    2.99    2.32
  -8   2   5   16.19    2.88
  -8   2   4    7.81    2.01
  -8   2   3   16.70    2.14
  -8   2   2   42.28    7.10
  -8   2   1   35.76    4.19
  -8   2   0    1.28    1.17
  -8   2  -1    2.42    1.68
  -8   2  -2    5.11    1.53
  -8   2  -3   10.88    2.84
  -8   2  -4   47.32    3.84
   8  -2   5   51.31    4.18
  -8   2  -5   57.18    4.71
   8  -2   6  123.32    7.11
   8  -2   7   16.46    2.11
   8  -2   8   69.29    3.82
   8  -2   9    0.05    1.17
   8  -2  10    5.51    1.59
   8  -2  11    1.45    0.69
   8  -2  12    4.12    1.90
  -8   1  11   45.08    4.68
  -8   1  10   15.84    2.90
  -8   1   9   -0.61    1.48
  -8   1   8    6.64    1.74
  -8   1   7   73.70    5.08
  -8   1   6   -0.04    1.44
  -8   1   5    2.12    1.99
  -8   1   4    1.41    1.35
  -8   1   3   10.47    2.13
  -8   1   2   15.18    2.93
  -8   1   1   23.22    3.94
  -8   1   0   87.85    5.18
   8  -1   1    5.83    1.31
  -8   1  -1    9.09    2.93
   8  -1   2    3.18    0.77
  -8   1  -2    4.02    1.32
   8  -1   3    3.58    0.84
  -8   1  -3    2.76    1.32
   8  -1   4    0.59    1.05
  -8   1  -4    0.43    0.94
   8  -1   5    0.79    1.04
  -8   1  -5    1.79    1.00
   8  -1   6   19.36    2.75
  -8   1  -6   15.39    2.58
   8  -1   7   35.12    3.29
   8  -1   9    0.70    0.82
   8  -1  10    0.77    1.39
   8  -1  11   49.88    4.04
   8  -1  12  103.11    6.65
   8  -1  13    1.67    1.47
   8  -1  14   -0.36    1.55
   8  -1  15    0.93    1.69
  -8   0  11    0.19    1.51
  -8   0  10    3.85    2.40
  -8   0   9   40.86    4.19
  -8   0   8   25.90    2.88
  -8   0   7   51.03    4.01
  -8   0   6   35.14    4.01
  -8   0   5    1.09    0.91
  -8   0   4    0.92    1.25
  -8   0   3    5.47    1.53
   8   0  -2    0.82    0.47
  -8   0   2    0.60    1.16
   8   0  -1    0.59    1.21
  -8   0   1    1.24    1.02
   8   0   0   20.70    3.80
  -8   0   0   28.71    3.09
   8   0   1    6.78    1.47
  -8   0  -1    6.80    1.47
   8   0   2   27.94    4.38
  -8   0  -2   34.39    3.40
   8   0   3   19.10    2.14
  -8   0  -3   24.23    2.98
   8   0   4    1.40    1.05
  -8   0  -4    1.08    1.13
   8   0   5   21.37    3.18
  -8   0  -5   21.74    2.77
   8   0   6  113.31    4.61
  -8   0  -6  115.28    4.63
   8   0   7   65.83   11.82
  -8   0  -7   73.07    3.62
   8   0   8    2.10    1.44
  -8   0  -8    3.05    1.66
   8   0   9    1.68    0.92
   8   0  10    2.81    1.89
   8   0  11   12.37    2.20
   8   0  12   10.19    2.77
   8   0  13   27.89    3.23
   8   0  14    0.69    1.55
   8   0  15    5.20    1.61
  -8  -1  11    2.75    1.56
  -8  -1  10   21.32    2.92
  -8  -1   9    1.67    1.35
  -8  -1   8   13.34    3.16
  -8  -1   7   25.18    6.19
  -8  -1   6   34.93    7.17
  -8  -1   5   38.70    3.73
   8   1  -4   34.96    8.07
  -8  -1   4   48.88    3.75
   8   1  -3    8.30    1.57
  -8  -1   3    8.08    1.85
   8   1  -2    0.99    0.94
  -8  -1   2    1.31    1.23
   8   1  -1    1.50    1.34
  -8  -1   1    3.25    1.49
   8   1   0   12.48    1.68
  -8  -1   0   16.11    2.48
   8   1   1    1.17    0.40
  -8  -1  -1    0.09    1.54
   8   1   2   21.50    3.41
  -8  -1  -2   26.51    2.76
   8   1   3    2.53    1.22
  -8  -1  -3   -0.11    1.12
   8   1   4   62.59    4.01
  -8  -1  -4   60.90    3.53
   8   1   5    0.86    0.90
  -8  -1  -5   -0.24    1.05
   8   1   6   10.29    1.93
  -8  -1  -6    8.04    1.99
   8   1   7   24.64    3.18
  -8  -1  -7   12.88    1.74
   8   1   8    3.61    1.56
  -8  -1  -8    1.58    0.86
   8   1   9   37.85    8.75
  -8  -1  -9   33.87    7.10
   8   1  10   -1.31    1.46
   8   1  11   23.07    3.08
   8   1  12   23.68    2.89
   8   1  13    3.42    1.58
   8   1  14    7.46    1.88
   8   1  15    1.77    1.55
   8   1  16   29.21    3.85
  -8  -2  10    1.17    1.28
  -8  -2   9    4.53    1.79
  -8  -2   8    3.11    1.85
  -8  -2   7    4.35    2.20
   8   2  -6   55.91   11.32
  -8  -2   6   91.22    6.01
   8   2  -5    2.09    1.32
  -8  -2   5    1.77    1.12
   8   2  -4    2.38    1.28
  -8  -2   4    2.58    1.30
   8   2  -3    0.70    1.07
  -8  -2   3    3.44    1.43
   8   2  -2   13.54    2.07
  -8  -2   2   12.69    2.05
   8   2  -1    0.59    1.09
  -8  -2   1    0.87    1.20
   8   2   0   13.53    2.14
  -8  -2   0   13.70    2.10
   8   2   1    1.75    1.14
  -8  -2  -1    3.27    1.35
   8   2   2    3.15    1.34
  -8  -2  -2    2.47    1.29
   8   2   3    8.22    1.87
  -8  -2  -3    7.52    1.72
   8   2   4    5.28    1.76
  -8  -2  -4    3.61    1.40
   8   2   5    2.50    1.12
  -8  -2  -5    3.13    1.37
   8   2   6    3.86    1.46
  -8  -2  -6    1.22    1.14
   8   2   7  143.89    5.87
  -8  -2  -7  143.77    6.30
   8   2   8    5.87    1.96
  -8  -2  -8    4.62    1.51
   8   2   9   11.16    2.19
  -8  -2  -9   12.43    1.97
   8   2  10   13.73    2.48
  -8  -2 -10   14.28    2.22
   8   2  11    6.68    1.68
   8   2  12   -2.35    1.46
   8   2  13    6.50    2.21
   8   2  14    8.28    2.34
   8   2  15   11.96    2.47
   8   2  16   21.80    3.65
  -8  -3   9    2.10    1.32
  -8  -3   8    2.57    1.80
   8   3  -7   49.82    3.59
  -8  -3   7   48.02    3.48
   8   3  -6   33.75    2.74
  -8  -3   6   30.59    7.40
   8   3  -5   10.92    2.06
  -8  -3   5   10.81    2.13
   8   3  -4    5.16    1.68
  -8  -3   4    0.86    1.20
   8   3  -3    1.12    1.20
  -8  -3   3    3.91    1.83
   8   3  -2    2.73    1.46
  -8  -3   2    3.76    1.25
   8   3  -1   15.93    2.25
  -8  -3   1   10.20    1.89
   8   3   0    3.25    1.15
  -8  -3   0    3.94    1.75
   8   3   1    7.48    1.67
  -8  -3  -1   13.78    2.35
   8   3   2    8.03    1.78
  -8  -3  -2    7.04    1.76
   8   3   3   46.06    4.65
  -8  -3  -3   40.75    6.27
   8   3   4   15.03    2.40
  -8  -3  -4   13.84    3.26
   8   3   5    0.96    1.31
  -8  -3  -5   -0.19    1.05
   8   3   6   -0.17    1.11
  -8  -3  -6    3.17    1.57
   8   3   7    5.98    1.44
  -8  -3  -7    4.79    1.54
   8   3   8    5.89    1.96
  -8  -3  -8    5.41    1.59
   8   3   9    2.16    1.51
  -8  -3  -9    2.21    1.79
   8   3  10   23.21    5.35
  -8  -3 -10   31.04    2.81
   8   3  11    5.44    1.66
  -8  -3 -11    8.53    1.98
   8   3  12  172.15   17.97
   8   3  13    4.65    1.72
   8   3  14    0.45    1.62
   8   3  15    2.40    1.65
  -8  -4   8   52.90    4.49
   8   4  -7    3.10    1.53
   8   4  -6    1.28    1.11
  -8  -4   6    1.24    1.32
   8   4  -5   87.02    4.68
  -8  -4   5   87.62    4.54
   8   4  -4    6.65    1.81
  -8  -4   4   12.92    2.42
   8   4  -3    1.95    1.27
  -8  -4   3    6.02    1.52
   8   4  -2   13.70    2.13
  -8  -4   2   13.85    2.51
   8   4  -1  110.94    6.69
  -8  -4   1  115.10    7.08
   8   4   0   11.58    2.15
  -8  -4   0   12.86    2.58
   8   4   1   42.58    3.61
  -8  -4  -1   37.31    6.55
   8   4   2   89.03    4.93
  -8  -4  -2   87.33    4.92
   8   4   3   25.46    4.33
  -8  -4  -3   28.86    7.22
   8   4   4   53.72    6.51
  -8  -4  -4   61.89    3.94
   8   4   5   14.58    2.24
  -8  -4  -5   16.21    2.56
   8   4   6    4.36    2.11
  -8  -4  -6    0.28    1.00
   8   4   7    5.65    2.32
  -8  -4  -7    3.47    1.69
   8   4   8   -0.08    1.35
  -8  -4  -8    1.42    1.13
   8   4   9    0.56    1.44
  -8  -4  -9    1.14    0.88
   8   4  10    1.54    1.29
  -8  -4 -10    1.79    1.27
   8   4  11   -0.19    1.59
  -8  -4 -11    2.50    1.69
   8   4  12   -0.52    1.58
   8   4  13    9.57    2.76
   8   4  14    5.06    1.36
   8   5  -7    1.22    0.72
   8   5  -6    5.17    5.34
  -8  -5   6   11.36    2.16
   8   5  -5    0.12    1.09
  -8  -5   5    1.76    1.19
   8   5  -4   39.42    3.15
  -8  -5   4   33.31    8.25
   8   5  -3   29.87    2.91
  -8  -5   3   33.79    3.29
   8   5  -2   10.68    2.17
  -8  -5   2   11.60    2.44
   8   5  -1    4.32    2.02
  -8  -5   1    2.44    1.53
   8   5   0   28.75    5.59
  -8  -5   0   25.09    2.92
   8   5   1   16.56    2.32
  -8  -5  -1   27.23    3.16
   8   5   2    2.01    1.40
  -8  -5  -2    3.78    2.00
   8   5   3   10.31    2.62
  -8  -5  -3    9.79    1.98
   8   5   4   14.48    2.76
  -8  -5  -4   17.63    2.70
   8   5   5   54.08    3.83
  -8  -5  -5   50.16    7.01
   8   5   6  271.59   11.42
  -8  -5  -6  278.84    7.97
   8   5   7  105.59    5.62
  -8  -5  -7   99.69    5.34
   8   5   8   11.55    2.29
  -8  -5  -8   15.01    2.46
   8   5   9   33.09    3.65
  -8  -5  -9   28.60    3.45
   8   5  10    6.81    1.89
  -8  -5 -10    7.45    2.11
   8   5  11    1.25    1.63
  -8  -5 -11    3.69    2.17
   8   5  12   43.72   13.06
   8   6  -6    0.55    0.92
   8   6  -5    0.91    1.72
   8   6  -4    0.50    1.13
  -8  -6   4   -0.03    1.02
   8   6  -3    6.31    1.88
  -8  -6   3    5.69    1.86
   8   6  -2    0.83    1.32
  -8  -6   2    0.31    1.01
   8   6  -1   25.39    3.05
  -8  -6   1   28.33    3.25
   8   6   0   14.84    2.60
  -8  -6   0   13.78    2.56
   8   6   1   11.40    2.21
  -8  -6  -1   17.58    2.87
   8   6   2    4.22    2.06
  -8  -6  -2    2.25    1.30
   8   6   3    0.13    1.28
  -8  -6  -3    0.85    1.78
   8   6   4    0.31    1.34
  -8  -6  -4    0.34    1.29
   8   6   5    8.54    2.10
  -8  -6  -5    2.96    2.30
   8   6   6   12.33    2.31
  -8  -6  -6   14.54    2.71
   8   6   7    2.05    1.25
  -8  -6  -7    0.73    1.26
   8   6   8    3.61    1.21
  -8  -6  -8    6.80    1.90
   8   6   9   25.96    8.36
  -8  -6  -9   47.25    4.37
   8   7  -3    3.38    2.05
   8   7  -2    7.50    1.89
   8   7  -1    7.53    2.19
   8   7   0    7.76    2.12
  -8  -7   0   10.19    2.72
   8   7   1   14.76    2.46
  -8  -7  -1   19.71    3.29
   8   7   2    3.42    2.01
  -8  -7  -2    2.06    1.45
   8   7   3    2.69    1.51
  -8  -7  -3    3.14    1.37
   8   7   4   10.46    1.90
  -8  -7  -4   11.99    2.47
   8   7   5    2.98    1.72
  -8  -7  -5    3.45    1.69
  -8  -7  -6    9.61    2.35
  -9   2   4   21.47    6.66
  -9   2   3    4.67    2.39
  -9   2   2   27.86    8.53
  -9   2   1   14.36    5.09
  -9   2   0    4.01    1.08
  -9   1   7    1.04    1.55
  -9   1   6    2.18    1.77
  -9   1   4   21.07    6.45
  -9   1   3    1.90    1.42
  -9   1   2   11.62    2.68
  -9   1   1   40.60    8.84
  -9   1   0  261.50   12.90
  -9   1  -1  153.72    9.19
  -9   1  -2    2.72    1.77
  -9   1  -3   10.63    2.48
  -9   0   8   12.84    2.80
  -9   0   7    3.54    2.15
  -9   0   6    1.58    0.98
  -9   0   5    8.24    2.13
  -9   0   4    2.25    1.55
  -9   0   3   16.60    2.91
  -9   0   2   17.31    3.08
  -9   0   1   97.81    5.08
  -9   0   0    2.68    1.38
  -9   0  -1   22.02    2.90
  -9   0  -2    5.99    2.67
  -9   0  -3   14.58    4.33
   9   0   4    8.24    1.78
  -9   0  -4   10.17    2.17
   9   0   5   42.71    5.35
  -9   0  -5   54.19    3.99
   9   0   6    6.23    2.46
   9   0   7    4.20    1.82
   9   0   8    0.84    0.65
   9   0   9    4.42    1.95
   9   0  10   53.77    4.37
  -9  -1   8   11.66    2.44
  -9  -1   7   14.69    3.13
  -9  -1   6    0.74    1.36
  -9  -1   5    1.26    1.50
  -9  -1   4    2.84    1.60
  -9  -1   3    6.32    2.14
  -9  -1   2    5.99    2.27
  -9  -1   1   25.30    3.00
  -9  -1   0  165.89    6.35
   9   1   1   87.91    4.49
   9   1   2   20.76    2.34
  -9  -1  -2   28.84    2.92
   9   1   3    3.95    1.18
  -9  -1  -3    1.50    1.24
   9   1   4   22.45    2.60
  -9  -1  -4   26.01    3.13
   9   1   5   44.56    4.48
  -9  -1  -5   56.66    3.82
   9   1   6    8.18    2.08
  -9  -1  -6    6.49    1.63
   9   1   7    6.01    1.74
   9   1   8    7.72    1.80
   9   1   9   14.32    3.56
   9   1  10    1.72    1.54
   9   1  11   29.57    3.92
   9   1  12   31.01   10.86
  -9  -2   7    0.21    1.65
  -9  -2   6   27.53    8.20
  -9  -2   5   40.17    4.84
  -9  -2   4    8.72    2.17
  -9  -2   3    5.31    1.97
  -9  -2   2   -0.08    1.29
   9   2  -1   11.25    2.26
  -9  -2   1   17.26    2.57
   9   2   0   15.10    1.91
  -9  -2   0   22.41    3.13
   9   2   1    1.84    1.23
  -9  -2  -1    0.89    1.25
   9   2   2   13.40    2.19
  -9  -2  -2   16.26    2.62
   9   2   3    1.59    1.30
  -9  -2  -3    0.87    1.28
   9   2   4    0.38    1.33
  -9  -2  -4    1.57    1.30
   9   2   5    5.76    1.54
  -9  -2  -5   11.03    2.75
   9   2   6   83.44    5.25
  -9  -2  -6   53.85   14.20
   9   2   7   17.23    2.68
  -9  -2  -7   11.52    3.66
   9   2   8    6.59    1.68
   9   2   9   18.59    2.61
   9   2  10    7.84    2.43
   9   2  11   -0.20    1.55
   9   2  12    1.74    2.27
  -9  -3   6   10.03    2.21
  -9  -3   5    8.10    2.06
  -9  -3   4   25.14    3.20
  -9  -3   3    4.97    2.23
   9   3  -2   62.06    4.55
  -9  -3   2   66.10    5.24
   9   3  -1  124.29    7.53
  -9  -3   1  153.28    8.72
   9   3   0   54.77    3.82
  -9  -3   0   61.11    4.54
   9   3   1   77.94    4.32
  -9  -3  -1   89.39    5.21
   9   3   2    0.43    1.24
  -9  -3  -2    1.71    1.77
   9   3   3    0.66    1.17
  -9  -3  -3    2.01    1.35
   9   3   4    3.04    1.87
  -9  -3  -4    0.53    1.14
   9   3   5    3.29    1.97
  -9  -3  -5    1.13    1.56
   9   3   6    3.88    1.65
  -9  -3  -6    3.71    1.50
   9   3   7    2.83    1.50
  -9  -3  -7    1.48    1.25
   9   3   8    5.48    1.58
  -9  -3  -8    4.55    1.66
   9   3   9    1.78    1.45
   9   3  10    3.50    1.61
   9   3  11   10.57    4.01
  -9  -4   5    0.39    0.95
  -9  -4   4    0.48    1.52
   9   4  -3    1.61    1.48
  -9  -4   3    2.91    2.09
   9   4  -2    4.63    1.57
  -9  -4   2    6.61    1.83
   9   4  -1    0.83    1.16
  -9  -4   1    4.90    2.13
   9   4   0   21.82    2.81
  -9  -4   0   23.39    3.34
   9   4   1    8.68    1.72
  -9  -4  -1    6.96    2.53
   9   4   2   58.84   11.29
  -9  -4  -2   84.97    6.01
   9   4   3  236.89   12.33
  -9  -4  -3  235.51   12.29
   9   4   4   70.14    5.30
  -9  -4  -4   76.99    5.60
   9   4   5   11.14    2.80
  -9  -4  -5   14.36    2.61
   9   4   6    3.46    0.68
  -9  -4  -6    5.44    2.06
   9   4   7   39.37    3.76
  -9  -4  -7   50.99    4.38
   9   4   8   16.51    5.68
  -9  -4  -8   19.87    2.92
   9   4   9    0.93    0.90
   9   4  10    3.30    1.42
   9   5  -2    2.37    1.86
  -9  -5   2    3.39    1.87
   9   5  -1   13.79    2.68
  -9  -5   1   10.16    2.39
   9   5   0    6.88    2.26
  -9  -5   0    5.88    2.05
   9   5   1    0.21    1.47
  -9  -5  -1   -0.32    1.15
   9   5   2    1.49    1.02
  -9  -5  -2   -0.09    1.32
   9   5   3   17.77    2.60
  -9  -5  -3   18.76    3.13
   9   5   4    2.73    1.95
  -9  -5  -4   10.95    2.51
   9   5   5    6.80    1.82
  -9  -5  -5    5.19    1.97
   9   5   6   43.84    9.46
  -9  -5  -6   67.10    5.48
   9   5   7   71.97   19.06
   9   5   8   16.04    2.68
   0   0   0    0.00    0.00
;
_shelx_hkl_checksum              47431
loop_
_space_group_symop_operation_xyz
'x, y, z'
'-x, -y, -z'
loop_
_atom_site_label
_atom_site_type_symbol
_atom_site_fract_x
_atom_site_fract_y
_atom_site_fract_z
_atom_site_U_iso_or_equiv
_atom_site_adp_type
_atom_site_occupancy
_atom_site_site_symmetry_order
_atom_site_calc_flag
_atom_site_refinement_flags_posn
_atom_site_refinement_flags_adp
C003 C 0.3739(2) 0.5756(2) 0.10710(9) 0.0209(3) Uani 1 1 d . .
C005 C -0.1290(2) -0.2107(2) 0.37615(9) 0.0183(3) Uani 1 1 d . .
C006 C 0.0842(2) -0.2743(2) 0.52347(9) 0.0191(3) Uani 1 1 d . .
C010 C -0.2539(2) -0.1715(2) 0.29820(10) 0.0200(3) Uani 1 1 d . .
C012 C 0.0854(2) -0.2808(2) 0.36767(9) 0.0199(3) Uani 1 1 d . .
H012 H 0.1570 -0.3072 0.3111 0.024 Uiso 1 1 calc R U
C013 C 0.2949(2) 0.2098(2) 0.18347(9) 0.0198(3) Uani 1 1 d . .
C014 C -0.1298(2) -0.2105(2) 0.53448(10) 0.0210(3) Uani 1 1 d . .
H014 H -0.2016 -0.1894 0.5913 0.025 Uiso 1 1 calc R U
C015 C 0.1887(2) 0.4980(2) 0.09477(10) 0.0236(3) Uani 1 1 d . .
H015 H 0.0890 0.5708 0.0602 0.028 Uiso 1 1 calc R U
C016 C 0.4775(2) 0.2890(2) 0.19819(10) 0.0224(3) Uani 1 1 d . .
H016 H 0.5747 0.2188 0.2346 0.027 Uiso 1 1 calc R U
C017 C 0.1940(2) -0.3119(2) 0.44174(10) 0.0196(3) Uani 1 1 d . .
H017 H 0.3404 -0.3578 0.4367 0.024 Uiso 1 1 calc R U
C019 C -0.2356(2) -0.1785(2) 0.45949(10) 0.0202(3) Uani 1 1 d . .
H019 H -0.3823 -0.1341 0.4649 0.024 Uiso 1 1 calc R U
C020 C 0.5165(2) 0.4697(2) 0.15962(10) 0.0228(3) Uani 1 1 d . .
H020 H 0.6419 0.5224 0.1690 0.027 Uiso 1 1 calc R U
C021 C 0.1491(2) 0.3162(2) 0.13233(10) 0.0238(3) Uani 1 1 d . .
H021 H 0.0232 0.2639 0.1233 0.029 Uiso 1 1 calc R U
C022 C 0.4249(2) 0.7642(2) 0.06381(9) 0.0217(3) Uani 1 1 d . .
N1 N 0.2006(2) -0.30352(18) 0.60187(8) 0.0222(3) Uani 1 1 d . .
N2 N -0.1493(2) -0.1459(2) 0.22046(8) 0.0248(3) Uani 1 1 d . .
H2A H -0.2176 -0.1233 0.1734 0.030 Uiso 1 1 calc R U
H2B H -0.0116 -0.1515 0.2160 0.030 Uiso 1 1 calc R U
O1 O 0.59207(17) 0.83029(15) 0.06991(7) 0.0248(3) Uani 1 1 d . .
O2 O 0.27850(18) 0.85555(17) 0.01698(7) 0.0288(3) Uani 1 1 d . .
H2 H 0.3180 0.9611 -0.0055 0.043 Uiso 1 1 calc R U
O3 O 0.25443(16) 0.02935(16) 0.21735(7) 0.0232(3) Uani 1 1 d . .
H3 H 0.3529 -0.0198 0.2466 0.035 Uiso 1 1 calc R U
O4 O 0.39307(17) -0.3317(2) 0.59084(8) 0.0349(3) Uani 1 1 d . .
O5 O 0.10129(19) -0.2971(2) 0.67383(7) 0.0348(3) Uani 1 1 d . .
O6 O -0.44753(16) -0.16508(17) 0.30822(7) 0.0262(3) Uani 1 1 d . .
loop_
_atom_site_aniso_label
_atom_site_aniso_U_11
_atom_site_aniso_U_22
_atom_site_aniso_U_33
_atom_site_aniso_U_23
_atom_site_aniso_U_13
_atom_site_aniso_U_12
C003 0.0241(8) 0.0208(7) 0.0178(7) -0.0010(6) -0.0011(6) -0.0031(6)
C005 0.0182(7) 0.0141(6) 0.0233(7) 0.0024(5) -0.0031(6) -0.0044(5)
C006 0.0203(7) 0.0159(7) 0.0224(7) 0.0016(5) -0.0052(6) -0.0058(5)
C010 0.0195(7) 0.0163(7) 0.0253(7) 0.0007(6) -0.0048(6) -0.0041(5)
C012 0.0191(7) 0.0188(7) 0.0220(7) 0.0015(5) -0.0001(5) -0.0047(5)
C013 0.0203(7) 0.0201(7) 0.0184(7) -0.0004(5) 0.0011(5) -0.0028(6)
C014 0.0222(8) 0.0179(7) 0.0230(7) -0.0010(5) 0.0006(6) -0.0049(6)
C015 0.0242(8) 0.0248(8) 0.0221(7) 0.0026(6) -0.0066(6) -0.0014(6)
C016 0.0228(7) 0.0218(7) 0.0234(7) 0.0018(6) -0.0074(6) -0.0026(6)
C017 0.0166(7) 0.0168(7) 0.0259(7) 0.0018(5) -0.0030(6) -0.0031(5)
C019 0.0166(7) 0.0171(7) 0.0268(7) -0.0002(5) -0.0010(6) -0.0023(5)
C020 0.0224(7) 0.0223(7) 0.0253(8) -0.0004(6) -0.0053(6) -0.0067(6)
C021 0.0190(7) 0.0275(8) 0.0262(8) 0.0027(6) -0.0049(6) -0.0060(6)
C022 0.0266(8) 0.0213(7) 0.0174(7) -0.0012(6) -0.0036(6) -0.0033(6)
N1 0.0247(7) 0.0201(6) 0.0229(6) 0.0008(5) -0.0047(5) -0.0055(5)
N2 0.0204(6) 0.0335(7) 0.0215(6) 0.0030(5) -0.0058(5) -0.0047(5)
O1 0.0278(6) 0.0243(6) 0.0239(6) 0.0041(4) -0.0055(4) -0.0082(4)
O2 0.0338(6) 0.0248(6) 0.0308(6) 0.0099(5) -0.0129(5) -0.0091(5)
O3 0.0185(5) 0.0231(5) 0.0289(6) 0.0078(4) -0.0056(4) -0.0050(4)
O4 0.0206(6) 0.0542(8) 0.0305(6) 0.0024(6) -0.0076(5) -0.0034(5)
O5 0.0321(7) 0.0515(8) 0.0204(6) -0.0017(5) -0.0018(5) -0.0044(6)
O6 0.0180(6) 0.0326(6) 0.0288(6) 0.0081(5) -0.0058(4) -0.0051(4)
loop_
_atom_type_symbol
_atom_type_description
_atom_type_scat_dispersion_real
_atom_type_scat_dispersion_imag
_atom_type_scat_source
C C 0.0033 0.0016 'International Tables Vol C Tables 4.2.6.8 and 6.1.1.4'
H H 0.0000 0.0000 'International Tables Vol C Tables 4.2.6.8 and 6.1.1.4'
N N 0.0061 0.0033 'International Tables Vol C Tables 4.2.6.8 and 6.1.1.4'
O O 0.0106 0.0060 'International Tables Vol C Tables 4.2.6.8 and 6.1.1.4'
loop_
_geom_angle_atom_site_label_1
_geom_angle_atom_site_label_2
_geom_angle_atom_site_label_3
_geom_angle
C020 C003 C015 119.09(14)
C020 C003 C022 119.25(14)
C015 C003 C022 121.63(14)
C012 C005 C019 119.93(13)
C012 C005 C010 122.35(13)
C019 C005 C010 117.71(13)
C014 C006 C017 122.96(14)
C014 C006 N1 118.58(14)
C017 C006 N1 118.47(13)
O6 C010 N2 122.73(14)
O6 C010 C005 119.58(13)
N2 C010 C005 117.69(13)
C017 C012 C005 120.04(14)
C017 C012 H012 120.0
C005 C012 H012 120.0
O3 C013 C021 118.30(13)
O3 C013 C016 121.67(13)
C021 C013 C016 120.03(14)
C006 C014 C019 117.66(14)
C006 C014 H014 121.2
C019 C014 H014 121.2
C021 C015 C003 120.67(14)
C021 C015 H015 119.7
C003 C015 H015 119.7
C020 C016 C013 119.78(14)
C020 C016 H016 120.1
C013 C016 H016 120.1
C012 C017 C006 118.54(14)
C012 C017 H017 120.7
C006 C017 H017 120.7
C014 C019 C005 120.83(14)
C014 C019 H019 119.6
C005 C019 H019 119.6
C016 C020 C003 120.72(14)
C016 C020 H020 119.6
C003 C020 H020 119.6
C015 C021 C013 119.68(14)
C015 C021 H021 120.2
C013 C021 H021 120.2
O1 C022 O2 122.37(14)
O1 C022 C003 122.86(14)
O2 C022 C003 114.76(13)
O5 N1 O4 123.69(13)
O5 N1 C006 118.48(13)
O4 N1 C006 117.82(13)
C010 N2 H2A 120.0
C010 N2 H2B 120.0
H2A N2 H2B 120.0
C022 O2 H2 109.5
C013 O3 H3 109.5
loop_
_geom_bond_atom_site_label_1
_geom_bond_atom_site_label_2
_geom_bond_distance
C003 C020 1.392(2)
C003 C015 1.397(2)
C003 C022 1.478(2)
C005 C012 1.395(2)
C005 C019 1.397(2)
C005 C010 1.502(2)
C006 C014 1.386(2)
C006 C017 1.388(2)
C006 N1 1.471(2)
C010 O6 1.239(2)
C010 N2 1.329(2)
C012 C017 1.386(2)
C012 H012 0.9500
C013 O3 1.3555(19)
C013 C021 1.394(2)
C013 C016 1.395(2)
C014 C019 1.389(2)
C014 H014 0.9500
C015 C021 1.383(2)
C015 H015 0.9500
C016 C020 1.381(2)
C016 H016 0.9500
C017 H017 0.9500
C019 H019 0.9500
C020 H020 0.9500
C021 H021 0.9500
C022 O1 1.2322(19)
C022 O2 1.3180(19)
N1 O5 1.2178(19)
N1 O4 1.2268(19)
N2 H2A 0.8800
N2 H2B 0.8800
O2 H2 0.8400
O3 H3 0.8400
loop_
_geom_torsion_atom_site_label_1
_geom_torsion_atom_site_label_2
_geom_torsion_atom_site_label_3
_geom_torsion_atom_site_label_4
_geom_torsion
C012 C005 C010 O6 159.66(14)
C019 C005 C010 O6 -19.1(2)
C012 C005 C010 N2 -20.02(19)
C019 C005 C010 N2 161.26(13)
C019 C005 C012 C017 -2.2(2)
C010 C005 C012 C017 179.10(13)
C017 C006 C014 C019 -1.7(2)
N1 C006 C014 C019 178.24(12)
C020 C003 C015 C021 -1.5(2)
C022 C003 C015 C021 176.70(13)
O3 C013 C016 C020 177.49(13)
C021 C013 C016 C020 -2.1(2)
C005 C012 C017 C006 0.8(2)
C014 C006 C017 C012 1.1(2)
N1 C006 C017 C012 -178.78(12)
C006 C014 C019 C005 0.3(2)
C012 C005 C019 C014 1.6(2)
C010 C005 C019 C014 -179.60(12)
C013 C016 C020 C003 0.9(2)
C015 C003 C020 C016 0.9(2)
C022 C003 C020 C016 -177.41(13)
C003 C015 C021 C013 0.4(2)
O3 C013 C021 C015 -178.16(13)
C016 C013 C021 C015 1.4(2)
C020 C003 C022 O1 2.2(2)
C015 C003 C022 O1 -176.07(14)
C020 C003 C022 O2 -178.69(13)
C015 C003 C022 O2 3.1(2)
C014 C006 N1 O5 9.80(19)
C017 C006 N1 O5 -170.27(13)
C014 C006 N1 O4 -169.72(13)
C017 C006 N1 O4 10.22(19)
