#------------------------------------------------------------------------------
#$Date: 2019-11-26 01:05:04 +0200 (Tue, 26 Nov 2019) $
#$Revision: 242230 $
#$URL: file:///home/coder/svn-repositories/cod/cif/4/13/22/4132222.cif $
#------------------------------------------------------------------------------
#
# This file is available in the Crystallography Open Database (COD),
# http://www.crystallography.net/
#
# All data on this site have been placed in the public domain by the
# contributors.
#
data_4132222
loop_
_publ_author_name
'Saha, Subhankar'
'Desiraju, Gautam R.'
_publ_section_title
;
 Acid&#x00B7;&#x00B7;&#x00B7;Amide Supramolecular Synthon in Cocrystals:
 From Spectroscopic Detection to Property Engineering.
;
_journal_issue                   20
_journal_name_full               'Journal of the American Chemical Society'
_journal_page_first              6361
_journal_page_last               6373
_journal_paper_doi               10.1021/jacs.8b02435
_journal_volume                  140
_journal_year                    2018
_chemical_formula_sum            'C14 H12 Cl N O4'
_chemical_formula_weight         293.70
_space_group_crystal_system      triclinic
_space_group_IT_number           2
_space_group_name_Hall           '-P 1'
_space_group_name_H-M_alt        'P -1'
_atom_sites_solution_hydrogens   geom
_audit_creation_method           SHELXL-2014
_cell_angle_alpha                105.33(3)
_cell_angle_beta                 90.581(16)
_cell_angle_gamma                92.20(3)
_cell_formula_units_Z            2
_cell_length_a                   3.909(7)
_cell_length_b                   13.08(2)
_cell_length_c                   13.52(2)
_cell_measurement_reflns_used    1799
_cell_measurement_temperature    296(2)
_cell_measurement_theta_max      33.7
_cell_measurement_theta_min      1.6
_cell_volume                     666.0(19)
_computing_cell_refinement
;
CrystalClear-SM Expert 2.0 rc14 (Rigaku, 2009)
;
_computing_data_collection
;
CrystalClear-SM Expert 2.0 rc14 (Rigaku, 2009)
;
_computing_data_reduction
;
CrystalClear-SM Expert 2.0 rc14 (Rigaku, 2009)
;
_computing_structure_refinement  'SHELXL-14 (Sheldrick, 2014)'
_computing_structure_solution    'SHELXL-14 (Sheldrick, 2014)'
_diffrn_ambient_temperature      296(2)
_diffrn_detector_area_resol_mean 13.6612
_diffrn_measured_fraction_theta_full 0.996
_diffrn_measured_fraction_theta_max 0.996
_diffrn_measurement_device
;
XtaLABmini: Fixed Chi 2 circle
;
_diffrn_measurement_device_type
;
Rigaku Mercury375R (2x2 bin mode)
;
_diffrn_measurement_method       'profile data from \w-scans'
_diffrn_radiation_type           MoK\a
_diffrn_radiation_wavelength     0.71073
_diffrn_reflns_av_R_equivalents  0.1313
_diffrn_reflns_av_unetI/netI     0.1094
_diffrn_reflns_Laue_measured_fraction_full 0.996
_diffrn_reflns_Laue_measured_fraction_max 0.996
_diffrn_reflns_limit_h_max       4
_diffrn_reflns_limit_h_min       -4
_diffrn_reflns_limit_k_max       16
_diffrn_reflns_limit_k_min       -16
_diffrn_reflns_limit_l_max       16
_diffrn_reflns_limit_l_min       -16
_diffrn_reflns_number            6280
_diffrn_reflns_point_group_measured_fraction_full 0.996
_diffrn_reflns_point_group_measured_fraction_max 0.996
_diffrn_reflns_theta_full        25.242
_diffrn_reflns_theta_max         25.999
_diffrn_reflns_theta_min         1.562
_exptl_absorpt_coefficient_mu    0.299
_exptl_absorpt_correction_T_max  1.000
_exptl_absorpt_correction_T_min  0.474
_exptl_absorpt_correction_type   multi-scan
_exptl_absorpt_process_details   'Jacobson, R. (1998) Private communication'
_exptl_crystal_colour            Colourless
_exptl_crystal_density_diffrn    1.465
_exptl_crystal_description       Block
_exptl_crystal_F_000             304
_exptl_crystal_size_max          0.170
_exptl_crystal_size_mid          0.160
_exptl_crystal_size_min          0.160
_refine_diff_density_max         0.466
_refine_diff_density_min         -0.411
_refine_diff_density_rms         0.101
_refine_ls_extinction_method     none
_refine_ls_goodness_of_fit_ref   1.132
_refine_ls_hydrogen_treatment    constr
_refine_ls_matrix_type           full
_refine_ls_number_parameters     183
_refine_ls_number_reflns         2608
_refine_ls_number_restraints     0
_refine_ls_restrained_S_all      1.132
_refine_ls_R_factor_all          0.0980
_refine_ls_R_factor_gt           0.0802
_refine_ls_shift/su_max          0.001
_refine_ls_shift/su_mean         0.000
_refine_ls_structure_factor_coef Fsqd
_refine_ls_weighting_details
'w=1/[\s^2^(Fo^2^)+(0.0992P)^2^+0.6113P] where P=(Fo^2^+2Fc^2^)/3'
_refine_ls_weighting_scheme      calc
_refine_ls_wR_factor_gt          0.2293
_refine_ls_wR_factor_ref         0.2560
_reflns_Friedel_coverage         0.000
_reflns_number_gt                2045
_reflns_number_total             2608
_reflns_threshold_expression     'I > 2\s(I)'
_cod_data_source_file            ja8b02435_si_004.cif
_cod_data_source_block           4D
_cod_original_cell_volume        666(2)
_cod_database_code               4132222
_shelx_space_group_comment
;
The symmetry employed for this shelxl refinement is uniquely defined
by the following loop, which should always be used as a source of
symmetry information in preference to the above space-group names.
They are only intended as comments.
;
_shelx_estimated_absorpt_t_min   0.951
_shelx_estimated_absorpt_t_max   0.954
_shelxl_version_number           2014-3
_shelx_res_file
;
TITL dataP-1 in P-1
CELL  0.71073   3.9087  13.0781  13.5181  105.328   90.581   92.203
ZERR     2.00   0.0065   0.0236   0.0241    0.029    0.016    0.032
LATT   1
SFAC  C    H    N    O    CL
UNIT  28   24   2    8    2
MERG   2
OMIT    -2.00  52.00
EQIV $1 -x+3, -y+1, -z
HTAB N1 O4_$1
EQIV $2 -x+1, -y, -z
HTAB N1 O1_$2
EQIV $3 -x, -y, -z
HTAB O1 O2_$3
EQIV $4 x-1, y-1, z
HTAB O3 O4_$4
HTAB N1 O4_$1
HTAB N1 O1_$2
HTAB O1 O2_$3
HTAB O3 O4_$4
FMAP   2
PLAN   20
SIZE     0.160   0.160   0.170
ACTA
BOND   $H
CONF
L.S.   4
TEMP    23.00
WGHT    0.099200    0.611300
FVAR       0.54031
MOLE    1
C001  1    0.375327   -0.074924    0.199418    11.00000    0.04255    0.03259 =
         0.03379    0.01039    0.00437    0.00504
C002  1    0.872887    0.342748    0.368956    11.00000    0.04246    0.04058 =
         0.03252    0.01469   -0.00261   -0.00584
C004  1    1.137728    0.302461    0.205789    11.00000    0.05248    0.03009 =
         0.03527    0.00475    0.00022   -0.00146
AFIX  43
H004  2    1.235098    0.253750    0.151597    11.00000   -1.20000
AFIX   0
C006  1    0.371513   -0.181017    0.203168    11.00000    0.04732    0.02792 =
         0.03127    0.00631   -0.00231    0.00174
AFIX  43
H006  2    0.273275   -0.234453    0.149702    11.00000   -1.20000
AFIX   0
C008  1    0.516741   -0.205054    0.287979    11.00000    0.04798    0.03661 =
         0.03506    0.01196    0.00171    0.00292
C010  1    1.112832    0.407297    0.202141    11.00000    0.04139    0.03263 =
         0.02883    0.00734   -0.00313   -0.00195
C011  1    1.246939    0.446586    0.115389    11.00000    0.05153    0.03721 =
         0.03368    0.01246   -0.00196   -0.00194
C012  1    0.965651    0.479831    0.284258    11.00000    0.05115    0.02903 =
         0.03623    0.00661   -0.00118    0.00640
AFIX  43
H012  2    0.949848    0.550267    0.283056    11.00000   -1.20000
AFIX   0
C013  1    0.843416    0.447106    0.367326    11.00000    0.05021    0.03714 =
         0.03418    0.00548    0.00246    0.00507
AFIX  43
H013  2    0.742566    0.494996    0.421409    11.00000   -1.20000
AFIX   0
C014  1    0.217305   -0.046208    0.110826    11.00000    0.05632    0.02839 =
         0.03607    0.00995    0.00323    0.00246
C015  1    0.659842   -0.124841    0.369147    11.00000    0.05247    0.04564 =
         0.03725    0.01299   -0.00212    0.00407
AFIX  43
H015  2    0.753784   -0.141519    0.426124    11.00000   -1.20000
AFIX   0
C017  1    1.019396    0.269970    0.289019    11.00000    0.05217    0.03407 =
         0.04180    0.01197   -0.00066   -0.00130
AFIX  43
H017  2    1.038060    0.199937    0.291263    11.00000   -1.20000
AFIX   0
C018  1    0.661121   -0.020735    0.364365    11.00000    0.04951    0.04151 =
         0.04167    0.00389   -0.00626   -0.00103
AFIX  43
H018  2    0.757959    0.032701    0.418094    11.00000   -1.20000
AFIX   0
C019  1    0.519091    0.004744    0.280047    11.00000    0.05459    0.03031 =
         0.04579    0.00792    0.00080   -0.00124
AFIX  43
H019  2    0.519980    0.075099    0.277421    11.00000   -1.20000
AFIX   0
N1    3    1.282350    0.375584    0.025248    11.00000    0.09971    0.04012 =
         0.03011    0.00902    0.01141   -0.00861
AFIX  93
H1A   2    1.362703    0.395512   -0.025977    11.00000   -1.20000
H1B   2    1.224815    0.309905    0.018390    11.00000   -1.20000
AFIX   0
O1    4    0.081889   -0.121685    0.036812    11.00000    0.09807    0.03423 =
         0.03718    0.01146   -0.01561   -0.00582
AFIX 147
H1    2   -0.008104   -0.096003   -0.005619    11.00000   -1.50000
AFIX   0
O2    4    0.221997    0.048891    0.107920    11.00000    0.10284    0.02868 =
         0.05078    0.01311   -0.01823   -0.00170
O3    4    0.526350   -0.305737    0.297845    11.00000    0.09951    0.03759 =
         0.04374    0.01761   -0.01273    0.00397
AFIX 147
H3    2    0.453617   -0.347643    0.244740    11.00000   -1.50000
AFIX   0
O4    4    1.328945    0.541997    0.126686    11.00000    0.09049    0.03509 =
         0.03779    0.01422    0.00581   -0.00337
CL1   5    0.725056    0.302373    0.474324    11.00000    0.07214    0.06144 =
         0.04333    0.02628    0.00827   -0.00592
HKLF    4

REM  dataP-1 in P-1
REM R1 =  0.0802 for    2045 Fo > 4sig(Fo)  and  0.0980 for all    2608 data
REM    183 parameters refined using      0 restraints

END

WGHT      0.0976      0.6737

REM Highest difference peak  0.466,  deepest hole -0.411,  1-sigma level  0.101
Q1    1   0.4699  0.3007  0.4757  11.00000  0.05    0.47
Q2    1   0.9840  0.3043  0.4775  11.00000  0.05    0.44
Q3    1   1.2239  0.0428  0.4192  11.00000  0.05    0.32
Q4    1   0.1513 -0.2999  0.2997  11.00000  0.05    0.31
Q5    1   0.9783 -0.0134  0.3609  11.00000  0.05    0.31
Q6    1   1.5381  0.3872  0.0265  11.00000  0.05    0.30
Q7    1   1.3402  0.2683  0.2942  11.00000  0.05    0.29
Q8    1   0.0734 -0.1925  0.2929  11.00000  0.05    0.28
Q9    1   0.1523  0.0043  0.2783  11.00000  0.05    0.28
Q10   1   0.8388 -0.2150  0.2875  11.00000  0.05    0.27
Q11   1   1.4204  0.4068  0.1970  11.00000  0.05    0.26
Q12   1   1.0269 -0.1233  0.3409  11.00000  0.05    0.26
Q13   1   0.5117  0.0892  0.4405  11.00000  0.05    0.25
Q14   1   0.9023 -0.3062  0.2989  11.00000  0.05    0.25
Q15   1   0.9023  0.0137  0.2877  11.00000  0.05    0.25
Q16   1   1.0758  0.5482  0.1211  11.00000  0.05    0.25
Q17   1   0.9940  0.4454  0.1145  11.00000  0.05    0.25
Q18   1   0.4541 -0.1212  0.0330  11.00000  0.05    0.25
Q19   1   0.4937 -0.1400  0.3711  11.00000  0.05    0.24
Q20   1   0.6265 -0.0586  0.3663  11.00000  0.05    0.24
;
_shelx_res_checksum              13290
_shelx_hkl_file
;
   0   0  -1    0.09    0.10
   0   0   1   -0.12    0.05
   0   0  -1   -0.04    0.06
   0   0   1    0.03    0.05
   0   0  -2  335.69    6.50
   0   0   2  238.64    4.62
   0   0   2  277.99    5.31
   0   0  -3   19.85    1.23
   0   0   3   12.91    0.67
   0   0   3   15.52    0.67
   0   0  -4   12.58    2.46
   0   0   4    8.24    0.64
   0   0   4    9.96    2.22
   0   0  -5  236.52    5.68
   0   0   5  165.10    3.97
   0   0   5  204.70    4.68
   0   0  -6   79.55    4.26
   0   0   6   53.09    2.86
   0   0   6   67.47    3.46
   0   0  -7    0.85    0.61
   0   0   7    0.30    0.28
   0   0   7    0.10    0.20
   0   0  -8   80.94    4.67
   0   0   8   59.09    3.38
   0   0   8   83.43    4.94
   0   0  -9    1.10    0.78
   0   0   9    0.61    0.38
   0   0   9    0.21    0.21
   0   0 -10  138.00    9.07
   0   0  10   92.74    6.07
   0   0  10  128.11    8.09
   0   0 -11   55.62    3.77
   0   0  11   35.80    2.31
   0   0  11   55.55    3.44
   0   0 -12  460.76   80.76
   0   0  12  304.49   19.30
   0   0  12  464.02   28.96
   0   0 -13   36.44    3.01
   0   0  13   26.56    2.24
   0   0  13   35.31    2.36
   0   0 -14    0.99    0.82
   0   0  14    1.47    0.71
   0   0  14    2.73    0.90
   0   0 -15    1.05    0.93
   0   0  15    0.90    0.73
   0   0  15    1.74    0.82
   0   0 -16    6.34    1.90
   0   0 -17    1.61    1.06
   0   0 -18    8.55    2.25
   0   0 -19    1.95    1.29
   0   0 -20    2.08    1.59
   0   1 -20    2.94    1.48
   0   1 -19    2.57    1.38
   0   1 -18    1.56    1.14
   0   1 -17    2.06    1.43
   0   1 -16    1.65    1.38
   0   1 -15   -0.32    0.88
   0  -1  15    1.23    0.66
   0  -1  15    0.62    0.51
   0   1 -14    5.81    1.50
   0  -1  14    7.79    1.41
   0  -1  14    9.28    1.37
   0   1 -13    5.62    1.37
   0  -1  13    3.43    0.94
   0  -1  13    4.63    1.23
   0   1 -12    0.90    0.98
   0  -1  12   -0.05    0.43
   0  -1  12    1.14    0.51
   0   1 -11   54.06    4.07
   0  -1  11   36.94    2.71
   0  -1  11   55.29    7.25
   0   1 -10   41.20    3.57
   0  -1  10   24.20    2.18
   0  -1  10   37.03    4.64
   0   1  -9   92.26    5.36
   0  -1   9   59.87    3.52
   0  -1   9   80.22    4.32
   0   1  -8  260.14   12.94
   0  -1   8  178.73    8.92
   0  -1   8  209.66   10.95
   0   1  -7    0.15    0.37
   0  -1   7    0.19    0.35
   0  -1   7    0.28    0.20
   0   1  -6  166.02    7.88
   0  -1   6  119.00    5.69
   0  -1   6  127.82    6.05
   0   1  -5  125.77    6.01
   0  -1   5   89.35    4.33
   0  -1   5   94.20    4.42
   0   1  -4  416.18    8.49
   0  -1   4  311.70    6.46
   0  -1   4  303.56    6.07
   0   1  -3  327.48    6.63
   0  -1   3  255.99    5.27
   0   1  -3  219.60    4.40
   0   1  -2   40.96    1.03
   0  -1   2   34.96    0.91
   0   1  -2   26.30    0.63
   0  -1   1   -0.14    0.08
   0   1  -1    0.03    0.06
   0  -1   1    0.02    0.09
   0   1  -1   -0.45    0.12
   0  -1   1    0.36    0.12
   0   1  -1   -0.10    0.07
   0  -1   0   -0.05    0.05
   0   1   0    0.22    0.07
   0   1   0    0.04    0.05
   0  -1   0    0.02    0.05
   0  -1   0   -0.19    0.09
   0   1   0   -0.02    0.06
   0  -1  -1    0.18    0.14
   0   1   1    0.56    0.09
   0   1   1    0.60    0.15
   0  -1  -2    4.68    1.09
   0   1   2    3.41    0.30
   0   1   2    5.08    1.32
   0  -1  -3   24.12    1.10
   0   1   3   17.10    0.73
   0   1   3   23.66    0.97
   0  -1  -4   70.33    3.63
   0   1   4   51.90    2.59
   0   1   4   69.87    3.72
   0  -1  -5   17.65    1.29
   0   1   5   11.62    0.76
   0   1   5   16.77    3.70
   0  -1  -6    7.25    1.06
   0   1   6    4.11    0.57
   0   1   6    7.72    1.96
   0  -1  -7   87.68    5.06
   0   1   7   61.30    3.47
   0   1   7   85.93    4.66
   0  -1  -8   53.94    3.63
   0   1   8   37.90    2.46
   0   1   8   53.29    2.81
   0  -1  -9   72.30    5.26
   0   1   9   51.42    3.67
   0   1   9   75.78    5.11
   0  -1 -10   24.92    3.09
   0   1  10   20.97    1.95
   0   1  10   29.41    5.22
   0  -1 -11    3.28    1.30
   0   1  11    4.96    1.00
   0   1  11    5.88    1.17
   0  -1 -12   21.57    2.49
   0   1  12   10.22    1.35
   0   1  12   19.79    1.77
   0  -1 -13   26.06    2.60
   0   1  13   25.39    2.17
   0   1  13   33.47    2.34
   0  -1 -14   -0.47    0.82
   0   1  14    0.03    0.40
   0   1  14    0.42    0.56
   0  -1 -16    0.83    0.90
   0  -1 -17    3.90    1.60
   0  -1 -18    0.54    1.00
   0  -1 -19    1.08    1.13
   0  -1 -20    1.07    1.19
   0   2 -20    0.05    0.87
   0   2 -19    0.58    1.01
   0   2 -18   25.14    3.19
   0   2 -17    6.17    1.58
   0   2 -16    9.12    2.14
   0  -2  16    4.73    1.13
   0   2 -15   13.75    2.26
   0  -2  15    9.33    1.41
   0   2 -14    2.25    1.09
   0  -2  14    1.36    0.77
   0  -2  14    2.23    0.49
   0   2 -13   29.44    2.63
   0  -2  13   21.94    1.86
   0  -2  13   26.52    5.46
   0   2 -12   20.41    2.08
   0  -2  12   15.30    1.52
   0  -2  12   18.76    3.15
   0   2 -11  131.12    7.61
   0  -2  11   95.13    5.55
   0  -2  11  111.01    6.09
   0   2 -10   17.66    2.11
   0  -2  10   11.08    1.25
   0  -2  10   11.55    2.98
   0   2  -9    7.36    1.47
   0  -2   9    3.74    0.81
   0  -2   9    5.01    0.93
   0   2  -8  431.91   20.68
   0  -2   8  307.17   14.79
   0  -2   8  334.62   15.85
   0   2  -7  168.45    8.55
   0  -2   7  128.12    6.59
   0  -2   7  130.10    6.45
   0   2  -6 1731.94   32.10
   0  -2   6 1338.05   25.05
   0  -2   6 1253.99   23.03
   0   2  -5  101.04    4.99
   0  -2   5   73.70    3.73
   0   2  -5   63.97    3.11
   0   2  -4  745.25   14.20
   0  -2   4  628.35   12.18
   0   2  -4  475.96    9.07
   0   2  -3   76.04    3.60
   0  -2   3   65.98    3.22
   0   2  -3   47.89    2.29
   0   2  -2    4.46    0.87
   0  -2   2    5.08    0.90
   0   2  -2    2.77    0.30
   0  -2   1   28.28    0.68
   0  -2   1   40.00    1.02
   0   2  -1   31.29    0.83
   0  -2   0   98.10    4.32
   0  -2   0  133.92    5.90
   0   2   0  135.98    6.03
   0  -2  -1 2663.18   46.98
   0  -2  -1 2826.86   49.74
   0   2   1 3578.34   63.09
   0  -2  -2   60.32    2.97
   0   2   2   44.97    2.19
   0   2   2   68.56    3.34
   0  -2  -3  160.76    7.34
   0   2   3  118.76    5.36
   0   2   3  182.78    8.27
   0  -2  -4 1542.70   28.48
   0   2   4 1134.98   20.75
   0   2   4 1775.79   32.48
   0  -2  -5   28.84    1.57
   0   2   5   20.05    1.08
   0   2   5   31.43    1.61
   0  -2  -6  132.52    6.93
   0   2   6   92.22    4.76
   0   2   6  142.05    7.33
   0  -2  -7  192.39    9.80
   0   2   7  137.55    6.89
   0   2   7  208.90   10.37
   0  -2  -8   26.65    2.19
   0   2   8   18.35    1.33
   0   2   8   30.01    2.08
   0  -2  -9  167.33   10.69
   0   2   9  113.98    7.16
   0   2   9  180.69   11.18
   0  -2 -10   18.09    2.58
   0   2  10   10.91    1.48
   0   2  10   20.34    2.52
   0  -2 -11  144.84   10.20
   0   2  11   97.12    6.69
   0   2  11  160.22   10.72
   0  -2 -12    7.00    1.50
   0   2  12    5.82    0.97
   0   2  12    7.60    1.30
   0  -2 -13   55.11    4.77
   0   2  13   35.77    2.99
   0   2  13   53.83    4.21
   0  -2 -14    2.28    1.35
   0   2  14    1.60    0.76
   0  -2 -15    2.94    1.43
   0   2  15    0.82    0.56
   0  -2 -16    6.40    1.87
   0  -2 -17    2.97    1.56
   0  -2 -18    0.28    0.92
   0  -2 -19    1.03    1.04
   0   3 -20    4.07    1.82
   0   3 -19    7.42    2.13
   0   3 -18    2.34    1.19
   0   3 -17    0.48    0.92
   0   3 -16    5.73    1.69
   0  -3  16    3.19    1.06
   0   3 -15    2.28    1.37
   0  -3  15    0.09    0.52
   0   3 -14    4.62    1.57
   0  -3  14    1.62    0.82
   0  -3  14    0.74    0.37
   0   3 -13    4.40    1.26
   0  -3  13    2.90    0.84
   0  -3  13    2.72    0.74
   0   3 -12   10.28    1.52
   0  -3  12    6.94    1.16
   0  -3  12    9.47    1.62
   0   3 -11    9.87    1.77
   0  -3  11    5.76    1.17
   0  -3  11    4.87    1.64
   0   3 -10   52.83    7.87
   0  -3  10   28.48    2.51
   0  -3  10   29.94    3.95
   0   3  -9   48.28    3.00
   0  -3   9   37.66    2.44
   0  -3   9   36.32    2.03
   0   3  -8   49.92    4.15
   0  -3   8   33.98    2.95
   0  -3   8   33.99    2.73
   0   3  -7  249.57   12.23
   0  -3   7  183.01    9.14
   0   3  -7  153.70    7.52
   0   3  -6   40.37    1.87
   0  -3   6   28.38    2.06
   0   3  -6   25.41    1.15
   0   3  -5  209.59    9.51
   0  -3   5  165.42    7.72
   0   3  -5  130.07    5.93
   0   3  -4  498.30    9.88
   0  -3   4  454.78    9.34
   0   3  -4  327.69    6.59
   0   3  -3   89.17    4.17
   0  -3   3   98.45    4.68
   0   3  -3   72.25    3.41
   0   3  -2   64.05    3.00
   0  -3   2   84.91    4.05
   0   3  -2   61.16    2.96
   0  -3   1  161.86    3.39
   0  -3   1  253.91    5.33
   0   3  -1  210.42    4.52
   0  -3   0  364.96    6.99
   0  -3   0  534.57   10.15
   0   3   0  524.59   10.16
   0  -3  -1  188.34    4.10
   0  -3  -1  223.23    4.69
   0   3   1  268.90    5.82
   0  -3  -2   54.99    2.79
   0  -3  -2   55.10    2.69
   0   3   2   72.85    3.66
   0  -3  -3    6.39    0.72
   0   3   3    4.36    0.46
   0   3   3    6.83    0.76
   0  -3  -4    0.65    0.48
   0   3   4    1.09    0.34
   0   3   4    1.42    0.45
   0  -3  -5   13.29    1.13
   0   3   5    8.38    0.70
   0   3   5   13.50    1.13
   0  -3  -6   19.90    2.07
   0   3   6   14.85    1.42
   0   3   6   21.10    2.06
   0  -3  -7    2.42    0.78
   0   3   7    0.69    0.33
   0   3   7    1.37    0.60
   0  -3  -8    0.78    0.92
   0   3   8    0.15    0.32
   0   3   8    0.94    0.61
   0  -3  -9   25.48    3.14
   0   3   9   20.61    3.69
   0   3   9   32.40    2.62
   0  -3 -10    1.00    0.90
   0   3  10    0.59    0.42
   0   3  10    0.74    0.93
   0  -3 -11   13.24    1.91
   0   3  11    7.84    1.08
   0   3  11   15.06    1.65
   0  -3 -12    8.11    2.09
   0   3  12    4.19    1.19
   0   3  12    5.75    1.55
   0  -3 -13    4.38    1.62
   0   3  13    4.63    1.10
   0  -3 -14    9.35    1.77
   0   3  14   10.86    1.56
   0  -3 -15   -1.02    0.82
   0   3  15    1.60    1.22
   0  -3 -16    2.40    1.15
   0  -3 -17    2.47    1.69
   0  -3 -18    1.11    1.09
   0  -3 -19   -0.33    0.93
   0   4 -20    1.19    1.12
   0   4 -19    0.99    1.01
   0   4 -18    2.60    1.50
   0   4 -17   24.58    4.24
   0  -4  17   13.72    1.95
   0   4 -16    0.88    0.98
   0  -4  16    1.14    0.59
   0   4 -15   29.52    2.75
   0  -4  15   24.21    2.40
   0   4 -14    2.19    0.90
   0  -4  14    0.58    0.62
   0  -4  14    2.05    0.52
   0   4 -13   15.29    1.91
   0  -4  13   11.90    1.77
   0  -4  13   11.63    2.33
   0   4 -12   51.11    4.48
   0  -4  12   37.42    3.33
   0  -4  12   32.12    3.36
   0   4 -11   86.46    5.46
   0  -4  11   67.52    4.41
   0  -4  11   57.27    7.54
   0   4 -10    0.69    0.68
   0  -4  10    0.12    0.51
   0  -4  10    0.15    0.18
   0   4  -9   59.12    3.31
   0  -4   9   44.68    3.02
   0  -4   9   35.48    2.00
   0   4  -8   28.99    2.80
   0  -4   8   20.63    2.08
   0   4  -8   17.58    1.64
   0   4  -7  441.03   20.86
   0  -4   7  352.15   16.90
   0   4  -7  265.54   12.60
   0   4  -6  414.11    9.01
   0  -4   6  366.82    8.38
   0   4  -6  262.91    5.79
   0   4  -5  442.06    9.20
   0  -4   5  411.11    8.96
   0   4  -5  299.60    6.35
   0   4  -4  318.67    6.97
   0  -4   4  336.50    7.46
   0   4  -4  233.27    5.12
   0   4  -3    1.37    0.27
   0  -4   3    1.27    0.38
   0   4  -3    1.54    0.42
   0   4  -2  183.89    4.00
   0  -4   2  252.12    5.69
   0   4  -2  192.47    4.42
   0  -4   1   83.78    3.88
   0  -4   1  123.54    5.86
   0   4  -1  106.70    5.04
   0  -4   0   65.60    3.13
   0  -4   0   93.91    4.54
   0   4   0   92.73    4.51
   0  -4  -1  189.85    4.28
   0  -4  -1  240.52    5.24
   0   4   1  259.94    5.95
   0  -4  -2  384.53    7.97
   0  -4  -2  417.81    8.39
   0   4   2  527.99   10.89
   0  -4  -3  153.83    7.19
   0  -4  -3  150.40    6.86
   0   4   3  207.89    9.62
   0  -4  -4   18.47    1.25
   0  -4  -4   18.49    1.01
   0   4   4   24.41    1.49
   0  -4  -5  864.79   33.56
   0   4   5  692.94   26.68
   0   4   5 1100.46   42.45
   0  -4  -6    6.94    1.07
   0   4   6    5.75    0.76
   0   4   6    8.27    1.17
   0  -4  -7   29.79    2.27
   0   4   7   17.13    1.35
   0   4   7   29.69    2.15
   0  -4  -8   43.83    3.62
   0   4   8   31.09    2.48
   0   4   8   46.12    3.59
   0  -4  -9   30.02    2.51
   0   4   9   21.94    1.68
   0   4   9   37.79    2.62
   0  -4 -10   27.69    2.90
   0   4  10   20.21    3.82
   0   4  10   30.80    2.90
   0  -4 -11    0.99    0.86
   0   4  11   -0.13    0.30
   0   4  11    0.33    0.36
   0  -4 -12    4.96    1.41
   0   4  12    6.23    1.29
   0  -4 -13    0.29    0.82
   0   4  13    2.07    1.19
   0  -4 -14   17.64    2.48
   0   4  14   17.93    2.31
   0  -4 -15    3.76    1.57
   0   4  15    4.09    1.51
   0  -4 -16    0.24    0.78
   0  -4 -17   10.09    2.68
   0  -4 -18    1.59    1.18
   0   5 -20    1.52    1.40
   0   5 -19    1.12    1.01
   0   5 -18    4.77    1.54
   0   5 -17   23.83    2.93
   0  -5  17   13.64    1.91
   0   5 -16    0.94    0.77
   0  -5  16    0.85    0.71
   0   5 -15    1.35    1.40
   0  -5  15    0.66    0.67
   0   5 -14    9.33    1.70
   0  -5  14   11.05    1.83
   0   5 -13   22.32    2.27
   0  -5  13   17.44    1.76
   0  -5  13   14.91    2.33
   0   5 -12   42.77    7.90
   0  -5  12   24.75    2.66
   0  -5  12   18.35    5.05
   0   5 -11    6.19    1.16
   0  -5  11    4.00    0.95
   0  -5  11    3.13    0.61
   0   5 -10    4.80    0.97
   0  -5  10    3.83    0.92
   0   5 -10    3.09    0.65
   0   5  -9    2.80    0.65
   0  -5   9    1.63    0.59
   0   5  -9    0.98    0.39
   0   5  -8    4.59    0.82
   0  -5   8    3.82    0.96
   0   5  -8    3.95    0.65
   0   5  -7   -0.04    0.47
   0  -5   7    0.51    0.52
   0   5  -7    0.24    0.34
   0   5  -6   85.73    4.83
   0  -5   6   81.83    4.70
   0   5  -6   59.76    3.28
   0   5  -5  305.83    6.82
   0  -5   5  297.80    7.23
   0   5  -5  210.83    4.97
   0   5  -4    4.82    1.05
   0  -5   4    5.30    1.10
   0   5  -4    2.86    0.48
   0   5  -3   17.67    2.78
   0  -5   3   22.21    1.35
   0   5  -3   15.94    0.99
   0  -5   2  163.28    3.77
   0  -5   2  246.28    5.84
   0   5  -2  195.10    4.77
   0  -5   1  316.17    6.46
   0  -5   1  500.52   10.21
   0   5  -1  433.46    9.13
   0  -5   0  228.71    5.00
   0  -5   0  343.27    7.36
   0   5   0  317.04    7.16
   0  -5  -1   11.54    0.78
   0  -5  -1   18.00    3.53
   0   5   1   19.92    3.01
   0  -5  -2   25.61    1.27
   0  -5  -2   31.99    2.26
   0   5   2   35.98    1.76
   0  -5  -3   36.03    2.94
   0  -5  -3   43.13    3.32
   0   5   3   48.65    3.93
   0  -5  -4  120.49    6.33
   0  -5  -4  116.33    5.87
   0   5   4  162.04    8.37
   0  -5  -5    9.94    1.28
   0  -5  -5    8.89    0.91
   0   5   5   11.70    1.41
   0  -5  -6    5.82    0.95
   0  -5  -6    6.56    0.87
   0   5   6    5.59    0.92
   0  -5  -7    4.27    0.91
   0   5   7    5.09    0.99
   0  -5  -8    1.34    0.94
   0   5   8    0.93    0.51
   0   5   8    0.16    0.60
   0  -5  -9   16.89    1.95
   0   5   9   11.65    1.17
   0   5   9   16.86    1.73
   0  -5 -10    2.99    1.26
   0   5  10    0.56    0.38
   0   5  10    2.18    0.99
   0  -5 -11    0.87    0.78
   0   5  11    0.83    0.76
   0  -5 -12    0.54    0.69
   0   5  12    1.61    0.72
   0  -5 -13    0.44    0.72
   0   5  13    2.09    0.95
   0  -5 -14    0.35    0.72
   0   5  14    0.18    0.70
   0  -5 -15   -0.44    0.72
   0   5  15    0.89    0.77
   0  -5 -16    1.86    1.30
   0  -5 -17   -0.53    0.89
   0   6 -20    3.20    1.58
   0   6 -19    0.95    0.93
   0   6 -18    0.18    0.87
   0  -6  18    0.51    0.81
   0   6 -17    4.52    1.84
   0  -6  17    1.55    0.97
   0   6 -16    1.41    0.97
   0  -6  16    1.42    0.80
   0   6 -15   13.59    2.17
   0  -6  15   12.75    1.82
   0   6 -14   39.35    3.75
   0  -6  14   29.58    3.02
   0   6 -13    3.37    1.45
   0  -6  13    1.85    0.96
   0  -6  13    0.68    0.43
   0   6 -12    5.90    1.22
   0  -6  12    3.27    1.02
   0  -6  12    1.88    0.49
   0   6 -11    5.24    1.11
   0  -6  11    2.31    0.84
   0   6 -11    2.41    0.72
   0   6 -10  149.55    8.21
   0  -6  10  108.92    6.58
   0   6 -10   88.63    4.88
   0   6  -9   21.18    2.03
   0  -6   9   15.04    2.82
   0   6  -9   12.83    1.14
   0   6  -8  270.95   12.92
   0  -6   8  234.11   11.51
   0   6  -8  170.28    8.20
   0   6  -7    8.76    1.99
   0  -6   7    8.72    1.88
   0   6  -7    7.77    0.85
   0   6  -6   90.69    4.86
   0  -6   6   91.80    5.17
   0   6  -6   64.02    3.55
   0   6  -5   76.07    4.08
   0  -6   5   82.66    4.71
   0   6  -5   56.95    3.22
   0   6  -4  385.30    8.25
   0  -6   4  478.19   10.47
   0   6  -4  330.24    7.36
   0   6  -3  243.04    5.43
   0  -6   3  325.77    7.60
   0   6  -3  239.72    5.79
   0  -6   2   43.05    2.31
   0  -6   2   67.30    3.68
   0   6  -2   53.92    3.03
   0  -6   1  252.57    5.52
   0  -6   1  403.89    8.79
   0   6  -1  356.73    8.11
   0  -6   0   38.28    2.16
   0  -6   0   56.75    3.23
   0   6   0   53.84    3.14
   0  -6  -1   63.21    3.28
   0  -6  -1   90.17    4.52
   0   6   1   92.34    4.85
   0  -6  -2   56.25    3.20
   0  -6  -2   78.78    4.23
   0   6   2   85.65    4.90
   0  -6  -3    2.68    0.58
   0  -6  -3    3.42    0.61
   0   6   3    5.27    1.02
   0  -6  -4   25.13    1.83
   0  -6  -4   34.11    3.89
   0   6   4   42.71    8.22
   0  -6  -5    2.17    0.68
   0  -6  -5    2.02    0.50
   0   6   5    2.89    0.94
   0  -6  -6   17.31    1.73
   0  -6  -6   14.29    2.54
   0   6   6   20.81    3.30
   0  -6  -7    1.11    0.54
   0  -6  -7    0.68    0.33
   0   6   7    2.43    0.81
   0  -6  -8   33.25    2.61
   0  -6  -8   27.50    1.80
   0   6   8   39.93    2.90
   0  -6  -9   10.62    1.56
   0  -6  -9   12.19    1.19
   0   6   9   19.67    5.19
   0  -6 -10   44.15    3.23
   0   6  10   55.51    3.31
   0  -6 -11   13.07    2.00
   0   6  11   15.42    2.00
   0  -6 -12    3.43    1.11
   0   6  12    5.18    1.30
   0  -6 -13    1.63    1.07
   0   6  13    1.01    0.53
   0  -6 -14    3.58    1.51
   0   6  14    0.94    0.82
   0  -6 -15    0.85    0.85
   0   6  15    1.69    0.89
   0  -6 -16    0.91    1.26
   0  -6 -17    0.06    0.90
   0   7 -20    1.56    1.12
   0   7 -19   10.07    2.28
   0   7 -18   14.79    2.53
   0  -7  18    9.44    1.71
   0   7 -17    3.26    1.58
   0  -7  17    5.38    1.53
   0   7 -16   13.73    2.00
   0  -7  16   10.29    1.88
   0   7 -15    6.17    1.59
   0  -7  15    2.51    1.12
   0   7 -14    1.80    1.01
   0  -7  14    2.46    1.00
   0   7 -13   34.29    7.02
   0  -7  13   25.38    2.25
   0   7 -12   43.50    2.83
   0  -7  12   30.73    2.61
   0   7 -12   23.75    1.56
   0  -7  11    0.13    0.70
   0   7 -11    0.67    0.52
   0   7 -10   77.54    4.88
   0  -7  10   64.05    4.41
   0   7 -10   49.23    3.11
   0   7  -9   44.32    3.49
   0  -7   9   39.41    7.33
   0   7  -9   27.53    2.25
   0   7  -8   32.63    6.35
   0  -7   8   24.65    2.16
   0   7  -8   14.85    1.26
   0   7  -7    2.65    0.49
   0  -7   7    2.16    0.68
   0   7  -7    1.77    0.56
   0   7  -6   52.19    2.74
   0  -7   6   66.26    5.87
   0   7  -6   37.96    2.20
   0   7  -5    0.24    0.25
   0  -7   5   -0.24    0.68
   0   7  -5    0.24    0.38
   0   7  -4    8.53    1.64
   0  -7   4    9.89    1.34
   0   7  -4    6.23    0.97
   0   7  -3   73.60    3.89
   0  -7   3   90.29    5.01
   0   7  -3   71.41    4.05
   0  -7   2    5.18    0.71
   0  -7   2    9.24    1.28
   0   7  -2    7.43    1.00
   0  -7   1  113.39    5.69
   0  -7   1  191.04    9.53
   0   7  -1  166.93    8.49
   0  -7   0  111.13    5.66
   0  -7   0  164.32    8.48
   0   7   0  155.15    8.03
   0  -7  -1   25.16    2.17
   0  -7  -1   37.32    6.37
   0   7   1   29.29    2.73
   0  -7  -2   25.17    1.68
   0  -7  -2   36.20    5.91
   0   7   2   35.15    2.46
   0  -7  -3   54.64    3.25
   0  -7  -3   64.18    3.82
   0   7   3   75.52    4.52
   0  -7  -4    8.84    1.12
   0  -7  -4   10.18    1.90
   0   7   4   17.26    3.41
   0  -7  -5   27.05    2.38
   0  -7  -5   29.48    5.32
   0   7   5   34.06    2.63
   0  -7  -6    1.92    0.82
   0  -7  -6    1.76    0.37
   0   7   6    3.14    0.86
   0  -7  -7    5.05    1.13
   0  -7  -7    3.60    1.24
   0   7   7    6.66    2.18
   0  -7  -8   12.95    1.75
   0  -7  -8    6.96    1.40
   0   7   8   15.71    3.97
   0  -7  -9   18.98    1.99
   0   7   9   30.34    8.67
   0  -7 -10    6.93    1.64
   0   7  10    6.73    1.73
   0  -7 -11   -0.15    0.67
   0   7  11    1.21    0.85
   0  -7 -12    1.00    1.00
   0   7  12    2.80    0.93
   0  -7 -13    2.22    1.17
   0   7  13    2.43    0.93
   0  -7 -14    2.56    1.17
   0   7  14    0.50    0.80
   0  -7 -15    0.28    0.81
   0  -7 -16    0.08    0.79
   0   8 -19   12.48    2.15
   0   8 -18    4.88    1.76
   0  -8  18    1.58    1.13
   0   8 -17    9.74    3.24
   0  -8  17    9.34    1.93
   0   8 -16    0.56    0.63
   0  -8  16    1.17    0.83
   0   8 -15    6.32    1.27
   0  -8  15    7.28    1.55
   0   8 -14   10.06    1.98
   0  -8  14    8.20    1.57
   0   8 -13    1.63    1.02
   0  -8  13    0.18    0.67
   0   8 -12    3.36    1.05
   0  -8  12    3.60    1.20
   0   8 -12    1.11    0.47
   0   8 -11   22.18    4.29
   0  -8  11   13.09    1.80
   0   8 -11    9.37    1.12
   0   8 -10   95.09    4.77
   0  -8  10   66.88    4.14
   0   8 -10   50.34    2.69
   0   8  -9   92.84    5.47
   0  -8   9   86.23    5.49
   0   8  -9   54.73    3.40
   0   8  -8    9.61    1.80
   0  -8   8    6.77    1.13
   0   8  -8    4.89    0.73
   0   8  -7  110.40    7.46
   0  -8   7  108.85    7.30
   0   8  -7   76.05    5.07
   0   8  -6   69.23    7.71
   0  -8   6   66.84    4.21
   0   8  -6   47.64    2.98
   0   8  -5  285.30   13.30
   0  -8   5  357.70   16.92
   0   8  -5  247.31   11.79
   0   8  -4    4.81    1.08
   0  -8   4    7.01    1.11
   0   8  -4    6.90    1.07
   0   8  -3  270.91   12.55
   0  -8   3  379.53   17.77
   0   8  -3  291.67   13.82
   0  -8   2  159.18    7.61
   0  -8   2  252.99   12.18
   0   8  -2  197.96    9.76
   0  -8   1   46.02    2.65
   0  -8   1   77.40    4.40
   0   8  -1   62.38    3.81
   0  -8   0  131.76    6.48
   0  -8   0  212.66   10.32
   0   8   0  184.54    9.29
   0  -8  -1    0.67    0.31
   0  -8  -1    0.52    0.30
   0   8   1    1.03    0.88
   0  -8  -2   11.70    1.14
   0  -8  -2   17.15    3.65
   0   8   2   16.02    1.72
   0  -8  -3  229.78   13.84
   0  -8  -3  299.46   17.78
   0   8   3  297.90   18.07
   0  -8  -4   37.46    3.03
   0  -8  -4   45.11    7.56
   0   8   4   48.41    3.93
   0  -8  -5    1.87    0.79
   0  -8  -5    1.36    0.36
   0   8   5    3.14    1.12
   0  -8  -6    6.23    1.17
   0  -8  -6    4.98    1.34
   0   8   6    7.47    1.54
   0  -8  -7    0.11    0.63
   0  -8  -7    0.14    0.19
   0   8   7    0.39    0.68
   0  -8  -8    0.92    1.08
   0  -8  -8    0.10    0.30
   0   8   8    0.92    0.39
   0  -8  -9    5.77    1.32
   0   8   9    7.27    2.66
   0  -8 -10   25.98    2.58
   0   8  10   37.68    7.68
   0  -8 -11    2.36    0.98
   0   8  11    5.97    1.57
   0  -8 -12    3.47    1.07
   0   8  12    4.98    1.44
   0  -8 -13    0.38    0.86
   0   8  13    0.35    0.81
   0  -8 -14    3.48    1.44
   0   8  14    4.43    1.56
   0  -8 -15    5.93    2.03
   0   9 -19    2.13    1.18
   0   9 -18    5.81    1.66
   0  -9  18    1.99    1.06
   0   9 -17    0.44    0.73
   0  -9  17    2.11    1.41
   0   9 -16    6.74    1.62
   0  -9  16    5.42    1.46
   0   9 -15    5.29    1.90
   0  -9  15    4.94    1.37
   0   9 -14   43.05    3.09
   0  -9  14   30.87    2.91
   0   9 -13   14.37    1.89
   0  -9  13   14.66    2.19
   0   9 -12    4.53    1.29
   0  -9  12    8.45    2.43
   0   9 -12    5.35    1.35
   0   9 -11    1.83    0.91
   0  -9  11    2.16    0.96
   0   9 -11    0.97    0.46
   0   9 -10   26.66    2.02
   0  -9  10   22.96    2.21
   0   9 -10   15.89    1.35
   0   9  -9  269.01   10.00
   0  -9   9  232.25    9.54
   0   9  -9  166.58    6.54
   0   9  -8  347.47   17.17
   0  -9   8  334.68   17.13
   0   9  -8  226.98   11.53
   0   9  -7    8.67    1.59
   0  -9   7    6.53    1.42
   0   9  -7    4.65    0.79
   0   9  -6    0.44    0.32
   0  -9   6    0.00    0.73
   0   9  -6    1.20    0.53
   0   9  -5   -0.03    0.29
   0  -9   5    0.24    0.62
   0   9  -5    0.07    0.45
   0   9  -4   10.84    2.41
   0  -9   4   13.19    1.48
   0   9  -4   11.58    1.33
   0   9  -3    2.85    0.40
   0  -9   3    6.15    1.49
   0   9  -3    2.75    0.66
   0  -9   2    2.68    0.51
   0  -9   2    4.27    0.96
   0   9  -2    3.90    0.88
   0  -9   1    0.24    0.31
   0  -9   1   -0.24    0.54
   0   9  -1   -0.36    0.54
   0  -9   0    1.78    0.47
   0  -9   0    2.62    0.66
   0   9   0    1.51    0.73
   0  -9  -1   25.15    2.10
   0  -9  -1   32.18    6.33
   0   9   1   29.26    2.37
   0  -9  -2    3.39    0.74
   0  -9  -2    5.08    1.33
   0   9   2    5.96    1.14
   0  -9  -3  134.59    7.28
   0  -9  -3  191.83    9.97
   0   9   3  188.31   10.27
   0  -9  -4   89.73    4.27
   0  -9  -4  117.33    5.00
   0   9   4  119.06    5.85
   0  -9  -5    0.79    0.67
   0  -9  -5   -0.12    0.37
   0   9   5    0.75    0.88
   0  -9  -6    5.69    1.17
   0  -9  -6    5.43    0.85
   0   9   6    9.10    1.59
   0  -9  -7    2.28    0.95
   0  -9  -7    0.71    0.37
   0   9   7    1.44    1.01
   0  -9  -8    3.14    1.00
   0   9   8    3.58    0.97
   0  -9  -9    3.54    1.26
   0   9   9    3.39    1.41
   0  -9 -10   10.07    1.81
   0   9  10   16.04    2.99
   0  -9 -11    0.76    0.80
   0   9  11    2.35    1.19
   0  -9 -12    4.40    1.53
   0   9  12    5.37    1.48
   0  -9 -13    1.81    0.98
   0   9  13    5.17    1.68
   0   9  14    1.61    1.46
   0  10 -18   13.67    2.21
   0 -10  18   11.38    2.15
   0  10 -17    3.19    1.47
   0 -10  17    1.94    1.06
   0  10 -16    6.84    1.76
   0 -10  16    4.46    1.53
   0  10 -15    8.23    2.10
   0 -10  15    4.67    1.50
   0  10 -14    9.19    1.58
   0 -10  14    9.00    1.82
   0  10 -13   14.92    1.82
   0 -10  13    8.10    1.44
   0  10 -12   14.64    2.40
   0 -10  12   13.68    2.05
   0  10 -11    1.83    0.81
   0 -10  11    0.83    0.68
   0  10 -11    0.21    0.38
   0  10 -10   15.05    1.66
   0 -10  10   12.06    1.66
   0  10 -10    8.81    1.11
   0  10  -9  121.36    8.73
   0 -10   9  110.29   13.63
   0  10  -9   80.90    5.76
   0  10  -8  387.31   13.84
   0 -10   8  390.42    8.69
   0  10  -8  271.43    5.57
   0  10  -7    7.63    2.06
   0 -10   7   10.30    1.77
   0  10  -7    6.41    1.14
   0  10  -6   41.39    5.17
   0 -10   6   49.88    3.93
   0  10  -6   32.60    2.52
   0  10  -5    6.49    1.19
   0 -10   5    7.90    1.19
   0  10  -5    6.39    1.25
   0  10  -4   63.57    4.24
   0 -10   4   78.24    5.55
   0  10  -4   58.69    4.32
   0 -10   3    1.72    0.78
   0  10  -3    1.52    0.80
   0 -10   2    6.15    0.79
   0 -10   2   11.15    1.87
   0  10  -2    8.78    1.29
   0 -10   1   68.84    4.56
   0 -10   1  117.40    7.70
   0  10  -1   96.74    6.69
   0 -10   0   12.37    1.63
   0 -10   0   19.51    2.50
   0  10   0   17.78    4.32
   0 -10  -1   26.60    2.10
   0 -10  -1   43.60    3.17
   0  10   1   38.36    3.13
   0 -10  -2   45.06    2.67
   0 -10  -2   71.68   10.18
   0  10   2   72.37    4.30
   0 -10  -3    0.38    0.49
   0 -10  -3    2.41    0.76
   0  10   3    2.93    1.18
   0 -10  -4  358.40   62.31
   0 -10  -4  456.30   30.77
   0  10   4  499.42   31.70
   0 -10  -5    4.58    0.96
   0 -10  -5    6.87    1.01
   0  10   5   11.35    1.87
   0 -10  -6    2.45    0.84
   0 -10  -6    2.62    0.74
   0  10   6    5.55    1.56
   0 -10  -7    1.71    0.87
   0  10   7    1.04    0.98
   0 -10  -8    0.83    0.70
   0  10   8    0.57    0.78
   0 -10  -9    1.19    0.95
   0  10   9    0.87    1.18
   0 -10 -10    0.94    0.95
   0  10  10    0.55    0.91
   0 -10 -11    0.95    0.76
   0  10  11    0.81    0.99
   0 -10 -12    0.82    0.80
   0  10  12    1.05    1.39
   0  10  13    1.92    1.50
   0 -11  18    1.41    1.05
   0  11 -17   -0.02    0.75
   0 -11  17    1.32    1.29
   0  11 -16   16.08    2.84
   0 -11  16   12.68    2.12
   0  11 -15   13.82    3.78
   0 -11  15   10.37    2.01
   0  11 -14    7.97    2.13
   0 -11  14    6.04    1.70
   0  11 -13   12.50    2.77
   0 -11  13   11.48    2.66
   0  11 -12   15.14    1.81
   0 -11  12   14.66    2.86
   0  11 -11    5.94    1.19
   0 -11  11    5.58    1.91
   0  11 -11    2.11    0.70
   0  11 -10   13.38    1.54
   0 -11  10   10.57    2.48
   0  11 -10    7.22    1.65
   0  11  -9    3.65    1.07
   0 -11   9    3.34    0.89
   0  11  -9    1.79    0.77
   0  11  -8   10.35    1.78
   0 -11   8   11.35    2.27
   0  11  -8    7.42    1.13
   0  11  -7   86.55    6.31
   0 -11   7  103.82    8.69
   0  11  -7   63.14    4.87
   0  11  -6    4.94    1.20
   0 -11   6    7.11    1.89
   0  11  -6    4.07    0.95
   0  11  -5   59.77    4.43
   0 -11   5   78.22    4.33
   0  11  -5   61.38    3.54
   0  11  -4   66.14    3.84
   0 -11   4   93.80    4.76
   0  11  -4   69.91    3.86
   0  11  -3    0.34    0.20
   0 -11   3    1.75    0.88
   0  11  -3    1.43    0.76
   0 -11   2    1.54    0.54
   0 -11   2    3.49    1.15
   0  11  -2    1.69    0.84
   0 -11   1    1.41    0.58
   0 -11   1    1.76    0.86
   0  11  -1    1.44    0.71
   0 -11   0    1.08    0.56
   0 -11   0    0.53    0.60
   0  11   0    0.54    0.73
   0 -11  -1    3.46    0.95
   0 -11  -1    5.81    1.45
   0  11   1    5.43    1.29
   0 -11  -2   21.28    2.10
   0 -11  -2   36.44    3.18
   0  11   2   33.03    3.33
   0 -11  -3   18.77    1.76
   0 -11  -3   25.38    2.15
   0  11   3   26.79    2.57
   0 -11  -4   16.86    1.65
   0 -11  -4   22.54    3.36
   0  11   4   21.16    2.43
   0 -11  -5    5.41    1.13
   0 -11  -5    6.18    1.46
   0  11   5    9.66    1.82
   0 -11  -6    1.06    0.77
   0 -11  -6    0.97    0.48
   0  11   6    3.78    1.36
   0 -11  -7    0.51    0.55
   0  11   7    5.38    1.49
   0 -11  -8    2.97    1.08
   0  11   8    2.61    1.30
   0 -11  -9    0.09    0.63
   0  11   9    1.42    1.31
   0 -11 -10    1.65    1.29
   0  11  10    1.04    1.02
   0 -11 -11   -0.05    0.71
   0  11  11    0.24    1.08
   0  11  12    0.71    0.94
   0 -12  18    3.45    1.65
   0 -12  17    3.05    1.21
   0 -12  16    2.96    1.56
   0  12 -15    0.46    0.37
   0 -12  15    0.34    0.89
   0  12 -14   56.40    3.43
   0 -12  14   45.98    3.94
   0  12 -13    0.69    0.66
   0 -12  13    1.98    1.25
   0  12 -12   33.62    2.66
   0 -12  12   31.18    5.81
   0  12 -11    0.84    0.77
   0 -12  11    2.90    1.32
   0  12 -11    1.33    0.63
   0  12 -10    1.50    0.85
   0 -12  10    2.40    1.04
   0  12 -10    0.37    0.49
   0  12  -9   18.76    3.67
   0 -12   9   22.42    2.33
   0  12  -9   12.35    1.41
   0  12  -8    1.02    0.45
   0 -12   8    1.24    0.82
   0  12  -8   -0.30    0.47
   0  12  -7   27.76    5.80
   0 -12   7   41.36    8.80
   0  12  -7   24.12    1.94
   0  12  -6    7.22    1.28
   0 -12   6    8.92    1.99
   0  12  -6    5.04    1.08
   0  12  -5    6.65    1.66
   0 -12   5   12.34    1.66
   0  12  -5    8.83    1.39
   0  12  -4   33.66    4.88
   0 -12   4   48.55    4.17
   0  12  -4   38.33    3.49
   0  12  -3    0.20    0.32
   0 -12   3    0.56    0.74
   0  12  -3   -0.18    0.67
   0 -12   2   42.99    3.31
   0 -12   2   67.33    5.35
   0  12  -2   55.93    4.68
   0 -12   1    6.08    0.92
   0 -12   1    8.95    1.34
   0  12  -1    8.92    1.46
   0 -12   0   57.10    2.45
   0 -12   0  102.71    4.02
   0  12   0   83.95    4.18
   0 -12  -1    3.04    0.67
   0 -12  -1    4.24    1.23
   0  12   1    5.43    2.08
   0 -12  -2   10.79    1.25
   0 -12  -2   15.07    1.68
   0  12   2   17.07    2.18
   0 -12  -3    0.97    0.66
   0 -12  -3    0.13    0.44
   0  12   3    0.27    0.71
   0 -12  -4    0.55    0.45
   0 -12  -4    0.16    0.46
   0  12   4    2.12    1.04
   0 -12  -5   18.10    1.80
   0 -12  -5   26.80    2.01
   0  12   5   30.74    2.99
   0 -12  -6    1.66    0.85
   0  12   6    1.53    1.04
   0 -12  -7    0.94    0.68
   0  12   7   -0.67    0.87
   0 -12  -8   13.82    1.95
   0  12   8   22.54    3.05
   0 -12  -9    0.60    1.02
   0  12   9    1.85    1.46
   0  12  10   -0.24    0.80
   0  12  11    1.03    0.98
   0  12  12    5.59    2.04
   0 -13  18   -0.17    0.91
   0 -13  17    1.65    1.39
   0 -13  16    1.13    0.97
   0 -13  15   19.54    2.99
   0 -13  14    0.92    1.00
   0  13 -13    1.78    0.79
   0 -13  13    1.75    0.72
   0  13 -12    0.68    0.76
   0 -13  12    1.97    1.16
   0  13 -11    2.92    0.81
   0 -13  11    4.33    1.42
   0  13 -11    1.66    0.66
   0  13 -10    0.02    0.28
   0 -13  10    1.75    1.39
   0  13 -10   -0.10    0.50
   0  13  -9    6.12    1.47
   0 -13   9    8.58    1.87
   0  13  -9    4.06    1.11
   0  13  -8   16.12    3.72
   0 -13   8   24.66    5.29
   0  13  -8   15.39    1.94
   0  13  -7    0.24    0.18
   0 -13   7   -0.35    0.78
   0  13  -7    1.31    0.94
   0  13  -6    2.73    0.81
   0 -13   6    5.25    1.48
   0  13  -6    3.11    1.01
   0  13  -5    0.25    0.29
   0 -13   5    0.02    0.49
   0  13  -5    1.35    0.73
   0  13  -4   18.95    4.87
   0 -13   4   45.25    3.09
   0  13  -4   30.08    2.56
   0 -13   3   60.98    3.46
   0  13  -3   46.92    3.10
   0 -13   2    0.19    0.37
   0 -13   2    0.85    0.70
   0  13  -2    2.31    1.16
   0 -13   1    0.86    0.42
   0 -13   1    1.05    0.75
   0  13  -1    1.54    1.03
   0 -13   0    1.96    0.63
   0 -13   0    5.59    1.64
   0  13   0    4.25    1.33
   0 -13  -1    2.50    0.69
   0 -13  -1    7.75    1.46
   0  13   1    7.20    1.57
   0 -13  -2    1.15    0.64
   0 -13  -2    0.30    0.52
   0  13   2    1.59    1.02
   0 -13  -3    0.80    0.52
   0 -13  -3    1.66    0.83
   0  13   3    2.57    1.13
   0 -13  -4    0.20    0.50
   0  13   4    1.20    1.11
   0  13   5    3.87    1.41
   0  13   6    6.29    2.22
   0  13   7   -0.50    0.90
   0  13   8    6.34    1.80
   0  13   9    1.70    1.50
   0  13  10    1.85    1.15
   0  13  11    1.65    0.62
   0 -14  18    1.82    1.46
   0 -14  17    0.00    0.79
   0 -14  16    3.62    1.68
   0 -14  15    1.20    1.37
   0 -14  14    1.20    1.13
   0 -14  13   21.21    2.68
   0 -14  12    0.69    0.60
   0 -14  11   15.42    2.38
   0 -14  10    0.18    0.81
   0  14 -10    0.87    0.81
   0 -14   9   11.53    2.20
   0  14  -9    6.36    1.32
   0 -14   8   21.35    4.54
   0  14  -8   11.19    1.56
   0 -14   7   14.28    3.24
   0  14  -7    9.72    1.51
   0 -14   6    2.71    1.20
   0  14  -6    3.33    0.96
   0 -14   5   15.18    2.13
   0  14  -5    8.38    1.51
   0 -14   4    1.85    0.90
   0  14  -4    1.16    0.71
   0 -14   3   25.52    2.39
   0  14  -3   18.30    2.14
   0 -14   2    1.70    1.01
   0  14  -2    0.80    1.08
   0 -14   1   14.12    1.73
   0  14  -1   11.95    1.85
   0 -14   0    0.85    0.40
   0  14   0    0.24    0.83
   0 -14  -1    1.33    0.82
   0  14   1    1.59    1.34
   0 -14  -2    4.13    1.07
   0  14   2    5.18    1.15
   0 -14  -3    0.91    0.63
   0  14   3    0.42    0.87
   0  14   4    7.98    2.39
   0  14   5    2.59    1.33
   0  14   6    0.71    0.99
   0  14   7    1.05    1.01
   0  14   8    0.17    0.87
   0  14   9    6.49    2.02
   0  14  10    3.76    1.68
   0 -15  17    2.13    1.50
   0 -15  16    1.37    1.41
   0 -15  15    0.09    0.88
   0 -15  14    1.87    1.43
   0 -15  13   13.55    3.04
   0 -15  12    0.47    0.92
   0 -15  11    2.73    1.22
   0 -15  10    0.94    0.89
   0  15 -10    0.00    0.52
   0 -15   9    8.84    2.96
   0  15  -9    9.56    1.69
   0 -15   8    3.84    1.01
   0  15  -8    2.61    0.95
   0 -15   7   10.53    2.25
   0  15  -7    6.60    1.35
   0 -15   6    2.11    1.01
   0  15  -6    2.32    1.00
   0 -15   5    3.76    1.43
   0  15  -5    2.91    1.11
   0  15  -4    0.88    0.75
   0 -15   3    1.67    0.87
   0  15  -3    0.75    0.81
   0 -15   2   11.21    1.71
   0  15  -2    9.71    1.65
   0 -15   1    8.67    1.58
   0  15  -1    6.21    1.64
   0  15   0    1.07    0.90
   0 -15  -1    0.81    0.67
   0  15   1    1.29    0.96
   0 -15  -2    4.57    1.61
   0  15   2    7.55    1.84
   0  15   3    9.29    2.22
   0  15   4    2.21    1.41
   0  15   5    2.49    1.46
   0  15   6    0.10    0.95
   0  15   7    0.66    0.54
   0  15   8    0.38    1.04
   0  15   9    0.65    1.06
   0 -16  16    4.58    2.34
   0 -16  15    0.90    1.15
   0 -16  14    1.24    1.46
   0 -16  13    2.08    1.54
   0 -16  12    2.82    1.26
   0 -16  11    4.49    1.62
   0 -16  10    2.28    1.36
   0 -16   9   -0.04    0.81
   0  16  -9    0.66    0.73
   0 -16   8    4.80    1.50
   0  16  -8    2.43    0.93
   0 -16   7    1.61    1.14
   0  16  -7    1.22    0.76
   0 -16   6    3.17    0.98
   0  16  -6    1.16    0.99
   0 -16   5    0.30    0.40
   0  16  -5    0.86    0.77
   0 -16   4   12.23    1.87
   0  16  -4   13.54    2.13
   0 -16   3    4.20    1.25
   0  16  -3   -0.55    0.79
   0 -16   2   -0.02    0.58
   0  16  -2    1.53    1.23
   0 -16   1    1.76    1.04
   0  16  -1    0.59    0.93
   0 -16   0    8.66    1.62
   0  16   0    7.54    1.75
   0  16   1    3.14    1.47
   0  16   2    1.69    1.12
   0  16   3   -0.11    1.02
   0  16   4    2.11    1.51
   0  16   5    0.93    0.91
   0  16   6    3.35    1.47
   0  16   7    1.97    1.52
   0  16   8   -0.17    1.14
   0 -17  15    5.72    2.13
   0 -17  14    1.28    1.96
   0 -17  13    3.00    1.52
   0 -17  12    6.73    1.79
   0 -17  11    3.71    1.87
   0 -17  10    2.11    1.12
   0 -17   9    4.41    1.48
   0 -17   8    0.48    0.89
   0  17  -8    1.33    0.91
   0 -17   7    1.86    2.81
   0  17  -7    2.47    1.31
   0 -17   6    8.06    1.85
   0  17  -6    4.82    1.38
   0 -17   5    6.30    1.41
   0  17  -5    6.65    1.70
   0 -17   4    0.90    0.85
   0  17  -4    0.50    0.90
   0 -17   3    1.90    1.21
   0  17  -3    2.38    1.02
   0 -17   2   -0.33    0.66
   0  17  -2    2.85    1.11
   0 -17   1    1.25    1.13
   0  17  -1    2.57    1.09
   0  17   0    5.00    1.49
   0  17   1    3.16    1.49
   0  17   2    2.11    1.26
   0  17   3    0.41    0.97
   0  17   4    1.93    1.19
   0  17   5    1.02    1.18
   0  17   6    2.11    1.38
   0 -18  14    2.76    1.86
   0 -18  13    0.24    0.89
   0 -18  12    0.53    0.68
   0 -18  11    0.84    0.94
   0 -18  10    3.68    1.75
   0 -18   9    0.72    0.95
   0 -18   8    0.74    0.98
   0 -18   7    1.58    1.20
   0  18  -7    0.19    0.82
   0 -18   6    5.00    1.44
   0  18  -6    3.50    1.43
   0 -18   5    3.42    1.50
   0  18  -5   -0.16    0.83
   0 -18   4    8.37    1.93
   0  18  -4    7.98    2.04
   0 -18   3    1.06    0.98
   0  18  -3   -0.02    0.93
   0  18  -2    1.31    1.03
   0  18  -1   -0.38    0.94
   0  18   0   25.71    3.08
   0  18   1    3.49    1.82
   0  18   2    0.61    1.04
   0  18   3    3.01    1.77
   0  18   4   -0.39    1.01
   0 -19  11    1.38    1.23
   0 -19  10    1.52    1.18
   0 -19   9    2.86    1.38
   0 -19   8    8.13    2.41
   0 -19   7    3.10    1.52
   0 -19   6   19.96    7.36
   0  19  -3    0.01    0.95
   0  19  -2    1.43    1.08
   0  19  -1    0.02    0.97
   0  19   0   -0.16    0.94
   0  19   1    0.59    1.12
  -1  19   2   -0.07    0.96
  -1  19   1   -0.19    0.93
  -1  19   0   -1.34    1.01
  -1  19  -1    0.79    1.03
  -1  19  -2    1.76    1.50
  -1  19  -3    2.78    1.48
   1 -19   4    3.65    1.79
  -1  19  -4    2.64    1.32
   1 -19   5    0.11    0.97
  -1  19  -5    0.36    0.99
   1 -19   6    0.89    0.84
  -1  19  -6    0.13    0.88
   1 -19   7   -0.06    0.90
   1 -19   8    2.47    1.30
   1 -19   9    1.41    1.25
   1 -19  10    1.44    1.14
   1 -19  11    0.41    1.06
  -1  18   4    3.57    1.90
  -1  18   3    2.39    1.37
  -1  18   2    0.08    0.99
  -1  18   1    0.01    0.93
  -1  18   0   -0.29    0.96
   1 -18   1    3.62    1.37
  -1  18  -1    0.19    0.94
   1 -18   2    0.91    0.78
  -1  18  -2    0.90    1.00
   1 -18   3    0.52    0.95
  -1  18  -3   -0.09    0.91
   1 -18   4   21.53    3.10
  -1  18  -4   16.16    2.57
   1 -18   5    8.32    1.89
  -1  18  -5    6.15    1.91
   1 -18   6   36.11    3.58
  -1  18  -6   18.67    2.66
   1 -18   7    1.53    1.29
  -1  18  -7    1.48    1.25
   1 -18   8    4.53    1.58
  -1  18  -8    1.44    0.97
   1 -18   9    3.40    1.54
   1 -18  10    1.73    1.12
   1 -18  11    2.24    1.24
   1 -18  12   -0.20    0.87
   1 -18  13    1.46    1.11
  -1  17   5   -0.67    0.97
  -1  17   4    0.60    1.08
  -1  17   3    1.81    1.21
  -1  17   2    0.88    1.10
   1 -17  -1    1.16    1.14
  -1  17   1    0.47    1.05
   1 -17   0    1.36    0.94
  -1  17   0    2.27    1.25
   1 -17   1    0.64    0.85
  -1  17  -1    0.48    0.90
   1 -17   2    0.70    0.86
  -1  17  -2    0.13    0.80
   1 -17   3    1.00    0.66
  -1  17  -3    1.43    0.95
   1 -17   4    1.75    1.48
  -1  17  -4    2.19    1.19
   1 -17   5    3.01    1.36
  -1  17  -5    1.67    1.09
   1 -17   6    1.19    1.03
  -1  17  -6    1.16    0.89
   1 -17   7   -0.17    0.72
  -1  17  -7    0.34    0.91
   1 -17   8    2.28    1.48
  -1  17  -8    0.24    0.86
   1 -17   9    1.47    0.75
  -1  17  -9    0.76    0.83
   1 -17  10    2.98    1.86
  -1  17 -10    0.96    0.92
   1 -17  11    0.21    1.11
   1 -17  12    1.56    1.40
   1 -17  13   -0.08    0.90
   1 -17  14    2.75    1.57
   1 -17  15    0.82    1.03
  -1  16   7    1.14    1.26
  -1  16   6    0.22    1.06
  -1  16   5    1.39    1.10
  -1  16   4    2.68    1.57
  -1  16   3    1.26    1.11
   1 -16  -2   15.35    2.32
  -1  16   2   12.02    2.20
   1 -16  -1    2.04    1.22
  -1  16   1    1.21    1.00
   1 -16   0    2.62    1.01
  -1  16   0    3.24    1.48
   1 -16   1    0.65    0.75
  -1  16  -1    2.25    1.41
   1 -16   2    7.39    1.70
  -1  16  -2    4.35    1.56
   1 -16   3    0.16    0.76
  -1  16  -3    0.25    0.82
   1 -16   4    2.75    1.12
  -1  16  -4    1.58    1.03
   1 -16   5    0.99    0.93
  -1  16  -5    3.63    1.45
   1 -16   6    0.44    0.93
  -1  16  -6    0.89    0.90
   1 -16   7    0.54    0.63
  -1  16  -7   -0.23    0.72
   1 -16   8    1.03    0.60
  -1  16  -8    0.54    0.76
   1 -16   9    2.36    0.77
  -1  16  -9    1.77    1.10
   1 -16  10   15.15    4.13
  -1  16 -10   10.52    1.73
   1 -16  11    2.32    0.84
  -1  16 -11    1.97    1.33
   1 -16  12    0.25    0.93
   1 -16  13    1.15    1.08
   1 -16  14    4.60    1.97
   1 -16  15   -1.03    0.90
   1 -16  16    2.94    1.72
  -1  15   8    1.29    1.49
  -1  15   7    1.03    1.12
  -1  15   6    3.85    2.03
  -1  15   5    1.88    1.40
   1 -15  -4    0.59    0.70
  -1  15   4    1.41    1.27
   1 -15  -3    1.17    0.80
  -1  15   3   -0.02    0.79
   1 -15  -2    2.16    1.17
  -1  15   2    0.59    0.94
   1 -15  -1    0.83    0.58
  -1  15   1    1.00    0.93
   1 -15   0    1.50    1.05
  -1  15   0    2.08    1.32
   1 -15   1    1.11    0.79
  -1  15  -1    0.74    0.90
   1 -15   2    0.71    1.10
  -1  15  -2    2.63    1.35
   1 -15   3    0.78    0.84
  -1  15  -3    0.51    0.88
   1 -15   4    7.93    1.74
  -1  15  -4    6.86    1.56
   1 -15   5   -0.23    0.73
  -1  15  -5    0.54    0.82
   1 -15   6   18.62    2.52
  -1  15  -6   11.27    1.86
   1 -15   7    1.98    1.08
  -1  15  -7    1.69    0.89
   1 -15   8    1.42    0.97
  -1  15  -8    0.66    0.72
   1 -15   9    1.09    0.96
  -1  15  -9    1.42    0.84
   1 -15  10    2.75    1.51
  -1  15 -10   -0.08    0.56
   1 -15  11    0.35    0.92
  -1  15 -11    1.16    0.81
   1 -15  12    2.95    1.54
   1 -15  13    2.82    1.43
   1 -15  14    1.71    1.10
   1 -15  15    1.63    1.13
   1 -15  16    0.38    0.78
  -1  14   9   -0.26    0.85
  -1  14   8    2.42    1.42
  -1  14   7    0.30    0.78
  -1  14   6    0.99    1.00
   1 -14  -5    3.52    0.99
  -1  14   5    2.24    1.10
   1 -14  -4    0.36    0.39
  -1  14   4    0.47    0.86
   1 -14  -3    1.24    0.82
  -1  14   3    1.74    1.12
   1 -14  -2    4.42    1.04
  -1  14   2    3.12    1.27
   1 -14  -1   10.20    1.76
  -1  14   1    4.37    1.45
   1 -14   0    2.19    1.16
  -1  14   0    2.24    1.14
   1 -14   1    7.16    1.59
  -1  14  -1    7.67    1.78
   1 -14   2    7.07    1.52
  -1  14  -2    5.88    1.33
   1 -14   3   28.67    2.86
  -1  14  -3   23.04    2.49
   1 -14   4    4.08    1.34
  -1  14  -4    4.48    1.24
   1 -14   5    1.03    0.70
  -1  14  -5    0.74    0.78
   1 -14   6    0.81    0.92
  -1  14  -6    2.82    1.27
   1 -14   7    1.64    0.98
  -1  14  -7    0.60    0.94
   1 -14   8    2.56    1.34
  -1  14  -8    1.58    0.96
   1 -14   9    8.35    1.76
  -1  14  -9    5.92    1.41
   1 -14  10   13.12    2.22
  -1  14 -10    6.35    1.30
   1 -14  11    0.82    0.92
  -1  14 -11    1.75    1.06
   1 -14  12    0.67    0.95
  -1  14 -12    0.64    0.73
   1 -14  13    0.23    0.86
   1 -14  14    0.99    0.89
   1 -14  15   10.37    1.98
   1 -14  16    1.77    1.35
   1 -14  17    2.55    1.53
  -1  13  10    0.12    0.78
  -1  13   9    1.12    0.96
  -1  13   8    1.48    1.15
  -1  13   7    7.21    1.79
   1 -13  -6    1.30    0.86
  -1  13   6    0.10    0.84
   1 -13  -5    0.23    0.49
  -1  13   5   -0.72    0.76
   1 -13  -4    0.74    0.45
  -1  13   4    0.48    0.83
   1 -13  -3    3.49    1.47
  -1  13   3    2.88    1.22
   1 -13  -2    0.29    0.42
  -1  13   2    1.25    1.05
   1 -13  -1    7.90    2.11
  -1  13   1    3.49    1.13
   1 -13   0   17.98    3.78
  -1  13   0   12.41    1.87
   1 -13   1    8.16    1.69
  -1  13  -1    6.24    1.51
   1 -13   2    4.58    1.36
  -1  13  -2    4.51    1.40
   1 -13   3    2.17    1.31
  -1  13  -3    0.84    0.82
   1 -13   4   -0.29    0.84
  -1  13  -4    0.05    0.69
   1 -13   5   49.72    4.23
  -1  13  -5   33.67    2.78
   1 -13   6    2.25    1.09
  -1  13  -6    2.01    1.11
   1 -13   7    1.39    0.93
  -1  13  -7    1.47    0.79
   1 -13   8    3.99    1.19
  -1  13  -8    3.99    1.01
   1 -13   9    3.83    1.49
  -1  13  -9    0.81    0.72
   1 -13  10   16.56    2.35
  -1  13 -10   11.10    1.66
   1 -13  11    5.68    1.59
  -1  13 -11    3.89    1.12
   1 -13  12    6.46    1.67
  -1  13 -12    1.91    0.91
   1 -13  13   21.09    2.66
  -1  13 -13   18.24    2.43
   1 -13  14    1.34    0.94
   1 -13  15    5.30    1.50
   1 -13  16    1.07    0.62
   1 -13  17    1.04    1.01
  -1  12  11   -0.87    0.84
  -1  12  10    3.45    1.21
  -1  12   9    4.92    1.41
  -1  12   8    1.70    1.00
   1 -12  -7    8.74    2.33
  -1  12   7   13.79    2.14
   1 -12  -6    1.75    0.53
  -1  12   6    1.62    0.99
   1 -12  -5    4.43    2.00
  -1  12   5    5.30    1.59
   1 -12  -4    4.82    1.04
  -1  12   4    5.46    1.53
   1 -12  -3   18.73    5.81
  -1  12   3   38.67    3.75
   1 -12  -2    3.44    1.06
  -1  12   2    1.17    0.95
   1 -12  -1   10.41    1.97
  -1  12   1   10.07    1.74
   1 -12   0    0.49    0.47
  -1  12   0    1.78    1.25
   1 -12   1   16.79    3.58
  -1  12  -1   12.70    1.77
   1 -12   2   59.99    3.65
  -1  12  -2   47.44    3.31
   1 -12   3   25.77    2.40
  -1  12  -3   16.03    1.91
   1 -12   4   20.69    2.46
  -1  12  -4   13.17    1.83
   1 -12   5   82.11    4.19
  -1  12  -5   49.20    3.16
   1 -12   6    0.35    0.32
  -1  12  -6    1.54    1.04
   1 -12   7   17.33    2.27
  -1  12  -7   10.35    1.57
   1 -12   8   13.99    2.15
  -1  12  -8    8.05    1.49
   1 -12   9    2.07    0.92
  -1  12  -9    3.53    1.16
   1 -12  10   29.70    3.00
  -1  12 -10   19.64    2.04
   1 -12  11    1.01    1.15
  -1  12 -11    0.18    0.53
   1 -12  12    7.74    1.71
  -1  12 -12    8.34    1.63
   1 -12  13    9.15    1.86
  -1  12 -13    6.07    1.40
   1 -12  14    0.54    0.70
   1 -12  15    2.10    1.07
   1 -12  16    1.24    0.98
   1 -12  17    2.30    1.39
  -1  11  11    0.29    0.84
  -1  11  10   -0.23    0.73
  -1  11   9    0.93    0.91
   1 -11  -8    0.41    0.40
  -1  11   8    1.55    0.67
   1 -11  -7   -0.02    0.53
  -1  11   7    1.22    0.96
   1 -11  -6    5.36    1.61
  -1  11   6    4.57    1.37
   1 -11  -5    9.67    1.52
  -1  11   5   17.26    2.48
   1 -11  -4   26.49    4.55
  -1  11   4   20.71    2.37
   1 -11  -3   70.17    5.38
  -1  11   3   57.97    3.56
   1 -11  -2    4.25    0.95
  -1  11   2    0.91    1.03
   1 -11  -1   32.74    4.58
  -1  11   1   30.25    3.22
   1 -11   0    2.61    0.99
  -1  11   0    4.06    1.22
   1 -11   1    1.18    0.64
  -1  11  -1    2.23    1.15
   1 -11   2   26.09    6.97
  -1  11  -2   18.62    1.88
   1 -11   3   31.01    8.22
  -1  11  -3   20.78    2.02
   1 -11   4    0.21    0.71
  -1  11  -4    2.30    1.00
   1 -11   5   19.22    2.03
  -1  11  -5   12.88    1.83
   1 -11   6    4.87    1.39
  -1  11  -6    7.48    1.31
   1 -11   7   23.88    2.36
  -1  11  -7   18.25    3.67
   1 -11   8    1.96    1.01
  -1  11  -8    1.41    0.83
   1 -11   9   64.46    4.20
  -1  11  -9   42.22    2.77
   1 -11  10    0.72    0.83
  -1  11 -10    1.29    0.76
  -1  11 -11    3.33    0.72
   1 -11  11    4.16    1.14
  -1  11 -11    3.08    0.96
  -1  11 -12    2.87    0.97
   1 -11  12    5.11    1.60
  -1  11 -12    4.35    1.13
  -1  11 -13    0.49    0.51
   1 -11  13    2.07    1.09
  -1  11 -13    0.61    0.62
   1 -11  14   33.46    3.43
  -1  11 -14   15.94    2.02
   1 -11  15   10.64    2.00
   1 -11  16    1.78    1.39
   1 -11  17    6.80    1.88
  -1  10  12    1.34    1.04
   1 -10 -10    1.51    1.15
  -1  10  10   -0.23    0.69
   1 -10  -9   -0.10    0.50
   1 -10  -9    1.07    0.45
  -1  10   9    0.84    1.19
   1 -10  -8    2.33    0.98
   1 -10  -8    1.07    0.62
  -1  10   8    1.93    0.65
   1 -10  -7    1.23    0.77
   1 -10  -7    1.03    0.52
  -1  10   7    0.91    0.96
   1 -10  -6   39.71    3.27
   1 -10  -6   41.20    3.62
  -1  10   6   52.09    4.53
   1 -10  -5   31.76    2.03
   1 -10  -5   34.52    6.42
  -1  10   5   40.73    3.11
   1 -10  -4    7.48    0.99
   1 -10  -4    9.10    2.32
  -1  10   4    7.35    1.54
   1 -10  -3  120.79    7.90
   1 -10  -3  184.93   21.33
  -1  10   3  156.51   10.88
   1 -10  -2   18.02    2.63
   1 -10  -1   13.48    4.93
  -1  10   1   14.20    1.69
   1 -10   0    5.15    3.02
  -1  10   0    7.91    1.47
   1 -10   1    6.85    1.77
  -1  10  -1    4.22    1.03
   1 -10   2    0.33    0.38
  -1  10  -2    0.80    0.69
   1 -10   3   10.54    1.84
  -1  10  -3    9.34    1.70
   1 -10   4   15.24    2.23
  -1  10  -4   11.14    1.71
   1 -10   5   24.19    3.10
  -1  10  -5   15.12    2.13
   1 -10   6  217.60    9.26
  -1  10  -6  141.48    6.37
   1 -10   7  101.99    5.35
  -1  10  -7   63.66    3.72
  -1  10  -8   49.60    4.33
   1 -10   8   71.87    5.84
  -1  10  -8   37.98    3.38
  -1  10  -9  101.58    6.83
   1 -10   9  120.60    8.73
  -1  10  -9   70.98    5.48
  -1  10 -10    0.82    0.57
   1 -10  10   -0.66    0.77
  -1  10 -10    0.32    0.67
   1 -10  11   24.48    2.71
  -1  10 -11   13.33    1.72
  -1  10 -12    9.09    1.49
   1 -10  12    7.83    2.03
  -1  10 -12    1.02    0.68
  -1  10 -13    8.60    1.26
   1 -10  13    5.78    1.44
  -1  10 -13    4.15    1.06
  -1  10 -14    0.04    0.58
   1 -10  14    1.04    0.73
  -1  10 -14    0.16    0.54
  -1  10 -15    7.01    1.59
   1 -10  15    5.69    1.64
  -1  10 -16    1.85    1.03
   1 -10  16    1.84    1.25
   1 -10  17    1.73    1.23
   1  -9 -12    0.73    0.84
  -1   9  12    0.43    0.81
   1  -9 -11    0.90    0.74
  -1   9  11    0.42    0.73
   1  -9 -10    0.70    0.67
   1  -9 -10    0.14    0.35
  -1   9  10    1.33    0.80
   1  -9  -9    3.28    1.11
   1  -9  -9    2.27    1.07
  -1   9   9    3.75    1.37
   1  -9  -8    1.88    0.75
   1  -9  -8    2.42    0.70
  -1   9   8    4.29    1.24
   1  -9  -7    2.67    0.98
   1  -9  -7    2.65    0.84
  -1   9   7    2.95    1.03
   1  -9  -6    4.96    1.22
   1  -9  -6    2.15    0.83
  -1   9   6    2.91    2.17
   1  -9  -5   57.88    4.32
   1  -9  -5   47.45   11.15
  -1   9   5   64.65    5.27
   1  -9  -4    0.25    0.36
   1  -9  -4    0.50    0.63
  -1   9   4    3.20    1.29
   1  -9  -3   31.63    1.83
   1  -9  -3   41.00    4.31
  -1   9   3   35.42    2.80
   1  -9  -2  129.30    6.57
   1  -9  -2  178.32   10.90
  -1   9   2  168.43    9.35
   1  -9  -1   51.01    3.96
  -1   9   1   46.52    3.87
   1  -9   0    6.19    1.47
  -1   9   0    5.97    1.28
   1  -9   1   11.03    1.48
  -1   9  -1    8.97    1.31
   1  -9   2   59.96    8.54
  -1   9  -2   39.56    3.30
   1  -9   3    8.99    7.06
  -1   9  -3   14.74    1.68
   1  -9   4   22.32    2.06
  -1   9  -4   18.77    1.92
  -1   9  -5    8.04    1.18
   1  -9   6  108.24    7.40
  -1   9  -6   71.47    5.19
  -1   9  -7  253.41   12.55
   1  -9   7  305.38   16.01
  -1   9  -7  202.84   10.77
  -1   9  -8    6.68    0.84
   1  -9   8    8.24    1.55
  -1   9  -8    4.54    1.06
  -1   9  -9   40.90    2.38
   1  -9   9   40.76    3.07
  -1   9  -9   26.40    2.26
  -1   9 -10   54.50    4.16
   1  -9  10   63.28   10.82
  -1   9 -10   41.33    3.62
  -1   9 -11    1.58    0.93
  -1   9 -12   16.06    1.89
   1  -9  12   11.34    1.85
  -1   9 -12    7.55    1.30
  -1   9 -13    2.67    0.97
   1  -9  13    1.53    1.12
  -1   9 -13    1.29    0.78
  -1   9 -14    1.99    0.92
   1  -9  14    0.68    0.77
  -1   9 -15    0.50    0.67
   1  -9  15    1.00    0.75
  -1   9 -15    0.32    0.52
  -1   9 -16    3.95    1.21
   1  -9  16    6.18    1.65
  -1   9 -17    2.20    1.27
   1  -9  17    0.66    0.83
   1  -8 -14    5.88    1.58
   1  -8 -13    0.98    0.85
  -1   8  13    1.45    0.91
   1  -8 -12    9.92    1.73
  -1   8  12   13.65    2.05
   1  -8 -11    1.28    0.77
   1  -8 -11    0.65    0.60
  -1   8  11    1.14    0.97
   1  -8 -10   -0.19    0.55
   1  -8 -10    0.38    0.54
  -1   8  10    2.17    1.09
   1  -8  -9   14.20    1.73
   1  -8  -9   12.54    1.52
  -1   8   9   14.81    1.97
   1  -8  -8    1.01    0.60
   1  -8  -8    0.21    0.52
   1  -8  -7   17.78    1.71
   1  -8  -7   23.50    2.03
  -1   8   7   22.83    2.16
   1  -8  -6    1.12    0.47
   1  -8  -6    2.81    0.83
  -1   8   6    3.27    1.02
   1  -8  -5   42.20    2.51
   1  -8  -5   50.08    3.11
  -1   8   5   40.36    2.91
   1  -8  -4   13.00    1.70
  -1   8   4   15.78    2.49
   1  -8  -3    8.31    0.87
   1  -8  -3   10.59    2.29
  -1   8   3    8.87    1.32
   1  -8  -2  138.53    8.30
   1  -8  -2  163.60   11.98
  -1   8   2  169.75   10.77
   1  -8  -1    4.12    0.51
  -1   8   1    5.13    1.12
   1  -8   0  110.66    6.07
  -1   8   0   96.73    5.48
   1  -8   1  143.93    7.60
  -1   8  -1  109.40    6.10
   1  -8   2    6.40    2.95
  -1   8  -2    4.93    0.88
   1  -8   3    4.95    0.92
  -1   8  -3    1.96    0.71
   1  -8   4   27.32    2.33
  -1   8  -4   20.45    1.80
  -1   8  -5   44.37    1.99
   1  -8   5   55.18    3.34
  -1   8  -5   37.84    2.58
  -1   8  -6   25.40    1.61
   1  -8   6   35.48    4.54
  -1   8  -6   20.00    1.81
  -1   8  -8   65.57    3.86
   1  -8   8   70.74    4.75
  -1   8  -8   40.14    3.00
  -1   8  -9  127.28    5.24
   1  -8   9  140.25    7.11
  -1   8  -9   96.66    4.67
  -1   8 -10   97.71    6.96
   1  -8  10  101.72    7.38
  -1   8 -10   66.91    5.11
  -1   8 -11    0.69    0.68
   1  -8  11    0.96    0.74
  -1   8 -11    0.21    0.55
  -1   8 -12    0.50    0.56
  -1   8 -13   39.05    3.53
   1  -8  13   24.59    8.06
  -1   8 -13   28.20    2.77
  -1   8 -14    0.97    0.67
   1  -8  14    3.14    1.08
  -1   8 -14    1.37    0.89
  -1   8 -15   18.77    2.43
   1  -8  15   16.38    2.17
   1  -8  15   11.98    1.83
  -1   8 -16    5.84    1.58
   1  -8  16    6.22    1.46
  -1   8 -17    2.92    1.45
   1  -8  17    0.16    0.79
  -1   8 -18    1.81    1.27
   1  -7 -15    1.24    1.18
   1  -7 -14    1.45    0.94
   1  -7 -13    0.63    0.71
  -1   7  13    1.36    0.83
   1  -7 -12    0.64    0.74
   1  -7 -12    0.58    0.55
  -1   7  12    0.70    0.74
   1  -7 -11   16.15    2.15
  -1   7  11   12.88    1.70
   1  -7 -10    8.04    1.47
   1  -7 -10    7.49    1.33
  -1   7  10    5.18    1.21
   1  -7  -9    3.41    1.12
   1  -7  -9    3.86    1.21
  -1   7   9    4.36    1.38
   1  -7  -8   11.59    1.47
   1  -7  -8   11.85    1.42
  -1   7   8   11.21    1.60
   1  -7  -7    8.12    1.21
   1  -7  -7    6.38    1.13
  -1   7   7    8.24    1.35
   1  -7  -6    3.68    0.99
   1  -7  -6    3.20    1.02
  -1   7   6    4.69    0.78
   1  -7  -5   10.82    1.49
   1  -7  -5    8.02    1.35
  -1   7   5   12.76    1.91
   1  -7  -4    0.25    0.31
   1  -7  -4    1.14    0.41
  -1   7   4    0.06    0.54
   1  -7  -3    7.87    0.84
   1  -7  -3   10.73    2.33
  -1   7   3    9.02    1.28
   1  -7  -2   -0.30    0.26
   1  -7  -2    0.15    0.40
   1  -7  -1    2.83    1.61
   1  -7   0   79.15    4.66
  -1   7   0   62.04    3.89
   1  -7   1  448.52   21.44
  -1   7  -1  363.94   17.60
   1  -7   2   70.20    4.22
  -1   7  -2   54.39    3.51
   1  -7   3   69.57    4.26
  -1   7  -3   51.73    3.36
   1  -7   4   75.11    4.56
  -1   7  -4   27.95    2.66
  -1   7  -5   53.84    2.34
   1  -7   5   63.61    3.48
  -1   7  -5   43.08    2.90
  -1   7  -6   41.97    2.10
   1  -7   6   54.35    3.19
  -1   7  -6   27.06    2.00
  -1   7  -7   29.08    1.86
   1  -7   7   23.50    2.03
  -1   7  -7   13.95    1.42
  -1   7  -8   81.44    5.34
   1  -7   8   91.55    6.34
  -1   7  -8   57.49    4.26
  -1   7  -9   59.27    3.83
   1  -7   9   67.88    4.49
  -1   7  -9   42.51    3.09
   1  -7  10    2.64    1.12
  -1   7 -10    2.75    0.96
  -1   7 -11   11.49    1.44
   1  -7  11   12.03    1.69
  -1   7 -11    7.93    1.25
  -1   7 -12    3.04    1.10
   1  -7  12    1.93    0.83
  -1   7 -12    2.10    0.84
  -1   7 -13   13.23    1.96
   1  -7  13    5.00    1.57
  -1   7 -13    2.72    0.91
  -1   7 -14    0.67    0.64
   1  -7  14    0.16    0.63
   1  -7  14    0.61    0.53
  -1   7 -15    1.27    0.79
   1  -7  15    0.78    0.61
   1  -7  15    0.68    0.33
  -1   7 -16    3.20    1.13
   1  -7  16    5.15    1.38
  -1   7 -17   -0.49    0.64
  -1   7 -18    0.29    0.82
  -1   7 -19    3.11    1.56
   1  -6 -16    1.01    0.93
   1  -6 -15    0.96    1.13
   1  -6 -14   -0.20    0.76
   1  -6 -13    0.70    1.00
  -1   6  13    0.27    0.62
   1  -6 -12    0.92    1.00
  -1   6  12   -0.09    0.48
  -1   6  12    0.87    0.68
   1  -6 -11    2.64    1.12
  -1   6  11    0.73    0.78
  -1   6  11    0.75    0.61
   1  -6 -10    4.92    1.40
  -1   6  10    2.17    0.86
  -1   6  10    3.28    1.12
   1  -6  -9    3.32    1.12
  -1   6   9    3.52    0.89
  -1   6   9    5.45    1.10
   1  -6  -8   27.03    2.74
  -1   6   8   20.25    3.98
  -1   6   8   27.44    2.70
   1  -6  -7   10.81    1.38
  -1   6   7   10.06    1.37
  -1   6   7   12.66    1.44
   1  -6  -6    6.94    1.54
  -1   6   6   19.11    2.54
   1  -6  -5   13.61    1.34
   1  -6  -5   12.57    1.36
  -1   6   5   13.50    1.75
   1  -6  -4   21.90    1.56
   1  -6  -4   16.10    1.55
  -1   6   4   23.13    2.10
   1  -6  -3   57.34    3.12
   1  -6  -3   54.50    3.38
  -1   6   3   59.21    3.64
   1  -6  -2  159.74    7.70
   1  -6  -2  167.82    8.62
  -1   6   2  170.15    8.76
   1  -6  -1   25.17    1.93
   1  -6  -1   29.51    5.81
  -1   6   1   34.16    3.05
   1  -6   0   66.86    3.94
  -1   6   0   68.87    4.07
  -1   6  -1    1.77    0.60
   1  -6   2  495.33   23.56
  -1   6  -2  388.86   18.56
  -1   6  -3   18.00    1.32
   1  -6   3   25.42    5.82
  -1   6  -3   16.88    1.81
  -1   6  -5    1.69    0.80
  -1   6  -6   71.63    3.76
   1  -6   6   85.78    4.86
  -1   6  -6   54.44    3.34
  -1   6  -7    4.27    0.71
   1  -6   7    6.36    1.03
  -1   6  -7    3.75    0.80
  -1   6  -8    4.30    0.78
   1  -6   8    4.87    0.95
  -1   6  -8    2.48    0.62
  -1   6  -9   19.31    3.84
   1  -6   9   19.92    2.01
  -1   6  -9   18.13    1.80
  -1   6 -10   39.04    2.88
   1  -6  10   40.44    3.26
  -1   6 -10   32.88    2.59
  -1   6 -11    4.60    1.11
   1  -6  11    6.21    1.19
  -1   6 -11    5.33    1.12
  -1   6 -12    4.55    1.33
   1  -6  12    0.26    0.54
  -1   6 -12    1.17    0.68
  -1   6 -13   15.07    1.76
   1  -6  13    9.69    1.42
   1  -6  13   10.68    1.49
  -1   6 -14   24.85    2.43
   1  -6  14   25.88    2.25
   1  -6  14   17.06    4.99
  -1   6 -15    3.44    1.21
   1  -6  15    1.25    0.93
   1  -6  15    1.49    0.55
  -1   6 -16   11.57    1.86
   1  -6  16    7.44    1.56
   1  -6  16    3.09    0.84
  -1   6 -17    0.71    1.08
  -1   6 -18    7.30    1.85
  -1   6 -19    1.96    1.29
   1  -5 -17    1.02    1.23
   1  -5 -16    2.20    1.41
   1  -5 -15    0.89    0.86
   1  -5 -14    2.87    1.45
   1  -5 -13   13.15    1.99
  -1   5  13   12.57    1.90
  -1   5  13   14.87    1.91
   1  -5 -12    0.48    0.76
  -1   5  12    0.33    0.51
  -1   5  12    0.46    0.59
  -1   5  11    0.27    0.52
   1  -5 -10    5.32    1.28
  -1   5  10    4.59    1.01
  -1   5  10    6.44    1.10
   1  -5  -9   33.07    3.17
  -1   5   9   20.78    4.09
  -1   5   9   28.02    2.75
   1  -5  -8   44.01    2.90
  -1   5   8   34.75    2.64
  -1   5   8   34.37    2.47
   1  -5  -7    1.43    0.54
  -1   5   7    2.93    0.92
  -1   5   7    6.61    1.05
   1  -5  -6    8.25    1.16
  -1   5   6   12.72    1.51
  -1   5   6   15.54    1.57
   1  -5  -5    3.55    0.70
  -1   5   5    2.14    0.66
  -1   5   5    2.42    0.69
   1  -5  -4  119.98    6.17
  -1   5   4   93.77    5.21
  -1   5   4  110.21    5.96
   1  -5  -3   37.89    2.99
   1  -5  -3   31.38    2.79
  -1   5   3   24.22    2.26
   1  -5  -2   11.71    1.12
   1  -5  -2   13.62    1.58
  -1   5   2    9.62    1.23
   1  -5  -1   53.79    2.59
   1  -5  -1   56.31    3.24
  -1   5   1   56.44    3.28
   1  -5   0   64.82    2.86
   1  -5   0   78.77    4.19
  -1   5   0   71.28    3.85
  -1   5  -1    0.80    0.56
   1  -5   2  107.89    6.19
  -1   5  -2   77.72    4.14
  -1   5  -3  149.80    6.53
   1  -5   3  180.27    9.07
  -1   5  -3  129.57    6.37
   1  -5   4   17.97    1.33
  -1   5  -5   81.88    4.19
   1  -5   5   93.52    5.15
  -1   5  -6   27.02    2.27
   1  -5   6   29.84    2.72
  -1   5  -6   18.14    1.86
  -1   5  -7  119.25    6.06
   1  -5   7  127.07    7.59
  -1   5  -7   86.01    4.81
  -1   5  -8   63.27    3.70
   1  -5   8   75.80    4.62
  -1   5  -8   42.83    2.87
  -1   5 -10   74.34    4.70
   1  -5  10   68.47    4.32
  -1   5 -10   58.67    3.89
  -1   5 -11   17.43    1.68
   1  -5  11   10.91    2.42
  -1   5 -11   11.92    1.55
  -1   5 -12   39.62    3.68
   1  -5  12   34.26    3.10
   1  -5  12   27.69    2.68
  -1   5 -13   11.27    1.75
   1  -5  13   10.58    1.48
   1  -5  13    4.45    1.33
  -1   5 -14    5.22    1.30
   1  -5  14    2.66    0.76
   1  -5  14    2.94    0.72
  -1   5 -15    4.48    1.36
   1  -5  15    0.23    0.54
   1  -5  15    1.32    0.72
  -1   5 -16    3.30    1.04
   1  -5  16    1.54    0.67
   1  -5  16    3.11    1.29
  -1   5 -17   -0.15    0.74
  -1   5 -18    2.27    1.45
  -1   5 -19    1.08    0.96
   1  -4 -17    0.90    1.02
   1  -4 -16    0.30    0.81
   1  -4 -15    3.73    1.38
   1  -4 -14    6.13    1.81
  -1   4  14    3.33    1.04
   1  -4 -13    1.50    0.83
  -1   4  13    0.68    0.58
  -1   4  13    1.96    0.99
   1  -4 -12    1.42    0.99
  -1   4  12    0.44    0.58
  -1   4  12    0.55    0.57
   1  -4 -11    1.32    0.75
  -1   4  11    1.65    0.97
  -1   4  11    1.51    0.65
   1  -4 -10    0.97    0.72
  -1   4  10    0.78    0.56
  -1   4  10    0.65    0.58
   1  -4  -9    3.32    1.14
  -1   4   9    0.97    0.73
  -1   4   9    3.80    1.08
   1  -4  -8    4.20    0.98
  -1   4   8    3.53    0.85
  -1   4   8    5.20    1.02
   1  -4  -7   50.02    3.82
  -1   4   7   34.15    2.82
  -1   4   7   42.01    3.23
   1  -4  -6   96.75    5.25
  -1   4   6   69.97    4.17
  -1   4   6   86.75    4.77
   1  -4  -5   10.03    1.27
  -1   4   5    8.28    1.22
  -1   4   5    8.72    1.09
   1  -4  -4  105.99    5.48
  -1   4   4   78.18    4.49
  -1   4   4   92.08    5.04
   1  -4  -3  122.94    5.78
  -1   4   3  109.88    5.60
  -1   4   3  119.49    5.86
   1  -4  -2   64.98    3.17
  -1   4   2   52.27    2.97
   1  -4  -1   65.52    3.13
  -1   4   1   54.78    3.04
   1  -4   0   72.72    3.82
  -1   4   0   61.58    3.32
  -1   4  -1   35.51    2.19
  -1   4  -2  429.36    7.75
   1  -4   2  571.49   11.73
  -1   4  -2  449.53    9.57
  -1   4  -4  101.14    4.69
   1  -4   4  117.08    5.75
  -1   4  -4   58.69    3.28
  -1   4  -5  213.96    4.95
   1  -4   5  252.97    6.23
  -1   4  -6   11.60    1.24
   1  -4   6   14.38    1.52
  -1   4  -6    9.43    1.22
  -1   4  -7  223.39   10.95
   1  -4   7  243.50   12.26
  -1   4  -7  143.43    7.48
  -1   4  -8   10.46    1.33
   1  -4   8   10.03    1.23
  -1   4  -8    5.39    0.92
   1  -4   9    0.14    0.45
  -1   4  -9    0.46    0.54
  -1   4 -10    4.63    0.96
   1  -4  10    5.05    1.06
  -1   4 -10    4.96    1.12
  -1   4 -11    5.39    1.20
   1  -4  11    3.64    0.81
   1  -4  11    1.78    0.67
  -1   4 -12    1.01    0.75
   1  -4  12    0.73    0.68
   1  -4  12    0.43    0.30
  -1   4 -13    3.22    1.22
   1  -4  13    2.48    0.95
   1  -4  13    1.48    0.67
  -1   4 -14   31.13    2.77
   1  -4  14   22.79    2.00
   1  -4  14   24.53    5.49
  -1   4 -15    1.36    0.82
   1  -4  15    0.12    0.48
   1  -4  15    0.03    0.46
  -1   4 -16    7.07    1.68
   1  -4  16    2.63    0.78
  -1   4 -17    4.29    1.84
  -1   4 -18    1.70    1.31
  -1   4 -19    3.71    1.87
   1  -3 -18    0.33    0.90
   1  -3 -17    4.36    1.80
   1  -3 -16    3.49    1.54
   1  -3 -15    2.12    1.00
   1  -3 -14    4.79    1.55
  -1   3  14    4.26    1.35
   1  -3 -13    4.38    1.69
  -1   3  13    0.95    0.57
  -1   3  13    0.46    0.56
   1  -3 -12   11.84    2.03
  -1   3  12    5.09    1.25
  -1   3  12    4.97    1.04
   1  -3 -11    0.92    1.01
  -1   3  11    1.38    0.71
  -1   3  11    1.53    0.60
   1  -3 -10   36.64    3.48
  -1   3  10   19.04    3.74
  -1   3  10   31.04    2.73
   1  -3  -9    5.96    1.46
  -1   3   9    3.96    0.95
  -1   3   9    8.34    1.31
   1  -3  -8  175.99   11.05
  -1   3   8  114.66    7.46
  -1   3   8  166.68   10.27
   1  -3  -7   79.70    4.63
  -1   3   7   52.04    3.41
  -1   3   7   73.25    4.11
   1  -3  -6    1.35    1.61
  -1   3   6    3.28    0.82
  -1   3   5  133.88    6.86
   1  -3  -4  134.55    6.41
  -1   3   4   92.28    4.81
  -1   3   4  108.86    5.85
   1  -3  -3  569.06   11.32
  -1   3   3  393.63    8.69
  -1   3   3  469.40    9.77
   1  -3  -2  148.46    6.69
  -1   3   2  131.59    6.32
  -1   3   2  109.78    5.28
  -1   3   1    5.02    0.69
   1  -3   0    0.14    0.07
  -1   3   0    0.12    0.43
  -1   3  -1    0.18    0.12
  -1   3  -1    0.52    0.47
  -1   3  -2   41.99    2.00
   1  -3   2   57.52    3.06
  -1   3  -2   37.14    2.19
  -1   3  -3   32.94    1.08
   1  -3   3   34.86    1.43
  -1   3  -3   24.46    1.37
  -1   3  -4  687.52   13.12
   1  -3   4  741.88   14.51
  -1   3  -4  489.43   10.31
  -1   3  -5    8.03    0.75
   1  -3   5   10.66    2.15
  -1   3  -5    7.18    0.81
   1  -3   6    5.87    0.84
  -1   3  -6    3.36    0.76
  -1   3  -7   71.47    4.15
   1  -3   7   47.40    5.76
  -1   3  -7   32.57    2.88
  -1   3  -8   71.74    4.25
   1  -3   8   66.23    3.87
  -1   3  -8   56.21    3.49
  -1   3  -9  252.99   15.35
   1  -3   9  242.49   14.51
   1  -3   9  150.86    9.50
  -1   3 -10   17.83    2.41
   1  -3  10   12.85    1.68
   1  -3  10   10.23    1.55
  -1   3 -11   14.12    1.64
   1  -3  11    8.89    1.16
   1  -3  11   11.48    2.04
  -1   3 -12   21.82    2.26
   1  -3  12   12.71    1.35
   1  -3  12   12.25    2.04
  -1   3 -13    1.97    0.89
   1  -3  13    0.15    0.44
   1  -3  13    0.27    0.42
  -1   3 -14   30.41    2.78
   1  -3  14   23.01    2.07
   1  -3  14   25.67    4.16
  -1   3 -15    4.38    1.38
   1  -3  15    1.37    0.62
  -1   3 -16    3.72    1.43
   1  -3  16   -0.09    0.61
  -1   3 -17    8.99    1.84
  -1   3 -18    2.13    1.33
  -1   3 -19    2.35    1.23
  -1   3 -20    2.41    1.60
   1  -2 -19   -0.48    0.92
   1  -2 -18    3.26    1.84
   1  -2 -17    3.81    1.57
   1  -2 -16    3.74    1.22
   1  -2 -15    9.38    1.98
  -1   2  15    4.22    1.19
   1  -2 -14   10.41    2.16
  -1   2  14    4.20    1.17
   1  -2 -13   56.97    3.82
  -1   2  13   36.34    2.78
  -1   2  13   41.84    2.56
   1  -2 -12    3.12    1.10
  -1   2  12    1.17    0.67
  -1   2  12    2.41    0.60
   1  -2 -11   94.50    7.27
  -1   2  11   65.88    5.16
  -1   2  11   76.34    6.34
   1  -2 -10   -0.86    0.80
  -1   2  10    1.23    0.83
   1  -2  -9    1.89    0.99
  -1   2   9    0.34    0.56
  -1   2   9    1.39    0.50
   1  -2  -8    1.28    0.56
  -1   2   8    0.14    0.49
  -1   2   8    1.12    0.44
   1  -2  -7    2.36    0.75
  -1   2   7    1.29    0.47
   1  -2  -6  265.97   13.00
  -1   2   6  165.90    8.47
  -1   2   6  222.75   10.76
   1  -2  -5  117.56    5.88
  -1   2   5   72.14    3.96
  -1   2   5   98.46    4.79
   1  -2  -4    7.44    1.24
  -1   2   4    5.05    0.87
  -1   2   4    5.26    0.59
   1  -2  -3  303.24    6.89
  -1   2   3  203.70    5.13
  -1   2   3  229.79    5.17
   1  -2  -2  586.51   11.23
  -1   2   2  460.69    9.55
  -1   2   2  438.49    8.79
   1  -2  -1  255.48    5.20
  -1   2   1  202.20    4.60
  -1   2   0    6.84    0.68
  -1   2   0    8.07    0.69
  -1   2  -1 1227.62   21.93
   1  -2   1 1492.48   27.25
  -1   2  -1 1247.26   23.01
  -1   2  -2   99.91    4.54
   1  -2   2  141.66    6.48
  -1   2  -2   93.39    4.54
  -1   2  -3  228.34    4.93
   1  -2   3  271.11    5.85
  -1   2  -4  192.68   13.42
   1  -2   4  231.16    5.20
  -1   2  -4  154.78    4.22
  -1   2  -5  467.38    9.75
   1  -2   5  558.41   11.06
  -1   2  -5  369.74    8.32
  -1   2  -6  364.64   17.32
   1  -2   6  333.74   15.70
  -1   2  -6  243.51   11.91
  -1   2  -7    2.34    0.67
   1  -2   7    2.77    0.73
  -1   2  -7    1.79    0.65
   1  -2   8   88.97    4.91
   1  -2   8   82.68    4.69
  -1   2  -9   86.72    5.97
   1  -2   9   75.08    4.92
   1  -2   9   78.52    8.23
  -1   2 -10   23.61    2.97
   1  -2  10   18.08    2.18
   1  -2  10   21.63    4.91
  -1   2 -11   23.93    2.21
   1  -2  11   19.00    1.57
   1  -2  11   22.34    5.77
  -1   2 -12    1.34    0.71
   1  -2  12    0.98    0.58
   1  -2  12    0.67    0.43
  -1   2 -13    6.59    1.82
   1  -2  13    4.55    1.18
   1  -2  13    6.82    1.84
  -1   2 -14   14.05    2.13
   1  -2  14    7.03    1.35
  -1   2 -15    1.36    1.05
   1  -2  15    0.32    0.33
  -1   2 -16   13.51    2.21
   1  -2  16    6.51    1.10
  -1   2 -17   10.45    2.04
  -1   2 -18    0.43    0.86
  -1   2 -19    1.72    1.14
  -1   2 -20    5.21    2.25
   1  -1 -19    1.85    1.24
   1  -1 -18    1.06    1.14
   1  -1 -17    2.56    1.32
   1  -1 -16    0.01    0.83
  -1   1  16    0.50    0.70
   1  -1 -15    9.49    2.05
  -1   1  15    6.21    1.37
   1  -1 -14    9.59    1.84
  -1   1  14    5.51    1.32
   1  -1 -13   43.93    4.98
  -1   1  13   25.94    2.74
   1  -1 -12    7.06    1.66
  -1   1  12    4.54    1.09
  -1   1  12    4.54    0.86
   1  -1 -11  129.90    9.22
  -1   1  11   77.15    5.81
  -1   1  11  114.27    7.63
   1  -1 -10    5.78    1.29
  -1   1  10    2.82    0.87
  -1   1  10    3.47    0.78
   1  -1  -9  122.37    8.16
  -1   1   9   62.98    4.57
  -1   1   9   96.54    6.13
   1  -1  -8   46.02    2.96
  -1   1   8   27.72    2.06
  -1   1   8   37.21    2.78
   1  -1  -7  132.57    7.10
  -1   1   7   81.29    4.61
  -1   1   7  101.85    5.06
  -1   1   6   11.59    1.39
  -1   1   6   16.84    1.49
   1  -1  -5  137.29    7.17
  -1   1   5   81.55    4.34
  -1   1   5   98.45    4.63
   1  -1  -4   99.60    4.95
  -1   1   4   65.35    3.51
  -1   1   4   81.40    3.86
   1  -1  -3  700.43   13.54
  -1   1   3  462.55    9.62
  -1   1   3  531.58   10.15
  -1   1   2  278.79    5.70
   1  -1  -1    1.30    0.30
  -1   1   1    1.48    0.51
  -1   1   1    1.12    0.30
  -1   1   0  439.33    8.38
  -1   1   0  446.95    8.83
  -1   1   0  427.78    8.44
  -1   1  -1 2314.22   41.05
   1  -1   1 2735.43   48.58
  -1   1  -1 2448.53   43.77
  -1   1  -2   10.47    0.70
  -1   1  -2    5.53    0.71
  -1   1  -4   24.76    1.32
   1  -1   4   23.38    0.95
  -1   1  -4   17.46    1.20
  -1   1  -5   84.18    4.33
   1  -1   5   67.72    3.35
  -1   1  -5   51.16    2.95
  -1   1  -6   19.60    2.01
   1  -1   6   19.06    1.91
   1  -1   6   16.83    1.73
  -1   1  -7   42.58    3.58
   1  -1   7   45.48    2.58
   1  -1   7   39.84    3.37
  -1   1  -8   15.38    1.54
   1  -1   8   11.85    1.01
   1  -1   8   12.36    2.62
  -1   1  -9    3.73    0.97
   1  -1   9    0.63    0.57
   1  -1   9   -0.12    0.55
   1  -1  10    0.97    0.54
   1  -1  10    0.52    0.34
  -1   1 -11    9.56    1.52
   1  -1  11    4.79    0.79
   1  -1  11    8.64    1.30
  -1   1 -12   31.79    2.55
   1  -1  12   21.51    1.52
   1  -1  12   31.01    4.88
  -1   1 -13   69.60    4.01
   1  -1  13   74.59    6.21
  -1   1 -14    6.15    1.50
   1  -1  14    1.52    0.71
  -1   1 -15    2.02    1.29
   1  -1  15    0.79    0.69
  -1   1 -16    3.18    1.42
   1  -1  16    1.84    0.68
  -1   1 -17    2.84    1.40
  -1   1 -18    5.25    1.68
  -1   1 -19    4.78    1.95
  -1   1 -20    2.62    1.62
   1   0 -20    1.07    1.09
   1   0 -19    0.48    1.00
   1   0 -18    1.66    1.19
   1   0 -17    4.60    1.52
   1   0 -16    6.13    1.74
  -1   0  16    3.15    1.23
   1   0 -15   18.66    2.76
  -1   0  15   10.68    1.82
   1   0 -14   12.10    2.06
  -1   0  14    5.73    1.58
   1   0 -13    4.61    1.89
  -1   0  13    1.05    0.76
   1   0 -12   62.44    5.05
  -1   0  12   40.42    2.81
  -1   0  12   44.16    5.45
   1   0 -11   11.39    3.87
  -1   0  11    8.66    1.40
  -1   0  11    8.57    0.96
   1   0 -10  331.82   17.39
  -1   0  10  203.25   10.84
  -1   0  10  265.73   12.98
   1   0  -9  112.08    7.76
  -1   0   9   72.89    5.19
  -1   0   9   95.99    5.95
   1   0  -8   21.21    1.95
  -1   0   8   13.18    1.43
  -1   0   8   19.77    1.25
   1   0  -7  113.78    6.30
  -1   0   7   67.78    4.02
  -1   0   7   88.26    4.48
   1   0  -6    0.56    0.58
  -1   0   6   -0.07    0.50
  -1   0   6    0.25    0.19
   1   0  -5   20.63    4.63
  -1   0   5   12.97    1.13
  -1   0   5   13.54    0.81
   1   0  -4    4.21    0.79
  -1   0   4    3.37    0.66
  -1   0   4    2.96    0.35
   1   0  -3    3.96    0.90
  -1   0   3    1.67    0.42
  -1   0   3    2.48    0.29
   1   0  -2 3496.55  237.32
  -1   0   2 2817.44   50.34
  -1   0   2 2764.16   48.71
  -1   0   1  326.61    6.65
  -1   0   1  300.34    6.27
  -1   0   1  295.93    5.90
  -1   0   0   12.97    0.74
  -1   0   0   12.47    0.72
  -1   0   0   11.77    0.69
  -1   0  -1   25.57    1.07
  -1   0  -1   25.62    1.20
   1   0   2 2400.58   42.39
  -1   0  -3   16.65    1.01
   1   0   3   19.87    0.68
  -1   0  -3   14.75    1.02
  -1   0  -4   12.39    1.02
   1   0   4   13.94    0.68
   1   0   4   10.19    0.89
  -1   0  -5   65.59    3.60
   1   0   5   69.03    3.26
   1   0   5   61.45    3.43
  -1   0  -6    5.70    0.95
   1   0   6    6.09    0.71
   1   0   6    6.17    2.38
   1   0   7    2.37    0.42
   1   0   7    3.15    0.76
  -1   0  -8   12.63    1.43
   1   0   8    8.29    0.78
   1   0   8   11.33    1.67
  -1   0  -9   87.06    6.12
   1   0   9   58.22    3.79
   1   0   9   92.34    8.34
  -1   0 -10  335.79   17.14
   1   0  10  233.26   11.45
   1   0  10  373.29   65.58
  -1   0 -11   17.37    2.04
   1   0  11   15.77    1.26
   1   0  11   24.78    4.93
  -1   0 -12   45.18    3.20
   1   0  12   43.23    7.00
  -1   0 -13    1.25    0.95
   1   0  13    1.17    0.64
  -1   0 -14    5.61    1.54
   1   0  14    3.81    1.12
  -1   0 -15    3.63    1.39
   1   0  15    1.46    0.94
  -1   0 -16    8.00    1.99
   1   0  16    6.61    2.72
  -1   0 -17    0.31    0.87
  -1   0 -18   -0.93    0.79
  -1   0 -19    1.07    1.08
   1   1 -20   -0.49    0.96
   1   1 -19    1.25    1.05
   1   1 -18    6.14    2.11
   1   1 -17    5.68    1.54
  -1  -1  17    3.96    1.49
   1   1 -16    5.41    1.65
  -1  -1  16    1.96    1.06
   1   1 -15   10.86    1.97
  -1  -1  15    8.39    1.66
   1   1 -14   33.95    3.05
  -1  -1  14   18.96    2.11
  -1  -1  13    0.32    0.62
   1   1 -12   13.70    3.27
  -1  -1  12    3.95    1.05
   1   1 -11    3.84    1.34
  -1  -1  11    3.08    1.13
  -1  -1  11    1.88    0.58
   1   1 -10  171.04    9.50
  -1  -1  10  101.91    5.99
  -1  -1  10  127.38    6.65
   1   1  -9   50.41    4.09
  -1  -1   9   28.24    2.51
  -1  -1   9   36.51    2.46
   1   1  -8    2.81    0.91
  -1  -1   8    0.90    0.27
   1   1  -7    1.94    0.71
  -1  -1   7    1.01    0.57
   1   1  -6    0.41    0.47
  -1  -1   6    0.05    0.50
  -1  -1   6    0.39    0.14
   1   1  -5  130.06    6.36
  -1  -1   5   87.82    4.54
  -1  -1   5   91.60    4.02
   1   1  -4   45.81    2.71
  -1  -1   4   30.68    1.46
  -1  -1   4   27.55    0.51
   1   1  -3  924.72   17.66
  -1  -1   3  737.32   14.33
  -1  -1   3  674.42   12.05
   1   1  -2  575.76   11.30
  -1  -1   2  497.12    9.90
  -1  -1   2  478.37    8.82
  -1  -1   1  564.09   10.98
  -1  -1   1  537.53   10.37
  -1  -1   1  547.89   10.24
  -1  -1   0   39.51    2.15
  -1  -1   0   39.38    2.00
   1   1   0   44.71    2.28
  -1  -1  -1  687.68   13.22
  -1  -1  -1  685.67   12.50
   1   1   1  793.83   15.19
  -1  -1  -2 1276.64   23.69
   1   1   2 1328.16   23.47
   1   1   2 1354.28   25.26
   1   1   3   13.28    0.36
   1   1   3   12.17    2.18
   1   1   4    0.21    0.07
   1   1   4    0.56    0.32
  -1  -1  -5  104.90    5.41
   1   1   5   74.97    3.36
   1   1   5   89.94    4.76
  -1  -1  -6   75.56    4.47
   1   1   6   56.44    2.82
   1   1   6   72.32    4.24
   1   1   7   -0.08    0.49
  -1  -1  -8   31.73    2.47
   1   1   8   17.14    1.06
   1   1   8   27.31    4.27
  -1  -1  -9  100.29    7.01
   1   1   9   62.07    3.94
   1   1   9  100.60   13.31
  -1  -1 -10    2.80    1.11
   1   1  10    4.62    1.28
  -1  -1 -11  127.82    9.19
   1   1  11  163.74   14.16
  -1  -1 -12    0.77    0.94
   1   1  12    1.17    0.37
  -1  -1 -13   30.18    3.42
   1   1  13   26.59    3.82
  -1  -1 -14   23.92    2.66
   1   1  14   28.19    4.45
  -1  -1 -15    2.29    1.25
   1   1  15   -0.42    0.69
  -1  -1 -16    2.26    1.34
   1   1  16    0.36    0.73
  -1  -1 -17    3.88    1.61
  -1  -1 -18   -0.03    0.87
  -1  -1 -19    2.04    1.49
   1   2 -20    3.26    1.71
   1   2 -19    1.37    1.14
   1   2 -18    3.13    1.41
   1   2 -17    7.09    1.81
  -1  -2  17    2.69    1.40
   1   2 -16    8.09    1.89
  -1  -2  16    4.62    1.51
   1   2 -15    0.20    0.86
  -1  -2  15    1.38    0.96
   1   2 -14   35.46    5.80
  -1  -2  14   16.69    1.98
   1   2 -13    7.01    2.23
  -1  -2  13    3.09    1.27
   1   2 -12   11.20    1.78
  -1  -2  12    6.92    1.26
   1   2 -11   13.98    1.81
  -1  -2  11    6.81    1.21
   1   2 -10   33.35    6.07
  -1  -2  10   21.49    2.15
   1   2  -9   78.19    5.64
  -1  -2   9   41.30    4.00
   1   2  -8  656.84   31.02
  -1  -2   8  443.33    7.03
   1   2  -7   11.82    2.86
  -1  -2   7    5.84    1.43
   1   2  -6  532.44   11.77
  -1  -2   6  337.94    8.10
   1   2  -5   92.84    4.78
  -1  -2   5   65.18    3.60
   1   2  -4   55.69    3.11
  -1  -2   4   43.43    2.57
   1   2  -3  286.28    6.49
  -1  -2   3  236.96    5.53
   1   2  -3  333.86    6.13
  -1  -2   2   75.36    3.79
  -1  -2   2   67.08    3.37
   1   2  -2   90.12    4.06
  -1  -2   1  338.29    7.19
  -1  -2   1  350.47    7.11
   1   2  -1  417.36    8.16
  -1  -2   0    1.41    0.36
  -1  -2   0    2.02    0.32
   1   2   0    0.94    0.38
  -1  -2  -1  493.25   10.05
  -1  -2  -1  465.49    8.63
   1   2   1  605.13   11.87
  -1  -2  -2  450.89    9.47
  -1  -2  -2  405.15    7.28
   1   2   2  443.29    9.42
  -1  -2  -3  122.44    5.98
   1   2   3   93.15    4.73
  -1  -2  -4  376.95    8.57
   1   2   4  425.21    9.45
  -1  -2  -5   39.62    3.37
   1   2   5   29.68    6.51
  -1  -2  -6  276.59   13.66
   1   2   6  267.15   13.55
  -1  -2  -7   37.27    2.56
   1   2   7   41.82    6.13
  -1  -2  -8   -0.25    0.62
   1   2   8   -0.11    0.56
  -1  -2  -9    0.78    0.75
   1   2   9    0.45    0.34
  -1  -2 -10   30.96    2.73
   1   2  10   37.94    3.15
  -1  -2 -11   56.50    3.46
   1   2  11   67.10    9.95
  -1  -2 -12    0.91    1.26
   1   2  12    1.58    1.10
  -1  -2 -13   52.12    3.72
   1   2  13   50.05    6.78
  -1  -2 -14    4.52    1.60
   1   2  14    3.87    1.08
  -1  -2 -15    1.56    1.00
   1   2  15    1.17    0.86
  -1  -2 -16    0.54    0.87
   1   2  16   -0.09    0.74
  -1  -2 -17    3.36    1.58
  -1  -2 -18    0.61    1.03
  -1  -2 -19    1.45    1.20
   1   3 -20   -0.31    0.91
   1   3 -19    2.37    1.60
   1   3 -18   -0.24    0.90
  -1  -3  18    0.71    0.85
   1   3 -17    2.67    1.51
  -1  -3  17    0.41    0.72
   1   3 -16   40.34    3.52
  -1  -3  16   19.48    2.45
   1   3 -15    2.11    0.99
  -1  -3  15    2.49    1.17
   1   3 -14   36.03    4.91
  -1  -3  14   22.56    2.63
   1   3 -13    7.88    2.14
  -1  -3  13    4.70    1.30
   1   3 -12   34.12    3.39
  -1  -3  12   17.82    3.63
   1   3 -11   38.67    3.05
  -1  -3  11   22.99    2.13
   1   3 -10   37.76    3.13
  -1  -3  10   29.51    4.42
   1   3  -9   16.82    2.29
  -1  -3   9    7.42    1.22
   1   3  -8   24.97    3.83
  -1  -3   8    8.82    1.31
   1   3  -7  202.08   10.26
  -1  -3   7  136.85    7.27
   1   3  -6  146.01    7.64
  -1  -3   6  118.62    6.34
   1   3  -5    4.33    0.50
  -1  -3   5    1.46    0.60
  -1  -3   4  372.15    8.28
   1   3  -4  367.10    6.66
   1   3  -3   27.78    1.48
  -1  -3   3   25.11    1.28
   1   3  -3   39.93    0.94
  -1  -3   2   16.23    1.07
  -1  -3   2   17.93    1.07
   1   3  -2   23.29    0.88
  -1  -3   1    6.46    0.69
  -1  -3   1    6.58    0.57
   1   3  -1   10.17    2.53
  -1  -3   0  126.14    6.02
  -1  -3   0  131.55    5.93
   1   3   0  164.24    7.71
  -1  -3  -1   60.61    3.52
  -1  -3  -1   67.92    3.14
   1   3   1   88.72    4.51
  -1  -3  -2  239.55    5.86
  -1  -3  -2  221.64    4.22
   1   3   2  292.30    6.83
  -1  -3  -4   41.09    2.78
   1   3   4   26.55    2.47
  -1  -3  -5  282.44   13.87
   1   3   5  348.76   18.92
  -1  -3  -6  106.26    5.88
   1   3   6  131.67    9.04
  -1  -3  -7   25.73    2.21
   1   3   7   16.31    3.96
  -1  -3  -8   27.65    2.37
   1   3   8   20.29    2.68
  -1  -3  -9   36.20    2.81
   1   3   9   39.10    6.19
  -1  -3 -10    9.22    1.76
   1   3  10    2.78    1.48
  -1  -3 -11    1.27    0.91
   1   3  11    1.55    0.65
  -1  -3 -12    9.25    1.80
   1   3  12   11.06    1.78
  -1  -3 -13    0.36    0.91
   1   3  13    0.89    0.83
  -1  -3 -14    2.13    1.32
   1   3  14    1.43    1.13
  -1  -3 -15    3.25    1.41
   1   3  15    1.83    0.96
  -1  -3 -16    1.55    1.06
   1   3  16    1.63    1.15
  -1  -3 -17    3.55    1.71
  -1  -3 -18    0.89    0.98
  -1  -3 -19    1.61    1.15
   1   4 -20    2.38    1.30
   1   4 -19    2.12    1.21
   1   4 -18    0.96    0.98
  -1  -4  18   -0.06    0.66
   1   4 -17   12.28    2.30
  -1  -4  17    8.51    1.72
   1   4 -16   13.11    2.28
  -1  -4  16    8.73    1.72
   1   4 -15    1.51    1.29
  -1  -4  15    0.36    0.76
   1   4 -14    8.40    1.79
  -1  -4  14    2.19    1.03
   1   4 -13   -0.06    0.75
  -1  -4  13    0.14    0.62
   1   4 -12    0.34    0.81
  -1  -4  12    1.69    0.79
   1   4 -11    0.97    0.82
  -1  -4  11    0.75    0.70
   1   4 -10   10.56    1.77
  -1  -4  10    7.32    1.38
   1   4  -9   29.64    4.93
  -1  -4   9   17.80    1.87
   1   4  -8    7.75    1.20
  -1  -4   8    4.26    0.99
   1   4  -7  143.90    7.66
  -1  -4   7  131.56    7.08
   1   4  -6    1.22    0.49
  -1  -4   6   -0.69    0.69
   1   4  -5  404.04    9.26
  -1  -4   5  380.30    8.77
   1   4  -5  318.47    5.98
   1   4  -4  182.72    5.00
  -1  -4   4  155.92    7.44
   1   4  -4  163.81    7.28
  -1  -4   3   78.95    4.13
  -1  -4   3   79.75    4.09
   1   4  -3  106.11    4.86
  -1  -4   1  146.78    6.95
  -1  -4   1  171.68   11.98
   1   4  -1  225.59   15.66
  -1  -4   0    0.88    0.24
   1   4   0    0.51    0.38
  -1  -4  -1  164.44    4.61
  -1  -4  -1  185.95    4.13
   1   4   1  237.94    5.86
  -1  -4  -2   43.74    2.73
  -1  -4  -2   39.22    2.83
   1   4   2   45.30    3.65
  -1  -4  -3  106.50    5.74
  -1  -4  -3   92.34    4.34
   1   4   3  109.88    5.91
  -1  -4  -4   47.76    3.17
   1   4   4   38.77    3.38
  -1  -4  -5   11.40    1.40
   1   4   5   16.52    4.56
  -1  -4  -6   35.24    2.53
   1   4   6   38.46    7.16
  -1  -4  -7   40.85    3.40
   1   4   7   46.49    5.18
  -1  -4  -8    2.43    0.78
   1   4   8    2.08    0.52
  -1  -4  -9    6.18    1.29
   1   4   9    6.96    1.66
  -1  -4 -10    0.16    0.68
   1   4  10    0.56    0.77
  -1  -4 -11    5.17    1.46
   1   4  11    9.88    2.99
  -1  -4 -12    2.64    1.12
   1   4  12    3.67    1.24
  -1  -4 -13    1.90    1.44
   1   4  13    3.29    1.21
  -1  -4 -14    7.91    1.77
   1   4  14    9.54    1.75
  -1  -4 -15    7.11    1.98
   1   4  15   11.06    2.14
  -1  -4 -16   -0.02    0.95
   1   4  16    0.16    0.84
  -1  -4 -17    2.16    1.17
  -1  -4 -18    2.31    1.59
   1   5 -20    0.56    0.97
   1   5 -19    2.06    1.39
   1   5 -18    4.24    1.51
  -1  -5  18    2.61    1.34
   1   5 -17    2.77    1.39
  -1  -5  17    0.43    0.75
   1   5 -16    2.41    0.77
  -1  -5  16    0.11    0.74
   1   5 -15   24.04    2.65
  -1  -5  15   14.51    2.82
   1   5 -14   22.86    2.48
  -1  -5  14   11.45    1.78
   1   5 -13   30.93    3.12
  -1  -5  13   22.89    2.34
   1   5 -12   11.41    1.77
  -1  -5  12    6.02    1.35
   1   5 -11   54.21    3.71
  -1  -5  11   36.19    2.89
   1   5 -10   46.45    7.25
  -1  -5  10   31.71    2.75
   1   5  -9  140.96    9.92
  -1  -5   9  101.73    6.93
   1   5  -8    5.58    1.24
  -1  -5   8   10.01    1.35
   1   5  -7  101.87   12.08
  -1  -5   7   75.56    4.52
   1   5  -6   25.56    2.84
  -1  -5   6   18.25    1.95
   1   5  -6   14.97    1.20
   1   5  -5  170.72    8.83
  -1  -5   5  151.21    7.83
   1   5  -5  134.42    6.41
   1   5  -4   59.40    3.43
  -1  -5   4   65.46    3.72
   1   5  -4   65.75    3.25
  -1  -5   3    1.35    0.45
  -1  -5   3    0.90    0.48
   1   5  -3    3.84    0.57
  -1  -5   2   12.01    0.97
  -1  -5   1    5.65    0.86
  -1  -5   1    9.51    1.83
   1   5  -1   10.64    0.87
  -1  -5   0   38.21    2.41
  -1  -5   0   38.48    2.95
   1   5   0   61.21    3.40
  -1  -5  -1   88.02    4.65
  -1  -5  -1  103.59    4.83
   1   5   1  131.29    6.49
  -1  -5  -2    5.95    1.13
  -1  -5  -2    3.82    1.11
   1   5   2    5.39    0.95
  -1  -5  -3   78.77    4.56
  -1  -5  -3   92.63    4.57
   1   5   3  106.07    5.86
  -1  -5  -4   26.90    2.08
   1   5   4   17.18    3.11
  -1  -5  -5    6.47    1.18
   1   5   5    8.45    1.72
  -1  -5  -6   60.38    4.50
   1   5   6   82.08    6.05
  -1  -5  -7   27.10    2.46
   1   5   7   36.69    3.03
   1   5   8    1.84    0.84
  -1  -5  -9    5.13    1.24
   1   5   9    1.45    0.84
  -1  -5 -10    0.22    0.76
   1   5  10    3.58    1.20
  -1  -5 -11   27.61    3.02
   1   5  11   41.15    4.02
  -1  -5 -12    1.99    1.10
   1   5  12    6.00    1.58
  -1  -5 -13    4.46    1.72
   1   5  13    1.60    0.99
  -1  -5 -14    0.93    1.29
   1   5  14    0.56    0.81
  -1  -5 -15    1.35    1.03
   1   5  15    0.56    0.93
  -1  -5 -16    9.11    2.38
   1   5  16    2.67    1.19
  -1  -5 -17    1.34    1.11
   1   6 -20    2.93    1.79
   1   6 -19    0.88    1.08
  -1  -6  19    1.09    0.99
   1   6 -18    7.22    2.03
  -1  -6  18    7.83    2.16
   1   6 -17    9.61    2.98
  -1  -6  17    9.00    2.02
   1   6 -16   29.21    3.20
  -1  -6  16   20.05    2.51
   1   6 -15    7.03    1.90
  -1  -6  15    3.59    1.01
   1   6 -14   12.11    2.10
  -1  -6  14    2.59    1.14
   1   6 -13    2.13    1.04
  -1  -6  13    1.77    0.85
   1   6 -12   14.93    1.84
  -1  -6  12    9.14    1.46
   1   6 -11   19.15    3.96
  -1  -6  11   15.16    1.88
   1   6 -10   25.07    5.71
  -1  -6  10   14.36    2.12
   1   6  -9    2.36    1.14
  -1  -6   9    1.53    0.66
   1   6  -8    1.99    0.46
  -1  -6   8    0.56    0.66
   1   6  -7    0.27    0.44
  -1  -6   7    0.08    0.71
   1   6  -7    0.05    0.15
   1   6  -6    5.67    2.39
   1   6  -6    4.50    0.52
   1   6  -5  204.65   13.04
  -1  -6   5  200.87   10.16
   1   6  -5  181.79    8.71
   1   6  -4  103.57    5.72
  -1  -6   4  107.96    5.82
   1   6  -4  108.94    5.52
  -1  -6   3    3.11    0.76
  -1  -6   3    6.19    2.09
   1   6  -3    8.51    1.08
  -1  -6   2   90.63    5.00
  -1  -6   2   87.15    4.70
   1   6  -2  141.40    7.20
  -1  -6   1   66.51    3.85
  -1  -6   1   91.62    4.82
   1   6  -1  106.19    5.61
  -1  -6   0  259.49   12.69
  -1  -6   0  342.88   16.38
   1   6   0  391.49   18.76
  -1  -6  -1  113.51    6.09
  -1  -6  -1  151.23    7.86
   1   6   1  188.53    9.57
  -1  -6  -2  113.46    6.18
  -1  -6  -2  147.59    7.14
   1   6   2  167.16    8.70
  -1  -6  -3    7.04    1.06
  -1  -6  -3    6.83    0.58
  -1  -6  -4   28.03    2.14
  -1  -6  -4   30.26    1.69
   1   6   4   37.08    2.70
  -1  -6  -5    6.56    1.12
   1   6   5    7.78    1.29
  -1  -6  -6   65.95    4.49
   1   6   6   99.78    6.16
  -1  -6  -7    6.24    1.29
   1   6   7   11.27    1.62
  -1  -6  -8    5.58    1.34
   1   6   8   11.17    1.87
  -1  -6  -9    3.67    1.41
   1   6   9    6.01    1.57
  -1  -6 -10    1.20    0.87
   1   6  10    1.75    1.19
  -1  -6 -11    3.82    1.26
   1   6  11    6.51    1.42
  -1  -6 -12    3.20    1.25
   1   6  12    3.43    1.36
  -1  -6 -13    1.46    1.02
   1   6  13    2.96    1.10
  -1  -6 -14    0.48    0.85
   1   6  14    0.51    0.67
  -1  -6 -15    1.10    1.00
   1   6  15    1.21    1.25
  -1  -6 -16    0.80    1.03
   1   7 -20    0.21    0.98
   1   7 -19    4.65    2.11
  -1  -7  19    1.25    1.00
   1   7 -18    5.31    1.49
  -1  -7  18    1.91    1.37
   1   7 -17    1.73    1.13
  -1  -7  17    0.18    0.78
   1   7 -16    1.01    0.94
  -1  -7  16    0.90    1.07
   1   7 -15    2.08    1.32
  -1  -7  15    1.91    1.19
   1   7 -14    1.81    1.01
  -1  -7  14    3.23    1.21
   1   7 -13   54.83    4.74
  -1  -7  13   35.14    3.52
   1   7 -12    2.41    0.94
  -1  -7  12    2.62    1.13
   1   7 -11    7.91    1.42
  -1  -7  11    6.88    1.41
   1   7 -10   75.37   11.61
  -1  -7  10   49.78    3.37
   1   7  -9   21.96    7.38
  -1  -7   9   23.78    3.07
   1   7  -8   79.60    9.57
  -1  -7   8   69.19    5.14
   1   7  -7   54.32    9.52
  -1  -7   7   54.51    4.23
   1   7  -7   37.97    2.56
   1   7  -6   78.75    6.76
  -1  -7   6   76.05    5.03
   1   7  -6   60.79    3.23
   1   7  -5    7.77    4.16
  -1  -7   5   14.15    1.48
   1   7  -5    5.95    0.74
   1   7  -4  140.19   10.64
  -1  -7   4  163.50    8.28
   1   7  -4  146.76    8.16
  -1  -7   3  110.60    5.98
  -1  -7   3  145.07    7.54
   1   7  -3  150.20    7.59
  -1  -7   2   35.57    3.09
  -1  -7   2   45.82    3.73
   1   7  -2   51.74    4.10
  -1  -7   1   68.81    4.10
  -1  -7   1   92.01    5.02
   1   7  -1  107.18    5.80
  -1  -7   0   79.73    4.52
  -1  -7   0  110.90    5.67
   1   7   0  126.05    6.62
  -1  -7  -1   16.35    1.54
  -1  -7  -1   21.58    2.06
   1   7   1   25.63    2.00
  -1  -7  -2    1.17    0.51
  -1  -7  -2    0.28    0.25
   1   7   2    1.52    0.80
  -1  -7  -3    4.48    0.87
  -1  -7  -3    2.89    0.64
   1   7   3    7.66    1.26
  -1  -7  -4   -0.08    0.54
  -1  -7  -4   -0.11    0.18
   1   7   4   -0.41    0.67
  -1  -7  -5   23.02    2.20
   1   7   5   37.43    3.11
  -1  -7  -6    1.48    1.06
  -1  -7  -7    1.69    0.76
   1   7   7    2.45    0.97
  -1  -7  -8   18.11    2.09
   1   7   8   22.04    2.33
  -1  -7  -9    6.08    1.41
   1   7   9    4.52    1.22
  -1  -7 -10    0.75    0.78
   1   7  10    3.45    1.14
  -1  -7 -11    1.28    0.88
  -1  -7 -12    5.16    1.44
   1   7  12    5.04    1.42
  -1  -7 -13    0.71    0.86
   1   7  13    1.85    1.04
  -1  -7 -14    1.79    1.25
   1   7  14    0.21    0.87
  -1  -7 -15    1.48    1.44
   1   7  15    1.32    1.32
  -1  -7 -16    0.53    0.96
   1   8 -20    0.50    1.01
   1   8 -19    1.31    1.05
  -1  -8  19    3.16    1.53
   1   8 -18    3.80    0.87
  -1  -8  18    0.29    0.87
   1   8 -17   17.74    2.72
  -1  -8  17    9.36    1.84
   1   8 -16   18.85    2.66
  -1  -8  16   10.03    2.03
   1   8 -15   24.36    3.01
  -1  -8  15   15.27    2.35
   1   8 -14    5.71    1.61
  -1  -8  14    4.14    1.15
   1   8 -13   61.71    8.48
  -1  -8  13   41.68    3.92
   1   8 -12   49.43    6.54
  -1  -8  12   31.24    2.69
   1   8 -11    3.68    1.08
  -1  -8  11    2.28    0.95
   1   8 -10   18.58    4.26
  -1  -8  10   11.22    1.62
   1   8  -9   34.51    5.07
  -1  -8   9   23.28    2.12
   1   8  -8   21.76    3.63
  -1  -8   8   26.95    4.97
   1   8  -8   12.90    1.51
   1   8  -7  324.34    7.71
  -1  -8   7  299.69   19.68
   1   8  -7  245.46   14.44
   1   8  -6   12.69    2.07
  -1  -8   6   13.66    1.61
   1   8  -6    8.97    1.00
   1   8  -5    7.46    3.10
  -1  -8   5   10.13    1.44
   1   8  -5    7.53    0.90
  -1  -8   4  119.56    6.85
   1   8  -4  112.87    6.19
  -1  -8   3    8.23    1.11
  -1  -8   3   12.46    1.40
   1   8  -3   11.48    1.29
  -1  -8   2    6.81    0.99
  -1  -8   2    9.86    1.11
   1   8  -2    8.39    1.09
  -1  -8   1   70.19    4.13
  -1  -8   1   93.36    5.29
   1   8  -1  101.96    5.56
  -1  -8   0   15.62    1.49
  -1  -8  -1   19.00    1.75
  -1  -8  -1   28.26    2.31
   1   8   1   34.77    3.62
  -1  -8  -2   75.51    5.32
  -1  -8  -2   96.69    6.09
   1   8   2  116.20    7.75
  -1  -8  -3    1.37    0.57
  -1  -8  -3    0.89    0.33
   1   8   3    1.60    0.90
  -1  -8  -4   49.29    3.55
   1   8   4   75.31    5.15
  -1  -8  -5  101.35    5.05
   1   8   5  144.73    6.78
  -1  -8  -6    0.40    0.73
   1   8   6    2.20    1.09
  -1  -8  -7    8.42    1.40
   1   8   7   11.90    4.05
  -1  -8  -8   12.25    1.80
   1   8   8   22.37    2.61
  -1  -8  -9    8.12    1.56
   1   8   9   14.01    2.22
  -1  -8 -10    2.16    0.92
   1   8  10    3.30    1.40
  -1  -8 -11    2.98    1.43
   1   8  11    2.37    1.35
  -1  -8 -12    3.73    1.35
   1   8  12   12.76    2.47
  -1  -8 -13    3.78    1.22
   1   8  13    4.72    2.01
  -1  -8 -14    5.45    1.87
   1   8  14    6.79    1.77
  -1  -8 -15    6.73    2.31
   1   9 -19    2.93    1.33
  -1  -9  19    0.38    0.87
   1   9 -18    9.65    2.09
  -1  -9  18    8.41    1.78
   1   9 -17   13.38    2.58
  -1  -9  17    8.65    1.99
   1   9 -16    1.69    1.11
  -1  -9  16    2.18    1.08
   1   9 -15    7.59    1.69
  -1  -9  15    3.81    1.42
   1   9 -14    1.51    0.97
  -1  -9  14    1.22    1.00
   1   9 -13    0.32    0.81
  -1  -9  13    1.10    0.97
   1   9 -12   12.20    2.96
  -1  -9  12    9.84    1.81
   1   9 -11   75.23   12.72
  -1  -9  11   60.22    3.78
   1   9 -10   10.24    4.36
  -1  -9  10   10.39    1.69
   1   9  -9   95.65    8.43
  -1  -9   9   76.02    6.02
   1   9  -8    1.52    0.57
  -1  -9   8   -0.12    0.77
   1   9  -8    1.20    0.52
   1   9  -6  102.53   12.78
  -1  -9   6  120.34   16.90
   1   9  -6   90.93    5.06
   1   9  -5   59.33    7.45
  -1  -9   5   61.75    4.60
   1   9  -5   53.00    3.75
  -1  -9   4   35.19    4.93
   1   9  -4   30.27    2.52
  -1  -9   3   39.17    3.09
  -1  -9   3   48.45    4.91
   1   9  -3   49.81    3.73
  -1  -9   2   10.11    1.41
  -1  -9   2   12.49    1.39
   1   9  -2   12.84    1.44
  -1  -9   1    1.67    0.53
  -1  -9   1    1.31    0.32
   1   9  -1    1.25    0.81
  -1  -9   0   21.40    1.92
  -1  -9   0   37.83    4.64
   1   9   0   35.21    2.64
  -1  -9  -1  158.14    8.57
  -1  -9  -1  220.99   11.19
   1   9   1  230.88   12.14
  -1  -9  -2    0.78    0.43
  -1  -9  -3    6.48    1.17
  -1  -9  -3    2.86    0.86
   1   9   3    2.94    1.06
  -1  -9  -4    8.76    1.43
   1   9   4   12.85    1.72
  -1  -9  -5   28.86    2.37
   1   9   5   49.88    8.23
  -1  -9  -6   18.44    2.00
   1   9   6   29.75    2.75
  -1  -9  -7    1.02    0.65
   1   9   7    1.61    1.35
  -1  -9  -8    3.73    1.03
   1   9   8    8.23    1.75
  -1  -9  -9    2.29    1.02
   1   9   9    4.56    1.85
  -1  -9 -10    0.36    0.65
   1   9  10    2.57    1.10
  -1  -9 -11    2.19    1.22
   1   9  11    3.19    1.29
  -1  -9 -12    4.17    1.31
   1   9  12    6.13    1.73
  -1  -9 -13    0.72    0.92
   1   9  13    1.12    0.61
  -1  -9 -14   -0.13    0.89
   1   9  14    0.30    0.73
   1  10 -19    1.18    0.79
  -1 -10  19    0.60    0.99
   1  10 -18   10.88    2.58
  -1 -10  18    3.10    1.47
   1  10 -17    1.10    1.04
  -1 -10  17    2.37    1.39
   1  10 -16    5.59    1.62
  -1 -10  16    3.34    1.32
   1  10 -15    0.97    1.13
  -1 -10  15    1.07    0.94
   1  10 -14    8.86    1.75
  -1 -10  14    4.50    1.54
   1  10 -13   24.27    2.69
  -1 -10  13   18.12    2.31
   1  10 -12   29.46    4.29
  -1 -10  12   20.03    2.36
   1  10 -11  163.37   11.49
  -1 -10  11  132.31    5.61
   1  10 -10    7.51    1.59
  -1 -10  10    6.01    1.55
   1  10  -9   20.03    4.28
  -1 -10   9   15.91    2.04
   1  10  -8    9.66    4.07
  -1 -10   8    6.44    3.63
   1  10  -8    3.48    0.91
   1  10  -7    5.88    5.10
   1  10  -7    1.15    0.54
   1  10  -6  249.12    9.55
  -1 -10   6  250.39   12.53
   1  10  -6  217.11    8.09
   1  10  -5    1.39    1.24
  -1 -10   5    3.38    1.17
   1  10  -5    2.87    0.95
  -1 -10   4    4.15    0.97
  -1 -10   4    2.42    0.81
   1  10  -4    1.02    0.58
  -1 -10   3   38.48    2.93
  -1 -10   3   49.84    3.46
   1  10  -3   45.87    8.99
  -1 -10   2    0.48    0.51
  -1 -10   2    1.92    0.62
   1  10  -2    0.33    0.69
  -1 -10   1    2.09    0.97
  -1 -10   1    0.59    0.51
   1  10  -1    0.24    0.58
  -1 -10   0   26.62    2.25
  -1 -10   0   42.70    4.26
   1  10   0   41.02    3.05
  -1 -10  -1   50.32    3.11
  -1 -10  -1   70.10    3.57
   1  10   1   79.90    4.49
  -1 -10  -2  135.10    9.30
  -1 -10  -2  165.50   10.84
   1  10   2  185.86   12.59
  -1 -10  -3   22.52    2.41
  -1 -10  -4   12.50    1.58
   1  10   4   25.35    5.61
  -1 -10  -5   26.46    2.31
   1  10   5   30.88    6.59
  -1 -10  -6   55.25    3.42
   1  10   6   82.89    7.51
  -1 -10  -7   -0.14    0.94
   1  10   7    1.37    0.58
  -1 -10  -8    0.16    0.64
   1  10   8   -0.46    0.84
  -1 -10  -9    4.12    1.48
   1  10   9    3.10    0.86
  -1 -10 -10    2.18    1.16
   1  10  10    1.15    0.94
  -1 -10 -11    1.08    1.11
   1  10  11   -0.57    0.91
  -1 -10 -12    3.08    1.24
   1  10  12    6.87    1.82
  -1 -10 -13    0.63    1.23
   1  10  13    2.92    1.34
   1  11 -18    6.34    2.12
  -1 -11  18    1.66    1.11
   1  11 -17   28.57    3.09
  -1 -11  17   21.67    2.86
   1  11 -16    5.93    1.70
  -1 -11  16    6.16    1.67
   1  11 -15    9.57    1.79
  -1 -11  15    3.64    1.44
   1  11 -14   24.14    2.83
  -1 -11  14   13.16    2.32
   1  11 -13    5.53    1.21
  -1 -11  13    4.59    1.49
   1  11 -12    0.90    0.51
  -1 -11  12   -0.24    0.85
   1  11 -11    3.31    1.07
  -1 -11  11    3.04    1.31
   1  11 -10    4.77    1.32
  -1 -11  10    5.80    1.53
   1  11  -9    7.98    3.57
  -1 -11   9   10.99    1.64
   1  11  -8    7.60    1.53
  -1 -11   8    7.31    1.47
   1  11  -8    5.25    0.90
   1  11  -7   24.14    4.33
  -1 -11   7   31.03    4.36
   1  11  -7   21.55    2.17
   1  11  -6   25.58    4.39
  -1 -11   6   31.13    3.06
   1  11  -6   21.61    2.13
   1  11  -5   76.34    5.63
  -1 -11   5   82.57    6.25
   1  11  -5   71.83    5.29
  -1 -11   4    4.17    1.03
   1  11  -4    4.39    0.88
  -1 -11   3   19.70    3.88
  -1 -11   3   24.13    4.61
   1  11  -3   27.14    2.65
  -1 -11   2    7.80    1.31
  -1 -11   2   12.03    1.80
   1  11  -2   10.24    1.50
  -1 -11   1    5.30    1.00
  -1 -11   1    5.24    0.95
   1  11  -1    6.72    1.43
  -1 -11   0    7.71    1.35
  -1 -11   0    8.02    1.48
   1  11   0    8.27    1.56
  -1 -11  -1   33.04    2.44
  -1 -11  -1   42.24    2.21
   1  11   1   42.85    3.01
  -1 -11  -2   28.18    2.21
  -1 -11  -2   36.94    5.26
   1  11   2   40.92    3.31
  -1 -11  -3   10.96    1.53
   1  11   3   15.39    2.04
  -1 -11  -4    2.41    1.07
   1  11   4    2.86    1.16
  -1 -11  -5   29.10    2.63
   1  11   5   42.96    7.99
  -1 -11  -6    8.31    1.59
   1  11   6   11.08    2.32
  -1 -11  -7    3.00    1.14
   1  11   7    5.36    1.72
  -1 -11  -8    0.58    0.71
   1  11   8    0.88    0.82
  -1 -11  -9    1.66    1.14
   1  11   9    0.60    0.67
  -1 -11 -10    0.31    0.80
   1  11  10   -0.09    0.85
  -1 -11 -11    1.14    0.86
   1  11  11    1.89    1.19
   1  11  12    1.60    1.46
   1  11  13    5.19    2.21
  -1 -12  18    0.17    0.90
   1  12 -17    1.21    1.37
  -1 -12  17    1.31    1.15
   1  12 -16    2.85    1.23
  -1 -12  16    2.55    1.42
   1  12 -15    0.75    0.79
  -1 -12  15    0.96    1.07
   1  12 -14    7.17    1.63
  -1 -12  14    4.18    1.55
   1  12 -13    2.92    1.17
  -1 -12  13    1.57    1.06
   1  12 -12   23.51    4.70
  -1 -12  12   23.49    2.86
   1  12 -11    0.91    0.35
  -1 -12  11    1.18    0.91
   1  12 -10   37.32    7.38
  -1 -12  10   44.75    3.54
   1  12  -9    4.01    1.37
  -1 -12   9    6.15    1.49
   1  12  -8   14.98    7.44
  -1 -12   8   20.31    2.67
   1  12  -8   11.67    1.28
   1  12  -7   13.77    3.35
  -1 -12   7   13.55    3.28
   1  12  -7   10.48    1.26
   1  12  -6    3.22    1.00
  -1 -12   6    2.44    0.94
   1  12  -6    1.92    0.81
   1  12  -5    6.60    4.27
  -1 -12   5    8.50    4.80
   1  12  -5   12.59    1.65
  -1 -12   4   52.46    3.05
   1  12  -4   47.19    2.83
  -1 -12   3    2.10    0.93
   1  12  -3    0.76    0.79
  -1 -12   2   76.45    3.37
  -1 -12   2   97.99    3.89
   1  12  -2   96.22    5.32
  -1 -12   1    0.79    0.58
  -1 -12   1    5.32    1.17
   1  12  -1    5.54    1.32
  -1 -12   0    0.58    0.74
  -1 -12   0    1.07    0.53
   1  12   0    0.77    0.82
  -1 -12  -1    2.43    0.98
  -1 -12  -1    3.96    1.17
   1  12   1    3.39    1.16
  -1 -12  -2    6.53    1.30
  -1 -12  -2    8.27    1.25
   1  12   2   10.36    1.72
  -1 -12  -3    4.25    1.08
   1  12   3    8.95    1.80
  -1 -12  -4    4.56    1.23
   1  12   4    5.01    1.56
  -1 -12  -5    6.37    1.52
   1  12   5    5.87    1.84
  -1 -12  -6    4.46    1.47
   1  12   6    5.84    1.82
  -1 -12  -7    0.42    0.67
   1  12   7    1.61    1.06
  -1 -12  -8    1.42    0.84
   1  12   8    1.90    1.05
  -1 -12  -9    0.72    1.03
   1  12   9    1.24    1.11
  -1 -12 -10    4.37    1.29
   1  12  10    5.43    1.60
   1  12  11    0.23    1.15
   1  12  12    0.69    1.25
  -1 -13  18    0.49    0.98
  -1 -13  17   -0.37    0.89
  -1 -13  16    6.15    1.83
   1  13 -15    1.34    1.12
  -1 -13  15    1.23    1.00
   1  13 -14   -0.42    0.66
  -1 -13  14    3.64    1.48
   1  13 -13   11.20    3.90
  -1 -13  13   10.43    2.51
   1  13 -12   25.84    4.44
  -1 -13  12   23.63    2.78
   1  13 -11    2.68    1.08
  -1 -13  11    0.37    0.86
   1  13 -10   10.76    2.27
  -1 -13  10    9.64    1.83
   1  13  -9    1.65    0.84
  -1 -13   9    1.32    0.93
   1  13  -8    4.49    1.32
  -1 -13   8    3.63    1.11
   1  13  -8    4.42    1.00
   1  13  -7    2.86    1.39
  -1 -13   7    2.49    1.09
   1  13  -7    2.92    0.93
   1  13  -6   10.50    2.95
  -1 -13   6    9.56    1.64
   1  13  -6   10.88    1.55
   1  13  -5    3.62    1.85
  -1 -13   5    0.14    0.53
   1  13  -5    0.40    0.59
   1  13  -4    3.22    0.88
  -1 -13   4    7.49    1.43
   1  13  -4    3.33    0.93
  -1 -13   3    4.28    1.13
  -1 -13   3    4.40    1.08
   1  13  -3    4.07    1.13
  -1 -13   2    0.33    0.52
  -1 -13   2    0.25    0.57
   1  13  -2    1.64    0.75
  -1 -13   1    3.45    0.93
  -1 -13   1    3.06    0.85
   1  13  -1    2.35    0.87
  -1 -13   0   10.06    1.39
  -1 -13   0   21.38    1.95
   1  13   0   19.19    2.29
  -1 -13  -1    0.52    0.55
  -1 -13  -1    0.57    0.49
   1  13   1    0.96    1.17
  -1 -13  -2    1.39    0.81
   1  13   2    1.02    0.94
  -1 -13  -3    0.84    0.82
   1  13   3    1.25    1.07
  -1 -13  -4    0.25    0.61
   1  13   4    0.82    0.92
  -1 -13  -5    3.15    1.19
   1  13   5    6.68    1.77
  -1 -13  -6    8.83    1.67
   1  13   6   13.11    2.19
  -1 -13  -7    0.00    0.69
   1  13   7    1.24    1.10
  -1 -13  -8    1.15    1.18
   1  13   8    2.09    1.20
   1  13   9    1.23    1.09
   1  13  10    3.20    1.70
   1  13  11    0.03    1.09
  -1 -14  18    4.39    1.99
  -1 -14  17    3.16    1.70
  -1 -14  16    0.58    0.97
  -1 -14  15    0.25    0.88
   1  14 -14    0.11    0.68
  -1 -14  14    1.29    1.30
   1  14 -13    9.61    2.64
  -1 -14  13    8.98    1.95
   1  14 -12    0.83    0.65
  -1 -14  12    1.43    1.36
   1  14 -11    6.39    1.72
  -1 -14  11    5.56    1.59
   1  14 -10    1.39    0.62
  -1 -14  10    0.77    0.97
   1  14  -9    4.82    2.05
  -1 -14   9    0.41    0.77
   1  14  -8    1.78    1.64
  -1 -14   8    0.89    0.67
   1  14  -8    0.43    0.56
   1  14  -7    1.14    0.64
  -1 -14   7    0.48    0.80
   1  14  -7    0.66    0.62
   1  14  -6   18.50    3.82
  -1 -14   6   21.98    2.42
   1  14  -6   18.29    1.95
   1  14  -5    4.79    0.92
  -1 -14   5    3.01    0.94
   1  14  -5    3.20    1.10
   1  14  -4    0.72    0.67
  -1 -14   4    0.59    0.61
   1  14  -4    1.72    0.92
  -1 -14   3    7.91    1.29
  -1 -14   3   10.96    3.01
   1  14  -3   14.36    1.86
  -1 -14   2    0.54    0.59
  -1 -14   2    0.86    0.62
   1  14  -2    1.36    0.78
  -1 -14   1   17.31    1.81
  -1 -14   1   20.16    3.91
   1  14  -1   23.17    6.99
  -1 -14   0    0.05    0.49
  -1 -14   0    1.04    0.39
   1  14   0   -0.16    0.74
  -1 -14  -1    0.50    0.58
   1  14   1    2.15    1.31
  -1 -14  -2    1.55    0.92
   1  14   2    1.69    1.01
  -1 -14  -3    3.74    1.12
   1  14   3    7.80    1.83
  -1 -14  -4    0.24    0.66
   1  14   4    0.30    0.64
  -1 -14  -5    0.75    0.77
   1  14   5    0.96    1.05
   1  14   6    4.90    1.52
   1  14   7    3.88    1.49
   1  14   8    1.02    1.11
   1  14   9    0.20    0.90
   1  14  10    1.63    1.34
  -1 -15  17   -0.63    0.91
  -1 -15  16   -0.09    0.98
  -1 -15  15    0.24    0.99
  -1 -15  14    6.17    1.99
  -1 -15  13    1.73    1.13
  -1 -15  12    1.90    1.05
  -1 -15  11    1.86    1.13
  -1 -15  10    3.27    1.22
   1  15  -9    1.27    0.77
  -1 -15   9    0.60    0.80
   1  15  -8    2.03    1.11
  -1 -15   8    2.43    2.61
   1  15  -7    9.67    2.90
  -1 -15   7   17.64    2.33
   1  15  -7   10.43    1.67
   1  15  -6    0.89    0.66
  -1 -15   6    3.06    1.16
   1  15  -6    1.97    1.08
   1  15  -5    0.57    0.41
  -1 -15   5    1.94    0.86
   1  15  -5    0.37    0.68
   1  15  -4    0.04    0.52
  -1 -15   4    0.11    0.57
   1  15  -4    0.76    0.70
  -1 -15   3    1.53    0.84
  -1 -15   3    2.80    0.92
   1  15  -3    2.46    1.13
  -1 -15   2    0.07    0.47
  -1 -15   2    1.03    0.70
   1  15  -2    2.71    1.21
  -1 -15   1    0.58    0.55
  -1 -15   1    1.05    0.86
   1  15  -1    0.33    0.74
  -1 -15   0    0.12    0.51
   1  15   0    1.06    0.55
   1  15   1    0.08    0.83
   1  15   2    0.72    0.92
   1  15   3    1.30    1.00
   1  15   4   -0.29    0.90
   1  15   5    3.42    1.70
   1  15   6    0.13    0.94
   1  15   7    3.80    1.83
   1  15   8   -1.49    1.00
   1  15   9    1.20    1.30
  -1 -16  16    0.14    0.98
  -1 -16  15    1.35    1.10
  -1 -16  14    1.23    1.09
  -1 -16  13    1.84    1.17
  -1 -16  12    8.08    1.98
  -1 -16  11    1.53    1.34
  -1 -16  10    0.75    0.63
  -1 -16   9    5.22    1.71
  -1 -16   8    1.13    0.48
  -1 -16   7    0.44    0.32
  -1 -16   6    2.41    1.14
   1  16  -6    0.14    0.72
  -1 -16   5    2.58    1.08
   1  16  -5    2.39    1.14
  -1 -16   4    0.16    0.22
   1  16  -4    0.07    0.61
  -1 -16   3    0.50    0.67
   1  16  -3    0.26    0.65
  -1 -16   2    2.58    0.99
   1  16  -2    1.18    0.94
   1  16  -1    7.96    1.90
   1  16   0    1.12    0.92
   1  16   1    2.04    1.11
   1  16   2    1.09    0.58
   1  16   3    2.44    1.20
   1  16   4    1.82    1.44
   1  16   5    0.37    0.92
   1  16   6    0.75    0.74
   1  16   7    1.15    1.15
  -1 -17  14    2.20    1.41
  -1 -17  13    5.64    2.16
  -1 -17  12    0.86    1.04
  -1 -17  11   -0.21    0.86
  -1 -17  10    3.11    1.46
  -1 -17   9    8.23    2.59
  -1 -17   8    4.40    1.55
  -1 -17   7    1.08    0.77
  -1 -17   6    2.45    1.17
  -1 -17   5    1.14    1.10
   1  17  -5    2.14    1.26
  -1 -17   4    0.36    1.34
   1  17  -4    1.39    0.88
   1  17  -3    7.86    1.81
   1  17  -2    1.77    1.44
   1  17  -1    4.61    1.80
   1  17   0    0.44    0.91
   1  17   1    0.54    0.92
   1  17   2    0.23    0.85
   1  17   3   -0.47    0.90
   1  17   4    3.69    1.49
   1  17   5    0.92    0.77
  -1 -18  12    2.37    1.39
  -1 -18  11    1.35    1.47
  -1 -18  10   -0.19    0.83
  -1 -18   9    0.80    0.49
  -1 -18   8    5.30    1.68
  -1 -18   7    0.36    0.86
   1  18  -3    6.77    2.04
   1  18  -2    4.02    1.70
   1  18  -1    1.73    1.36
   1  18   0    0.39    0.98
   1  18   1    0.18    0.91
   1  18   2    0.29    0.96
  -2  19  -1    0.82    1.17
  -2  19  -2    7.14    2.24
  -2  19  -3   -0.02    0.98
   2 -19   4    0.77    1.24
  -2  19  -4    1.46    1.24
   2 -19   5    0.26    1.20
  -2  19  -5    2.78    1.68
   2 -19   6    1.50    1.38
   2 -19   7    3.82    2.14
   2 -19   8    1.04    1.28
   2 -19   9    4.56    2.26
  -2  18   2    1.77    1.38
  -2  18   1    0.20    1.01
  -2  18   0    0.02    1.10
   2 -18   1    1.26    1.06
  -2  18  -1   -0.25    1.02
   2 -18   2    2.28    1.57
  -2  18  -2    2.31    1.84
   2 -18   3    4.67    1.94
  -2  18  -3    3.37    1.80
   2 -18   4    4.87    1.98
  -2  18  -4    1.10    1.17
   2 -18   5    1.61    1.19
  -2  18  -5    0.97    1.15
   2 -18   6    1.98    1.23
  -2  18  -6    2.65    1.64
   2 -18   7    1.52    1.21
  -2  18  -7    0.92    1.07
   2 -18   8    6.72    2.61
  -2  18  -8    2.59    1.30
   2 -18   9    1.19    1.54
   2 -18  10    0.39    1.03
   2 -18  11    1.12    1.10
  -2  17   4   -0.94    1.19
  -2  17   3   -0.26    0.97
  -2  17   2    0.04    0.89
   2 -17  -1    1.31    1.03
  -2  17   1   -0.43    0.95
   2 -17   0   -0.81    0.84
  -2  17   0    2.20    1.55
   2 -17   1    0.79    1.00
  -2  17  -1    0.49    0.94
   2 -17   2    2.53    1.22
  -2  17  -2    1.70    1.44
   2 -17   3    2.61    1.25
  -2  17  -3    1.18    1.54
   2 -17   4    0.85    1.00
  -2  17  -4    0.84    1.29
   2 -17   5    4.25    1.42
  -2  17  -5    1.23    1.02
   2 -17   6   -0.06    0.93
  -2  17  -6    1.13    0.97
   2 -17   7   11.56    2.38
  -2  17  -7    6.95    1.87
   2 -17   8    0.10    1.04
  -2  17  -8    1.54    1.10
   2 -17   9    0.11    0.73
  -2  17  -9    1.78    1.11
   2 -17  10    0.23    0.94
  -2  17 -10    0.96    0.95
   2 -17  11    1.83    1.50
   2 -17  12   -0.34    0.94
   2 -17  13   -0.21    0.76
  -2  16   5    1.99    1.50
  -2  16   4    1.47    1.53
   2 -16  -3    0.80    0.74
  -2  16   3    1.01    1.09
   2 -16  -2    1.18    0.74
  -2  16   2    1.52    1.15
   2 -16  -1    2.15    1.25
  -2  16   1    1.13    1.06
   2 -16   0    1.06    1.03
  -2  16   0    1.28    1.10
   2 -16   1    0.82    0.84
  -2  16  -1   -0.07    0.80
   2 -16   2    1.47    0.96
  -2  16  -2    0.31    0.93
   2 -16   3    0.69    1.34
  -2  16  -3    0.10    0.87
   2 -16   4    1.76    1.12
  -2  16  -4    1.25    1.08
   2 -16   5    0.74    0.97
  -2  16  -5    0.95    0.91
   2 -16   6    0.49    0.96
  -2  16  -6    0.48    0.79
   2 -16   7   17.86    2.79
  -2  16  -7    7.87    1.85
   2 -16   8    5.18    1.68
  -2  16  -8    5.03    1.56
   2 -16   9    2.18    1.21
  -2  16  -9    1.30    1.00
   2 -16  10    1.57    1.33
  -2  16 -10    1.61    1.01
   2 -16  11    0.18    0.99
  -2  16 -11   -0.86    0.75
   2 -16  12    1.95    1.17
   2 -16  13    0.32    0.88
   2 -16  14    0.60    0.93
  -2  15   7    0.67    1.04
  -2  15   6    0.70    0.96
   2 -15  -5    1.40    0.87
  -2  15   5    1.49    1.06
   2 -15  -4    0.87    0.56
  -2  15   4    1.32    1.05
   2 -15  -3    0.64    0.61
  -2  15   3    1.38    1.03
   2 -15  -2    1.71    0.93
  -2  15   2    0.12    0.90
   2 -15  -1    2.73    1.26
  -2  15   1    2.52    1.36
   2 -15   0    7.90    2.17
  -2  15   0    4.02    1.57
   2 -15   1    6.01    1.33
  -2  15  -1    4.04    1.50
   2 -15   2    1.33    1.34
  -2  15  -2    0.59    0.89
   2 -15   3    1.58    1.01
  -2  15  -3   -1.18    0.81
   2 -15   4    8.26    1.91
  -2  15  -4    3.70    1.38
   2 -15   5    0.25    0.92
  -2  15  -5    0.48    0.86
   2 -15   6    1.37    1.03
  -2  15  -6    0.54    0.92
   2 -15   7    0.17    0.92
  -2  15  -7    1.41    1.29
   2 -15   8    3.85    1.61
  -2  15  -8    0.19    0.86
   2 -15   9    4.58    1.70
  -2  15  -9    1.27    0.98
   2 -15  10    2.59    1.49
  -2  15 -10   -0.48    0.81
   2 -15  11    9.94    2.10
  -2  15 -11    7.07    1.70
   2 -15  12    3.40    1.57
  -2  15 -12    1.04    0.85
   2 -15  13    0.69    0.99
   2 -15  14    0.31    0.95
  -2  14   8    0.99    1.03
  -2  14   7   -0.08    0.81
   2 -14  -6    0.75    0.69
  -2  14   6    4.53    1.68
   2 -14  -5    0.56    0.75
  -2  14   5    0.18    0.78
   2 -14  -4    0.62    0.45
  -2  14   4    2.70    1.43
   2 -14  -3    0.50    0.58
  -2  14   3   -0.45    0.79
   2 -14  -2    1.53    0.68
  -2  14   2    0.77    0.86
   2 -14  -1    5.12    1.04
  -2  14   1    3.58    1.30
   2 -14   0    7.29    1.55
  -2  14   0    6.51    1.93
   2 -14   1    1.82    0.75
  -2  14  -1    4.61    1.66
   2 -14   2    1.95    0.84
  -2  14  -2    1.99    1.35
   2 -14   3    0.36    0.80
  -2  14  -3    0.93    0.95
   2 -14   4    0.49    0.96
  -2  14  -4    1.38    0.98
   2 -14   5    8.22    1.90
  -2  14  -5    3.13    1.15
   2 -14   6    5.07    1.76
  -2  14  -6    2.80    1.28
   2 -14   7    0.61    0.96
  -2  14  -7    1.54    1.00
   2 -14   8    4.36    1.33
  -2  14  -8    2.47    1.11
   2 -14   9    0.11    0.85
  -2  14  -9    1.15    1.19
   2 -14  10    4.24    1.66
  -2  14 -10    2.10    1.38
   2 -14  11    3.73    1.27
  -2  14 -11    2.37    1.06
   2 -14  12    0.31    0.80
  -2  14 -12    1.70    1.29
   2 -14  13    1.88    1.27
  -2  14 -13    1.51    0.94
   2 -14  14    0.20    0.83
   2 -14  15    0.97    0.97
  -2  13   9    1.66    1.12
  -2  13   8    1.52    1.05
   2 -13  -7    0.70    0.42
  -2  13   7    1.75    1.05
   2 -13  -6    0.81    1.00
  -2  13   6    1.67    1.41
   2 -13  -5    0.90    0.76
  -2  13   5    1.82    1.05
   2 -13  -4    5.18    1.80
  -2  13   4    6.27    1.76
   2 -13  -3   -0.24    0.76
  -2  13   3    0.74    0.87
   2 -13  -2    5.65    1.30
  -2  13   2    6.13    1.59
   2 -13  -1    4.64    1.17
  -2  13   1    2.32    1.22
   2 -13   0    1.52    0.85
  -2  13   0    0.29    0.82
   2 -13   1   20.54    3.89
  -2  13  -1   13.83    1.94
   2 -13   2    1.44    1.05
  -2  13  -2    1.91    1.07
   2 -13   3    6.81    0.81
  -2  13  -3    2.74    1.07
   2 -13   4    0.96    0.93
  -2  13  -4    0.98    0.92
   2 -13   5    5.77    1.60
  -2  13  -5    5.16    1.66
   2 -13   6    8.91    1.89
  -2  13  -6    6.17    1.40
   2 -13   7    0.95    0.99
  -2  13  -7    2.15    1.08
   2 -13   8    0.46    0.88
  -2  13  -8    0.04    0.73
   2 -13   9    3.37    1.38
  -2  13  -9    1.94    0.95
   2 -13  10    4.98    1.57
  -2  13 -10    3.16    1.09
   2 -13  11   16.12    4.10
  -2  13 -11   10.53    1.84
   2 -13  12    3.87    1.32
  -2  13 -12    1.27    0.92
   2 -13  13    1.64    0.96
  -2  13 -13    2.48    1.14
   2 -13  14    0.40    0.75
  -2  13 -14    0.36    0.81
   2 -13  15   -0.27    0.77
  -2  12   9    1.12    0.95
   2 -12  -8    0.65    0.79
  -2  12   8    2.99    1.32
   2 -12  -7    0.54    0.55
  -2  12   7    0.81    0.82
   2 -12  -6    1.49    0.51
  -2  12   6    1.49    0.94
   2 -12  -5   12.67    2.51
  -2  12   5   11.43    2.09
   2 -12  -4    0.80    0.62
  -2  12   4    0.69    0.87
   2 -12  -3    1.19    0.73
  -2  12   3    2.31    1.04
   2 -12  -2    3.67    1.01
  -2  12   2    2.75    1.27
   2 -12  -1    1.29    0.50
  -2  12   1    0.56    1.07
   2 -12   0    4.15    1.00
  -2  12   0    3.33    1.11
   2 -12   1   16.23    3.47
  -2  12  -1   10.83    1.90
   2 -12   2    0.77    0.49
  -2  12  -2    0.62    0.89
   2 -12   3    6.76    1.43
  -2  12  -3    1.94    0.90
   2 -12   4   -0.09    0.82
  -2  12  -4    0.10    0.78
   2 -12   5    8.06    1.58
  -2  12  -5    4.62    1.34
   2 -12   6    1.34    1.07
  -2  12  -6    2.38    1.14
   2 -12   7   29.24    3.09
  -2  12  -7   18.89    2.14
   2 -12   8    0.91    0.86
  -2  12  -8    1.64    0.90
   2 -12   9    6.85    1.61
  -2  12  -9    2.16    0.97
   2 -12  10    0.83    0.85
  -2  12 -10    2.53    0.98
   2 -12  11   11.69    3.25
  -2  12 -11    9.88    1.89
   2 -12  12    1.36    0.99
  -2  12 -12    1.69    1.08
   2 -12  13    1.46    0.92
  -2  12 -13    1.59    1.10
   2 -12  14    0.58    1.11
  -2  12 -14    0.01    0.66
   2 -12  15    0.63    0.81
  -2  11  10    0.95    0.87
   2 -11  -9    0.78    0.59
  -2  11   9    0.27    0.83
   2 -11  -8    3.02    1.14
  -2  11   8    2.95    1.20
   2 -11  -7    0.93    0.51
  -2  11   7    0.69    0.82
   2 -11  -6    9.33    3.20
  -2  11   6   11.10    1.91
   2 -11  -5   -0.12    0.73
  -2  11   5    1.45    1.21
   2 -11  -4    0.80    0.49
  -2  11   4    4.43    1.32
   2 -11  -3    8.44    1.95
  -2  11   3    9.60    1.83
   2 -11  -2    3.23    1.07
  -2  11   2    3.11    1.09
   2 -11  -1   42.56    7.54
  -2  11   1   35.54    2.88
   2 -11   0    0.27    0.35
  -2  11   0    1.00    0.92
   2 -11   1    5.09    1.27
  -2  11  -1    2.75    1.33
   2 -11   2    6.54    4.37
  -2  11  -2    8.44    1.45
   2 -11   3    6.51    2.10
  -2  11  -3    3.67    1.04
   2 -11   4    4.45    1.05
  -2  11  -4    2.21    1.10
   2 -11   5   55.11    3.59
  -2  11  -5   32.62    2.74
   2 -11   6    9.61    2.26
  -2  11  -6    7.29    1.81
   2 -11   7   26.18    2.85
  -2  11  -7   18.16    2.15
   2 -11   8    0.43    0.88
  -2  11  -8    0.37    0.76
   2 -11   9   -0.85    0.82
  -2  11  -9   -0.20    0.69
   2 -11  10    7.59    1.66
  -2  11 -10    4.05    1.25
   2 -11  11    8.92    1.88
  -2  11 -11    7.14    1.56
   2 -11  12   17.62    4.23
  -2  11 -12   13.85    2.08
   2 -11  13    5.39    2.08
  -2  11 -13    2.46    0.97
   2 -11  14    0.74    0.56
  -2  11 -14    1.90    1.10
   2 -11  15    0.26    0.70
  -2  11 -15    0.86    0.83
   2 -10 -10    0.28    0.57
  -2  10  10    0.11    0.69
   2 -10  -9    0.88    0.66
  -2  10   9    1.16    0.87
   2 -10  -8    1.20    0.48
  -2  10   8    0.64    0.76
   2 -10  -7   13.92    4.58
  -2  10   7   19.13    2.16
   2 -10  -6   10.26    2.01
  -2  10   6    5.56    1.43
   2 -10  -5   14.45    3.58
  -2  10   5   14.53    1.97
   2 -10  -4    0.97    0.80
  -2  10   4    2.34    1.15
   2 -10  -3    1.01    0.52
  -2  10   3    1.40    1.10
   2 -10  -2   17.45    4.67
  -2  10   2   16.62    1.97
   2 -10  -1   93.68   14.25
  -2  10   1   79.25    3.98
   2 -10   0    0.61    0.73
  -2  10   0   -0.10    0.78
   2 -10   1    4.98    1.28
  -2  10  -1    4.97    1.28
   2 -10   2    3.99    0.97
  -2  10  -2    2.21    0.83
   2 -10   3   16.73    2.30
  -2  10  -3   12.13    1.71
   2 -10   4   13.62    2.47
  -2  10  -4    8.52    1.57
   2 -10   5   63.42   13.21
  -2  10  -5   47.64    4.24
   2 -10   6    7.14    1.54
  -2  10  -6    5.71    1.21
   2 -10   7   35.91    2.94
  -2  10  -7   21.00    2.20
   2 -10   8    0.70    0.85
  -2  10  -8    0.10    0.69
   2 -10   9    3.59    1.41
  -2  10  -9    0.54    0.75
   2 -10  10   36.06    2.89
  -2  10 -10   23.30    2.26
   2 -10  11   20.69    2.32
  -2  10 -11   13.41    1.94
   2 -10  12    0.80    0.35
  -2  10 -12   -0.39    0.68
   2 -10  13    2.25    1.14
  -2  10 -13    3.01    1.28
   2 -10  14    0.72    0.72
  -2  10 -14    0.35    0.63
   2 -10  15    4.58    1.95
  -2  10 -15    3.70    1.32
   2  -9 -11    6.17    1.55
  -2   9  11    4.36    1.34
   2  -9 -10    1.55    1.08
  -2   9  10    1.16    1.08
   2  -9  -9    0.33    0.63
  -2   9   9    0.11    0.55
   2  -9  -8    2.18    1.12
  -2   9   8    0.56    0.64
   2  -9  -7   27.82    2.60
  -2   9   7   24.56    2.48
   2  -9  -6    9.43    2.37
  -2   9   6    7.41    1.52
   2  -9  -5   14.54    3.04
  -2   9   5   14.87    1.83
   2  -9  -4    0.02    0.37
  -2   9   4    0.12    0.66
   2  -9  -3    0.39    0.51
   2  -9  -2   36.13    5.67
  -2   9   2   27.22    2.79
   2  -9  -1    6.13    2.04
  -2   9   1    7.19    1.48
   2  -9   0   30.70    4.47
  -2   9   0   23.03    2.30
   2  -9   1   64.75   12.19
  -2   9  -1   53.70    3.58
   2  -9   2   -0.12    0.72
  -2   9  -2    1.31    0.85
   2  -9   3    3.50    1.03
  -2   9  -3    3.52    1.06
   2  -9   4    3.16    1.31
  -2   9  -4    4.39    1.33
   2  -9   5   78.67    5.73
  -2   9  -5   49.76    3.58
   2  -9   6  187.19   12.70
  -2   9  -6  124.11    8.90
   2  -9   7   43.93    3.96
  -2   9  -7   25.33    2.69
   2  -9   8    4.84    1.15
  -2   9  -8    2.33    0.95
   2  -9   9    3.36    1.27
  -2   9  -9    4.75    1.32
   2  -9  10   45.45    3.25
  -2   9 -10   31.99    2.76
   2  -9  11    8.62    1.68
  -2   9 -11    6.15    1.41
   2  -9  12    3.15    0.99
  -2   9 -12    2.49    1.10
   2  -9  13    0.38    0.52
  -2   9 -13   -0.06    0.70
   2  -9  14    5.35    1.83
  -2   9 -14    4.25    1.28
   2  -9  15    0.64    0.58
  -2   9 -15    0.98    0.98
   2  -9  16   10.97    2.20
   2  -8 -12    4.12    1.36
   2  -8 -11    0.88    0.88
  -2   8  11    1.20    0.84
   2  -8 -10   -0.03    0.50
   2  -8 -10    0.04    0.46
  -2   8  10    0.01    0.62
   2  -8  -9    1.63    0.71
   2  -8  -9    0.91    0.68
  -2   8   9    2.09    0.97
   2  -8  -8    0.54    0.70
   2  -8  -8    0.55    0.66
  -2   8   8    0.05    0.53
   2  -8  -7    1.37    0.70
   2  -8  -7    0.79    0.73
  -2   8   7    1.06    0.98
   2  -8  -6    9.92    1.18
   2  -8  -6   10.61    1.73
  -2   8   6    3.98    1.16
   2  -8  -5   13.33    1.27
   2  -8  -5   10.48    1.55
  -2   8   5   13.60    1.63
   2  -8  -4    0.01    0.68
  -2   8   4   -0.10    0.63
   2  -8  -3    4.44    0.91
  -2   8   3    2.58    0.90
   2  -8  -2    1.00    0.67
   2  -8  -1    0.44    0.50
  -2   8   1    1.26    0.78
   2  -8   0   80.26   14.17
  -2   8   0   60.78    4.19
   2  -8   1   12.99    2.35
  -2   8  -1    7.34    1.43
   2  -8   2    5.22    1.16
  -2   8  -2    4.82    1.01
   2  -8   3   70.77    4.66
  -2   8  -3   49.41    3.61
   2  -8   4   15.84    3.18
  -2   8  -4   11.51    1.90
   2  -8   5    4.27    1.26
  -2   8  -5    2.75    0.84
   2  -8   6   27.79    2.33
  -2   8  -6   22.42    2.22
   2  -8   7   26.19    2.27
  -2   8  -7   16.14    1.75
   2  -8   8   15.18    2.28
  -2   8  -8   10.68    1.56
  -2   8  -9    3.86    0.67
   2  -8   9    7.08    1.33
  -2   8  -9    6.48    1.54
  -2   8 -10    6.21    1.44
   2  -8  10    7.29    1.75
  -2   8 -10    5.84    1.65
  -2   8 -11    3.18    0.84
   2  -8  11    2.86    0.78
  -2   8 -11    1.69    0.78
  -2   8 -12    7.07    1.10
   2  -8  12   13.85    1.80
  -2   8 -12   12.08    1.83
  -2   8 -13    0.11    0.44
   2  -8  13    1.66    0.75
  -2   8 -13    0.40    0.69
  -2   8 -14    0.91    0.83
   2  -8  14    0.89    0.70
  -2   8 -14    0.19    0.59
  -2   8 -15    1.21    0.78
   2  -8  15    2.69    1.19
   2  -8  15    0.72    0.69
   2  -8  16    1.33    0.79
   2  -7 -12    0.72    0.79
  -2   7  12    0.56    0.73
   2  -7 -11    1.17    0.97
  -2   7  11    1.81    1.14
  -2   7  11    1.42    0.87
   2  -7 -10    1.68    0.91
  -2   7  10    2.30    1.04
  -2   7  10    3.58    1.06
   2  -7  -9    1.17    0.81
  -2   7   9    1.01    0.76
  -2   7   9   -0.41    0.53
   2  -7  -8   20.70    2.25
  -2   7   8   16.01    1.96
   2  -7  -7   24.08    1.94
  -2   7   7   16.46    1.82
   2  -7  -6    1.48    0.67
   2  -7  -6    0.21    0.55
  -2   7   6    1.02    0.89
   2  -7  -5    8.01    1.06
   2  -7  -5    6.83    1.29
  -2   7   5    4.13    1.22
   2  -7  -4    1.67    0.57
   2  -7  -4    2.10    0.87
  -2   7   4    2.11    0.84
   2  -7  -3    1.90    0.44
   2  -7  -3    2.14    0.74
  -2   7   3    1.67    0.65
   2  -7  -2    7.87    1.52
  -2   7   2    6.86    1.34
   2  -7  -1  250.81   15.84
  -2   7   1  222.72   13.79
   2  -7   0    0.55    0.66
  -2   7   0    1.19    0.92
   2  -7   1    0.95    0.36
  -2   7  -1    0.67    0.62
   2  -7   2   20.63    2.96
  -2   7  -2   10.85    1.41
   2  -7   3    1.50    0.47
  -2   7  -3    2.25    0.73
   2  -7   4   30.11    4.55
  -2   7  -4   23.47    2.14
   2  -7   5    1.40    0.45
  -2   7  -5    0.38    0.73
  -2   7  -6    2.41    0.41
   2  -7   6    4.32    1.05
  -2   7  -6    2.88    0.84
  -2   7  -7    1.91    0.44
   2  -7   7    3.63    1.00
  -2   7  -7    1.65    0.86
  -2   7  -8    4.69    0.72
   2  -7   8    7.68    1.56
  -2   7  -8    3.95    1.13
  -2   7  -9    3.42    0.77
   2  -7   9    3.74    1.14
  -2   7  -9    3.16    1.07
  -2   7 -10   27.42    1.88
   2  -7  10   25.52    5.28
  -2   7 -10   23.04    2.37
  -2   7 -11   77.34    3.24
   2  -7  11  105.97    4.30
  -2   7 -11   79.51    4.00
  -2   7 -12    0.08    0.54
   2  -7  12    0.50    0.65
  -2   7 -12    0.66    0.74
  -2   7 -13   -0.05    0.49
   2  -7  13    0.00    0.48
  -2   7 -13    0.49    0.68
  -2   7 -14    1.30    0.89
   2  -7  14   -0.12    0.52
   2  -7  14    0.01    0.52
  -2   7 -15    1.01    0.72
   2  -7  15    1.90    1.05
  -2   7 -16    0.91    1.05
   2  -7  16    1.17    0.68
   2  -6 -14    1.02    0.90
   2  -6 -13    0.07    0.64
  -2   6  13    1.94    1.15
   2  -6 -12    0.07    0.62
  -2   6  12    0.70    0.98
   2  -6 -11    0.58    0.61
  -2   6  11    2.15    1.14
  -2   6  11   -0.16    0.52
   2  -6 -10    0.41    0.59
  -2   6  10    1.39    0.94
  -2   6  10    1.43    0.85
   2  -6  -9    9.41    1.59
  -2   6   9    6.20    1.48
  -2   6   9    6.39    1.14
   2  -6  -8   11.48    1.52
  -2   6   8    9.61    1.75
  -2   6   8    9.28    1.49
   2  -6  -7    1.57    0.77
  -2   6   7    0.89    0.68
  -2   6   7    1.45    0.83
   2  -6  -6    2.61    1.40
  -2   6   6    1.31    0.81
  -2   6   6    1.06    0.54
   2  -6  -5    1.42    0.61
  -2   6   5    0.68    0.93
  -2   6   5    0.51    0.62
   2  -6  -4    3.59    0.64
  -2   6   4    2.63    0.81
   2  -6  -3    6.34    0.78
   2  -6  -3    6.33    1.24
  -2   6   3    3.77    0.80
   2  -6  -2   34.23    1.79
   2  -6  -2   31.04    2.44
  -2   6   2   27.43    2.56
   2  -6  -1    7.26    1.26
  -2   6   1    4.47    1.03
   2  -6   0    3.94    1.10
  -2   6   0    2.16    0.77
   2  -6   1   13.00    2.10
  -2   6  -1   10.11    1.29
   2  -6   2   31.53    5.75
  -2   6  -2   22.89    2.03
   2  -6   3   98.11    5.56
  -2   6  -3   77.17    4.65
  -2   6  -4   16.89    1.01
   2  -6   4   27.58    4.88
  -2   6  -4   18.71    4.03
  -2   6  -5    2.30    0.40
   2  -6   5    2.61    0.62
  -2   6  -5    2.84    0.77
  -2   6  -6    4.49    0.62
   2  -6   6    5.75    1.11
  -2   6  -6    5.69    1.06
  -2   6  -7   23.07    4.07
   2  -6   7   30.32    3.48
  -2   6  -7   22.30    2.89
  -2   6  -8   31.11    1.99
   2  -6   8   45.21    2.86
  -2   6  -8   31.20    2.55
  -2   6  -9    0.21    0.50
   2  -6   9   -0.08    0.56
  -2   6  -9    0.33    0.56
  -2   6 -10    0.13    0.43
   2  -6  10    0.25    0.46
  -2   6 -10    1.46    0.84
  -2   6 -11   13.38    1.59
   2  -6  11   17.24    1.86
  -2   6 -11   10.65    1.65
  -2   6 -12    8.85    1.46
   2  -6  12    9.61    1.51
  -2   6 -12    7.25    1.54
  -2   6 -13    0.40    0.58
   2  -6  13    0.61    0.28
   2  -6  13    0.06    0.60
  -2   6 -14    0.53    0.67
   2  -6  14    1.23    0.45
   2  -6  14    0.88    0.68
  -2   6 -15    6.58    1.37
   2  -6  15    3.91    1.24
  -2   6 -16    1.58    1.05
   2  -6  16    0.66    0.42
  -2   6 -17    0.98    0.83
   2  -6  17    1.02    0.66
   2  -5 -15    4.52    1.64
   2  -5 -14    0.02    0.75
  -2   5  14   -0.72    0.75
   2  -5 -13    0.98    0.72
  -2   5  13    0.42    0.68
   2  -5 -12    0.59    0.70
  -2   5  12    0.16    0.65
   2  -5 -11    2.22    0.89
  -2   5  11    3.67    1.32
  -2   5  11    0.82    0.49
   2  -5 -10    0.40    0.61
  -2   5  10    1.45    1.00
  -2   5  10    0.09    0.50
   2  -5  -9    3.29    0.95
  -2   5   9    2.23    0.92
  -2   5   9    2.52    0.89
   2  -5  -8    0.67    0.76
  -2   5   8    0.36    0.64
  -2   5   8    1.13    0.59
   2  -5  -7   26.43    4.95
  -2   5   7   19.12    2.10
  -2   5   7   17.37    1.53
   2  -5  -6    2.49    0.75
  -2   5   6    1.09    0.79
  -2   5   6    2.17    0.78
   2  -5  -5   51.53    3.43
  -2   5   5   37.65    3.31
  -2   5   5   38.08    2.83
   2  -5  -4    1.03    0.51
  -2   5   4    0.34    0.62
  -2   5   4    0.35    0.52
   2  -5  -3   47.15    3.23
  -2   5   3   33.24    3.00
  -2   5   3   27.33    2.37
   2  -5  -2   22.09    1.59
   2  -5  -2   17.46    1.78
  -2   5   2   15.46    1.52
   2  -5  -1   28.39    2.26
  -2   5   1   23.58    1.85
   2  -5   0   55.82    2.85
   2  -5   0   52.35    3.44
  -2   5   0   41.97    2.85
   2  -5   1    3.02    0.63
   2  -5   1    3.79    1.20
  -2   5  -1    3.22    0.86
  -2   5  -2   10.92    0.68
   2  -5   2   16.67    3.22
  -2   5  -2   10.91    1.36
  -2   5  -3   76.47    3.72
   2  -5   3  101.62    6.34
  -2   5  -3   82.03    4.82
  -2   5  -4   14.67    1.00
   2  -5   4   20.60    3.31
  -2   5  -4   12.66    1.41
  -2   5  -5   14.25    1.06
   2  -5   5   23.34    4.32
  -2   5  -5   15.17    1.57
  -2   5  -6    3.88    0.60
   2  -5   6    3.84    0.76
  -2   5  -6    2.93    0.93
  -2   5  -7   10.92    1.14
   2  -5   7   18.69    1.79
  -2   5  -7   10.10    1.35
  -2   5  -8   35.66    2.54
   2  -5   8   45.70    7.36
  -2   5  -8   33.25    2.84
  -2   5  -9    3.12    0.90
   2  -5   9    5.02    0.90
  -2   5  -9    4.22    1.00
  -2   5 -10    1.10    0.72
   2  -5  10    0.37    0.46
  -2   5 -10    1.93    1.08
  -2   5 -11    8.92    1.37
   2  -5  11    8.13    1.20
  -2   5 -11    7.93    1.57
  -2   5 -12   10.64    1.67
   2  -5  12   10.53    1.45
   2  -5  12   10.87    1.80
  -2   5 -13    0.83    0.68
   2  -5  13    0.05    0.53
   2  -5  13    0.30    0.62
  -2   5 -14    1.08    0.74
   2  -5  14    0.84    0.50
  -2   5 -15   12.23    1.78
   2  -5  15   11.39    3.42
  -2   5 -16    1.43    1.25
   2  -5  16    0.75    0.55
  -2   5 -17    1.34    1.17
   2  -5  17   -0.10    0.77
  -2   5 -18    0.70    0.94
   2  -4 -16    2.49    1.42
   2  -4 -15    1.30    0.99
  -2   4  15    1.56    1.25
   2  -4 -14    0.45    0.85
  -2   4  14    1.08    1.01
   2  -4 -13    5.22    1.49
  -2   4  13    6.16    1.55
   2  -4 -12   12.13    1.90
  -2   4  12    8.69    1.71
   2  -4 -11   13.35    1.99
  -2   4  11   11.71    1.84
  -2   4  11    8.38    1.17
   2  -4 -10    2.07    1.02
  -2   4  10    1.74    0.99
  -2   4  10    1.80    0.72
   2  -4  -9    5.73    1.41
  -2   4   9    7.92    1.35
  -2   4   9    3.48    0.76
   2  -4  -8   37.75    5.83
  -2   4   8   26.11    2.96
  -2   4   8   24.63    2.31
   2  -4  -7   61.66    7.19
  -2   4   7   43.05    3.12
  -2   4   7   49.07    2.83
   2  -4  -6   11.83    2.00
  -2   4   6    5.51    1.03
  -2   4   6    6.74    1.11
   2  -4  -5    4.30    1.38
  -2   4   5    2.20    0.72
  -2   4   5    3.54    0.72
   2  -4  -4   19.75    1.55
  -2   4   4   13.99    1.60
  -2   4   4   14.57    1.38
   2  -4  -3   59.12    3.22
  -2   4   3   46.13    2.94
  -2   4   3   41.49    2.78
   2  -4  -2   71.22    4.32
  -2   4   2   56.85    3.70
  -2   4   2   53.08    3.27
   2  -4  -1   10.15    2.45
  -2   4   1    7.92    1.14
   2  -4   0    2.40    0.67
   2  -4   0    2.82    0.76
  -2   4   0    2.10    0.61
  -2   4  -1   31.69    2.43
   2  -4   1   38.24    7.06
  -2   4  -1   27.05    2.57
  -2   4  -2    5.22    0.68
   2  -4   2    6.41    1.27
  -2   4  -2    5.74    0.96
  -2   4  -3   26.44    2.14
   2  -4   3   39.45    8.03
  -2   4  -3   26.15    2.51
  -2   4  -4  168.30    7.97
   2  -4   4  227.18   11.47
  -2   4  -4  167.64    8.60
  -2   4  -5   25.41    1.60
   2  -4   5   35.80    6.10
  -2   4  -5   23.61    1.99
  -2   4  -6   23.13    1.61
   2  -4   6   36.32    2.35
  -2   4  -6   25.47    2.22
  -2   4  -7    1.27    0.50
   2  -4   7    0.21    0.45
  -2   4  -7    0.73    0.64
  -2   4  -8    5.35    0.89
   2  -4   8    8.60    1.39
  -2   4  -8    5.89    1.15
  -2   4  -9   30.86    2.30
   2  -4   9   38.41    3.28
  -2   4  -9   27.31    2.42
  -2   4 -10   29.54    2.76
   2  -4  10   28.05    5.92
  -2   4 -10   26.18    2.75
  -2   4 -11   -0.40    0.54
   2  -4  11    0.03    0.15
   2  -4  11    0.35    0.65
  -2   4 -12    8.91    2.19
   2  -4  12    5.26    1.69
   2  -4  12    7.82    1.95
  -2   4 -13    0.84    0.74
   2  -4  13    1.18    0.72
  -2   4 -14    6.29    1.41
   2  -4  14    5.82    1.73
  -2   4 -15    2.27    1.05
   2  -4  15    2.42    0.95
  -2   4 -16    2.43    1.26
   2  -4  16    2.64    1.10
  -2   4 -17    1.15    1.20
   2  -4  17    1.60    0.86
  -2   4 -18    1.55    1.34
   2  -3 -17    1.47    1.39
   2  -3 -16    8.11    2.09
   2  -3 -15    0.59    0.87
  -2   3  15    0.59    0.79
   2  -3 -14    2.25    1.18
  -2   3  14    4.20    1.09
   2  -3 -13    4.28    1.32
  -2   3  13    3.18    1.25
   2  -3 -12   12.18    2.12
  -2   3  12    5.68    1.49
   2  -3 -11    0.03    0.30
  -2   3  11    1.49    1.02
   2  -3 -10   23.55    4.61
  -2   3  10   14.88    2.03
  -2   3  10   14.11    1.27
   2  -3  -9    0.49    0.70
  -2   3   9    2.19    1.18
  -2   3   9   -0.23    0.46
   2  -3  -8   23.17    2.78
  -2   3   8   13.98    1.83
  -2   3   8   17.26    1.50
   2  -3  -7    7.67    2.04
  -2   3   7    6.48    1.38
  -2   3   7    5.18    0.81
   2  -3  -6    5.49    1.69
  -2   3   6    5.34    1.28
  -2   3   6    4.33    0.77
   2  -3  -5    0.32    0.23
  -2   3   5    0.38    0.66
  -2   3   5    0.48    0.45
   2  -3  -4   27.80    1.93
  -2   3   4   16.56    1.74
  -2   3   4   18.34    1.51
   2  -3  -3   22.86    1.54
  -2   3   3   13.72    1.49
  -2   3   3   15.39    1.31
   2  -3  -2   44.11    3.51
  -2   3   2   32.37    2.97
  -2   3   2   34.95    2.94
   2  -3  -1  113.06    5.71
  -2   3   1   95.89    5.40
  -2   3   1   94.22    5.14
   2  -3   0   95.22    4.87
  -2   3   0   74.88    4.28
   2  -3   1    0.03    0.44
  -2   3  -1   -0.19    0.45
  -2   3  -2  403.29   18.79
   2  -3   2  488.35   23.13
  -2   3  -2  398.74   19.13
  -2   3  -3   11.23    1.20
   2  -3   3   12.83    3.61
  -2   3  -3   12.11    1.52
  -2   3  -4   11.67    1.25
   2  -3   4   15.13    3.08
  -2   3  -4   11.97    1.61
  -2   3  -5    2.98    0.60
   2  -3   5    5.03    0.79
  -2   3  -5    2.80    0.72
  -2   3  -6    8.31    0.97
   2  -3   6   14.51    1.39
  -2   3  -6   10.58    1.45
  -2   3  -7   48.08    3.59
   2  -3   7   62.45    4.24
  -2   3  -7   47.41    3.83
  -2   3  -8    7.15    1.21
   2  -3   8    9.68    1.34
  -2   3  -8    6.25    1.22
  -2   3  -9   17.60    1.63
   2  -3   9   23.03    4.54
  -2   3  -9   18.56    1.89
  -2   3 -10    0.56    0.65
   2  -3  10    0.17    0.35
   2  -3  10    0.44    0.63
  -2   3 -11   14.63    1.82
   2  -3  11   10.33    2.52
   2  -3  11   14.10    1.90
  -2   3 -12    1.08    1.04
   2  -3  12    0.15    0.68
  -2   3 -13    2.36    1.17
   2  -3  13   -0.05    0.67
  -2   3 -14    7.94    1.52
   2  -3  14    8.73    2.21
  -2   3 -15    4.02    1.30
   2  -3  15    5.08    2.03
  -2   3 -16    1.72    0.95
   2  -3  16    1.81    1.02
  -2   3 -17   -0.08    0.79
   2  -3  17   -0.01    0.49
  -2   3 -18    0.94    0.90
   2  -2 -17    5.61    2.06
   2  -2 -16    0.34    0.92
  -2   2  16    1.12    0.88
   2  -2 -15    1.92    1.13
  -2   2  15    1.20    1.09
   2  -2 -14    0.55    0.86
  -2   2  14   -0.45    0.66
   2  -2 -13    0.94    0.99
  -2   2  13    1.21    0.79
   2  -2 -12   10.30    2.55
  -2   2  12    9.50    1.70
   2  -2 -11   10.03    2.61
  -2   2  11    8.30    1.59
   2  -2 -10    0.70    0.82
  -2   2  10    0.49    0.68
   2  -2  -9   62.37    5.19
  -2   2   9   38.58    3.57
  -2   2   9   36.92    2.90
   2  -2  -8    2.31    0.88
  -2   2   8    0.26    0.74
  -2   2   8    1.18    0.55
   2  -2  -7   63.91    4.86
  -2   2   7   35.60    3.24
  -2   2   7   39.06    2.80
   2  -2  -6   79.22    5.47
  -2   2   6   58.56    4.53
  -2   2   6   49.84    3.40
   2  -2  -5    3.39    0.93
  -2   2   5    2.06    0.88
  -2   2   5    2.49    0.53
   2  -2  -4  160.19    8.50
  -2   2   4  117.18    6.37
  -2   2   4  112.90    5.68
   2  -2  -3   20.27    4.10
  -2   2   3   14.84    1.71
  -2   2   3   14.48    1.44
   2  -2  -2   26.45    5.52
  -2   2   2   21.64    2.24
  -2   2   2   20.13    1.86
   2  -2  -1  208.29   10.09
  -2   2   1  186.90    9.42
  -2   2   1  183.34    9.11
  -2   2   0   44.69    2.61
  -2   2   0   44.22    3.68
  -2   2   0   38.81    3.21
  -2   2  -1   16.99    1.55
   2  -2   1   16.49    1.65
  -2   2  -1   15.68    1.64
  -2   2  -2    1.38    0.48
   2  -2   2    2.13    0.71
  -2   2  -2    2.27    0.71
  -2   2  -3    3.08    0.69
   2  -2   3    4.09    0.82
  -2   2  -3    4.46    1.04
  -2   2  -4   45.70    2.84
   2  -2   4   60.78    3.62
  -2   2  -4   45.24    3.09
  -2   2  -5   44.44    2.47
   2  -2   5   62.41    3.47
  -2   2  -5   44.51    3.08
  -2   2  -6    4.36    0.79
   2  -2   6    6.19    0.73
  -2   2  -6    6.01    1.08
  -2   2  -7   -0.14    0.54
   2  -2   7    2.15    0.46
  -2   2  -7    1.55    0.63
  -2   2  -8   13.72    1.91
   2  -2   8   13.88    2.83
   2  -2   8   12.68    1.92
  -2   2  -9    0.14    0.61
   2  -2   9    0.37    0.31
   2  -2   9   -0.33    0.55
  -2   2 -10   15.61    1.75
   2  -2  10   10.32    2.56
   2  -2  10   14.50    3.53
  -2   2 -11   34.97    2.61
   2  -2  11   31.29    7.12
  -2   2 -12    3.79    1.32
   2  -2  12    0.79    0.39
  -2   2 -13    7.84    1.60
   2  -2  13    5.73    2.00
  -2   2 -14    0.62    0.81
   2  -2  14    0.80    0.40
  -2   2 -15   11.40    2.10
   2  -2  15   10.75    2.74
  -2   2 -16    1.65    1.09
   2  -2  16    1.62    0.70
  -2   2 -17    0.93    0.92
   2  -2  17    1.86    1.16
  -2   2 -18    0.13    0.80
   2  -1 -18    1.44    1.35
   2  -1 -17    0.14    0.98
   2  -1 -16   11.74    3.34
  -2   1  16   11.28    2.07
   2  -1 -15   32.10    3.16
  -2   1  15   15.70    2.22
   2  -1 -14    2.35    1.05
  -2   1  14   -0.33    0.74
   2  -1 -13    0.75    0.77
  -2   1  13   -0.53    0.64
   2  -1 -12    7.71    1.77
  -2   1  12    1.85    0.83
   2  -1 -11    5.84    1.54
  -2   1  11    3.38    1.21
   2  -1 -10    1.56    0.89
  -2   1  10    0.21    0.63
   2  -1  -9  220.22   10.42
  -2   1   9  135.09    6.37
   2  -1  -8    7.70    1.48
  -2   1   8    4.54    1.21
  -2   1   8    3.62    0.63
   2  -1  -7    0.41    0.61
  -2   1   7   -0.21    0.63
  -2   1   7    0.70    0.49
   2  -1  -6    7.78    1.49
  -2   1   6    5.65    1.08
  -2   1   6    5.32    0.66
   2  -1  -5   13.93    2.81
  -2   1   5    8.53    1.23
  -2   1   5    8.10    0.79
   2  -1  -4  400.26   19.16
  -2   1   4  299.26   14.73
  -2   1   4  286.95   13.59
   2  -1  -3    1.00    0.32
  -2   1   3    0.56    0.71
  -2   1   3    1.06    0.41
   2  -1  -2   47.45    3.84
  -2   1   2   44.28    2.75
  -2   1   2   36.90    2.95
  -2   1   1   87.52    4.66
  -2   1   1   80.83    4.55
  -2   1   1   84.05    4.53
  -2   1   0   19.78    1.83
  -2   1   0   21.71    2.02
  -2   1   0   21.87    2.05
  -2   1  -1   35.38    2.89
  -2   1  -1   37.38    3.09
  -2   1  -1   31.72    2.72
  -2   1  -2   36.62    3.10
   2  -1   2   40.08    3.21
  -2   1  -2   36.97    3.28
  -2   1  -3  626.64   29.20
   2  -1   3  762.96   29.55
  -2   1  -3  661.59   26.18
  -2   1  -4   -0.17    0.56
   2  -1   4    0.44    0.27
  -2   1  -4    0.77    0.84
  -2   1  -5    2.26    0.58
   2  -1   5    3.42    1.02
  -2   1  -5    1.82    0.81
  -2   1  -6   57.02    3.59
   2  -1   6   79.76    4.05
   2  -1   7    3.80    0.74
   2  -1   7    3.75    1.01
  -2   1  -8   19.33    2.48
   2  -1   8    7.07    2.36
   2  -1   8   12.90    2.00
  -2   1  -9   65.53    3.87
   2  -1   9   65.05    4.72
  -2   1 -10   20.17    2.27
   2  -1  10   20.79    6.21
  -2   1 -11   41.82    3.27
   2  -1  11   38.43    8.84
  -2   1 -12    2.08    1.16
   2  -1  12    1.07    0.58
  -2   1 -13    2.58    1.20
   2  -1  13    4.41    1.17
  -2   1 -14    1.03    1.20
   2  -1  14    2.41    1.08
  -2   1 -15   15.28    2.27
   2  -1  15   14.38    3.29
  -2   1 -16    7.25    1.94
   2  -1  16    4.84    1.52
  -2   1 -17    2.85    1.44
   2  -1  17    0.01    0.81
  -2   1 -18    2.38    1.41
   2   0 -18    0.42    1.00
   2   0 -17    3.17    1.38
  -2   0  17    2.15    1.31
   2   0 -16    1.86    1.31
  -2   0  16    0.55    0.90
   2   0 -15    1.24    0.81
  -2   0  15   -0.06    0.82
   2   0 -14   15.04    3.38
  -2   0  14    8.66    1.68
   2   0 -13    1.84    1.18
  -2   0  13    1.70    1.10
   2   0 -12    0.87    0.65
  -2   0  12    1.48    1.03
   2   0 -11    1.43    0.86
  -2   0  11    3.39    1.07
   2   0 -10    0.91    0.87
  -2   0  10    0.86    0.81
   2   0  -9   62.38    3.89
  -2   0   9   41.72    3.06
   2   0  -8  120.39    7.02
  -2   0   8   73.24    4.80
   2   0  -7  146.09    9.45
  -2   0   7   87.89    6.14
  -2   0   7   82.46    5.02
   2   0  -6   26.78    5.74
  -2   0   6   18.62    1.73
  -2   0   6   16.76    1.01
   2   0  -5   17.81    3.40
  -2   0   5   11.81    1.55
  -2   0   5   10.18    0.76
   2   0  -4  168.34    8.80
  -2   0   4  132.89    7.24
  -2   0   4  121.18    5.98
   2   0  -3  285.29   13.96
  -2   0   3  235.48   11.69
  -2   0   3  222.20   10.61
   2   0  -2  466.19   22.69
  -2   0   2  406.29   19.32
  -2   0   2  384.93   18.03
  -2   0   1    0.81    0.78
  -2   0   1    0.69    0.54
  -2   0   1    0.80    0.62
  -2   0   0   68.65    3.70
  -2   0   0   63.54    3.45
  -2   0   0   61.17    3.37
  -2   0  -1    4.48    0.76
  -2   0  -1    3.81    0.65
  -2   0  -1    3.38    0.75
  -2   0  -2  307.98   14.81
  -2   0  -2  304.31   14.74
  -2   0  -3  186.60    9.36
   2   0   3  214.58   10.27
  -2   0  -3  192.42    9.77
  -2   0  -4   58.38    3.60
   2   0   4   76.56    3.97
   2   0   4   49.71    3.30
  -2   0  -5   23.86    1.87
   2   0   5   33.82    1.67
   2   0   5   25.62    2.08
  -2   0  -6    2.97    0.83
   2   0   6    4.34    0.52
   2   0   6    2.99    0.81
  -2   0  -7   20.06    1.89
   2   0   7   25.66    6.68
  -2   0  -8   50.40    3.65
   2   0   8   57.57    4.10
  -2   0  -9   69.60    4.27
   2   0   9   71.31   11.76
  -2   0 -10    3.18    1.12
   2   0  10    3.68    1.04
  -2   0 -11    1.64    0.80
   2   0  11    3.14    1.32
  -2   0 -12    0.53    0.81
   2   0  12    0.26    0.77
  -2   0 -13    0.63    0.87
   2   0  13    1.16    0.55
  -2   0 -14   15.02    2.52
   2   0  14   17.44    3.29
  -2   0 -15   -0.33    0.85
   2   0  15    0.77    0.53
  -2   0 -16    1.06    1.02
   2   0  16   -0.22    0.84
  -2   0 -17    0.53    0.97
   2   0  17    0.82    0.54
  -2   0 -18    2.20    1.58
   2   1 -19    3.11    1.72
   2   1 -18    1.44    1.11
   2   1 -17   -0.08    0.83
  -2  -1  17    1.30    1.00
   2   1 -16   -0.34    0.91
  -2  -1  16    0.45    0.93
   2   1 -15   23.46    6.12
  -2  -1  15   19.52    2.58
   2   1 -14    9.57    1.99
  -2  -1  14    6.21    1.51
   2   1 -13   12.22    3.19
  -2  -1  13    8.17    1.69
   2   1 -12   18.06    2.20
  -2  -1  12   14.22    2.13
   2   1 -11   42.35    3.26
  -2  -1  11   22.17    2.29
   2   1 -10   14.59    1.92
  -2  -1  10    8.62    1.58
   2   1  -9    2.60    1.04
  -2  -1   9   -0.42    0.79
   2   1  -8  141.52   15.16
  -2  -1   8   99.69    6.08
   2   1  -7   97.49    7.45
  -2  -1   7   60.79    4.56
   2   1  -6   35.76    8.27
  -2  -1   6   19.66    1.78
   2   1  -5  175.50    8.92
  -2  -1   5  129.78    6.95
  -2  -1   5  116.19    5.43
   2   1  -4   84.67    4.89
  -2  -1   4   71.71    4.38
  -2  -1   4   62.00    3.23
   2   1  -3  352.58   17.94
  -2  -1   3  309.51   15.00
  -2  -1   3  296.95   13.94
  -2  -1   2   28.81    2.67
  -2  -1   2   25.21    2.34
  -2  -1   2   23.49    2.00
  -2  -1   1    0.44    0.61
  -2  -1   1    0.45    0.48
  -2  -1   1   -0.12    0.34
  -2  -1   0    0.69    0.86
  -2  -1   0    0.51    0.40
  -2  -1   0    0.64    0.40
  -2  -1  -1    1.13    0.57
  -2  -1  -1    2.19    0.52
   2   1   1    2.16    0.66
  -2  -1  -2  151.81    7.79
  -2  -1  -2  153.93    7.49
   2   1   2  180.69    9.16
  -2  -1  -3   22.52    2.18
   2   1   3   26.77    3.77
   2   1   3   28.82    2.71
  -2  -1  -4   74.88    4.33
   2   1   4   95.71    4.54
   2   1   4   92.61    5.25
  -2  -1  -5   85.93    4.94
   2   1   5   94.12    7.39
  -2  -1  -6    1.29    0.70
   2   1   6    1.78    0.57
  -2  -1  -7  154.24    9.94
   2   1   7  189.63   13.65
  -2  -1  -8    0.20    0.84
   2   1   8    0.85    0.53
  -2  -1  -9   55.15    4.68
   2   1   9   64.67   10.43
  -2  -1 -10   27.02    2.42
   2   1  10   30.56    5.97
  -2  -1 -11    9.28    2.15
   2   1  11   11.21    2.41
  -2  -1 -12   13.10    2.13
   2   1  12   10.88    2.26
  -2  -1 -13   14.79    2.25
   2   1  13   17.10    3.32
  -2  -1 -14   12.71    2.32
   2   1  14   17.06    3.35
  -2  -1 -15    1.10    0.94
   2   1  15    2.09    1.38
  -2  -1 -16    2.43    1.20
   2   1  16    1.06    0.65
  -2  -1 -17    1.98    1.55
   2   1  17    0.59    0.52
  -2  -1 -18    0.01    0.92
   2   2 -19    2.16    1.52
   2   2 -18    1.92    1.12
  -2  -2  18    1.10    0.92
   2   2 -17    1.30    0.98
  -2  -2  17    0.19    0.83
   2   2 -16   13.50    2.45
  -2  -2  16   10.52    2.10
   2   2 -15   13.20    2.23
  -2  -2  15   11.17    1.95
   2   2 -14    0.45    0.98
  -2  -2  14    2.17    1.17
   2   2 -13   27.78    2.92
  -2  -2  13   15.68    2.05
   2   2 -12    0.53    0.98
  -2  -2  12    0.51    0.83
   2   2 -11    1.18    0.91
  -2  -2  11    1.89    1.07
   2   2 -10   26.65    2.35
  -2  -2  10   14.01    1.83
   2   2  -9    1.30    0.70
  -2  -2   9    0.76    0.79
   2   2  -8   22.09    4.62
  -2  -2   8   13.67    2.06
   2   2  -7    4.78    1.18
  -2  -2   7    2.31    0.72
   2   2  -6   36.87    8.37
  -2  -2   6   29.17    2.30
   2   2  -5    1.85    0.41
  -2  -2   5    1.67    0.75
   2   2  -5    1.17    0.36
   2   2  -4  154.18    8.11
  -2  -2   4  124.75    6.71
   2   2  -4  127.42    6.28
   2   2  -3    5.34    1.24
  -2  -2   3    5.43    1.08
   2   2  -3    4.01    1.04
  -2  -2   2   14.62    1.59
  -2  -2   2   15.79    1.70
   2   2  -2   19.21    1.70
  -2  -2   1   42.38    2.58
  -2  -2   1   45.56    2.83
   2   2  -1   46.01    2.83
  -2  -2   0    2.10    0.71
  -2  -2   0    2.41    0.54
   2   2   0    2.96    0.53
  -2  -2  -1   28.53    2.59
  -2  -2  -1   32.14    2.56
   2   2   1   38.22    3.22
  -2  -2  -2  110.91    6.02
  -2  -2  -2  102.47    5.09
   2   2   2  130.34    6.94
  -2  -2  -3   89.78    5.15
   2   2   3   93.96    4.58
   2   2   3  102.28    5.87
  -2  -2  -4  139.88    7.33
   2   2   4  166.43    8.56
  -2  -2  -5    6.56    1.16
   2   2   5    8.39    1.76
  -2  -2  -6    0.81    0.78
   2   2   6    2.33    0.78
  -2  -2  -7    4.60    1.09
   2   2   7    7.57    1.65
  -2  -2  -8    3.92    1.27
   2   2   8    6.09    1.33
  -2  -2  -9   23.71    4.73
   2   2   9   30.03    7.26
   2   2  10    6.71    1.46
  -2  -2 -11    3.96    1.09
   2   2  11    2.80    0.78
  -2  -2 -12    1.34    1.18
   2   2  12    1.37    0.81
  -2  -2 -13    1.18    1.32
   2   2  13    0.93    0.46
  -2  -2 -14    1.83    0.96
   2   2  14    1.70    0.58
  -2  -2 -15    5.72    1.54
   2   2  15    3.86    1.02
  -2  -2 -16    1.34    1.04
   2   2  16    1.16    1.01
  -2  -2 -17   11.06    2.82
  -2  -2 -18    1.04    1.16
   2   3 -19    0.19    0.94
   2   3 -18    1.03    0.63
  -2  -3  18    2.56    1.38
   2   3 -17    0.09    1.08
  -2  -3  17    0.21    0.80
   2   3 -16    5.56    1.80
  -2  -3  16    3.81    1.25
   2   3 -15    1.50    1.08
  -2  -3  15    0.47    0.81
   2   3 -14    6.79    1.63
  -2  -3  14    3.67    1.17
   2   3 -13    0.73    0.42
  -2  -3  13    0.61    1.09
   2   3 -12    9.44    2.49
  -2  -3  12    4.66    1.46
   2   3 -11   34.07    2.84
  -2  -3  11   20.64    2.14
   2   3 -10   59.36   12.12
  -2  -3  10   36.61    3.53
   2   3  -9    6.10    1.56
  -2  -3   9    4.61    1.18
   2   3  -8   30.39    6.22
  -2  -3   8   23.47    2.31
   2   3  -7   14.72    2.89
  -2  -3   7    9.63    1.44
   2   3  -6  115.13   10.52
  -2  -3   6   93.16    5.34
   2   3  -5   22.00    5.65
  -2  -3   5   16.30    1.57
   2   3  -4  204.11   10.33
  -2  -3   4  169.22    8.50
   2   3  -4  212.79    9.76
  -2  -3   3   39.47    3.43
  -2  -3   3   37.99    3.21
   2   3  -3   48.32    2.44
  -2  -3   2   15.44    1.74
  -2  -3   2   16.84    1.69
   2   3  -2   19.09    4.53
  -2  -3   1   41.20    3.49
  -2  -3   1   37.89    3.11
   2   3  -1   48.72    2.88
  -2  -3   0   12.62    1.60
  -2  -3   0   11.06    1.19
   2   3   0   12.67    3.72
  -2  -3  -1   89.18    5.12
  -2  -3  -1   87.75    4.52
   2   3   1   98.46    6.05
  -2  -3  -2    4.47    1.31
  -2  -3  -2    3.77    0.46
   2   3   2    6.68    1.60
  -2  -3  -3  183.13    9.26
   2   3   3  250.87   12.27
  -2  -3  -4    1.79    0.86
   2   3   4    3.63    0.75
  -2  -3  -5    3.26    0.91
   2   3   5    4.21    1.16
  -2  -3  -6   21.88    2.80
   2   3   6   21.46    5.26
  -2  -3  -7    1.58    0.91
   2   3   7    4.01    1.57
  -2  -3  -8   34.60    3.37
   2   3   8   49.99    7.04
  -2  -3  -9    1.59    1.18
   2   3   9    0.33    0.50
  -2  -3 -10    1.19    1.15
   2   3  10    2.49    1.27
  -2  -3 -11    4.75    1.34
   2   3  11    7.11    1.41
  -2  -3 -12    4.67    1.66
   2   3  12    3.13    1.30
  -2  -3 -13    4.53    1.45
   2   3  13    6.74    1.62
  -2  -3 -14    8.60    1.88
   2   3  14   10.73    3.76
  -2  -3 -15    5.45    1.57
   2   3  15    9.03    2.16
  -2  -3 -16    0.66    1.05
   2   3  16    0.27    0.92
  -2  -3 -17    1.60    1.43
   2   4 -19    1.21    1.11
   2   4 -18    2.87    1.54
  -2  -4  18    0.01    0.82
   2   4 -17    4.26    1.79
  -2  -4  17    1.12    0.91
   2   4 -16    0.84    0.95
  -2  -4  16    0.47    0.78
   2   4 -15   12.93    2.36
  -2  -4  15    5.51    1.40
   2   4 -14   44.34    3.76
  -2  -4  14   25.79    2.74
   2   4 -13   14.17    2.63
  -2  -4  13   13.16    1.89
   2   4 -12   18.83    3.22
  -2  -4  12   12.20    1.92
   2   4 -11    5.96    1.28
  -2  -4  11    6.14    1.34
   2   4 -10   14.22    2.55
  -2  -4  10    8.25    1.46
   2   4  -9   64.08    8.40
  -2  -4   9   43.70    3.17
   2   4  -8    8.37    2.05
  -2  -4   8    4.56    1.13
   2   4  -7    0.70    0.45
  -2  -4   7    0.93    0.70
   2   4  -6    7.21    1.45
  -2  -4   6    4.57    0.87
   2   4  -5   50.22    3.41
  -2  -4   5   38.21    3.78
   2   4  -4   27.00    3.92
  -2  -4   4   21.32    1.74
   2   4  -4   29.72    1.82
  -2  -4   3   28.23    2.16
  -2  -4   3   24.63    1.78
   2   4  -3   35.58    1.88
  -2  -4   2   82.46    4.82
  -2  -4   2   83.02    4.62
   2   4  -2  104.56    5.44
  -2  -4   1   -0.48    0.74
  -2  -4   1    0.57    0.58
   2   4  -1    0.65    0.23
  -2  -4   0    2.13    0.69
  -2  -4   0    2.29    0.47
   2   4   0    3.17    1.28
  -2  -4  -1   -0.08    0.68
  -2  -4  -1    1.89    0.46
   2   4   1    2.74    0.91
  -2  -4  -2   33.94    2.49
  -2  -4  -2   29.44    1.46
   2   4   2   38.95    2.46
  -2  -4  -3   85.80    5.06
   2   4   3  115.10    6.67
  -2  -4  -4    1.64    0.66
   2   4   4    1.64    0.57
  -2  -4  -5    9.68    1.41
   2   4   5   15.20    1.72
  -2  -4  -6    6.37    1.37
   2   4   6    7.68    1.69
  -2  -4  -7   75.36    4.36
   2   4   7  104.76    5.62
  -2  -4  -8    2.32    1.01
   2   4   8    3.99    1.02
  -2  -4  -9    0.12    0.74
   2   4   9    0.83    0.65
  -2  -4 -10    1.85    0.94
  -2  -4 -11    8.07    1.71
   2   4  11    6.38    1.68
  -2  -4 -12    9.84    1.99
   2   4  12   17.60    3.02
  -2  -4 -13    0.46    0.90
   2   4  13    1.17    0.96
  -2  -4 -14    2.89    1.52
   2   4  14    0.39    1.03
  -2  -4 -15    0.43    0.94
   2   4  15    1.32    1.31
  -2  -4 -16    0.17    0.97
   2   4  16    1.26    1.06
  -2  -4 -17    0.95    1.07
   2   5 -20    2.61    1.45
   2   5 -19    2.00    0.98
   2   5 -18    0.69    0.98
  -2  -5  18    1.49    1.31
   2   5 -17    5.50    1.98
  -2  -5  17    1.13    0.87
   2   5 -16    5.11    1.79
  -2  -5  16    4.25    1.39
   2   5 -15   19.30    2.72
  -2  -5  15    8.07    1.72
   2   5 -14    2.39    1.06
  -2  -5  14    1.65    0.95
   2   5 -13    1.19    1.14
  -2  -5  13    0.38    0.81
   2   5 -12    8.42    2.52
  -2  -5  12    4.22    1.28
   2   5 -11   10.17    2.28
  -2  -5  11   10.75    1.84
   2   5 -10    1.42    0.65
  -2  -5  10    0.42    0.71
   2   5  -9    4.23    1.07
  -2  -5   9    5.64    1.26
   2   5  -8   26.09    9.06
  -2  -5   8   18.03    2.50
   2   5  -7   22.51    3.97
  -2  -5   7   16.02    1.76
   2   5  -6    1.31    0.36
  -2  -5   6    0.31    0.61
   2   5  -5   21.50    5.09
  -2  -5   5   16.26    1.64
   2   5  -5   24.61    1.33
   2   5  -4   66.20    4.18
  -2  -5   4   55.06    3.47
   2   5  -4   81.42    4.11
  -2  -5   3  158.16    8.25
  -2  -5   3  144.90    7.41
   2   5  -3  200.13    9.85
  -2  -5   2    4.81    1.01
  -2  -5   2    5.61    1.01
   2   5  -2    7.41    1.94
  -2  -5   1   64.55    4.01
  -2  -5   1   61.88    3.49
   2   5  -1   89.43    4.80
  -2  -5   0    2.18    0.68
  -2  -5   0    3.24    0.59
   2   5   0    2.36    0.71
  -2  -5  -1  134.06    7.16
  -2  -5  -1  129.17    6.20
   2   5   1  195.66    9.74
  -2  -5  -2    7.80    1.35
   2   5   2    8.19    2.04
  -2  -5  -3    7.95    1.29
   2   5   3   10.38    2.23
  -2  -5  -4    1.72    0.82
   2   5   4    2.99    0.89
  -2  -5  -5    2.49    0.81
   2   5   5    2.11    0.76
  -2  -5  -6    2.35    0.93
   2   5   6    2.42    1.36
  -2  -5  -7    7.19    1.36
   2   5   7    9.33    1.87
  -2  -5  -8    3.14    1.13
   2   5   8    5.20    0.93
  -2  -5  -9    0.80    0.85
   2   5   9    0.43    0.36
  -2  -5 -10    1.86    1.17
   2   5  10    1.12    0.55
  -2  -5 -11    1.80    0.99
   2   5  11    2.32    0.80
  -2  -5 -12    0.55    0.86
   2   5  12    0.81    0.93
  -2  -5 -13    1.56    0.98
   2   5  13    4.65    1.50
  -2  -5 -14    0.45    0.90
   2   5  14    2.12    1.45
  -2  -5 -15   -0.74    0.88
   2   5  15    0.40    0.90
  -2  -5 -16    2.16    1.48
  -2  -5 -17    2.06    1.29
   2   6 -19    2.39    1.84
  -2  -6  19    3.49    1.95
   2   6 -18    3.16    1.84
  -2  -6  18    0.67    0.96
   2   6 -17    1.25    1.10
  -2  -6  17    0.86    0.94
   2   6 -16    3.02    1.16
  -2  -6  16    1.86    1.01
   2   6 -15    0.76    1.10
  -2  -6  15    1.27    0.95
   2   6 -14    9.35    1.99
  -2  -6  14    4.13    1.24
   2   6 -13   13.90    3.91
  -2  -6  13    9.70    1.87
   2   6 -12   31.11    5.14
  -2  -6  12   20.09    4.58
   2   6 -11    7.54    2.02
  -2  -6  11   13.67    1.93
   2   6 -10   11.39    2.31
  -2  -6  10    6.75    1.39
   2   6  -9   42.63    7.10
  -2  -6   9   29.60    3.07
   2   6  -8   32.44    6.22
  -2  -6   8   25.74    2.52
   2   6  -7  101.56    6.31
  -2  -6   7   85.56    5.36
   2   6  -6   32.47    4.65
  -2  -6   6   24.87    1.92
   2   6  -5    9.78    1.84
  -2  -6   5    7.77    1.17
   2   6  -5    7.71    1.27
  -2  -6   4   35.14    3.06
  -2  -6   4   30.52    2.58
   2   6  -4   43.93    3.04
  -2  -6   3    3.64    0.97
  -2  -6   3    2.52    0.65
   2   6  -3    5.36    0.74
  -2  -6   2   19.20    1.82
  -2  -6   2   18.47    1.60
   2   6  -2   27.34    1.90
  -2  -6   1    1.80    1.03
  -2  -6   1    1.15    0.49
   2   6  -1    1.08    0.46
  -2  -6   0    1.55    0.98
  -2  -6   0    1.46    0.47
   2   6   0    2.21    0.61
  -2  -6  -1    8.21    1.30
  -2  -6  -1    8.40    1.62
   2   6   1   11.55    3.01
  -2  -6  -2    0.63    0.75
  -2  -6  -2    0.34    0.16
   2   6   2    1.10    0.46
  -2  -6  -3   19.01    2.58
   2   6   3   24.99    5.98
  -2  -6  -4    1.00    1.08
   2   6   4    0.63    0.52
  -2  -6  -5   14.19    1.83
   2   6   5   26.42    3.84
  -2  -6  -6    2.56    0.99
   2   6   6    0.81    0.59
  -2  -6  -7    1.20    0.89
   2   6   7    2.12    0.80
  -2  -6  -8   14.77    1.87
   2   6   8   29.63    2.94
  -2  -6  -9    0.62    1.16
   2   6   9    1.06    0.91
  -2  -6 -10    3.45    1.26
   2   6  10   10.40    1.74
  -2  -6 -11    0.76    0.88
   2   6  11    0.37    0.90
  -2  -6 -12    2.70    1.29
   2   6  12    1.34    1.00
  -2  -6 -13    1.30    1.09
   2   6  13    2.25    1.12
  -2  -6 -14    0.54    0.90
   2   6  14    3.60    1.36
  -2  -6 -15    1.00    1.04
   2   6  15    1.32    1.29
  -2  -6 -16    0.63    1.36
   2   7 -19    3.31    1.80
  -2  -7  19    4.79    2.04
   2   7 -18   -0.52    0.79
  -2  -7  18   -0.20    0.88
   2   7 -17    3.54    1.69
  -2  -7  17    1.71    1.01
   2   7 -16   14.59    2.42
  -2  -7  16   12.61    2.24
   2   7 -15   16.24    2.58
  -2  -7  15    9.15    1.75
   2   7 -14    4.46    1.30
  -2  -7  14    1.23    0.83
   2   7 -13    9.35    2.55
  -2  -7  13    6.98    1.62
   2   7 -12   41.04    5.10
  -2  -7  12   26.26    2.71
   2   7 -11    3.79    1.42
  -2  -7  11    4.30    1.59
   2   7 -10   12.34    2.43
  -2  -7  10   10.35    1.77
   2   7  -9    0.18    0.50
  -2  -7   9    0.91    0.72
   2   7  -8    0.84    0.62
  -2  -7   8    0.69    0.81
   2   7  -7   17.58    4.01
  -2  -7   7   11.47    1.53
   2   7  -6   45.26    7.66
  -2  -7   6   33.85    2.80
   2   7  -5    1.10    0.67
  -2  -7   5    2.20    0.84
   2   7  -5    2.65    0.52
  -2  -7   4    9.95    1.43
  -2  -7   4    8.78    1.24
   2   7  -4   13.13    2.79
  -2  -7   3   41.56    3.45
  -2  -7   3   40.59    3.16
   2   7  -3   57.79    4.00
  -2  -7   2   11.87    1.56
  -2  -7   2   12.68    1.29
   2   7  -2   18.64    1.63
  -2  -7   1   21.71    2.02
  -2  -7   1   24.15    1.74
   2   7  -1   32.52    2.28
  -2  -7   0   12.08    1.49
  -2  -7   0   11.65    1.10
   2   7   0   18.75    1.82
  -2  -7  -1    3.12    0.80
  -2  -7  -1    3.12    0.54
   2   7   1    5.71    1.12
  -2  -7  -2   33.44    3.07
   2   7   2   46.60    3.52
  -2  -7  -3   50.78    3.56
   2   7   3   58.69    4.01
  -2  -7  -4    2.26    1.24
   2   7   4    1.83    1.11
  -2  -7  -5    0.04    0.72
   2   7   5    0.24    0.91
  -2  -7  -6   53.06    3.51
   2   7   6   67.45    4.72
  -2  -7  -7    1.75    1.27
   2   7   7    0.58    1.07
  -2  -7  -8    5.48    1.46
   2   7   8    4.58    1.71
  -2  -7  -9    0.78    0.90
   2   7   9    2.56    1.54
  -2  -7 -10    2.84    1.39
   2   7  10    0.05    0.86
  -2  -7 -11   -0.04    0.78
   2   7  11    0.87    0.98
  -2  -7 -12    2.35    1.21
   2   7  12    4.53    1.76
  -2  -7 -13    0.07    0.91
   2   7  13    3.49    1.68
  -2  -7 -14   -0.79    0.92
   2   7  14   -0.67    0.90
  -2  -7 -15    0.71    1.04
   2   8 -19    0.81    1.05
  -2  -8  19    2.00    1.47
   2   8 -18    0.89    1.08
  -2  -8  18    1.11    1.52
   2   8 -17   10.27    2.00
  -2  -8  17    6.26    1.82
   2   8 -16    0.19    1.00
  -2  -8  16    1.18    1.00
   2   8 -15    1.03    1.02
  -2  -8  15    1.05    0.69
   2   8 -14    3.79    1.46
  -2  -8  14    4.63    1.60
   2   8 -13   40.46    6.27
  -2  -8  13   31.99    3.10
   2   8 -12   12.77    1.87
  -2  -8  12    8.34    1.70
   2   8 -11    2.60    0.95
  -2  -8  11    0.78    0.80
   2   8 -10    0.75    0.44
  -2  -8  10    1.35    0.94
   2   8  -9    0.30    0.48
  -2  -8   9    0.48    0.83
   2   8  -8   50.64   10.30
  -2  -8   8   43.31    3.94
   2   8  -7    2.70    0.79
  -2  -8   7    2.65    1.12
   2   8  -6   35.98    7.83
  -2  -8   6   28.31    2.32
   2   8  -5  141.19    6.55
  -2  -8   5  127.95    5.78
   2   8  -5  150.95    6.18
  -2  -8   4    1.24    0.83
  -2  -8   4    0.26    0.65
   2   8  -4    2.59    0.72
  -2  -8   3   43.33    3.30
  -2  -8   3   44.50    3.11
   2   8  -3   60.80    3.83
  -2  -8   2    6.27    1.22
  -2  -8   2    7.76    1.21
   2   8  -2    8.25    1.09
  -2  -8   1   14.88    2.19
  -2  -8   1   14.77    1.85
   2   8  -1   20.85    2.62
  -2  -8   0    7.42    1.20
  -2  -8   0   10.83    1.04
   2   8   0   19.56    1.79
  -2  -8  -1    5.66    1.14
  -2  -8  -1    2.77    0.69
   2   8   1    7.45    1.31
  -2  -8  -2   24.37    2.28
   2   8   2   34.74    2.69
  -2  -8  -3   15.91    1.90
   2   8   3   26.16    2.33
  -2  -8  -4    6.34    1.20
   2   8   4   11.93    1.68
  -2  -8  -5    5.91    1.70
   2   8   5    8.06    1.97
  -2  -8  -6   22.15    2.62
   2   8   6   34.86    3.56
  -2  -8  -7    4.18    1.40
   2   8   7    6.34    1.51
  -2  -8  -8    1.31    1.29
   2   8   8    0.49    0.85
  -2  -8  -9    0.70    0.88
   2   8   9    2.66    1.46
  -2  -8 -10    4.26    1.59
   2   8  10    0.02    0.79
  -2  -8 -11    0.81    0.90
   2   8  11    0.37    1.00
  -2  -8 -12    3.10    1.40
   2   8  12    3.00    1.30
  -2  -8 -13    2.26    1.18
   2   8  13    0.39    1.09
  -2  -8 -14    4.83    2.17
   2   8  14    1.74    1.24
   2   9 -19    7.58    2.67
   2   9 -18    0.48    1.00
  -2  -9  18    0.45    0.96
   2   9 -17    2.45    1.60
  -2  -9  17    1.38    1.15
   2   9 -16   17.25    2.81
  -2  -9  16    6.52    2.69
   2   9 -15   18.17    2.80
  -2  -9  15   10.07    2.14
   2   9 -14   15.39    2.53
  -2  -9  14    6.15    1.67
   2   9 -13    1.15    0.63
  -2  -9  13    1.51    0.98
   2   9 -12   39.62    5.46
  -2  -9  12   28.51    2.79
   2   9 -11   60.55    9.10
  -2  -9  11   44.83    3.36
   2   9 -10    9.76    2.32
  -2  -9  10    9.24    1.77
   2   9  -9    0.46    0.36
  -2  -9   9    3.60    1.50
   2   9  -8    4.69    0.96
  -2  -9   8    3.75    1.06
   2   9  -7    0.67    0.45
  -2  -9   7   -0.27    0.65
   2   9  -6   12.35    1.95
  -2  -9   6   10.80    1.57
   2   9  -5  100.77    7.87
  -2  -9   5   85.69    6.35
   2   9  -5   97.12    6.56
  -2  -9   4   16.50    1.81
  -2  -9   4   16.88    1.65
   2   9  -4   22.47    1.58
  -2  -9   3   10.28    1.37
  -2  -9   3   11.78    1.43
   2   9  -3   13.57    2.69
  -2  -9   2    3.51    1.17
  -2  -9   2    4.48    0.82
   2   9  -2    5.25    1.34
  -2  -9   1   16.53    1.78
  -2  -9   1   13.54    1.30
   2   9  -1   25.78    2.06
  -2  -9   0   65.87    5.31
  -2  -9   0   65.04    4.65
   2   9   0  100.03    7.20
  -2  -9  -1    8.20    1.48
  -2  -9  -1    4.46    0.68
   2   9   1   10.66    2.63
  -2  -9  -2    8.36    1.55
   2   9   2    9.22    1.43
  -2  -9  -3    1.10    0.71
   2   9   3    1.39    0.85
  -2  -9  -4    3.14    1.24
   2   9   4    4.59    1.77
  -2  -9  -5   -0.06    0.76
   2   9   5    0.97    0.99
  -2  -9  -6   12.05    2.15
   2   9   6   16.84    2.23
  -2  -9  -7   30.71    2.86
   2   9   7   48.89    3.84
  -2  -9  -8    3.29    1.31
   2   9   8    2.65    1.27
  -2  -9  -9    1.43    0.98
   2   9   9    0.51    0.94
  -2  -9 -10    8.20    1.77
   2   9  10   11.86    2.05
  -2  -9 -11    0.66    0.85
   2   9  11   -0.13    1.06
  -2  -9 -12    1.37    1.30
   2   9  12    6.66    2.11
  -2  -9 -13    1.98    1.18
   2   9  13    0.49    1.13
   2  10 -18    2.06    1.26
  -2 -10  18    0.39    0.98
   2  10 -17    1.87    1.30
  -2 -10  17    3.20    1.40
   2  10 -16   15.71    2.51
  -2 -10  16    9.60    2.20
   2  10 -15    8.00    2.31
  -2 -10  15    7.67    1.91
   2  10 -14    1.60    0.73
  -2 -10  14    4.73    1.56
   2  10 -13   26.78    4.00
  -2 -10  13   18.73    2.62
   2  10 -12   14.75    2.05
  -2 -10  12   13.15    2.38
   2  10 -11    7.03    1.84
  -2 -10  11    4.37    1.30
   2  10 -10    4.54    1.58
  -2 -10  10    4.88    1.38
   2  10  -9   14.75    5.61
  -2 -10   9   14.79    2.24
   2  10  -8    1.46    0.51
  -2 -10   8    3.23    1.26
   2  10  -7    7.46    2.51
  -2 -10   7    5.13    1.47
   2  10  -6    6.14    1.73
  -2 -10   6    8.13    1.37
   2  10  -6    6.76    1.06
   2  10  -5    5.38    1.69
  -2 -10   5    5.74    1.35
   2  10  -5    4.34    0.84
  -2 -10   4   85.32    4.01
  -2 -10   4   85.91    3.60
   2  10  -4  105.11    3.56
  -2 -10   3   33.38    3.25
  -2 -10   3   25.46    2.52
   2  10  -3   32.87    2.92
  -2 -10   2   42.54    2.86
  -2 -10   2   37.03    2.17
   2  10  -2   53.60   10.35
  -2 -10   1   38.66    2.76
  -2 -10   1   38.67    2.17
   2  10  -1   55.24    3.04
  -2 -10   0   53.66    3.36
  -2 -10   0   46.90    2.27
   2  10   0   76.99    3.74
  -2 -10  -1    5.85    1.28
   2  10   1    8.78    1.56
  -2 -10  -2    7.71    2.03
   2  10   2   13.56    2.06
  -2 -10  -3    2.19    1.02
   2  10   3    0.92    0.86
  -2 -10  -4    4.32    1.25
   2  10   4    6.69    1.60
  -2 -10  -5    1.34    0.82
   2  10   5    1.21    1.02
  -2 -10  -6   21.19    2.47
   2  10   6   30.29    3.04
  -2 -10  -7    1.00    0.84
   2  10   7    1.08    1.13
  -2 -10  -8    6.77    1.72
   2  10   8    7.96    1.93
  -2 -10  -9    1.93    1.25
   2  10   9    3.65    1.68
  -2 -10 -10    2.10    1.30
   2  10  10    5.93    1.84
  -2 -10 -11   -0.52    0.89
   2  10  11    2.58    1.68
  -2 -10 -12    6.79    2.11
   2  10  12    9.13    2.74
   2  10  13   -0.34    1.17
   2  11 -18    2.28    1.50
  -2 -11  18    1.61    1.26
   2  11 -17    3.64    1.59
  -2 -11  17    1.28    1.00
   2  11 -16    2.59    1.44
  -2 -11  16    3.67    1.56
   2  11 -15    3.22    1.52
  -2 -11  15    2.77    1.24
   2  11 -14    6.72    3.08
  -2 -11  14    5.08    1.60
   2  11 -13    0.92    0.66
  -2 -11  13    0.84    0.88
   2  11 -12    2.69    0.93
  -2 -11  12    2.21    1.09
   2  11 -11   27.49    7.33
  -2 -11  11   22.21    2.50
   2  11 -10    3.68    1.51
  -2 -11  10    4.57    1.40
   2  11  -9   13.83    3.82
  -2 -11   9   14.15    1.94
   2  11  -8    5.52    1.49
  -2 -11   8    5.67    1.45
   2  11  -7   17.50    4.15
  -2 -11   7   17.01    2.18
   2  11  -6    3.17    1.18
  -2 -11   6    4.16    1.32
   2  11  -6    1.97    0.74
   2  11  -5   21.98    5.28
  -2 -11   5   25.48    2.21
   2  11  -5   26.16    1.95
  -2 -11   4   17.55    1.97
  -2 -11   4   17.23    1.78
   2  11  -4   20.40    1.77
  -2 -11   3    0.80    0.73
  -2 -11   3    0.22    0.48
   2  11  -3    0.05    0.45
  -2 -11   2    3.41    1.10
  -2 -11   2    2.16    0.82
   2  11  -2    2.74    0.88
  -2 -11   1   15.87    1.91
  -2 -11   1   13.53    1.41
   2  11  -1   20.52    2.79
  -2 -11   0    5.70    1.61
  -2 -11   0    4.23    1.07
   2  11   0    9.24    2.32
  -2 -11  -1   10.98    1.89
   2  11   1   19.31    4.69
  -2 -11  -2    1.53    1.02
   2  11   2    0.52    0.77
  -2 -11  -3    1.41    1.12
   2  11   3    2.49    0.90
  -2 -11  -4    2.67    1.19
   2  11   4    3.91    1.03
  -2 -11  -5    0.77    0.76
   2  11   5   -0.82    0.81
  -2 -11  -6    2.19    1.21
   2  11   6    1.08    1.05
  -2 -11  -7    7.55    1.72
   2  11   7    8.28    1.99
  -2 -11  -8    3.42    1.47
   2  11   8    2.39    1.27
  -2 -11  -9   -0.41    0.76
   2  11   9    2.50    0.69
  -2 -11 -10    1.65    1.41
   2  11  10    1.47    1.07
  -2 -11 -11    7.44    2.42
   2  11  11    9.50    2.68
   2  11  12    0.16    1.14
  -2 -12  18    1.93    1.65
   2  12 -17    0.92    1.09
  -2 -12  17    2.22    1.62
   2  12 -16    1.61    1.30
  -2 -12  16    3.03    1.64
   2  12 -15    2.20    1.19
  -2 -12  15    4.15    1.70
   2  12 -14    5.42    1.80
  -2 -12  14    6.04    1.69
   2  12 -13    1.26    0.96
  -2 -12  13    0.88    0.89
   2  12 -12   26.51    4.09
  -2 -12  12   22.22    2.89
   2  12 -11    4.61    1.14
  -2 -12  11    4.53    1.32
   2  12 -10    0.72    1.15
  -2 -12  10   -0.15    0.75
   2  12  -9    9.20    2.27
  -2 -12   9    6.60    1.39
   2  12  -8   14.38    2.55
  -2 -12   8   16.44    2.32
   2  12  -7    2.47    1.14
  -2 -12   7    5.05    1.30
   2  12  -6    5.45    1.77
  -2 -12   6    4.32    1.15
   2  12  -5   -0.34    0.69
  -2 -12   5    0.08    0.51
   2  12  -5    0.33    0.52
  -2 -12   4    3.12    0.93
  -2 -12   4    2.15    0.73
   2  12  -4    2.80    0.91
  -2 -12   3    7.85    1.48
  -2 -12   3    7.66    1.20
   2  12  -3    8.99    1.45
  -2 -12   2    1.10    1.00
  -2 -12   2    3.03    1.04
   2  12  -2    1.33    0.73
  -2 -12   1    2.07    1.23
   2  12  -1    0.67    0.70
  -2 -12   0   36.60    2.98
   2  12   0   47.71    3.24
  -2 -12  -1    1.53    1.12
   2  12   1   -0.07    0.70
  -2 -12  -2    6.56    1.44
   2  12   2   10.34    1.83
  -2 -12  -3    1.52    0.85
   2  12   3    0.07    0.78
  -2 -12  -4    2.45    0.93
   2  12   4    8.20    1.47
  -2 -12  -5    0.75    0.83
   2  12   5    0.37    0.80
  -2 -12  -6    6.30    1.66
   2  12   6    7.40    3.06
  -2 -12  -7    2.06    1.26
   2  12   7   10.58    3.54
  -2 -12  -8    2.67    1.39
   2  12   8    4.96    1.24
  -2 -12  -9    0.89    0.91
   2  12   9    1.29    0.88
  -2 -12 -10    1.83    1.34
   2  12  10    1.13    1.22
   2  12  11    0.27    0.76
  -2 -13  17    1.40    1.12
  -2 -13  16    1.09    1.10
   2  13 -15    3.23    1.75
  -2 -13  15    1.00    1.08
   2  13 -14    0.00    0.75
  -2 -13  14    1.47    1.38
   2  13 -13    2.01    0.52
  -2 -13  13    1.16    1.31
   2  13 -12    1.75    0.79
  -2 -13  12    4.61    1.73
   2  13 -11    7.91    2.32
  -2 -13  11    8.39    2.03
   2  13 -10    6.35    1.76
  -2 -13  10    7.48    1.68
   2  13  -9    2.33    1.10
  -2 -13   9    0.81    1.06
   2  13  -8    0.73    0.67
  -2 -13   8    1.14    0.82
   2  13  -7    6.61    1.49
  -2 -13   7    5.77    1.34
   2  13  -6   10.71    2.81
  -2 -13   6   12.79    1.88
   2  13  -5    1.18    0.61
  -2 -13   5    0.30    0.58
   2  13  -5    1.23    0.94
  -2 -13   4    6.23    1.58
  -2 -13   4    4.71    1.13
   2  13  -4    5.61    1.18
  -2 -13   3    1.03    0.79
  -2 -13   3   -0.01    0.49
   2  13  -3    0.81    0.63
  -2 -13   2    9.74    1.63
  -2 -13   2    7.46    1.16
   2  13  -2    9.90    1.64
  -2 -13   1    2.88    1.15
   2  13  -1    3.91    1.28
  -2 -13   0    5.53    1.41
   2  13   0    4.47    1.42
  -2 -13  -1    2.16    0.91
   2  13   1    3.68    1.02
  -2 -13  -2   -0.45    0.62
   2  13   2   -0.26    0.75
  -2 -13  -3    1.48    0.88
   2  13   3    0.54    0.87
  -2 -13  -4    2.55    1.27
   2  13   4    5.28    1.54
  -2 -13  -5    7.06    1.90
   2  13   5    2.74    1.02
  -2 -13  -6    0.24    0.85
   2  13   6    1.48    0.88
  -2 -13  -7    0.32    0.76
   2  13   7   -0.52    1.06
  -2 -13  -8    0.25    0.76
   2  13   8    1.38    1.04
   2  13   9    2.90    1.12
   2  13  10   -0.55    0.98
  -2 -14  16    1.81    1.56
  -2 -14  15    0.58    0.91
   2  14 -14    0.16    0.64
  -2 -14  14    3.28    1.52
   2  14 -13    3.84    1.23
  -2 -14  13    1.44    1.13
   2  14 -12    3.41    1.14
  -2 -14  12    1.23    1.25
   2  14 -11    8.87    2.11
  -2 -14  11    7.34    1.87
   2  14 -10    5.17    2.19
  -2 -14  10    4.57    1.53
   2  14  -9    0.39    0.76
  -2 -14   9    1.16    0.82
   2  14  -8    1.68    0.99
  -2 -14   8    1.41    1.03
   2  14  -7    0.05    0.41
  -2 -14   7    0.77    0.86
   2  14  -6    0.54    0.34
  -2 -14   6    0.39    0.65
   2  14  -5    3.87    1.30
  -2 -14   5    3.40    1.11
  -2 -14   4   -0.18    0.50
   2  14  -4    0.97    0.93
  -2 -14   3    2.37    1.11
  -2 -14   3    1.10    0.67
   2  14  -3    0.49    0.34
  -2 -14   2    1.46    0.81
   2  14  -2    0.72    0.70
  -2 -14   1    1.50    1.02
   2  14  -1    1.00    0.74
  -2 -14   0    0.69    0.72
   2  14   0    0.67    0.76
  -2 -14  -1    1.97    1.08
   2  14   1    2.55    1.17
  -2 -14  -2    1.78    1.01
   2  14   2    2.97    1.38
  -2 -14  -3   -0.07    0.69
   2  14   3    0.74    0.80
  -2 -14  -4    0.68    0.80
   2  14   4    1.06    0.94
  -2 -14  -5    1.65    1.05
   2  14   5    3.16    1.39
  -2 -14  -6    1.20    0.86
   2  14   6    3.74    1.69
   2  14   7    0.12    0.99
   2  14   8    1.76    1.54
  -2 -15  15    2.49    1.44
  -2 -15  14    0.54    1.09
  -2 -15  13    1.54    1.12
   2  15 -12    0.99    0.64
  -2 -15  12    0.26    0.87
   2  15 -11    1.47    0.69
  -2 -15  11    3.28    1.47
   2  15 -10   -0.26    0.74
  -2 -15  10    1.78    1.29
   2  15  -9    1.21    0.89
  -2 -15   9    1.05    1.07
   2  15  -8    3.46    2.01
  -2 -15   8    5.86    1.82
   2  15  -7    1.32    0.60
  -2 -15   7    3.72    1.43
   2  15  -6    0.13    0.59
  -2 -15   6    0.35    0.64
   2  15  -5   -0.07    0.63
  -2 -15   5    1.20    0.76
   2  15  -4    6.06    2.16
  -2 -15   4    9.08    1.53
   2  15  -4    8.76    1.63
  -2 -15   3    0.62    0.68
   2  15  -3   -0.03    0.66
  -2 -15   2    0.65    0.72
   2  15  -2    0.41    0.67
  -2 -15   1    1.13    0.98
   2  15  -1    0.31    0.70
  -2 -15   0    4.92    1.46
   2  15   0    7.48    1.94
  -2 -15  -1    2.99    1.18
   2  15   1    1.21    0.98
  -2 -15  -2   -0.40    0.68
   2  15   2    1.69    0.97
  -2 -15  -3    0.42    0.77
   2  15   3    0.68    0.88
   2  15   4    1.00    1.04
   2  15   5    5.98    2.28
   2  15   6    0.39    1.08
   2  15   7    0.89    1.10
  -2 -16  14    0.15    1.04
  -2 -16  13    1.52    1.15
  -2 -16  12    0.98    0.98
  -2 -16  11    1.26    1.25
  -2 -16  10    3.15    1.42
  -2 -16   9    5.16    1.60
  -2 -16   8    1.90    1.20
   2  16  -7    1.76    0.91
  -2 -16   7    0.79    0.80
   2  16  -6    2.33    0.89
  -2 -16   6    2.63    1.26
   2  16  -5    1.19    0.94
   2  16  -4    1.01    0.67
  -2 -16   3    3.89    1.35
   2  16  -2    1.04    0.91
   2  16  -1    0.45    0.79
   2  16   0   -0.38    0.74
   2  16   1    0.95    0.92
   2  16   2    0.74    0.93
   2  16   3    1.78    1.38
   2  16   4    0.00    0.93
   2  16   5    0.93    1.05
  -2 -17  10   -0.06    0.96
  -3  18  -4   -0.56    1.03
   3 -18   5    1.24    1.28
  -3  18  -5   -0.74    1.07
   3 -18   6   -0.06    0.97
  -3  17   1    1.84    1.69
   3 -17   0    0.23    1.01
  -3  17   0    0.67    1.16
   3 -17   1    1.79    0.90
  -3  17  -1    0.58    1.02
   3 -17   2    0.97    1.12
  -3  17  -2    1.24    1.09
   3 -17   3    1.47    1.15
  -3  17  -3    0.85    1.58
   3 -17   4    4.74    1.98
  -3  17  -4    1.68    1.21
   3 -17   5    0.10    1.16
  -3  17  -5    0.15    1.01
   3 -17   6    0.67    1.09
  -3  17  -6   -0.03    0.93
   3 -17   7    1.04    0.66
  -3  17  -7    0.54    1.08
   3 -17   8   15.27    3.45
  -3  17  -8    1.06    1.14
   3 -17   9    1.08    1.13
  -3  17  -9    1.44    1.14
  -3  16   3    2.48    1.73
   3 -16  -2    0.59    0.74
  -3  16   2   -0.52    0.99
   3 -16  -1    0.95    0.49
  -3  16   1    2.15    1.26
   3 -16   0    1.26    0.84
  -3  16   0    1.44    1.37
   3 -16   1    1.19    1.15
  -3  16  -1    0.81    1.04
   3 -16   2    2.13    1.02
  -3  16  -2    0.12    0.97
   3 -16   3    1.51    1.46
  -3  16  -3    0.96    1.06
   3 -16   4    1.12    1.40
  -3  16  -4    0.01    0.89
   3 -16   5    1.07    1.04
  -3  16  -5    0.97    1.09
   3 -16   6    0.33    0.92
  -3  16  -6    0.76    1.03
   3 -16   7    0.80    1.03
  -3  16  -7    2.01    1.52
   3 -16   8    0.95    1.08
  -3  16  -8    1.13    1.10
   3 -16   9    3.17    1.62
  -3  16  -9    1.29    1.09
   3 -16  10    1.81    1.20
  -3  16 -10   -0.14    0.92
   3 -16  11    0.10    0.54
   3 -15  -4    0.19    0.47
  -3  15   4    1.22    1.34
   3 -15  -3    0.22    0.54
  -3  15   3    0.54    0.85
   3 -15  -2    1.33    0.99
  -3  15   2    1.47    1.05
   3 -15  -1    1.47    0.73
  -3  15   1    1.44    1.17
   3 -15   0    4.74    2.41
  -3  15   0   -0.71    0.82
   3 -15   1    1.08    0.71
  -3  15  -1    2.68    1.46
   3 -15   2    1.82    0.70
  -3  15  -2    0.67    0.92
   3 -15   3    0.43    0.47
  -3  15  -3    1.67    1.40
   3 -15   4    0.95    0.95
  -3  15  -4    0.02    0.73
   3 -15   5    0.92    1.04
  -3  15  -5    0.80    0.96
   3 -15   6    0.41    1.06
  -3  15  -6    1.92    1.56
   3 -15   7    1.67    1.17
  -3  15  -7    0.08    0.99
   3 -15   8    0.32    0.89
  -3  15  -8    1.05    1.01
   3 -15   9    1.99    0.92
  -3  15  -9    6.28    1.98
   3 -15  10    0.62    0.99
  -3  15 -10    1.56    1.34
   3 -15  11    0.24    0.97
  -3  15 -11    0.17    0.91
  -3  15 -12    2.52    1.53
   3 -14  -5    0.54    0.49
  -3  14   5   -0.08    0.80
   3 -14  -4    0.63    0.45
  -3  14   4    0.87    0.94
   3 -14  -3    0.62    0.68
  -3  14   3    0.83    0.87
   3 -14  -2    2.29    1.02
  -3  14   2    0.53    0.82
   3 -14  -1   -0.77    0.85
  -3  14   1   -0.47    0.82
   3 -14   0    0.72    0.50
  -3  14   0    0.51    0.88
   3 -14   1    5.55    1.39
  -3  14  -1    4.08    1.57
   3 -14   2    0.89    0.80
  -3  14  -2    0.38    0.82
   3 -14   3    1.51    0.79
  -3  14  -3    0.96    0.92
   3 -14   4    0.29    0.90
  -3  14  -4    1.09    0.94
   3 -14   5    0.93    1.03
  -3  14  -5    0.85    0.94
   3 -14   6    5.27    2.05
  -3  14  -6    2.58    1.21
   3 -14   7    0.17    0.84
  -3  14  -7   -0.08    0.91
   3 -14   8    2.07    1.10
  -3  14  -8    0.47    0.92
   3 -14   9    0.08    0.79
  -3  14  -9    0.19    0.78
   3 -14  10    1.68    1.01
  -3  14 -10    0.61    0.87
   3 -14  11    0.94    1.01
  -3  14 -11    0.42    0.95
   3 -14  12   -0.52    0.85
  -3  14 -12    0.41    0.95
  -3  14 -13    1.19    1.02
   3 -13  -7    0.59    0.61
   3 -13  -6    0.28    0.39
  -3  13   6    0.29    0.84
   3 -13  -5    0.83    0.90
  -3  13   5   -0.11    0.79
   3 -13  -4    2.36    1.37
  -3  13   4    3.05    1.39
   3 -13  -3    1.76    0.86
  -3  13   3    0.81    0.99
   3 -13  -2    3.93    1.17
  -3  13   2    2.40    1.35
   3 -13  -1    2.55    1.04
   3 -13   0   -0.34    0.75
  -3  13   0    1.12    0.98
   3 -13   1    1.60    0.73
  -3  13  -1    1.81    1.25
   3 -13   2    3.67    1.36
  -3  13  -2    1.43    1.02
   3 -13   3    4.93    1.40
  -3  13  -3    3.83    1.47
   3 -13   4    1.43    1.08
  -3  13  -4    1.40    0.91
   3 -13   5   -1.11    0.81
  -3  13  -5    1.12    0.96
   3 -13   6    0.30    0.98
  -3  13  -6    0.80    0.89
   3 -13   7    1.76    1.36
  -3  13  -7    0.45    0.94
   3 -13   8   16.05    2.41
  -3  13  -8    6.90    1.78
   3 -13   9    4.09    1.31
  -3  13  -9    2.06    1.09
   3 -13  10    1.00    1.19
  -3  13 -10    2.66    1.35
   3 -13  11    2.81    1.45
  -3  13 -11    1.49    0.97
   3 -13  12    1.74    0.78
  -3  13 -12    0.19    0.85
  -3  13 -13    0.59    1.25
  -3  13 -14    1.15    1.06
   3 -12  -8    1.98    1.25
   3 -12  -7    0.46    0.64
  -3  12   7    0.16    0.80
   3 -12  -6    0.68    0.35
  -3  12   6    0.09    0.78
   3 -12  -5    0.76    0.61
  -3  12   5    3.39    1.35
   3 -12  -4    1.18    0.60
  -3  12   4    0.85    1.11
   3 -12  -3    1.17    1.15
  -3  12   3    2.07    1.05
   3 -12  -2    3.07    1.16
  -3  12   2    1.64    0.97
   3 -12  -1    5.43    1.63
  -3  12   1    6.79    1.79
   3 -12   0    1.34    1.02
  -3  12   0    1.48    1.31
   3 -12   1    1.67    0.88
  -3  12  -1    4.00    1.51
   3 -12   2    2.11    0.76
  -3  12  -2    2.94    1.12
   3 -12   3    0.68    0.76
   3 -12   4    1.24    0.56
  -3  12  -4    1.14    0.96
   3 -12   5    1.90    0.93
  -3  12  -5    0.09    0.83
   3 -12   6    1.70    1.26
  -3  12  -6    0.01    0.80
   3 -12   7    8.63    1.91
  -3  12  -7    7.17    1.63
   3 -12   8    2.33    1.35
  -3  12  -8    1.36    1.02
   3 -12   9    1.15    0.94
  -3  12  -9    0.64    0.94
   3 -12  10    1.76    1.07
  -3  12 -10    2.20    1.37
   3 -12  11    2.08    1.07
  -3  12 -11    1.34    0.88
   3 -12  12    0.41    0.48
  -3  12 -12    0.56    0.79
   3 -12  13    0.45    0.42
  -3  12 -13    0.29    0.89
  -3  12 -14    0.55    0.93
   3 -11  -9    0.72    0.57
   3 -11  -8    0.54    0.51
   3 -11  -7    3.29    1.37
  -3  11   7    2.36    1.29
   3 -11  -6    0.43    0.59
  -3  11   6    0.77    0.83
   3 -11  -5   -0.11    0.58
  -3  11   5    0.29    0.71
   3 -11  -4    1.14    0.71
  -3  11   4    1.05    1.07
   3 -11  -3    6.10    1.19
  -3  11   3    5.15    1.52
   3 -11  -2    0.77    0.68
  -3  11   2    1.06    0.85
   3 -11  -1   -0.82    0.87
  -3  11   1    1.95    1.22
   3 -11   0   14.86    2.30
  -3  11   0    9.62    1.78
   3 -11   1    2.96    0.76
  -3  11  -1    1.18    0.94
   3 -11   2    4.93    2.06
  -3  11  -2    4.10    1.25
   3 -11   3   16.24    3.25
  -3  11  -3   14.58    2.23
   3 -11   4   -0.10    0.74
  -3  11  -4    0.75    0.95
   3 -11   5    3.72    1.06
  -3  11  -5    1.96    1.33
   3 -11   6    0.25    0.35
  -3  11  -6    1.73    1.17
   3 -11   7    1.71    0.96
  -3  11  -7    0.29    0.88
   3 -11   8   -0.17    0.71
  -3  11  -8    5.43    1.62
   3 -11   9    8.78    1.77
  -3  11  -9    8.66    1.70
   3 -11  10    6.91    1.72
  -3  11 -10    3.04    1.50
   3 -11  11    0.85    0.81
  -3  11 -11    0.90    0.98
   3 -11  12    6.20    1.67
  -3  11 -12    3.67    1.40
   3 -11  13    0.48    0.82
  -3  11 -13    0.07    0.69
  -3  11 -14    0.14    0.86
   3 -10 -10    1.46    1.07
   3 -10  -9    2.41    1.20
   3 -10  -8    0.48    0.80
  -3  10   8    0.72    0.88
   3 -10  -7    6.37    1.86
  -3  10   7    4.77    1.17
   3 -10  -6    3.35    0.76
  -3  10   6    0.99    0.75
   3 -10  -5    0.64    0.23
  -3  10   5    0.17    0.63
   3 -10  -4    1.90    0.90
  -3  10   4    0.12    0.63
   3 -10  -3    0.13    0.33
  -3  10   3    1.67    1.12
   3 -10  -2    1.10    1.36
  -3  10   2   -0.04    0.67
   3 -10  -1    1.59    1.10
  -3  10   1    2.87    1.14
   3 -10   0    4.17    0.97
  -3  10   0    1.92    1.30
   3 -10   1   17.86    3.84
  -3  10  -1   14.60    2.06
   3 -10   2    7.17    1.93
  -3  10  -2   11.01    2.02
   3 -10   3   20.57    4.07
  -3  10  -3   17.44    2.45
   3 -10   4    2.93    0.97
  -3  10  -4    2.43    1.22
   3 -10   5    4.93    1.32
  -3  10  -5    3.06    1.32
   3 -10   6    0.64    0.59
  -3  10  -6    1.29    0.94
  -3  10  -7    3.56    1.49
   3 -10   8   19.21    2.27
  -3  10  -8   11.66    1.98
   3 -10   9    3.99    1.42
  -3  10  -9    2.14    1.18
   3 -10  10    3.48    1.31
  -3  10 -10    4.84    1.77
   3 -10  11    0.89    1.00
  -3  10 -11    1.87    1.10
   3 -10  12    1.57    0.99
  -3  10 -12    1.22    0.89
   3 -10  13   -0.13    0.75
  -3  10 -13   -0.05    0.75
  -3  10 -14    1.10    1.04
  -3  10 -15    0.26    0.87
   3  -9 -11    6.69    2.27
   3  -9 -10    2.35    1.49
   3  -9  -9   15.75    2.66
   3  -9  -8    1.22    1.30
  -3   9   8    0.72    1.01
   3  -9  -7    2.02    1.34
  -3   9   7   -0.01    0.61
   3  -9  -6    3.40    1.21
  -3   9   6    5.66    1.34
   3  -9  -5    1.39    0.77
  -3   9   5    1.56    0.85
   3  -9  -4    2.15    0.84
   3  -9  -3    1.12    0.82
  -3   9   3    2.97    1.04
   3  -9  -2    1.40    0.90
  -3   9   2    0.90    0.75
   3  -9  -1    0.89    0.39
  -3   9   1    2.82    1.17
   3  -9   0   28.03    5.37
  -3   9   0   19.56    2.27
   3  -9   1   27.13    4.18
  -3   9  -1   19.47    2.22
   3  -9   2   10.75    2.16
  -3   9  -2    8.29    1.62
   3  -9   3   31.62    6.14
  -3   9  -3   40.64    3.26
   3  -9   4   81.29   14.46
  -3   9  -4   58.53    3.77
   3  -9   5    4.64    2.07
  -3   9  -5    4.63    1.43
   3  -9   6    3.37    0.71
  -3   9  -6    1.22    0.97
   3  -9   7    0.99    0.96
  -3   9  -7    1.01    0.90
   3  -9   8    1.25    0.96
  -3   9  -8   -0.11    0.72
   3  -9   9    0.00    0.61
  -3   9  -9    0.73    0.97
   3  -9  10   -0.08    0.64
  -3   9 -10    0.29    0.87
   3  -9  11    0.20    0.71
  -3   9 -11    1.71    0.99
   3  -9  12   10.23    2.03
  -3   9 -12    6.85    1.91
  -3   9 -13    4.44    1.54
  -3   9 -14    8.68    1.95
  -3   9 -15    0.85    1.02
   3  -8 -12    1.92    1.20
   3  -8 -11   -0.03    0.69
   3  -8 -10    4.76    1.53
   3  -8  -9    3.52    1.42
   3  -8  -8    5.93    1.47
  -3   8   8    2.84    1.08
   3  -8  -7    4.25    1.30
  -3   8   7    3.89    1.22
   3  -8  -6    0.81    0.80
  -3   8   6    0.55    0.62
   3  -8  -5    1.68    0.95
  -3   8   5    1.86    0.81
   3  -8  -4    6.57    1.72
  -3   8   4    1.67    0.78
   3  -8  -3    5.16    1.21
  -3   8   3    5.29    1.30
   3  -8  -2   -0.04    0.66
  -3   8   2    0.04    0.62
   3  -8  -1    1.73    0.95
  -3   8   1    0.77    0.72
   3  -8   0   38.44    7.73
  -3   8   0   33.88    2.63
   3  -8   1    1.99    1.09
  -3   8  -1    1.39    0.82
   3  -8   2    7.25    1.74
  -3   8  -2    4.83    1.17
   3  -8   3   11.59    2.27
  -3   8  -3    8.47    1.46
   3  -8   4   31.59    6.60
  -3   8  -4   25.04    2.36
   3  -8   5    0.54    0.40
  -3   8  -5    3.09    1.34
   3  -8   6    2.40    1.23
  -3   8  -6    0.54    0.90
   3  -8   7    2.96    0.96
  -3   8  -7    3.02    1.38
   3  -8   8    1.45    0.73
  -3   8  -8    1.08    0.89
   3  -8   9    0.82    0.79
  -3   8  -9    0.22    0.81
   3  -8  10    1.50    0.78
  -3   8 -10    0.32    0.94
   3  -8  11    4.13    1.33
  -3   8 -11    5.16    1.41
   3  -8  12   29.93    5.47
  -3   8 -12   22.09    2.93
  -3   8 -13   -0.07    0.80
  -3   8 -14    0.62    0.84
   3  -8  15    0.81    0.86
   3  -8  16    1.82    1.26
  -3   7  12    1.32    1.33
  -3   7  11    1.59    1.00
  -3   7  10    2.03    1.33
  -3   7   8    1.32    0.83
  -3   7   7    1.01    0.70
   3  -7  -6    1.89    1.19
  -3   7   6    3.54    1.02
   3  -7  -5    7.89    1.63
  -3   7   5    6.58    1.44
   3  -7  -4    0.27    0.63
  -3   7   4    1.29    0.95
   3  -7  -3    2.73    1.35
  -3   7   3    2.73    1.04
   3  -7  -2   22.80    2.32
  -3   7   2   19.08    1.96
   3  -7  -1    1.94    0.87
  -3   7   1    0.41    0.67
   3  -7   0    1.07    0.74
  -3   7   0    0.56    0.74
   3  -7   1   20.45    1.79
  -3   7  -1   16.73    1.81
   3  -7   2   35.11    7.27
  -3   7  -2   24.48    2.69
   3  -7   3    1.75    0.81
  -3   7  -3    1.67    0.86
   3  -7   4    2.21    0.63
  -3   7  -4   -0.04    0.70
   3  -7   5   11.55    1.93
  -3   7  -5    9.56    1.69
   3  -7   6    0.84    0.41
  -3   7  -6    1.54    0.95
   3  -7   7    1.69    0.95
  -3   7  -7    7.42    2.01
   3  -7   8   13.63    1.97
  -3   7  -8    9.35    1.78
   3  -7   9   13.14    1.86
  -3   7  -9    4.93    1.25
   3  -7  10    6.69    1.35
  -3   7 -10    2.33    1.08
   3  -7  11    3.89    1.07
  -3   7 -11    2.48    1.25
  -3   7 -12    0.97    0.97
  -3   7 -13    1.86    1.07
   3  -7  14    1.76    1.24
   3  -7  15    1.48    1.04
   3  -7  16    0.63    0.90
  -3   6  13    1.75    1.30
  -3   6  12    1.17    0.88
  -3   6  11    1.66    1.17
  -3   6  10    0.68    0.88
   3  -6  -9    1.06    0.62
  -3   6   9    2.43    1.26
   3  -6  -8    0.83    0.74
  -3   6   8   -0.10    0.80
  -3   6   8   -0.12    0.43
   3  -6  -7    1.29    0.44
  -3   6   7    1.34    0.92
  -3   6   7    2.01    0.77
   3  -6  -6   10.48    2.20
  -3   6   6   14.00    2.27
  -3   6   6    9.88    1.44
   3  -6  -5    6.07    1.46
  -3   6   5    3.13    1.34
  -3   6   5    3.04    1.03
  -3   6   4   14.76    1.63
   3  -6  -3    1.08    0.77
  -3   6   3    1.35    0.73
   3  -6  -2    0.21    0.74
  -3   6   2    0.92    0.69
   3  -6  -1    1.92    1.03
  -3   6   1    0.43    0.62
   3  -6   0    5.46    1.01
  -3   6   0    3.32    1.05
   3  -6   1   27.23    4.42
  -3   6  -1   16.74    1.70
   3  -6   2    0.50    0.54
  -3   6  -2    1.22    0.94
   3  -6   3    0.16    0.32
  -3   6  -3    0.20    0.68
   3  -6   4    6.99    1.64
  -3   6  -4    3.50    1.11
   3  -6   5    1.98    0.62
  -3   6  -5    2.22    1.00
   3  -6   6    6.85    2.11
  -3   6  -6    5.44    1.30
  -3   6  -7    3.61    0.67
   3  -6   7    5.34    1.36
  -3   6  -7    7.42    1.51
  -3   6  -8    3.59    0.97
   3  -6   8    8.46    2.05
  -3   6  -8    3.56    1.49
  -3   6  -9    1.07    0.62
   3  -6   9    0.42    0.44
  -3   6  -9    1.91    1.00
  -3   6 -10   -0.06    0.39
   3  -6  10    0.92    0.77
  -3   6 -10    0.69    0.83
  -3   6 -11    0.75    0.65
   3  -6  11    0.52    0.66
  -3   6 -11    0.24    0.91
  -3   6 -12    2.31    0.79
  -3   6 -12    4.24    1.50
   3  -6  13   15.17    2.30
   3  -6  14    0.92    0.95
   3  -6  15    0.84    0.63
   3  -6  16    1.27    0.85
  -3   5  14    0.77    0.91
  -3   5  13    0.75    0.91
   3  -5 -12    0.74    0.75
  -3   5  12    2.37    1.20
   3  -5 -11    8.99    1.99
  -3   5  11    5.52    1.75
   3  -5 -10    0.23    0.62
  -3   5  10    0.95    0.85
   3  -5  -9    0.46    0.55
  -3   5   9    1.61    0.96
   3  -5  -8    1.42    0.84
  -3   5   8    1.35    0.90
  -3   5   8    0.81    0.55
   3  -5  -7   15.52    2.22
  -3   5   7   14.69    2.30
  -3   5   7   10.29    1.44
   3  -5  -6    7.82    2.18
  -3   5   6    4.50    1.54
  -3   5   6    6.03    1.49
   3  -5  -5    0.88    0.40
  -3   5   5    4.16    1.39
  -3   5   5    1.05    0.59
   3  -5  -4    2.88    0.68
  -3   5   4    2.21    1.02
  -3   5   4    2.02    0.66
   3  -5  -3    0.27    0.28
  -3   5   3    2.76    1.08
  -3   5   3    1.52    0.66
   3  -5  -2    6.44    1.42
   3  -5  -2    6.04    1.26
  -3   5   2    6.72    1.06
   3  -5  -1    2.88    0.84
   3  -5  -1    3.09    1.02
  -3   5   1    2.56    0.90
   3  -5   0    5.54    1.35
   3  -5   0    6.39    1.13
  -3   5   0    5.97    1.04
   3  -5   1    3.29    0.89
   3  -5   1    4.10    1.10
  -3   5  -1    5.23    1.05
   3  -5   2    0.50    0.67
  -3   5  -3    8.83    0.88
   3  -5   3   10.40    2.32
  -3   5  -3    8.46    1.40
  -3   5  -4    1.60    0.51
   3  -5   4    2.40    1.38
  -3   5  -4    4.74    1.14
  -3   5  -5   68.91    4.83
   3  -5   5   89.21   14.17
  -3   5  -5   73.52    5.85
  -3   5  -6    0.96    0.59
   3  -5   6   -0.04    0.57
  -3   5  -6    1.74    1.20
  -3   5  -7    0.33    0.41
   3  -5   7    0.61    0.54
  -3   5  -7    0.86    1.09
  -3   5  -8    2.65    0.84
   3  -5   8    0.53    0.67
  -3   5  -8    2.83    1.36
  -3   5  -9    9.47    1.38
   3  -5   9   12.83    1.60
  -3   5  -9   11.23    1.92
  -3   5 -10    6.06    1.08
   3  -5  10   14.01    1.56
  -3   5 -10    8.33    1.74
  -3   5 -11    1.24    0.68
  -3   5 -11    0.12    0.86
  -3   5 -12    0.87    0.78
   3  -5  12    0.11    0.73
  -3   5 -13    3.27    1.09
   3  -5  13    0.18    0.71
  -3   5 -14    0.55    0.71
   3  -5  14    2.67    2.90
   3  -5  15    0.89    0.79
   3  -5  16    0.12    0.53
  -3   4  15    0.81    0.99
  -3   4  14    0.22    0.87
   3  -4 -13    0.21    0.75
  -3   4  13    1.76    0.99
   3  -4 -12    0.50    0.70
  -3   4  12    1.38    0.95
   3  -4 -11    1.17    0.79
  -3   4  11    2.30    1.29
   3  -4 -10    2.01    1.14
  -3   4  10    0.82    0.90
   3  -4  -9    2.36    1.12
  -3   4   9    4.45    1.59
   3  -4  -8    5.23    1.06
  -3   4   8    2.78    1.16
  -3   4   8    2.34    0.67
   3  -4  -7    1.63    0.82
  -3   4   7   -0.09    0.82
  -3   4   7    0.67    0.61
   3  -4  -6    2.73    3.85
  -3   4   6    8.88    1.68
  -3   4   6    5.41    0.92
   3  -4  -5   16.14    3.39
  -3   4   5   10.74    1.65
  -3   4   5   15.22    1.52
   3  -4  -4    0.10    0.38
  -3   4   4    1.61    0.84
  -3   4   4    0.99    0.52
   3  -4  -3   17.32    3.45
  -3   4   3   15.40    1.89
  -3   4   3   13.91    1.43
   3  -4  -2    0.29    0.44
  -3   4   2    0.72    0.75
  -3   4   2    3.52    0.93
   3  -4  -1   35.12    4.59
  -3   4   1   28.91    2.48
   3  -4   0   12.03    3.09
   3  -4   0   12.44    1.91
  -3   4   0   11.54    1.81
   3  -4   1    1.01    0.70
  -3   4  -2   29.19    2.08
   3  -4   2   25.23    5.38
  -3   4  -2   21.50    2.78
  -3   4  -3    3.64    0.68
   3  -4   3    4.88    0.84
  -3   4  -3    4.84    1.12
  -3   4  -4    2.38    0.70
   3  -4   4    4.15    1.32
  -3   4  -4    2.74    1.14
  -3   4  -5   14.41    1.36
   3  -4   5   18.10    2.89
  -3   4  -5   11.21    1.72
  -3   4  -6    1.10    0.72
   3  -4   6    0.21    0.44
  -3   4  -6    1.64    0.86
  -3   4  -7    0.61    0.60
   3  -4   7    2.73    0.85
  -3   4  -7    2.41    1.27
  -3   4  -8    0.51    0.43
   3  -4   8    0.36    0.45
  -3   4  -8    1.36    1.17
  -3   4  -9    0.70    0.54
   3  -4   9    0.20    0.38
  -3   4  -9    1.01    0.87
  -3   4 -10    1.20    0.59
  -3   4 -10    0.47    0.86
  -3   4 -11    3.28    1.13
   3  -4  11    2.37    1.05
  -3   4 -12    1.60    0.77
   3  -4  12    2.41    1.28
  -3   4 -13    2.67    1.03
   3  -4  13    0.23    0.69
  -3   4 -14    1.30    0.87
   3  -4  14    0.52    0.68
  -3   4 -15    2.12    1.19
   3  -4  15    0.42    0.40
   3  -4  16    1.33    0.68
  -3   3  15    0.73    0.92
   3  -3 -14    2.89    1.28
  -3   3  14    0.54    0.84
   3  -3 -13    0.64    0.36
  -3   3  13    0.25    0.78
   3  -3 -12    0.48    0.51
  -3   3  12   -0.31    0.77
   3  -3 -11    6.72    1.59
  -3   3  11    4.48    1.49
   3  -3 -10   41.76    3.07
  -3   3  10   25.88    2.99
   3  -3  -9    4.81    1.28
  -3   3   9    1.71    0.87
   3  -3  -8    6.35    1.72
  -3   3   8    3.71    1.36
   3  -3  -7    1.14    0.54
  -3   3   7    1.43    1.20
  -3   3   7    0.58    0.57
   3  -3  -6   10.92    2.89
  -3   3   6    8.28    1.59
  -3   3   6    5.82    0.92
   3  -3  -5    3.58    1.13
  -3   3   5    4.48    1.49
  -3   3   5    2.11    0.59
   3  -3  -4    6.00    1.47
  -3   3   4    5.11    1.33
  -3   3   4    4.42    0.81
   3  -3  -3    0.64    0.35
  -3   3   3    1.06    0.79
  -3   3   3    0.29    0.50
   3  -3  -2    1.79    0.60
  -3   3   2    2.25    1.04
  -3   3   2    1.01    0.52
   3  -3  -1    9.22    2.03
  -3   3   1    7.35    1.43
  -3   3   1    8.05    1.37
   3  -3   0   68.27    4.36
  -3   3   0   59.68    4.01
  -3   3  -1   43.04    2.82
   3  -3   1   49.66    3.52
  -3   3  -1   43.46    3.32
  -3   3  -2   33.59    2.38
   3  -3   2   34.66    8.64
  -3   3  -2   28.67    2.52
  -3   3  -3    1.21    0.52
   3  -3   3    0.42    0.34
  -3   3  -3    1.14    0.68
  -3   3  -4    3.15    0.95
   3  -3   4    0.82    0.39
  -3   3  -4    4.25    1.18
  -3   3  -5    3.47    1.02
   3  -3   5    3.64    1.13
  -3   3  -5    5.01    1.19
  -3   3  -6   22.64    2.31
   3  -3   6   17.91    2.83
  -3   3  -6   24.63    2.75
  -3   3  -7    7.43    1.17
   3  -3   7    9.90    1.18
  -3   3  -7    9.90    1.60
  -3   3  -8    2.47    0.86
   3  -3   8    3.03    0.85
  -3   3  -8    2.28    1.12
  -3   3  -9    1.69    0.76
   3  -3   9    1.03    0.74
  -3   3 -10    3.70    1.01
   3  -3  10    5.25    1.71
  -3   3 -11   11.52    1.65
   3  -3  11    7.50    1.38
  -3   3 -12   17.29    2.39
   3  -3  12   11.23    2.16
  -3   3 -13    6.61    1.57
   3  -3  13    2.47    1.05
  -3   3 -14    4.89    1.64
   3  -3  14    1.12    0.88
  -3   3 -15    0.21    0.72
   3  -3  15    0.50    0.79
  -3   3 -16    1.21    1.00
   3  -3  16    0.79    0.54
  -3   2  16    1.02    1.00
   3  -2 -15    2.17    1.16
  -3   2  15    1.35    1.05
   3  -2 -14    2.71    0.88
  -3   2  14    1.64    1.10
   3  -2 -13    0.97    0.88
  -3   2  13    1.56    1.19
   3  -2 -12    0.40    0.75
  -3   2  12    0.14    0.77
   3  -2 -11    4.55    1.41
  -3   2  11    4.04    1.38
   3  -2 -10    0.14    0.69
  -3   2  10    1.09    1.16
   3  -2  -9    1.82    0.80
  -3   2   9    1.68    0.99
   3  -2  -8   20.47    3.16
  -3   2   8   14.64    2.05
  -3   2   7   25.54    2.61
   3  -2  -6    5.56    5.16
  -3   2   6   11.93    1.89
  -3   2   6    4.01    1.03
   3  -2  -5    0.48    0.71
  -3   2   5    1.63    1.17
  -3   2   5    0.90    0.71
   3  -2  -4   27.68    2.04
  -3   2   4   41.51    3.24
  -3   2   4   36.85    2.35
   3  -2  -3    7.95    2.39
  -3   2   3   10.00    1.74
  -3   2   3    9.98    1.53
   3  -2  -2   17.33    4.44
  -3   2   2   15.65    2.24
  -3   2   2   13.60    1.85
   3  -2  -1    0.43    0.51
  -3   2   1    1.19    0.67
  -3   2   1    0.68    0.57
  -3   2   0   12.49    1.43
  -3   2   0   10.75    1.52
  -3   2   0    8.31    1.23
  -3   2  -1   12.26    1.67
   3  -2   1   13.91    2.02
  -3   2  -1   10.89    1.68
  -3   2  -2    1.18    0.59
   3  -2   2   -0.07    0.46
  -3   2  -2    0.48    0.61
  -3   2  -3   60.17    3.83
   3  -2   3   73.06    4.42
  -3   2  -3   64.53    4.42
  -3   2  -4   25.74    2.13
   3  -2   4   30.25    4.09
  -3   2  -4   26.35    2.54
   3  -2   5    0.15    0.30
  -3   2  -6   19.99    3.89
   3  -2   6   22.28    4.91
  -3   2  -6   20.27    2.35
  -3   2  -7    0.38    0.51
   3  -2   7    0.45    0.36
  -3   2  -8    1.02    0.67
   3  -2   8    0.50    0.70
  -3   2  -9    0.55    0.66
   3  -2   9    1.05    0.78
  -3   2 -10    2.46    0.92
   3  -2  10    0.92    0.55
  -3   2 -11    2.76    1.08
   3  -2  11    4.53    0.99
  -3   2 -12    1.61    1.01
   3  -2  12    0.43    0.86
  -3   2 -13    1.68    1.02
   3  -2  13    1.71    0.91
  -3   2 -14    2.01    0.94
   3  -2  14    0.42    0.56
  -3   2 -15    2.91    1.29
   3  -2  15    4.14    1.51
  -3   2 -16    2.27    1.22
   3  -2  16    0.53    0.55
   3  -1 -16    4.76    1.78
  -3   1  16    2.85    1.52
   3  -1 -15    0.04    0.48
  -3   1  15    0.77    0.90
   3  -1 -14    1.27    1.02
  -3   1  14    1.63    0.90
   3  -1 -13    0.37    0.91
  -3   1  13    3.18    1.34
   3  -1 -12    0.92    1.00
  -3   1  12    1.92    1.24
   3  -1 -11    2.07    0.52
  -3   1  11    2.71    1.47
   3  -1 -10    5.17    1.45
  -3   1  10    3.36    1.33
   3  -1  -9    0.18    0.42
  -3   1   9   -0.10    0.75
   3  -1  -8    0.39    0.87
  -3   1   8    1.11    1.28
   3  -1  -7   84.02    4.58
  -3   1   7   61.48    3.83
   3  -1  -6  172.94   12.28
  -3   1   6  144.25   10.24
  -3   1   6  112.19    7.40
   3  -1  -5    2.74    0.94
  -3   1   5    0.21    0.90
  -3   1   5    0.72    0.51
   3  -1  -4    9.21    2.48
  -3   1   4    8.62    1.67
  -3   1   4    2.02    0.55
   3  -1  -3    0.22    0.26
  -3   1   3    2.46    0.89
  -3   1   3    1.16    0.54
   3  -1  -2    2.14    0.45
  -3   1   2    2.27    0.79
  -3   1   2    2.52    0.72
  -3   1   1   31.29    2.64
  -3   1   1   34.56    3.06
  -3   1   1   28.18    2.43
  -3   1   0    6.07    0.95
  -3   1   0    9.81    1.39
  -3   1   0    6.83    1.10
  -3   1  -1   70.83    4.94
  -3   1  -1   74.24    5.21
  -3   1  -1   69.04    4.95
  -3   1  -2    3.12    0.85
   3  -1   2    3.17    0.78
  -3   1  -2    5.61    1.18
  -3   1  -3    8.76    1.48
   3  -1   3    6.92    1.67
  -3   1  -3    7.01    1.42
  -3   1  -4    7.31    1.30
   3  -1   4    4.66    1.43
  -3   1  -4   11.04    1.93
  -3   1  -5   44.87    3.01
   3  -1   5   44.72    6.86
  -3   1  -5   49.15    3.41
  -3   1  -6   25.24    2.55
   3  -1   6   31.85    4.80
   3  -1   6   31.26    3.22
  -3   1  -7   25.70    2.65
   3  -1   7   34.51    3.56
  -3   1  -8    1.19    0.72
   3  -1   8    0.72    0.53
  -3   1  -9    2.11    1.04
   3  -1   9   -0.06    0.50
  -3   1 -10    1.23    0.87
   3  -1  10    1.87    0.77
  -3   1 -11    1.61    0.80
   3  -1  11    4.15    1.47
  -3   1 -12    7.09    1.50
   3  -1  12    9.12    2.11
  -3   1 -13    7.09    1.54
   3  -1  13   10.06    2.21
  -3   1 -14    1.74    0.97
   3  -1  14    1.20    0.60
  -3   1 -15   -0.09    0.81
   3  -1  15    1.49    1.17
  -3   1 -16    1.68    1.27
   3  -1  16    0.59    0.47
   3   0 -16    0.84    1.07
  -3   0  16    1.29    1.03
   3   0 -15    3.72    1.26
  -3   0  15    2.15    1.06
   3   0 -14   11.32    2.06
  -3   0  14    6.15    1.66
   3   0 -13    0.97    0.88
  -3   0  13    1.20    1.21
   3   0 -12    9.36    1.73
  -3   0  12    7.99    1.92
   3   0 -11   -0.12    0.66
  -3   0  11    0.26    0.73
   3   0 -10    8.07    1.74
  -3   0  10    6.35    1.63
   3   0  -9    0.27    0.36
  -3   0   9    1.73    0.88
   3   0  -8   12.08    2.62
  -3   0   8    8.32    1.54
   3   0  -7   45.27    8.31
  -3   0   7   34.99    3.60
   3   0  -6   22.54    5.90
  -3   0   6   17.53    2.07
   3   0  -5   23.76    2.03
  -3   0   5   24.42    2.40
  -3   0   5   18.46    1.33
   3   0  -4   41.05    8.19
  -3   0   4   36.00    3.03
  -3   0   4   28.71    2.10
   3   0  -3   19.08    4.83
  -3   0   3   14.86    2.22
  -3   0   3   16.08    1.99
   3   0  -2    7.78    1.37
  -3   0   2    8.73    1.56
  -3   0   2    5.20    0.82
  -3   0   1    2.11    0.73
  -3   0   0    4.01    0.88
  -3   0   0    1.88    0.70
  -3   0   0    2.85    0.82
  -3   0  -1    0.55    0.59
  -3   0  -1    1.01    0.69
  -3   0  -1    0.98    0.85
  -3   0  -2    8.71    1.54
   3   0   2    7.32    1.20
  -3   0  -2    9.53    1.73
  -3   0  -3   -0.08    0.55
   3   0   3    0.38    0.38
  -3   0  -4   50.69    3.17
   3   0   4   59.63    2.83
   3   0   4   59.26    3.73
  -3   0  -5   11.68    1.46
   3   0   5   10.65    2.12
   3   0   5   14.62    1.89
   3   0   6    2.36    0.70
  -3   0  -7   61.02    3.40
   3   0   7   59.70    8.09
  -3   0  -8    8.24    1.39
   3   0   8   10.00    2.23
  -3   0  -9    0.67    0.72
   3   0   9    0.80    0.57
  -3   0 -10    0.15    0.70
   3   0  10    5.92    1.32
  -3   0 -11    1.19    0.81
   3   0  11    0.80    0.55
  -3   0 -12    1.94    1.07
   3   0  12    1.30    1.16
  -3   0 -13    0.68    0.80
   3   0  13   -0.33    0.85
  -3   0 -14    4.60    1.76
   3   0  14    1.01    0.67
  -3   0 -15    0.73    0.92
   3   0  15    0.12    0.36
  -3   0 -16    0.49    0.87
   3   0  16    3.01    0.91
   3   1 -17    5.99    2.30
  -3  -1  17    3.09    1.65
   3   1 -16    2.34    1.51
  -3  -1  16    1.16    1.39
   3   1 -15    1.18    0.87
  -3  -1  15    0.83    0.91
   3   1 -14    3.79    1.51
  -3  -1  14    3.65    1.53
   3   1 -13    0.56    1.88
  -3  -1  13    1.56    0.99
   3   1 -12    2.10    1.27
  -3  -1  12    1.78    1.14
   3   1 -11    3.23    1.20
  -3  -1  11    3.50    1.46
   3   1 -10    0.72    0.94
  -3  -1  10    1.08    0.83
   3   1  -9    2.10    0.62
  -3  -1   9    3.17    1.39
   3   1  -8   19.34    3.90
  -3  -1   8   19.27    2.21
   3   1  -7   13.52    3.77
  -3  -1   7    8.46    1.40
   3   1  -6   24.96    5.13
  -3  -1   6   21.37    2.16
   3   1  -5  223.84   10.08
  -3  -1   5  184.44    7.85
  -3  -1   5  174.64    6.33
   3   1  -4    0.55    1.62
  -3  -1   4    0.49    0.72
  -3  -1   4    0.51    0.54
   3   1  -3   24.34    2.94
  -3  -1   3   13.60    2.01
  -3  -1   3   12.79    1.59
  -3  -1   2   17.10    2.26
  -3  -1   2   16.37    2.16
  -3  -1   2   13.81    1.77
  -3  -1   1    4.47    1.04
  -3  -1   1    3.61    0.80
  -3  -1   0    1.96    0.76
  -3  -1   0    2.55    0.70
   3   1   0    3.10    0.85
  -3  -1  -1    6.00    1.09
  -3  -1  -1    5.02    0.87
   3   1   1    5.62    1.03
  -3  -1  -2    0.64    0.64
  -3  -1  -2    0.53    0.46
   3   1   2   -0.16    0.50
  -3  -1  -3   38.39    3.10
   3   1   3   36.21    2.41
   3   1   3   37.84    3.03
  -3  -1  -4  111.75    5.42
   3   1   4  112.38    4.45
   3   1   4  123.92    8.20
  -3  -1  -5   41.54    3.12
   3   1   5   46.07   10.91
  -3  -1  -6   27.51    2.85
   3   1   6   39.49    6.12
  -3  -1  -7   57.54    3.32
   3   1   7   65.94   11.40
  -3  -1  -8   20.90    2.29
   3   1   8   20.29    3.67
  -3  -1  -9    2.14    0.91
   3   1   9   -0.46    0.84
  -3  -1 -10    5.96    1.43
   3   1  10    1.94    0.72
  -3  -1 -11    1.00    1.06
   3   1  11   -0.20    0.83
  -3  -1 -12    0.60    0.83
   3   1  12   -1.06    0.83
  -3  -1 -13    1.78    1.03
   3   1  13    2.46    0.99
  -3  -1 -14    0.56    0.86
   3   1  14    0.12    0.54
  -3  -1 -15    2.96    1.41
   3   1  15    4.49    1.29
  -3  -1 -16    2.00    1.14
   3   1  16    6.17    1.93
   3   2 -17    1.32    1.07
  -3  -2  17    0.56    0.85
   3   2 -16    2.70    1.48
   3   2 -15    2.06    1.21
  -3  -2  15    4.08    1.58
   3   2 -14   12.26    2.03
  -3  -2  14    3.45    1.55
   3   2 -13    6.42    2.08
  -3  -2  13    5.12    1.54
   3   2 -12    1.36    0.77
  -3  -2  12    0.89    0.89
   3   2 -11   32.92    7.22
  -3  -2  11   21.55    2.65
   3   2 -10   16.22    3.35
  -3  -2  10   12.41    2.34
   3   2  -9    7.79    2.37
  -3  -2   9    5.00    1.56
   3   2  -8    1.25    1.00
  -3  -2   8   -0.27    0.72
   3   2  -7   21.90    4.67
  -3  -2   7   15.83    2.00
   3   2  -6   48.38    9.21
  -3  -2   6   36.48    2.91
   3   2  -5    2.85    1.21
  -3  -2   5    2.12    0.85
   3   2  -4   12.85    2.88
  -3  -2   4    8.31    1.60
   3   2  -4    1.60    1.49
   3   2  -3   22.90    3.66
  -3  -2   3   20.75    2.63
   3   2  -3   14.46    4.43
  -3  -2   2   11.32    1.99
  -3  -2   2    7.83    1.31
   3   2  -2    5.43    1.39
  -3  -2   1   15.61    2.20
  -3  -2   1    8.86    1.50
   3   2  -1    7.67    2.02
  -3  -2   0   24.11    4.47
  -3  -2   0   13.55    1.81
   3   2   0   12.09    4.08
  -3  -2  -1   10.89    1.80
  -3  -2  -1   10.94    1.48
   3   2   1   10.88    3.43
  -3  -2  -2    2.96    0.86
  -3  -2  -2    2.26    0.57
   3   2   2    2.03    0.62
  -3  -2  -3    0.91    0.74
   3   2   3    0.42    0.41
   3   2   3    0.25    0.31
  -3  -2  -4    6.96    1.29
   3   2   4    7.54    2.13
  -3  -2  -5   18.58    2.03
   3   2   5   21.96    6.98
  -3  -2  -6    6.31    1.45
   3   2   6    6.37    1.22
  -3  -2  -7    1.07    0.77
   3   2   7    1.49    0.68
  -3  -2  -8   25.63    2.93
   3   2   8   20.87    6.21
  -3  -2  -9    1.70    0.94
   3   2   9    1.42    0.91
  -3  -2 -10   -0.20    0.73
   3   2  10    0.32    0.53
  -3  -2 -11    6.03    1.51
   3   2  11    5.30    2.09
  -3  -2 -12    3.05    1.37
   3   2  12    1.17    0.76
  -3  -2 -13    0.96    0.93
   3   2  13    0.32    0.37
  -3  -2 -14    1.23    0.95
   3   2  14    0.66    0.54
  -3  -2 -15   -0.41    0.88
   3   2  15    1.16    0.68
  -3  -2 -16   -0.31    1.00
   3   3 -18    1.80    1.59
   3   3 -17    2.45    1.29
  -3  -3  17   -0.40    0.80
   3   3 -16    4.92    2.02
  -3  -3  16    1.45    1.05
   3   3 -15    0.74    0.91
  -3  -3  15    0.29    0.87
   3   3 -14   17.65    2.91
  -3  -3  14    7.16    1.80
   3   3 -13   20.14    2.50
  -3  -3  13   11.30    2.01
   3   3 -12    7.97    2.38
  -3  -3  12    6.71    1.86
   3   3 -11    0.61    0.54
  -3  -3  11    2.44    1.29
   3   3 -10    1.83    1.00
  -3  -3  10    2.55    1.17
   3   3  -9    1.18    0.69
  -3  -3   9    1.80    1.19
   3   3  -8    0.82    0.79
  -3  -3   8    0.88    0.80
   3   3  -7    1.99    0.81
  -3  -3   7    2.19    0.94
   3   3  -6    1.22    0.96
  -3  -3   6    1.30    0.79
   3   3  -5    2.61    0.60
  -3  -3   5    0.67    0.69
   3   3  -4    0.75    0.60
  -3  -3   4    2.81    1.26
   3   3  -4    0.09    0.26
  -3  -3   3    0.88    1.02
  -3  -3   3    1.13    0.68
   3   3  -3    1.57    0.39
  -3  -3   2   70.50    4.73
  -3  -3   2   66.04    4.22
   3   3  -2   56.78    5.44
  -3  -3   1   67.99    4.54
  -3  -3   1   62.85    4.01
   3   3  -1   78.07    4.73
  -3  -3   0    4.93    1.06
  -3  -3   0    3.40    0.80
   3   3   0    3.89    1.36
  -3  -3  -1   10.89    1.77
  -3  -3  -1    5.76    0.83
   3   3   1    5.82    2.97
  -3  -3  -2   17.12    1.81
  -3  -3  -2   18.49    1.31
   3   3   2   21.46    5.02
  -3  -3  -3    1.60    0.88
   3   3   3    1.90    0.67
  -3  -3  -4   31.40    3.13
   3   3   4   27.99    7.74
  -3  -3  -5   22.09    4.44
   3   3   5   19.79    4.40
  -3  -3  -6   13.66    1.80
   3   3   6   16.20    3.10
  -3  -3  -7    3.71    1.35
   3   3   7    1.77    0.76
  -3  -3  -8    4.38    1.31
   3   3   8    3.68    1.04
  -3  -3  -9    0.82    0.88
   3   3   9    1.19    0.68
  -3  -3 -10    3.28    1.37
   3   3  10    3.51    0.80
  -3  -3 -11    1.91    1.10
   3   3  11    2.94    0.72
  -3  -3 -12    1.95    1.20
   3   3  12    3.41    1.04
  -3  -3 -13    2.05    1.07
   3   3  13    2.65    0.70
  -3  -3 -14    1.06    1.04
   3   3  14    0.90    0.51
  -3  -3 -15    2.36    1.60
   3   3  15    0.74    1.03
  -3  -3 -16   -0.32    1.04
   3   4 -18    0.56    1.03
  -3  -4  18    0.09    0.93
   3   4 -17    1.38    1.08
  -3  -4  17    1.12    1.45
   3   4 -16    1.50    0.88
  -3  -4  16    3.51    1.68
   3   4 -15    1.75    1.09
  -3  -4  15    2.49    1.13
   3   4 -14    6.71    1.89
  -3  -4  14    2.06    1.12
   3   4 -13    4.50    2.18
  -3  -4  13    2.02    1.05
   3   4 -12    1.51    0.90
  -3  -4  12    3.14    1.35
   3   4 -11    1.41    0.62
  -3  -4  11    0.94    0.87
   3   4 -10    3.38    0.86
  -3  -4  10    1.91    0.94
   3   4  -9    9.78    4.55
  -3  -4   9   10.01    1.78
   3   4  -8   15.85    3.83
  -3  -4   8   11.79    1.80
   3   4  -7    2.93    1.13
  -3  -4   7    4.90    1.21
   3   4  -6   10.69    2.20
  -3  -4   6    9.33    1.42
   3   4  -5   11.07    6.15
  -3  -4   5   20.15    1.87
   3   4  -4   17.28    3.40
  -3  -4   4   13.48    1.52
   3   4  -4   13.74    3.12
  -3  -4   3   37.03    2.80
  -3  -4   3   35.08    2.56
   3   4  -3   36.36    6.34
  -3  -4   2   27.25    2.53
  -3  -4   2   24.97    2.08
   3   4  -2   24.80    5.84
  -3  -4   1   -0.33    0.69
  -3  -4   1    1.36    0.82
   3   4  -1    0.27    0.37
  -3  -4   0   14.51    1.66
  -3  -4   0   14.02    1.35
   3   4   0   13.40    3.98
  -3  -4  -1    8.17    1.32
  -3  -4  -1    6.99    0.86
   3   4   1   10.15    2.13
  -3  -4  -2    0.79    0.77
   3   4   2    1.57    0.51
  -3  -4  -3    0.87    0.75
   3   4   3    1.22    0.43
  -3  -4  -4    0.20    0.72
   3   4   4    1.56    0.76
  -3  -4  -5    4.32    1.18
   3   4   5    8.40    1.96
  -3  -4  -6    1.69    0.96
   3   4   6    1.13    0.77
  -3  -4  -7    4.93    1.59
   3   4   7    1.99    1.15
  -3  -4  -8    1.36    0.79
   3   4   8    0.50    0.61
  -3  -4  -9    4.87    1.43
   3   4   9    4.56    1.66
  -3  -4 -10    1.10    0.98
   3   4  10   -0.02    0.88
  -3  -4 -11    0.43    0.82
   3   4  11    0.62    0.57
  -3  -4 -12    5.05    1.47
   3   4  12    2.44    1.45
  -3  -4 -13    1.04    1.00
   3   4  13    0.64    0.51
  -3  -4 -14    1.69    1.40
   3   4  14    0.74    0.92
  -3  -4 -15    2.64    1.68
   3   4  15   -0.16    1.01
   3   5 -18    0.78    1.08
   3   5 -17    6.46    2.30
  -3  -5  17    2.71    1.65
   3   5 -16    3.60    1.38
  -3  -5  16    3.34    1.62
   3   5 -15    2.46    1.49
  -3  -5  15    1.74    1.19
   3   5 -14    4.49    1.86
  -3  -5  14    1.26    0.97
   3   5 -13   10.52    2.39
  -3  -5  13   10.34    2.20
   3   5 -12   15.05    3.48
  -3  -5  12    9.93    1.96
   3   5 -11   19.02    3.81
  -3  -5  11   16.40    2.47
   3   5 -10    2.29    0.71
  -3  -5  10    1.43    0.81
   3   5  -9    8.06    1.74
  -3  -5   9    2.74    1.15
   3   5  -8    5.61    1.57
  -3  -5   8    3.19    1.21
   3   5  -7   27.56    4.47
  -3  -5   7   22.64    2.17
   3   5  -6    4.76    1.47
  -3  -5   6    3.45    1.02
   3   5  -5    0.85    0.33
  -3  -5   5    1.06    0.86
   3   5  -4    1.31    0.77
  -3  -5   4    1.24    0.72
   3   5  -4    0.61    0.36
  -3  -5   3   27.80    2.61
  -3  -5   3   22.65    2.02
   3   5  -3   33.65    2.09
  -3  -5   2    0.80    0.84
  -3  -5   2    1.17    0.81
   3   5  -2    1.09    0.43
  -3  -5   1    2.27    1.02
  -3  -5   1    2.31    0.75
   3   5  -1    2.99    0.90
  -3  -5   0   14.24    1.83
  -3  -5   0    9.48    1.01
   3   5   0   17.23    3.87
  -3  -5  -1    2.97    0.93
  -3  -5  -1    3.23    0.67
   3   5   1    3.80    1.19
  -3  -5  -2    0.45    0.67
   3   5   2    0.82    0.40
  -3  -5  -3    3.81    0.99
   3   5   3    3.77    1.11
  -3  -5  -4   13.83    1.97
   3   5   4   11.18    1.96
  -3  -5  -5    6.38    1.85
   3   5   5    9.73    1.68
  -3  -5  -6    1.43    1.19
   3   5   6    1.97    0.82
  -3  -5  -7   -0.13    0.73
   3   5   7    1.18    0.60
  -3  -5  -8    1.41    0.88
   3   5   8    2.34    1.19
  -3  -5  -9   20.56    2.68
   3   5   9   28.42    6.25
  -3  -5 -10   -0.83    0.77
   3   5  10    0.31    0.44
  -3  -5 -11   -0.10    0.73
   3   5  11    0.89    0.83
  -3  -5 -12    2.78    1.46
   3   5  12    2.26    1.03
  -3  -5 -13    3.02    1.51
   3   5  13    1.30    0.62
  -3  -5 -14    4.49    1.75
   3   5  14   -0.01    1.02
  -3  -5 -15    0.55    1.10
   3   6 -18    4.19    1.86
  -3  -6  18    2.05    1.76
   3   6 -17    0.49    1.04
  -3  -6  17   -0.03    0.90
   3   6 -16    8.80    2.30
  -3  -6  16    3.10    1.63
   3   6 -15    5.96    1.86
  -3  -6  15    4.05    1.87
   3   6 -14    2.05    1.06
  -3  -6  14    3.13    1.44
   3   6 -13    6.56    1.78
  -3  -6  13    5.98    2.01
   3   6 -12    0.85    1.01
  -3  -6  12   -0.76    0.85
   3   6 -11    1.77    1.38
  -3  -6  11    2.65    1.34
   3   6 -10    3.66    1.19
  -3  -6  10    3.00    1.13
   3   6  -9    7.65    2.09
  -3  -6   9    5.37    1.37
   3   6  -8    2.44    0.72
  -3  -6   8    2.04    0.89
   3   6  -7   36.55    8.67
  -3  -6   7   26.23    2.37
   3   6  -6    9.28    3.09
  -3  -6   6    7.92    1.34
   3   6  -5    0.25    1.12
  -3  -6   5    2.95    0.87
  -3  -6   4    5.77    1.16
   3   6  -4    6.39    0.85
  -3  -6   3    2.51    1.06
  -3  -6   3    0.44    0.45
   3   6  -3    0.46    0.42
  -3  -6   2   39.26    3.80
  -3  -6   2   33.01    2.94
   3   6  -2   34.30    7.25
  -3  -6   1   25.57    2.92
  -3  -6   1   21.02    3.99
   3   6  -1   28.34    7.10
  -3  -6   0    1.32    0.71
  -3  -6   0    2.56    0.68
   3   6   0    3.60    0.73
  -3  -6  -1    4.70    1.22
   3   6   1    4.04    1.09
  -3  -6  -2   -0.31    0.67
   3   6   2    0.36    0.47
  -3  -6  -3   30.13    2.62
   3   6   3   40.19    8.41
  -3  -6  -4    3.55    1.40
   3   6   4    3.60    1.07
  -3  -6  -5    1.69    1.33
   3   6   5    3.08    0.97
  -3  -6  -6    3.84    1.41
   3   6   6    1.60    1.08
  -3  -6  -7    0.07    0.85
   3   6   7    1.10    0.59
  -3  -6  -8    0.96    0.94
   3   6   8    0.58    0.52
  -3  -6  -9    0.80    0.97
   3   6   9   -0.52    1.02
  -3  -6 -10    2.52    1.40
   3   6  10    3.89    1.37
  -3  -6 -11    1.03    0.94
   3   6  11    0.73    0.98
  -3  -6 -12    0.50    0.91
   3   6  12    2.16    1.21
  -3  -6 -13    3.16    1.76
   3   6  13    1.23    1.10
  -3  -6 -14   -0.11    0.87
   3   6  14    0.85    1.23
   3   7 -18    1.85    1.65
  -3  -7  18    1.13    1.12
   3   7 -17    1.09    1.09
  -3  -7  17    2.26    1.31
   3   7 -16    0.98    1.04
  -3  -7  16    1.15    1.08
   3   7 -15    4.29    1.47
  -3  -7  15    1.16    0.99
   3   7 -14    1.24    0.94
  -3  -7  14    0.50    0.98
   3   7 -13   12.26    2.80
  -3  -7  13    8.00    1.84
   3   7 -12    9.33    3.55
  -3  -7  12    5.93    1.66
   3   7 -11   10.88    5.09
  -3  -7  11    8.40    1.76
   3   7 -10   12.23    2.14
  -3  -7  10    8.39    1.50
   3   7  -9    4.50    1.80
  -3  -7   9    3.11    1.20
   3   7  -8    0.94    0.49
  -3  -7   8    0.40    0.73
   3   7  -7   14.82    4.26
  -3  -7   7   11.66    1.71
   3   7  -6   22.07    5.42
  -3  -7   6   16.55    1.84
   3   7  -5   10.05    2.95
  -3  -7   5    9.91    1.52
  -3  -7   4   21.88    2.27
  -3  -7   4   21.42    1.87
   3   7  -4   15.57    3.65
  -3  -7   3    1.14    0.96
  -3  -7   3    3.79    1.02
   3   7  -3    3.89    1.07
  -3  -7   2    6.21    1.26
  -3  -7   2    6.32    1.06
   3   7  -2    9.83    1.26
  -3  -7   1    1.09    0.90
  -3  -7   1    1.09    0.47
   3   7  -1    0.67    0.60
  -3  -7   0    3.03    1.06
  -3  -7   0    0.61    0.48
   3   7   0    0.44    0.56
  -3  -7  -1    2.60    1.28
   3   7   1    0.88    0.52
  -3  -7  -2    1.02    1.10
   3   7   2    1.23    0.65
  -3  -7  -3    0.70    0.84
   3   7   3    0.57    0.36
  -3  -7  -4   12.06    2.00
   3   7   4   14.17    3.09
  -3  -7  -5   11.34    1.71
   3   7   5   14.79    3.81
  -3  -7  -6    0.73    0.85
   3   7   6    1.64    1.09
  -3  -7  -7    4.92    1.55
   3   7   7    5.04    1.89
  -3  -7  -8    0.84    0.99
   3   7   8    4.21    1.40
  -3  -7  -9    1.53    1.32
   3   7   9    1.32    1.13
  -3  -7 -10    2.02    1.38
   3   7  10    1.28    1.10
  -3  -7 -11    2.62    1.40
   3   7  11    0.46    1.04
  -3  -7 -12    2.80    1.55
   3   7  12    0.90    1.03
  -3  -7 -13    2.04    1.26
   3   7  13    0.85    1.09
   3   8 -18    1.60    1.82
   3   8 -17    1.33    1.50
   3   8 -16    0.10    0.97
  -3  -8  16    1.12    1.19
   3   8 -15   29.66    9.53
  -3  -8  15   23.81    3.25
   3   8 -14    8.25    2.57
  -3  -8  14    5.24    1.70
   3   8 -13    1.38    0.87
  -3  -8  13    1.08    0.97
   3   8 -12    4.25    1.13
  -3  -8  12    4.96    1.50
   3   8 -11    3.93    1.28
  -3  -8  11    1.09    0.96
   3   8 -10    5.75    1.59
  -3  -8  10    2.46    1.22
   3   8  -9    0.85    0.87
  -3  -8   9    0.44    0.72
   3   8  -8    2.91    0.87
  -3  -8   8    1.41    0.86
   3   8  -7    5.85    1.52
  -3  -8   7    4.29    1.06
   3   8  -6    6.84    2.06
  -3  -8   6    8.12    1.53
   3   8  -5    5.90    1.50
  -3  -8   5    5.46    1.48
  -3  -8   4    1.77    1.32
   3   8  -4    0.93    0.59
  -3  -8   3   77.52    4.26
  -3  -8   3   63.58    3.03
   3   8  -3  102.90    3.64
  -3  -8   2    0.39    0.91
  -3  -8   2    0.49    0.40
   3   8  -2    0.21    0.56
  -3  -8   1    0.85    0.84
  -3  -8   1    0.03    0.35
   3   8  -1    1.07    0.76
  -3  -8   0    2.22    1.05
   3   8   0    3.95    1.27
  -3  -8  -1    4.54    1.45
   3   8   1    3.49    1.30
  -3  -8  -2    1.78    1.22
   3   8   2    2.92    1.00
  -3  -8  -3    0.01    0.71
   3   8   3    0.54    0.72
  -3  -8  -4   16.64    2.30
   3   8   4   24.56    6.95
  -3  -8  -5    2.48    1.24
   3   8   5    2.88    1.47
  -3  -8  -6    0.80    0.88
   3   8   6    1.09    0.98
  -3  -8  -7    9.16    1.96
   3   8   7    9.70    2.05
  -3  -8  -8    0.89    0.97
   3   8   8    0.53    1.08
  -3  -8  -9    5.53    1.68
   3   8   9    2.74    1.41
  -3  -8 -10    5.12    1.70
   3   8  10    1.48    1.13
  -3  -8 -11   -0.49    0.84
   3   8  11    0.87    1.16
  -3  -8 -12   -0.16    0.91
   3   8  12    0.15    0.93
  -3  -8 -13    0.29    0.92
   3   9 -17    2.22    1.51
  -3  -9  17    0.26    1.01
   3   9 -16   -0.22    0.87
  -3  -9  16    0.51    1.08
   3   9 -15    4.26    1.80
  -3  -9  15    0.60    1.04
   3   9 -14    1.14    0.97
  -3  -9  14    1.88    1.23
   3   9 -13    2.14    0.76
  -3  -9  13    2.32    1.20
   3   9 -12    2.00    1.20
  -3  -9  12    1.50    1.01
   3   9 -11    6.49    1.49
  -3  -9  11    4.99    1.54
   3   9 -10    8.42    1.53
  -3  -9  10    5.97    1.57
   3   9  -9    2.35    0.92
  -3  -9   9    3.44    1.09
   3   9  -8    9.32    3.15
  -3  -9   8    7.08    1.52
   3   9  -7    0.44    0.55
  -3  -9   7    0.44    0.63
   3   9  -6    9.76    2.26
  -3  -9   6   10.85    1.57
   3   9  -5    0.18    0.65
  -3  -9   5    0.92    0.80
  -3  -9   4    1.39    1.01
  -3  -9   4    1.61    1.01
  -3  -9   3   16.30    2.29
  -3  -9   3   14.87    1.87
   3   9  -3   21.89    2.24
  -3  -9   2   55.04    4.72
  -3  -9   2   44.11    3.52
   3   9  -2   62.35   10.80
  -3  -9   1    3.81    1.31
  -3  -9   1    1.23    0.49
   3   9  -1    5.46    1.26
  -3  -9   0    3.33    1.28
   3   9   0    3.99    1.26
  -3  -9  -1    1.81    0.98
   3   9   1    4.44    1.34
  -3  -9  -2    0.70    0.81
   3   9   2    1.67    1.10
  -3  -9  -3    1.15    0.93
   3   9   3    2.79    1.22
  -3  -9  -4    0.66    0.91
   3   9   4    0.68    1.17
  -3  -9  -5    4.04    1.23
   3   9   5    5.40    1.63
  -3  -9  -6    0.79    0.87
   3   9   6    1.86    1.39
  -3  -9  -7    2.49    1.55
   3   9   7    3.46    1.66
  -3  -9  -8    4.29    1.82
   3   9   8    0.88    1.13
  -3  -9  -9    2.92    1.30
   3   9   9    8.34    2.26
  -3  -9 -10    3.35    1.69
   3   9  10    4.27    2.02
  -3  -9 -11    1.86    1.56
   3   9  11    1.44    1.32
  -3  -9 -12    0.92    1.08
   3   9  12    0.09    1.08
   3  10 -17    0.47    1.51
  -3 -10  17    0.61    1.05
   3  10 -16    0.67    1.06
  -3 -10  16    5.73    2.18
   3  10 -15    3.46    1.44
  -3 -10  15    4.63    1.99
   3  10 -14   19.09    4.87
  -3 -10  14   17.40    2.64
   3  10 -13    8.39    2.11
  -3 -10  13    7.80    1.91
   3  10 -12    2.12    1.16
  -3 -10  12    1.68    1.35
   3  10 -11   16.05    4.04
  -3 -10  11   14.33    2.19
   3  10 -10    8.27    2.13
  -3 -10  10    5.47    2.53
   3  10  -9    0.42    0.95
  -3 -10   9    2.98    1.18
   3  10  -8    8.03    2.93
  -3 -10   8    5.23    1.34
   3  10  -7   -0.09    0.81
  -3 -10   7    0.26    0.57
   3  10  -6    0.89    0.62
  -3 -10   6    2.65    1.06
   3  10  -5    1.23    0.77
  -3 -10   5    0.42    0.55
  -3 -10   4   43.83    3.43
  -3 -10   4   31.15    5.05
  -3 -10   3    7.97    1.66
  -3 -10   3    6.94    1.24
   3  10  -3   15.74    2.03
  -3 -10   2   61.58    3.91
  -3 -10   2   45.57    2.68
   3  10  -2   84.63    3.93
  -3 -10   1    0.27    0.84
   3  10  -1    0.19    0.62
  -3 -10   0    6.90    1.53
   3  10   0    2.84    1.00
  -3 -10  -1    2.67    1.19
   3  10   1    4.34    1.16
  -3 -10  -2    0.93    0.93
   3  10   2    0.81    0.99
  -3 -10  -3    0.80    0.90
   3  10   3    0.25    0.42
  -3 -10  -4    2.79    1.28
   3  10   4    1.59    1.00
  -3 -10  -5    1.21    1.21
   3  10   5    1.02    0.97
  -3 -10  -6    0.33    0.86
   3  10   6    0.65    0.89
  -3 -10  -7    2.90    1.48
   3  10   7    1.45    1.04
  -3 -10  -8   13.19    2.60
   3  10   8   20.98    5.12
  -3 -10  -9   -0.14    0.95
   3  10   9   -0.27    1.14
  -3 -10 -10    7.67    2.42
   3  10  10    8.37    2.44
  -3 -10 -11    0.88    1.10
   3  10  11   -0.81    1.01
   3  11 -16    1.28    0.59
  -3 -11  16    0.86    1.06
   3  11 -15   -0.15    0.92
  -3 -11  15    1.25    1.06
   3  11 -14    0.57    1.17
  -3 -11  14    2.19    1.32
   3  11 -13    3.60    1.19
  -3 -11  13    3.79    1.57
   3  11 -12    0.43    0.68
  -3 -11  12    2.62    1.25
   3  11 -11    2.46    1.61
  -3 -11  11    7.71    2.84
   3  11 -10    0.79    0.87
  -3 -11  10    0.65    0.91
   3  11  -9    1.46    0.63
  -3 -11   9    0.34    0.65
   3  11  -8    1.15    0.66
  -3 -11   8    0.51    0.65
   3  11  -7    3.63    1.13
  -3 -11   7    5.33    1.30
   3  11  -6    6.42    2.12
  -3 -11   6    5.08    1.20
   3  11  -5   -0.01    0.75
  -3 -11   5    1.19    0.63
  -3 -11   4    1.69    0.99
  -3 -11   4    1.87    0.79
  -3 -11   3    0.01    0.86
  -3 -11   3    0.28    0.44
   3  11  -3    1.56    0.78
  -3 -11   2    1.79    1.06
   3  11  -2    2.50    0.60
  -3 -11   1   16.92    2.23
   3  11  -1   20.83    3.24
  -3 -11   0    1.17    1.10
   3  11   0    1.41    0.85
  -3 -11  -1    9.95    2.06
   3  11   1   10.89    2.19
  -3 -11  -2    0.25    0.73
   3  11   2    1.16    1.12
  -3 -11  -3    0.56    0.85
   3  11   3    0.45    0.92
  -3 -11  -4    0.68    0.92
   3  11   4    0.18    0.83
  -3 -11  -5    1.99    1.25
   3  11   5    0.55    0.38
  -3 -11  -6    1.31    0.98
   3  11   6    1.75    1.08
  -3 -11  -7    1.24    1.08
   3  11   7    1.05    1.18
  -3 -11  -8   -0.10    0.91
   3  11   8    1.30    1.28
  -3 -11  -9    3.60    1.78
   3  11   9    2.25    1.39
   3  11  10    0.80    1.18
  -3 -12  16    1.02    1.23
   3  12 -15    1.50    0.64
  -3 -12  15    1.33    1.29
   3  12 -14    0.88    0.64
  -3 -12  14    2.39    1.60
   3  12 -13    2.15    0.87
  -3 -12  13    1.86    1.31
   3  12 -12    2.12    1.04
  -3 -12  12    2.18    1.29
   3  12 -11    1.34    0.59
  -3 -12  11    0.22    0.89
   3  12 -10   19.77    6.44
  -3 -12  10   24.32    2.97
   3  12  -9    8.12    1.54
  -3 -12   9    4.75    1.21
   3  12  -8    1.02    0.81
  -3 -12   8    0.09    0.61
   3  12  -7    4.91    1.65
  -3 -12   7    5.22    1.36
   3  12  -6    0.79    0.65
  -3 -12   6    0.25    0.62
   3  12  -5    0.52    0.78
  -3 -12   5    0.80    0.81
  -3 -12   4    2.31    1.24
  -3 -12   4    2.14    1.08
  -3 -12   3    6.90    1.65
  -3 -12   2    5.92    1.44
   3  12  -2   11.91    1.83
  -3 -12   1    0.55    0.81
   3  12  -1    0.23    0.68
  -3 -12   0    2.12    1.02
   3  12   0    4.01    1.28
  -3 -12  -1    0.27    0.88
   3  12   1    0.31    0.67
  -3 -12  -2   10.37    1.97
   3  12   2   11.88    2.52
  -3 -12  -3    0.48    0.77
   3  12   3   -0.38    0.78
  -3 -12  -4    2.21    1.33
   3  12   4    0.44    0.85
  -3 -12  -5    0.48    0.80
   3  12   5    0.54    0.81
  -3 -12  -6    2.17    1.38
   3  12   6    0.81    0.98
  -3 -12  -7    1.28    1.09
   3  12   7    1.20    1.16
  -3 -12  -8    2.44    1.55
   3  12   8    0.12    1.05
  -3 -13  15    1.25    1.20
   3  13 -14    1.68    0.96
  -3 -13  14    1.84    1.49
   3  13 -13    1.93    1.20
  -3 -13  13    2.31    1.47
   3  13 -12    0.87    0.93
  -3 -13  12    4.53    1.65
   3  13 -11    0.31    0.62
  -3 -13  11   -0.38    0.82
   3  13 -10    2.84    1.51
  -3 -13  10    2.56    1.06
   3  13  -9    0.37    0.77
  -3 -13   9    3.29    1.43
   3  13  -8    0.22    0.52
  -3 -13   8    1.57    1.00
   3  13  -7    5.54    2.53
  -3 -13   7    1.65    0.97
   3  13  -6    2.35    1.64
  -3 -13   6    0.51    0.62
   3  13  -5    5.78    2.58
  -3 -13   3    0.66    0.81
  -3 -13   2    1.79    1.20
  -3 -13   1    1.23    0.90
   3  13  -1    3.22    1.55
  -3 -13   0    0.66    0.80
   3  13   0    0.03    0.65
  -3 -13  -1    1.00    1.07
   3  13   1   -0.01    0.61
  -3 -13  -2    0.81    1.09
   3  13   2    2.30    1.34
  -3 -13  -3    2.24    1.35
   3  13   3    1.76    1.10
  -3 -13  -4    2.18    1.35
   3  13   4    0.48    0.84
  -3 -13  -5    1.44    1.23
   3  13   5    1.23    1.14
  -3 -13  -6   -0.45    0.83
   3  13   6    0.29    1.01
  -3 -13  -7    1.75    1.13
   3  13   7    1.98    1.19
  -3 -14  13    0.56    1.03
   3  14 -12    0.49    0.65
  -3 -14  12   -0.36    0.84
   3  14 -11    2.33    0.89
  -3 -14  11    2.17    1.38
   3  14 -10    1.52    1.04
  -3 -14  10    1.22    0.92
   3  14  -9    4.32    1.34
  -3 -14   9    0.95    0.93
   3  14  -8    3.55    0.76
  -3 -14   8    3.13    1.29
   3  14  -7    1.08    0.86
   3  14  -6    3.34    1.35
   3  14  -5   21.72    2.52
   3  14  -4    4.63    1.42
  -3 -14   3    1.95    1.03
  -3 -14   2    1.15    0.92
  -3 -14   1    1.91    1.42
  -3 -14   0    0.89    0.90
  -3 -14  -1    3.53    1.42
   3  14   1    7.14    2.03
  -3 -14  -2    0.55    0.91
   3  14   2    2.26    1.34
  -3 -14  -3    1.74    1.08
   3  14   3    2.06    0.83
  -3 -14  -4   -0.55    0.76
   3  14   4    1.09    0.69
   3  15 -10    1.23    1.48
   3  15  -9    0.48    0.99
   3  15  -8    0.89    0.66
   3  15  -7    1.61    0.70
   3  15  -6    0.80    0.88
   3  15  -5    0.54    0.47
   3  15  -4    1.99    1.31
  -3 -15   3    1.90    1.27
  -3 -15   2    1.29    1.21
  -3 -15   1    0.09    0.76
  -3 -15   0    3.19    1.57
  -3 -15  -1    0.37    0.77
   4 -15   0   -0.08    1.04
   4 -15   1    1.04    0.98
  -4  15  -1    0.09    1.16
   4 -15   2    3.79    2.32
  -4  15  -2    1.27    1.24
   4 -15   3    1.30    0.79
  -4  15  -3   -0.20    1.08
   4 -15   4    1.83    1.21
  -4  15  -4    1.65    1.25
   4 -15   5    1.45    1.38
  -4  15  -5    0.44    0.96
   4 -15   6    0.71    0.98
  -4  15  -6    0.55    1.02
   4 -15   7    2.97    1.40
  -4  15  -7    2.44    1.35
  -4  15  -8   -0.07    0.92
   4 -14  -3    0.85    0.72
   4 -14  -2    0.59    0.54
   4 -14  -1    0.30    0.58
  -4  14   1    0.64    1.06
   4 -14   0   -0.12    0.92
   4 -14   1    0.35    0.54
  -4  14  -1    2.02    1.20
   4 -14   2    0.59    0.52
  -4  14  -2    1.15    1.10
   4 -14   3    1.35    0.65
  -4  14  -3    2.44    1.33
   4 -14   4    0.85    0.67
  -4  14  -4    0.50    0.92
   4 -14   5    0.21    0.50
  -4  14  -5    0.64    1.05
   4 -14   6    1.27    1.05
  -4  14  -6    0.63    1.06
   4 -14   7   -0.46    0.90
  -4  14  -7    2.41    1.33
   4 -14   8   -0.01    0.97
  -4  14  -8    0.85    1.10
  -4  14  -9    0.27    1.05
  -4  14 -10   -0.14    0.96
   4 -13  -5    0.42    1.23
   4 -13  -4    0.68    1.03
   4 -13  -3    1.40    0.72
   4 -13  -2    3.18    1.43
  -4  13   2    0.73    0.96
   4 -13  -1    1.42    0.74
  -4  13   1    0.58    0.94
   4 -13   0    0.46    0.58
  -4  13   0    0.21    0.90
   4 -13   1    0.93    0.43
  -4  13  -1   -0.21    0.84
   4 -13   2    0.75    0.60
  -4  13  -2    0.35    0.90
   4 -13   3    0.95    0.80
  -4  13  -3    1.69    1.15
   4 -13   4    0.54    0.47
  -4  13  -4   -0.37    0.89
   4 -13   5    1.08    0.69
  -4  13  -5    0.71    0.96
   4 -13   6    2.23    1.53
  -4  13  -6   -0.13    0.93
   4 -13   7   -0.15    0.88
  -4  13  -7    1.30    1.11
   4 -13   8    1.44    1.04
  -4  13  -8    1.19    1.11
  -4  13  -9   -0.19    0.96
  -4  13 -10   -0.26    0.98
  -4  13 -11    0.42    1.00
   4 -12  -6   -1.14    0.97
   4 -12  -5    0.69    0.67
   4 -12  -4    3.29    1.70
   4 -12  -3    2.47    1.51
  -4  12   3    0.85    0.97
   4 -12  -2    3.18    3.68
  -4  12   2    1.23    1.01
   4 -12  -1    1.10    0.49
  -4  12   1    0.14    0.86
   4 -12   0   -0.57    0.97
  -4  12   0    1.23    1.36
   4 -12   1    1.67    0.76
  -4  12  -1    0.46    0.85
   4 -12   2    0.33    0.53
  -4  12  -2    0.50    0.86
   4 -12   3    1.02    0.91
  -4  12  -3    0.89    0.98
   4 -12   4   -0.09    0.35
  -4  12  -4    0.79    0.94
   4 -12   5    1.17    0.59
  -4  12  -5    0.75    0.92
   4 -12   6    1.60    0.54
  -4  12  -6    2.54    1.54
   4 -12   7    1.61    1.44
  -4  12  -7    1.29    1.12
   4 -12   8    2.21    1.09
  -4  12  -8    2.85    1.56
   4 -12   9    6.21    1.85
  -4  12  -9    4.10    1.77
  -4  12 -11    0.35    0.97
  -4  12 -12    0.76    1.06
   4 -11  -7    0.83    1.27
   4 -11  -6    1.62    0.73
   4 -11  -5    0.30    0.42
   4 -11  -4    0.61    0.84
  -4  11   4    0.36    0.89
   4 -11  -3    1.33    1.24
  -4  11   3   -0.08    0.77
   4 -11  -2    4.78    1.49
  -4  11   2    0.39    0.86
   4 -11  -1    3.14    1.34
  -4  11   1    1.57    1.03
   4 -11   0    1.01    1.12
  -4  11   0    1.54    1.43
   4 -11   1    3.28    0.95
  -4  11  -1    0.41    0.91
   4 -11   2    2.65    0.80
  -4  11  -2    1.41    0.98
   4 -11   3   -0.47    0.76
  -4  11  -3    2.88    1.46
   4 -11   4    0.71    0.76
  -4  11  -4   -0.05    0.83
   4 -11   5    2.05    0.72
  -4  11  -5    1.52    1.31
   4 -11   6    0.88    1.11
  -4  11  -6    1.11    0.98
   4 -11   7    0.20    0.91
  -4  11  -7    0.42    0.91
   4 -11   8    1.25    0.95
  -4  11  -8    3.24    1.43
   4 -11   9    1.59    0.98
  -4  11  -9    2.76    1.59
  -4  11 -10    1.43    1.18
  -4  11 -11    2.88    1.60
  -4  11 -12    1.61    1.21
  -4  11 -13    1.31    1.12
   4 -10  -9    0.73    1.35
   4 -10  -8    0.76    1.21
   4 -10  -7    0.06    0.58
   4 -10  -6    1.71    0.94
   4 -10  -5    1.24    0.77
  -4  10   5    0.45    0.86
   4 -10  -4    0.69    0.68
  -4  10   4    0.63    0.79
   4 -10  -3    0.93    0.70
  -4  10   3    0.45    0.86
   4 -10  -2    0.32    0.60
  -4  10   2    1.76    1.17
   4 -10  -1    0.56    0.84
  -4  10   1    0.15    0.71
   4 -10   0    1.21    0.83
  -4  10   0    0.54    0.89
   4 -10   1   20.02    4.24
  -4  10  -1   13.42    2.09
   4 -10   2    2.23    0.76
  -4  10  -2    2.55    1.15
   4 -10   3   13.04    2.88
  -4  10  -3   11.88    2.17
   4 -10   4   -0.93    0.77
  -4  10  -4    1.04    0.97
   4 -10   5    2.65    1.09
  -4  10  -5    1.45    1.00
   4 -10   6   -0.24    0.79
  -4  10  -6    0.37    0.81
   4 -10   7    1.13    0.89
  -4  10  -7    0.62    0.92
   4 -10   8   -0.23    0.69
  -4  10  -8    1.08    1.03
   4 -10   9    0.56    0.79
  -4  10  -9    0.68    0.90
  -4  10 -10    2.18    1.68
  -4  10 -11    0.47    1.02
  -4  10 -12    1.28    1.17
  -4  10 -13    2.90    1.74
   4  -9 -10    2.06    1.69
   4  -9  -9    0.96    1.18
   4  -9  -8    4.37    2.02
   4  -9  -7    2.45    1.48
   4  -9  -6    0.69    0.59
   4  -9  -5    1.62    1.40
  -4   9   5    0.27    0.76
   4  -9  -4    1.21    0.80
  -4   9   4    0.24    0.68
   4  -9  -3    1.00    0.59
  -4   9   3    0.29    0.72
  -4   9   2    1.59    1.06
   4  -9  -1    0.47    0.59
  -4   9   1    1.62    0.85
   4  -9   0    2.35    0.73
  -4   9   0    1.19    0.92
   4  -9   1    0.17    0.45
  -4   9  -1    0.59    0.92
   4  -9   2    2.89    0.83
  -4   9  -2    1.20    1.02
   4  -9   3    8.13    1.86
  -4   9  -3    6.51    1.68
   4  -9   4    5.09    2.16
  -4   9  -4    3.06    1.39
   4  -9   5    2.57    1.01
  -4   9  -5    1.42    1.17
   4  -9   6    0.82    0.47
  -4   9  -6    0.33    0.84
   4  -9   7    1.93    1.07
  -4   9  -7    1.39    1.17
   4  -9   8    0.67    0.70
  -4   9  -8    0.21    0.79
   4  -9   9    4.94    1.50
  -4   9  -9    0.70    0.93
  -4   9 -10    0.56    1.01
  -4   9 -11    1.75    1.25
  -4   9 -12   -0.13    1.01
  -4   9 -13    2.09    1.61
   4  -8 -10    2.63    1.44
   4  -8  -9    1.95    1.45
   4  -8  -8    1.70    1.06
   4  -8  -7    0.55    0.92
   4  -8  -6    0.66    0.97
   4  -8  -5    4.94    1.69
  -4   8   5    4.43    1.26
   4  -8  -4    1.14    0.92
  -4   8   4    0.80    0.73
   4  -8  -3    0.14    0.53
   4  -8  -2    0.94    0.99
  -4   8   2    0.26    0.57
   4  -8  -1    1.48    0.82
  -4   8   1    0.98    0.92
   4  -8   0    2.26    0.85
  -4   8   0    2.11    1.18
   4  -8   1    2.62    1.01
  -4   8  -1    3.28    1.39
   4  -8   2   43.83    9.07
  -4   8  -2   33.66    3.03
   4  -8   3    2.27    1.00
  -4   8  -3    1.72    1.01
   4  -8   4    5.33    1.50
  -4   8  -4    4.59    1.35
   4  -8   5    1.47    0.72
  -4   8  -5    1.19    0.89
   4  -8   6   -0.07    0.59
  -4   8  -6    0.83    1.22
   4  -8   7    0.19    0.29
  -4   8  -7    0.78    0.87
   4  -8   8    1.04    1.01
  -4   8  -8   -0.74    0.83
   4  -8   9   -0.07    0.65
  -4   8  -9    4.05    1.52
  -4   8 -10    3.01    1.48
  -4   8 -11    0.96    1.12
  -4   8 -12    1.50    1.57
  -4   8 -13    2.21    1.32
   4  -8  14    7.72    2.57
   4  -7 -11    0.86    0.93
   4  -7 -10    1.05    0.97
   4  -7  -9    0.68    0.73
   4  -7  -8    1.38    1.12
   4  -7  -7    3.33    1.68
   4  -7  -6    0.18    0.73
   4  -7  -5    1.73    1.04
  -4   7   5    0.51    0.67
   4  -7  -4    1.36    0.97
  -4   7   4    1.31    0.77
   4  -7  -3    0.52    0.82
  -4   7   3    0.47    0.60
   4  -7  -2    0.51    0.62
  -4   7   2    0.68    0.61
   4  -7  -1    0.62    0.53
  -4   7   1   -0.14    0.55
   4  -7   0    1.18    0.58
  -4   7   0    0.17    0.67
   4  -7   1    0.32    0.59
  -4   7  -1    0.28    0.74
   4  -7   2    2.52    1.53
  -4   7  -2    2.02    1.04
   4  -7   3    0.57    0.62
  -4   7  -3    0.96    0.88
   4  -7   4    6.70    1.63
  -4   7  -4    5.29    1.53
   4  -7   5    0.33    0.38
  -4   7  -5    1.47    0.93
   4  -7   6    1.97    1.12
  -4   7  -6    0.83    0.88
   4  -7   7    1.07    0.54
  -4   7  -7    0.60    0.86
   4  -7   8    2.76    1.50
  -4   7  -8    3.02    1.35
  -4   7  -9    2.64    1.43
  -4   7 -10    1.41    1.37
  -4   7 -11    1.47    1.52
  -4   7 -12    1.69    1.56
   4  -7  13    0.55    0.95
   4  -7  14    4.59    1.86
  -4   6  12    0.36    0.96
  -4   6  11    1.62    1.16
  -4   6  10    4.21    1.90
  -4   6   9    0.88    1.51
  -4   6   8    3.33    1.51
   4  -6  -5    0.99    0.87
  -4   6   5   -0.07    0.55
   4  -6  -4    8.27    1.82
  -4   6   4    8.63    1.41
   4  -6  -3    0.65    0.84
  -4   6   3    0.22    0.57
   4  -6  -2    0.73    0.84
  -4   6   2    1.48    0.88
   4  -6  -1    0.51    0.38
  -4   6   1    0.24    0.54
   4  -6   0    4.15    0.93
  -4   6   0    2.57    0.95
   4  -6   1    1.53    0.64
  -4   6  -1    1.19    0.81
   4  -6   2   -0.03    0.62
  -4   6  -2    0.28    0.78
   4  -6   3    7.80    2.51
  -4   6  -3    7.06    1.63
   4  -6   4    3.04    0.99
  -4   6  -4    1.03    0.93
   4  -6   5    2.88    0.77
  -4   6  -5    3.51    1.40
   4  -6   6   13.18    2.83
  -4   6  -6   10.11    1.88
   4  -6   7    1.45    0.70
  -4   6  -7    2.21    1.26
   4  -6   8    1.59    0.72
  -4   6  -8    4.61    1.57
  -4   6  -9   -0.35    0.77
  -4   6 -10    1.58    1.03
  -4   6 -11    0.40    1.04
   4  -6  12   -0.15    0.72
   4  -6  13    2.02    1.31
   4  -6  14    0.01    0.57
   4  -6  15    1.59    1.46
  -4   5  13    2.75    1.79
  -4   5  12    1.20    1.10
  -4   5  11    1.21    1.05
  -4   5  10    0.79    1.09
  -4   5   9    0.77    0.94
  -4   5   8    1.69    1.27
  -4   5   7    1.82    1.04
  -4   5   6    1.50    0.96
  -4   5   5    2.21    1.01
  -4   5   5    1.48    0.86
  -4   5   4    2.22    0.95
   4  -5  -3    1.53    0.91
  -4   5   3    0.22    0.53
   4  -5  -2    3.15    1.28
  -4   5   2    2.17    1.02
   4  -5  -1    0.31    0.69
  -4   5   1    0.47    0.59
   4  -5   0    0.90    0.39
  -4   5   0    2.23    0.89
   4  -5   1    1.31    0.87
  -4   5  -1    3.09    1.22
   4  -5   2   -0.14    0.62
  -4   5  -2    1.02    0.82
   4  -5   3    4.18    1.67
  -4   5  -3    3.67    1.25
   4  -5   4    0.58    0.54
  -4   5  -4   -0.25    0.74
   4  -5   5    1.50    0.57
  -4   5  -5    0.03    0.71
   4  -5   6    0.76    0.55
  -4   5  -6    1.51    0.92
   4  -5   7    0.92    0.62
  -4   5  -7    0.96    0.86
  -4   5  -8    1.82    1.10
  -4   5  -9    0.78    0.88
   4  -5  11   -0.09    0.80
   4  -5  12    1.79    1.12
   4  -5  13    1.22    0.49
   4  -5  14   -1.17    0.96
   4  -5  15    1.34    1.34
  -4   4  13    0.64    1.09
  -4   4  12    2.61    1.72
  -4   4  11    0.52    1.05
  -4   4  10    4.73    1.70
  -4   4   9    1.41    0.99
  -4   4   8    2.62    1.36
  -4   4   7    1.97    1.05
  -4   4   6    1.04    0.93
  -4   4   5    9.13    1.94
  -4   4   5    6.27    1.11
  -4   4   4    1.26    0.94
  -4   4   4    0.11    0.50
   4  -4  -3    0.70    0.33
  -4   4   3    2.04    1.15
  -4   4   3    0.66    0.55
   4  -4  -2    3.08    1.16
  -4   4   2    2.76    0.96
   4  -4  -1    0.76    0.69
  -4   4   1    0.22    0.55
   4  -4   0    6.18    1.47
  -4   4   0    5.25    1.26
   4  -4   1    1.06    0.51
  -4   4  -1    1.31    1.03
  -4   4  -2    9.08    1.35
   4  -4   2    9.75    2.81
  -4   4  -2   12.23    1.79
  -4   4  -3    0.19    0.43
   4  -4   3    1.92    0.63
  -4   4  -3    2.88    1.13
  -4   4  -4    0.70    0.57
   4  -4   4    0.56    0.53
  -4   4  -4    1.12    0.88
  -4   4  -5    0.29    0.45
   4  -4   5    1.65    0.58
  -4   4  -5    1.10    0.87
  -4   4  -6    0.95    0.64
   4  -4   6    0.66    0.42
  -4   4  -6    1.58    1.18
  -4   4  -7   11.25    1.43
  -4   4  -7   12.58    2.09
  -4   4  -8    0.85    0.59
  -4   4  -8    0.00    0.80
   4  -4   9    0.51    0.83
   4  -4  10    0.55    0.85
   4  -4  11    3.91    1.64
   4  -4  12    0.26    0.36
   4  -4  13    0.28    0.30
   4  -4  14   -0.55    0.88
   4  -4  15    1.40    0.82
  -4   3  14    0.57    1.03
  -4   3  13    2.07    1.54
  -4   3  12    1.64    1.50
  -4   3  11    0.36    0.99
  -4   3  10    0.40    0.89
   4  -3  -9    0.07    0.69
  -4   3   9    0.31    0.88
   4  -3  -8    2.29    1.01
  -4   3   8    3.76    1.50
   4  -3  -7    1.45    1.19
  -4   3   7    0.47    0.89
   4  -3  -6    1.04    0.57
   4  -3  -5    0.86    0.34
  -4   3   5    0.35    0.82
  -4   3   5    0.80    0.55
   4  -3  -4    2.28    0.65
  -4   3   4    3.59    1.48
  -4   3   4    2.37    0.76
   4  -3  -3    4.76    1.08
  -4   3   3    5.16    1.36
  -4   3   3    3.34    0.96
   4  -3  -2    0.55    0.33
  -4   3   2    1.47    1.12
  -4   3   2    1.12    0.64
   4  -3  -1    5.13    1.10
   4  -3  -1    5.80    1.31
  -4   3   1    5.50    1.24
   4  -3   0    6.30    1.35
   4  -3   0    8.01    1.49
  -4   3   0    5.37    1.24
   4  -3   1    0.96    0.65
  -4   3  -1    1.41    1.04
  -4   3  -2    6.85    1.20
   4  -3   2    5.98    1.25
  -4   3  -2    7.69    1.51
  -4   3  -3    0.18    0.46
   4  -3   3    0.48    0.36
  -4   3  -3    1.48    1.15
  -4   3  -4    0.00    0.43
   4  -3   4    2.17    0.56
  -4   3  -4    1.23    0.85
  -4   3  -5    1.53    0.76
   4  -3   5    0.54    0.38
  -4   3  -5    0.67    0.81
  -4   3  -6    1.29    0.64
  -4   3  -6    0.88    0.82
  -4   3  -7    2.45    0.89
  -4   3  -7    2.69    1.28
  -4   3  -8    0.24    0.56
   4  -3   8   -0.01    0.71
  -4   3  -9    0.41    0.59
   4  -3   9    0.61    0.84
  -4   3 -10    0.54    0.68
   4  -3  10    1.53    0.62
  -4   3 -11    0.43    0.73
   4  -3  11    1.48    0.73
   4  -3  12    0.44    0.45
   4  -3  13    0.05    0.68
   4  -3  14    0.34    0.90
   4  -3  15    2.99    1.15
  -4   2  14    1.81    1.53
  -4   2  13    1.99    1.52
  -4   2  12    1.50    1.11
   4  -2 -11    2.49    1.43
  -4   2  11    1.03    1.01
   4  -2 -10    0.86    1.01
  -4   2  10   -0.27    0.73
   4  -2  -9   12.21    2.89
  -4   2   9    8.25    2.03
   4  -2  -8    0.50    0.55
  -4   2   8    0.27    0.89
   4  -2  -7    2.13    0.51
  -4   2   7    1.11    1.00
   4  -2  -6   22.41    4.70
  -4   2   6   24.88    3.04
   4  -2  -5    2.40    1.24
  -4   2   5    1.91    1.38
   4  -2  -4    1.96    0.53
  -4   2   4    0.46    0.82
  -4   2   4    1.86    0.80
   4  -2  -3    0.33    0.34
  -4   2   3    1.05    1.07
  -4   2   3    1.21    0.79
   4  -2  -2    0.78    0.51
  -4   2   2    0.29    0.67
  -4   2   2   -0.18    0.44
   4  -2  -1    3.55    0.70
  -4   2   1    4.39    1.22
  -4   2   1    5.71    1.66
   4  -2   0   -0.01    0.33
   4  -2   0    0.95    0.64
  -4   2   0    0.17    0.60
  -4   2  -1   16.54    1.66
   4  -2   1   19.99    2.15
  -4   2  -1   17.79    1.94
  -4   2  -2    1.25    0.65
   4  -2   2    0.23    0.46
  -4   2  -2    1.77    1.07
  -4   2  -3    4.14    1.03
   4  -2   3    4.64    0.76
  -4   2  -3    6.79    1.69
  -4   2  -4    1.93    0.91
   4  -2   4    1.44    0.43
  -4   2  -4    3.27    1.31
  -4   2  -6    3.11    1.15
   4  -2   6    1.22    0.93
  -4   2  -7    0.47    0.62
   4  -2   7    0.49    0.79
  -4   2  -8    0.54    0.63
   4  -2   8    0.06    0.72
  -4   2  -9    0.98    0.76
   4  -2   9   -0.18    0.73
  -4   2 -10    3.69    1.38
   4  -2  10    0.20    0.50
  -4   2 -11    2.64    1.25
   4  -2  11    1.69    1.00
  -4   2 -12    0.45    0.82
   4  -2  12    1.85    0.64
   4  -2  13    1.58    1.52
   4  -2  14    0.93    0.86
   4  -2  15    0.95    0.77
  -4   1  15    1.67    1.21
  -4   1  14    0.61    1.01
  -4   1  13    1.36    1.11
   4  -1 -12   -0.01    0.72
  -4   1  12    1.36    1.05
   4  -1 -11    2.49    0.94
  -4   1  11    0.36    0.81
   4  -1 -10    0.51    0.32
  -4   1  10   -0.25    0.81
   4  -1  -9    4.76    1.17
  -4   1   9    2.52    1.56
   4  -1  -8    7.96    2.30
  -4   1   8    4.44    1.53
   4  -1  -7    0.16    0.36
  -4   1   7    2.58    1.29
   4  -1  -6    1.23    0.60
  -4   1   6    1.30    1.28
   4  -1  -5    4.25    0.98
  -4   1   5    9.57    1.79
   4  -1  -4    2.13    0.56
  -4   1   4    1.53    1.13
  -4   1   4    2.46    0.87
   4  -1  -3    0.22    0.25
  -4   1   3   -0.07    0.70
  -4   1   3    0.50    0.53
   4  -1  -2    3.15    1.38
  -4   1   2    4.05    1.33
  -4   1   2    3.28    0.92
   4  -1  -1    0.76    0.43
  -4   1   1    0.75    0.63
  -4   1   1    0.54    0.54
  -4   1   0    2.37    1.00
  -4   1   0    0.39    0.64
  -4   1  -1    1.58    0.75
   4  -1   1    3.35    1.13
  -4   1  -1    1.72    0.97
  -4   1  -2    0.70    0.58
   4  -1   2    1.07    0.60
  -4   1  -2    0.51    0.70
  -4   1  -3   16.76    2.13
   4  -1   3   13.89    3.58
  -4   1  -3   17.33    2.30
  -4   1  -4    9.26    1.54
   4  -1   4    8.28    1.71
   4  -1   4   13.41    2.35
  -4   1  -5    0.58    0.68
   4  -1   5   -0.06    0.74
  -4   1  -6    0.52    0.68
   4  -1   6    1.44    0.99
  -4   1  -7    1.18    1.08
   4  -1   7   -0.19    0.74
  -4   1  -8    1.95    1.03
   4  -1   8    3.14    1.11
  -4   1  -9    4.85    1.45
   4  -1   9    2.17    0.81
  -4   1 -10    1.47    1.01
   4  -1  10   -1.45    0.83
  -4   1 -11    3.12    1.20
   4  -1  11    0.86    0.60
  -4   1 -12    0.59    0.83
   4  -1  12    2.83    0.98
   4  -1  13   -0.18    0.93
   4  -1  14    0.78    0.67
   4  -1  15    1.93    1.15
  -4   0  15   -0.06    0.97
  -4   0  14    2.69    1.56
   4   0 -13    0.77    1.19
  -4   0  13    2.31    1.46
   4   0 -12    0.83    0.93
  -4   0  12    1.76    1.03
   4   0 -11    1.76    1.43
  -4   0  11    0.53    0.96
   4   0 -10    1.85    0.99
  -4   0  10    3.12    1.30
   4   0  -9    3.81    1.15
  -4   0   9    5.83    1.76
   4   0  -8    4.65    1.56
  -4   0   8    6.57    1.78
   4   0  -7   19.23    4.52
  -4   0   7   14.49    2.10
   4   0  -6    0.35    0.46
  -4   0   6   -0.63    0.74
   4   0  -5   55.60   11.93
  -4   0   5   50.89    3.53
   4   0  -4   15.93    4.42
  -4   0   4   13.66    2.28
  -4   0   4   10.18    1.35
   4   0  -3    1.35    0.70
  -4   0   3    1.42    0.75
  -4   0   3    1.51    0.78
   4   0  -2    6.20    2.10
  -4   0   2   11.98    1.88
  -4   0   2    5.19    1.32
  -4   0   1    2.93    1.18
  -4   0   1    0.43    0.53
  -4   0   0    1.52    0.92
  -4   0   0    0.77    0.58
   4   0   0    0.89    0.68
  -4   0  -1    1.17    0.76
   4   0   1    0.32    0.60
  -4   0  -2    3.69    1.15
   4   0   2    2.18    0.82
   4   0   2    0.17    0.62
  -4   0  -3    3.16    1.01
   4   0   3    1.47    0.64
   4   0   3    0.93    0.79
  -4   0  -4    1.69    0.72
   4   0   4    1.07    0.75
  -4   0  -5   49.90    3.16
   4   0   5   54.38   10.57
  -4   0  -6    3.87    1.11
   4   0   6    3.95    1.91
  -4   0  -7   18.98    2.12
   4   0   7   21.97    5.42
  -4   0  -8    1.32    0.87
   4   0   8    1.74    0.82
  -4   0  -9    0.61    0.64
   4   0   9   -0.19    0.82
  -4   0 -10    0.40    0.62
   4   0  10    0.94    0.55
  -4   0 -11    1.21    0.87
   4   0  11    0.68    0.49
  -4   0 -12    0.25    0.78
   4   0  12    0.93    0.82
  -4   0 -13    1.61    1.01
   4   0  13    0.15    0.69
   4   0  14    2.67    0.98
  -4  -1  15    3.68    1.77
   4   1 -14    2.21    1.40
  -4  -1  14    3.18    1.61
   4   1 -13    6.17    1.93
  -4  -1  13    1.64    1.09
   4   1 -12    2.24    0.92
  -4  -1  12    0.71    1.26
   4   1 -11   -0.21    0.86
  -4  -1  11    1.11    1.01
   4   1 -10    1.90    0.70
  -4  -1  10    0.30    0.83
   4   1  -9    0.99    0.53
  -4  -1   9    2.48    1.37
   4   1  -8    1.99    0.74
  -4  -1   8    0.06    0.76
   4   1  -7    5.64    1.37
  -4  -1   7    6.15    1.39
   4   1  -6    8.64    2.34
  -4  -1   6    8.62    1.82
   4   1  -5    5.64    1.55
  -4  -1   5    4.62    1.32
   4   1  -4    0.39    0.56
  -4  -1   4    0.43    0.68
   4   1  -3    4.64    1.30
  -4  -1   3    2.97    1.02
   4   1  -3    3.00    0.84
   4   1  -2    0.56    0.46
  -4  -1   2    2.07    1.06
   4   1  -2    0.72    0.66
  -4  -1   1    1.07    0.79
  -4  -1   1    2.03    0.82
   4   1  -1    1.00    0.37
  -4  -1   0    0.89    0.79
  -4  -1   0    0.76    0.68
   4   1   0    0.00    0.49
  -4  -1  -1    0.27    0.73
   4   1   1    0.31    0.35
  -4  -1  -2    1.02    0.99
   4   1   2    0.44    0.41
   4   1   2    0.88    0.35
  -4  -1  -3    0.43    0.73
   4   1   3    0.49    0.36
  -4  -1  -4    3.44    1.28
   4   1   4    3.42    0.98
  -4  -1  -5   11.79    1.75
   4   1   5   21.08    5.18
  -4  -1  -6    5.87    1.34
   4   1   6    1.29    1.06
  -4  -1  -7    3.49    1.21
   4   1   7    2.56    1.22
  -4  -1  -8    0.16    0.58
   4   1   8    1.26    0.70
  -4  -1  -9    0.86    0.77
   4   1   9    0.56    0.62
  -4  -1 -10    0.89    0.94
   4   1  10   -0.60    0.97
  -4  -1 -11    0.65    0.89
   4   1  11    0.37    0.86
  -4  -1 -12    0.99    1.14
   4   1  12    1.59    0.81
  -4  -1 -13    1.77    1.04
   4   1  13    2.56    0.87
   4   1  14    0.72    0.78
  -4  -2  15    2.36    1.57
   4   2 -14   -0.21    0.82
  -4  -2  14    1.91    1.20
   4   2 -13    6.89    1.62
  -4  -2  13    6.13    1.98
   4   2 -12    1.51    1.06
  -4  -2  12    0.43    0.99
   4   2 -11    0.15    0.61
  -4  -2  11    1.12    0.93
   4   2 -10    0.19    0.54
  -4  -2  10    0.17    0.81
   4   2  -9    1.19    0.37
  -4  -2   9    4.13    1.73
   4   2  -8    5.64    2.12
  -4  -2   8    5.16    1.50
   4   2  -7    3.13    0.90
  -4  -2   7    1.04    0.84
   4   2  -6    7.49    1.73
  -4  -2   6    7.85    1.55
   4   2  -5    1.47    0.48
  -4  -2   5   -0.11    0.71
   4   2  -4   18.70    4.44
  -4  -2   4   15.45    2.15
   4   2  -3    2.19    0.49
  -4  -2   3   -0.16    0.53
   4   2  -3    0.78    0.50
  -4  -2   2    2.49    0.97
   4   2  -2    1.46    0.79
  -4  -2   1   27.82    2.97
  -4  -2   1   20.53    2.40
   4   2  -1   20.64    4.54
  -4  -2   0    4.21    1.18
  -4  -2   0    1.83    0.71
   4   2   0    2.67    0.87
  -4  -2  -1    4.90    1.37
  -4  -2  -1    2.68    0.84
   4   2   1    2.57    0.70
  -4  -2  -2    0.10    0.68
   4   2   2    0.81    0.27
  -4  -2  -3    3.60    1.25
   4   2   3    1.30    0.73
  -4  -2  -4    5.53    1.32
   4   2   4    5.71    1.65
  -4  -2  -5    4.27    1.41
   4   2   5    3.81    2.15
  -4  -2  -6   35.13    3.08
   4   2   6   38.20    8.33
  -4  -2  -7    0.67    0.81
   4   2   7    2.13    0.81
  -4  -2  -8    0.91    0.84
   4   2   8    2.13    0.82
  -4  -2  -9    2.04    1.28
   4   2   9    0.52    1.02
  -4  -2 -10    0.34    0.85
   4   2  10   -0.21    1.05
  -4  -2 -11    0.11    0.71
   4   2  11    2.07    1.00
  -4  -2 -12    0.42    0.81
   4   2  12    0.70    0.51
  -4  -2 -13    5.34    2.22
   4   2  13   -0.47    0.94
   4   2  14    0.89    0.91
   4   3 -15    0.73    1.05
  -4  -3  15    0.44    1.01
   4   3 -14    0.49    1.00
  -4  -3  14   -0.87    0.94
   4   3 -13    3.44    1.34
  -4  -3  13   -0.61    0.94
   4   3 -12    3.61    0.95
  -4  -3  12    3.59    1.56
   4   3 -11    4.65    1.45
  -4  -3  11    4.37    1.62
  -4  -3  10    2.59    1.42
   4   3  -9    5.54    1.39
  -4  -3   9    2.85    1.35
   4   3  -8    6.81    1.28
  -4  -3   8    5.20    1.44
   4   3  -7   -0.10    0.65
  -4  -3   7    0.99    0.80
   4   3  -6    0.18    0.37
  -4  -3   6    0.57    0.76
   4   3  -5    6.03    1.47
  -4  -3   5    5.61    1.29
   4   3  -4   13.08    3.53
  -4  -3   4   12.70    1.77
   4   3  -3   10.07    1.58
  -4  -3   3    6.83    1.28
   4   3  -3    7.32    2.23
  -4  -3   2    5.80    1.55
  -4  -3   2    2.14    0.91
   4   3  -2    1.85    0.64
  -4  -3   1    0.90    1.13
  -4  -3   1    0.91    0.57
   4   3  -1    0.27    0.35
  -4  -3   0    1.18    1.12
  -4  -3   0    0.90    0.79
   4   3   0   -0.16    0.49
  -4  -3  -1   -0.08    0.71
   4   3   1    0.24    0.32
  -4  -3  -2    0.63    0.74
   4   3   2    0.00    0.60
  -4  -3  -3    0.35    0.73
   4   3   3   -0.01    0.61
  -4  -3  -4    1.74    1.03
   4   3   4   -0.39    0.72
  -4  -3  -5    1.52    1.18
   4   3   5    2.60    1.11
  -4  -3  -6    1.30    0.94
   4   3   6    1.22    0.61
  -4  -3  -7    5.94    1.55
   4   3   7    3.33    1.01
  -4  -3  -8    2.07    1.09
   4   3   8    6.21    1.68
  -4  -3  -9    0.46    0.95
   4   3   9    2.52    0.90
  -4  -3 -10    0.95    0.95
   4   3  10    0.56    0.79
  -4  -3 -11    0.22    0.82
   4   3  11    2.22    1.03
  -4  -3 -12    0.52    0.85
   4   3  12   -0.55    0.93
  -4  -3 -13    2.64    1.52
   4   3  13   -0.83    0.93
  -4  -4  16    0.30    0.96
   4   4 -15    1.73    1.36
  -4  -4  15    6.28    2.47
   4   4 -14    1.20    0.59
  -4  -4  14    0.25    0.96
   4   4 -13    1.03    0.75
  -4  -4  13    1.30    1.10
   4   4 -12    7.49    1.24
  -4  -4  12   12.22    2.53
   4   4 -11    2.48    0.58
  -4  -4  11    3.44    1.53
   4   4 -10    2.22    1.08
  -4  -4  10    1.36    0.96
   4   4  -9    1.38    0.99
  -4  -4   9    0.25    0.72
   4   4  -8    1.53    0.83
  -4  -4   8    3.12    1.19
   4   4  -7   -0.19    0.76
  -4  -4   7    0.44    0.67
   4   4  -6    1.92    0.62
  -4  -4   6    0.46    0.84
   4   4  -5    3.06    2.09
  -4  -4   5    0.06    0.53
   4   4  -4    0.50    0.47
  -4  -4   4    1.00    0.89
   4   4  -3    1.73    0.78
  -4  -4   3    2.43    1.06
  -4  -4   2    4.37    1.21
  -4  -4   2    5.10    1.15
   4   4  -2    5.56    1.35
  -4  -4   1    1.79    0.98
  -4  -4   1    2.18    0.87
   4   4  -1    4.17    1.65
  -4  -4   0   12.51    1.87
  -4  -4   0   10.67    1.53
   4   4   0   12.13    3.10
  -4  -4  -1    4.48    1.31
   4   4   1    3.51    1.49
  -4  -4  -2    2.38    1.21
   4   4   2    1.17    0.51
  -4  -4  -3    0.96    0.79
   4   4   3    1.14    0.48
  -4  -4  -4    3.02    1.18
   4   4   4    3.98    1.04
  -4  -4  -5    0.78    0.85
   4   4   5    1.98    0.64
  -4  -4  -6    1.30    0.99
   4   4   6    2.22    1.12
  -4  -4  -7    1.44    0.95
   4   4   7    2.14    0.84
  -4  -4  -8    2.68    1.28
   4   4   8   -0.35    0.96
  -4  -4  -9    1.93    1.26
   4   4   9    0.54    0.88
  -4  -4 -10    8.02    2.09
   4   4  10    6.02    1.75
  -4  -4 -11    0.79    0.93
   4   4  11    0.17    0.73
  -4  -4 -12    0.73    0.95
   4   4  12    1.72    1.00
   4   4  13    0.59    0.78
  -4  -5  16    4.16    1.81
   4   5 -15    1.10    1.06
  -4  -5  15    0.86    1.12
   4   5 -14   -0.68    0.92
  -4  -5  14    2.53    1.27
   4   5 -13    1.55    1.65
  -4  -5  13    0.68    0.96
   4   5 -12    1.35    0.65
  -4  -5  12    1.31    1.06
   4   5 -11    1.18    0.77
  -4  -5  11    3.68    1.57
   4   5 -10    1.90    1.25
  -4  -5  10    1.92    1.19
   4   5  -9    0.28    0.78
  -4  -5   9    0.15    0.72
   4   5  -8    0.81    1.02
  -4  -5   8    0.58    0.75
   4   5  -7    5.11    2.24
  -4  -5   7    3.50    1.05
   4   5  -6    8.40    2.43
  -4  -5   6    5.54    1.42
   4   5  -5    4.10    1.04
  -4  -5   5    2.88    1.17
   4   5  -4    1.98    0.98
  -4  -5   4    1.94    0.86
  -4  -5   3    1.61    1.03
  -4  -5   2    4.98    1.40
  -4  -5   2    2.38    0.94
   4   5  -2    2.87    1.00
  -4  -5   1   15.98    2.16
  -4  -5   1   12.65    1.56
   4   5  -1   14.87    3.54
  -4  -5   0    1.35    0.94
   4   5   0    2.13    0.87
  -4  -5  -1    0.73    0.86
   4   5   1   -0.20    0.53
  -4  -5  -2    1.57    0.98
   4   5   2    1.09    0.55
  -4  -5  -3    1.41    1.13
   4   5   3    1.53    0.74
  -4  -5  -4    0.19    0.85
   4   5   4    0.34    0.49
  -4  -5  -5    3.39    1.53
   4   5   5    0.20    0.71
  -4  -5  -6    1.03    0.93
   4   5   6    0.89    0.56
  -4  -5  -7    1.75    1.03
   4   5   7    2.01    0.76
  -4  -5  -8    0.11    0.80
   4   5   8   -0.04    0.84
  -4  -5  -9    0.25    0.85
   4   5   9    1.38    0.87
  -4  -5 -10    1.25    1.04
   4   5  10   -0.35    1.01
  -4  -5 -11    0.42    1.02
   4   5  11    0.44    0.98
  -4  -5 -12    0.54    1.17
   4   5  12    1.92    1.14
   4   6 -15    0.75    1.31
  -4  -6  15    0.62    1.05
   4   6 -14    0.63    0.70
  -4  -6  14    2.07    1.24
   4   6 -13    0.92    0.91
  -4  -6  13    1.08    1.04
   4   6 -12    4.54    1.33
  -4  -6  12    1.72    1.39
   4   6 -11    4.77    1.74
  -4  -6  11    2.89    1.31
   4   6 -10    5.98    1.59
  -4  -6  10    3.95    1.44
   4   6  -9   10.24    2.48
  -4  -6   9    6.57    1.80
   4   6  -8    0.65    0.54
  -4  -6   8    0.30    0.67
   4   6  -7    1.94    1.19
  -4  -6   7    0.34    0.56
   4   6  -6   10.14    2.27
  -4  -6   6   13.49    2.22
   4   6  -5    0.17    0.52
   4   6  -4    0.35    0.50
  -4  -6   4    1.41    0.95
  -4  -6   3    0.42    0.89
  -4  -6   3    1.26    0.82
  -4  -6   2    1.29    1.03
  -4  -6   2    0.69    0.63
   4   6  -2    0.28    0.30
  -4  -6   1    2.89    1.15
   4   6  -1    3.45    1.23
  -4  -6   0    1.88    1.12
   4   6   0    1.95    0.88
  -4  -6  -1    0.32    0.85
   4   6   1    1.66    0.62
  -4  -6  -2    3.74    1.25
   4   6   2    3.61    1.59
  -4  -6  -3    1.50    0.92
   4   6   3    0.96    0.55
  -4  -6  -4    1.77    1.30
   4   6   4    2.26    0.70
  -4  -6  -5    1.22    1.17
   4   6   5    1.00    0.93
  -4  -6  -6    1.29    0.95
   4   6   6    2.78    1.00
  -4  -6  -7    1.66    1.09
   4   6   7    0.19    0.77
  -4  -6  -8    3.15    1.47
   4   6   8   -0.10    0.87
  -4  -6  -9    0.73    0.96
   4   6   9    0.61    0.98
  -4  -6 -10    2.16    1.54
   4   6  10   -0.83    0.98
  -4  -6 -11    1.37    1.53
   4   6  11    1.03    0.96
   4   7 -15    3.15    1.54
  -4  -7  15    0.90    1.22
   4   7 -14    2.32    2.12
  -4  -7  14    4.11    2.26
   4   7 -13    1.44    0.83
  -4  -7  13    1.00    1.16
   4   7 -12    2.22    1.17
  -4  -7  12    0.05    0.79
   4   7 -11    0.32    0.59
  -4  -7  11   -0.15    0.81
   4   7 -10    2.09    1.45
  -4  -7  10    2.27    1.42
   4   7  -9    1.10    0.70
  -4  -7   9    1.27    1.09
   4   7  -8    0.74    0.73
  -4  -7   8    0.45    0.69
   4   7  -7    1.01    0.82
  -4  -7   7   -0.18    0.57
   4   7  -6   -0.13    0.83
  -4  -7   6    0.11    0.59
   4   7  -5    1.36    0.68
  -4  -7   5    2.61    1.25
   4   7  -4    1.30    0.82
  -4  -7   4    2.04    0.86
  -4  -7   3    6.01    1.60
  -4  -7   3    2.73    0.82
  -4  -7   2    4.74    1.44
  -4  -7   1    0.60    0.90
   4   7  -1    0.51    0.38
  -4  -7   0    4.19    1.52
   4   7   0    3.54    1.21
  -4  -7  -1    4.07    1.47
   4   7   1    2.27    0.99
  -4  -7  -2    0.67    0.91
   4   7   2    1.31    0.62
  -4  -7  -3    0.35    0.80
   4   7   3    0.95    0.55
  -4  -7  -4    1.24    1.23
   4   7   4    1.91    0.85
  -4  -7  -5    3.10    1.19
   4   7   5    3.48    0.84
  -4  -7  -6    2.39    1.09
   4   7   6    2.10    0.52
  -4  -7  -7    0.45    0.97
   4   7   7    2.38    1.03
  -4  -7  -8    1.25    1.05
   4   7   8   -0.10    0.94
  -4  -7  -9   -0.45    0.88
   4   7   9    0.92    1.09
  -4  -7 -10    0.74    1.06
   4   7  10   -0.11    0.98
  -4  -7 -11    1.06    1.22
   4   8 -15    1.02    0.77
  -4  -8  15    1.76    1.37
   4   8 -14    0.49    0.68
  -4  -8  14    2.77    2.01
   4   8 -13    1.75    0.73
  -4  -8  13    2.89    1.66
   4   8 -12    1.87    0.99
  -4  -8  12   -0.20    0.86
   4   8 -11    1.65    0.65
  -4  -8  11    0.69    0.94
   4   8 -10    4.07    1.38
  -4  -8  10    1.39    1.00
   4   8  -9    3.02    1.38
  -4  -8   9    3.55    1.24
   4   8  -8    2.07    0.69
  -4  -8   8    1.35    0.83
   4   8  -7    0.46    0.52
  -4  -8   7    2.22    1.27
   4   8  -6    1.70    0.94
  -4  -8   6    1.08    0.74
   4   8  -5   24.27    4.41
  -4  -8   5   22.19    2.52
   4   8  -4    2.73    0.95
  -4  -8   4    1.90    0.97
  -4  -8   3    0.36    0.93
  -4  -8   2    7.17    1.79
  -4  -8   1    2.10    1.28
   4   8  -1   -0.50    0.53
  -4  -8   0    2.00    1.11
   4   8   0    0.27    0.66
  -4  -8  -1    2.76    1.42
   4   8   1    0.25    0.47
  -4  -8  -2   -0.47    0.81
   4   8   2   -0.61    0.57
  -4  -8  -3    2.12    1.32
   4   8   3    1.03    0.83
  -4  -8  -4    0.12    0.80
   4   8   4    0.41    0.89
  -4  -8  -5    2.00    1.42
   4   8   5   -0.01    0.89
  -4  -8  -6    2.45    1.21
   4   8   6   -0.13    0.82
  -4  -8  -7   -0.68    0.87
   4   8   7    0.54    0.93
  -4  -8  -8    3.35    1.67
   4   8   8    1.38    0.97
  -4  -8  -9    2.11    1.26
   4   8   9    2.50    1.43
  -4  -8 -10    0.86    1.07
   4   8  10    6.60    2.29
   4   9 -14    0.67    0.76
  -4  -9  14    1.29    1.28
   4   9 -13    5.16    2.25
  -4  -9  13    7.89    2.47
   4   9 -12    3.97    1.93
  -4  -9  12    0.31    0.95
   4   9 -11    0.36    0.91
  -4  -9  11    0.38    0.88
   4   9 -10    4.16    1.56
  -4  -9  10    2.13    1.37
   4   9  -9    4.05    1.50
  -4  -9   9    0.41    0.86
   4   9  -8    3.36    1.14
  -4  -9   8    0.45    0.73
   4   9  -7    0.13    0.54
  -4  -9   7    0.54    0.71
   4   9  -6    2.47    1.11
  -4  -9   6    1.67    1.04
   4   9  -5    0.28    0.61
  -4  -9   5   -0.13    0.53
   4   9  -4    4.95    2.29
  -4  -9   3    9.74    2.22
  -4  -9   2    2.87    1.27
  -4  -9   1   14.64    2.45
  -4  -9   0    6.01    1.83
   4   9   0    1.16    0.81
  -4  -9  -1   -0.38    0.79
   4   9   1    0.40    0.71
  -4  -9  -2    3.14    1.40
   4   9   2    2.75    1.06
  -4  -9  -3    0.62    0.89
   4   9   3    0.90    0.83
  -4  -9  -4    0.89    0.93
   4   9   4    0.28    0.86
  -4  -9  -5    1.11    1.28
   4   9   5    2.12    1.19
  -4  -9  -6    0.52    0.94
   4   9   6    0.33    0.55
  -4  -9  -7    0.68    1.06
   4   9   7    0.73    1.07
  -4  -9  -8    6.20    2.21
   4   9   8    3.82    1.82
  -4  -9  -9    1.62    1.21
   4  10 -14    1.32    1.04
   4  10 -13    3.02    1.71
  -4 -10  13    2.22    1.40
   4  10 -12    0.93    0.54
  -4 -10  12    0.25    0.81
   4  10 -11    1.87    1.06
  -4 -10  11    0.61    0.92
   4  10 -10    1.72    0.77
  -4 -10  10    0.13    0.77
   4  10  -9    2.28    1.21
  -4 -10   9    2.84    1.37
   4  10  -8    0.70    0.66
  -4 -10   8    1.54    1.08
   4  10  -7    1.25    0.54
  -4 -10   7    0.37    0.76
   4  10  -6    1.72    1.19
   4  10  -5    4.00    2.06
   4  10  -4    5.99    2.39
  -4 -10   3    2.33    1.47
  -4 -10   2    0.90    0.97
  -4 -10   1    8.98    2.04
  -4 -10   0    1.51    1.37
  -4 -10  -1    1.42    1.32
   4  10   1    0.71    0.81
  -4 -10  -2    4.00    1.78
   4  10   2    2.15    1.01
  -4 -10  -3    1.18    0.99
   4  10   3    0.27    0.81
  -4 -10  -4    2.74    1.21
   4  10   4   -0.75    0.78
  -4 -10  -5    0.28    0.94
   4  10   5    0.76    0.97
  -4 -10  -6    1.39    1.53
   4  10   6    0.13    0.92
  -4 -10  -7    3.63    1.83
  -4 -10  -8    0.53    0.99
   4  11 -13    1.64    0.99
   4  11 -12    0.62    0.99
   4  11 -11    1.57    1.10
   4  11 -10   -0.18    0.93
   4  11  -9    6.47    2.17
  -4 -11   9    1.95    1.29
   4  11  -8    1.94    0.93
   4  11  -7    1.00    1.05
   4  11  -6    1.10    0.74
   4  11  -5   -0.03    0.89
   4  11  -4    3.09    0.85
  -4 -11   3    4.03    1.66
  -4 -11   2    5.48    1.80
  -4 -11   1   -0.39    0.94
  -4 -11   0    1.23    1.48
  -4 -11  -1    2.40    1.50
  -4 -11  -2    2.32    1.42
  -4 -11  -3    0.55    0.96
  -4 -11  -4    0.25    0.81
  -4 -11  -5    0.43    0.98
  -4 -11  -6    4.55    2.12
   4  12 -12    0.37    0.72
   4  12 -11    1.22    1.30
   4  12 -10    0.60    0.54
   4  12  -9    1.66    0.72
   4  12  -8    2.35    1.28
   4  12  -7   -0.08    0.48
   4  12  -6    0.51    0.64
   4  12  -5    0.53    0.58
   4  12  -4   -0.16    0.83
  -4 -12   3    2.94    1.74
  -4 -12   2    1.25    1.06
  -4 -12   1    1.07    1.05
  -4 -12   0    5.76    2.00
  -4 -12  -1    0.51    0.95
  -4 -12  -2    3.32    1.68
  -4 -12  -3    3.00    1.86
  -4 -12  -4    0.47    0.98
  -4 -12  -5    0.43    0.92
   4  13 -10   -0.27    1.05
   4  13  -9    1.01    0.88
   4  13  -8    3.38    1.60
   4  13  -7    2.95    1.00
   4  13  -6    0.21    0.79
   4  13  -5    0.54    0.68
   4  13  -4    0.69    1.07
  -4 -13   3    2.54    1.64
  -4 -13   2    2.68    1.57
  -4 -13   1    1.55    1.18
  -4 -13   0    0.56    0.97
  -4 -13  -1    4.03    1.88
  -4 -13  -2    0.70    1.01
   4  14  -7    0.98    1.11
   4  14  -6   -0.30    0.97
   4  14  -5   -0.34    0.93
   4  14  -4   -0.17    1.02
  -4 -14   2    1.38    1.34
  -4 -14   1    1.03    1.11
   5 -11  -2    1.75    1.28
   5 -11  -1    0.45    0.72
   5 -11   0    1.13    1.23
   5 -11   1    0.88    1.06
  -5  11  -3    0.95    1.43
  -5  11  -4    0.40    1.02
  -5  11  -5   -1.45    1.11
  -5  11  -6    1.12    1.26
  -5  11  -7   -0.80    1.08
   5 -10  -4    0.74    0.84
   5 -10  -3    0.19    0.74
   5 -10  -2    0.43    0.58
   5 -10  -1    1.01    0.67
   5 -10   0    2.42    1.33
   5 -10   1    1.07    0.92
   5 -10   2    0.37    0.43
  -5  10  -2    3.30    1.61
   5 -10   3   -0.60    0.89
  -5  10  -3    1.53    1.34
  -5  10  -4    0.30    0.88
  -5  10  -5   -0.36    0.99
  -5  10  -6    1.46    1.55
  -5  10  -7    0.68    1.15
  -5  10  -8    1.08    1.29
  -5  10  -9   -0.13    1.17
   5  -9  -5    1.76    1.41
   5  -9  -4    1.11    0.89
   5  -9  -3    0.49    0.76
   5  -9  -2    0.63    0.68
   5  -9  -1    0.87    0.67
   5  -9   0    1.04    1.27
   5  -9   1    0.42    0.32
  -5   9  -1   -0.37    0.82
   5  -9   2    0.53    1.07
  -5   9  -2    3.50    1.53
   5  -9   3    2.27    1.13
  -5   9  -3    1.36    1.36
  -5   9  -4    0.71    0.95
  -5   9  -5    0.53    0.99
  -5   9  -6    1.06    1.06
  -5   9  -7    1.09    1.12
  -5   9  -8    1.39    1.20
  -5   9  -9    4.14    1.91
  -5   9 -10    2.24    1.44
   5  -8  -7    2.42    1.52
   5  -8  -6    0.60    0.87
   5  -8  -5    0.30    0.56
   5  -8  -4    2.30    1.10
   5  -8  -3    0.56    0.72
   5  -8  -2    0.45    0.71
   5  -8  -1    0.76    0.76
   5  -8   0    1.09    1.01
  -5   8   0    1.94    1.30
   5  -8   1    1.30    1.00
  -5   8  -1    0.72    0.89
   5  -8   2    0.74    0.61
  -5   8  -2    1.11    0.99
   5  -8   3    1.14    0.59
  -5   8  -3    0.67    0.97
  -5   8  -4    1.63    1.12
  -5   8  -5    0.60    0.94
  -5   8  -6    1.26    1.07
  -5   8  -7   -0.42    0.94
  -5   8  -8    0.30    1.01
  -5   8  -9    0.61    0.99
  -5   8 -10    0.60    1.13
   5  -7  -8    1.64    1.14
   5  -7  -7    1.70    1.48
   5  -7  -6    0.88    1.00
   5  -7  -5    1.53    1.11
   5  -7  -4   13.43    2.87
   5  -7  -3    2.71    1.33
   5  -7  -2    0.98    0.54
   5  -7  -1    0.07    0.67
  -5   7   1    1.17    1.22
   5  -7   0    0.82    0.72
  -5   7   0    0.94    0.89
   5  -7   1    0.76    1.13
  -5   7  -1   -0.65    0.82
   5  -7   2   -0.15    0.50
  -5   7  -2    1.56    1.32
   5  -7   3    1.69    1.07
  -5   7  -3    1.58    1.31
  -5   7  -4    3.65    1.54
  -5   7  -5    0.08    0.79
  -5   7  -6    1.77    1.36
  -5   7  -7    1.53    1.51
  -5   7  -8   -0.34    0.95
  -5   7  -9    1.65    1.17
  -5   7 -10    1.03    1.11
   5  -7  11    0.54    0.89
   5  -6  -9    0.21    0.70
   5  -6  -8    0.76    0.86
   5  -6  -7   -0.03    0.68
   5  -6  -6    0.61    0.97
   5  -6  -5    0.19    0.90
   5  -6  -4    2.70    1.51
   5  -6  -3    0.82    0.88
   5  -6  -2   -0.70    0.77
   5  -6  -1    0.13    0.35
  -5   6   1    0.99    0.88
   5  -6   0   -0.20    0.83
  -5   6   0   -0.53    0.73
   5  -6   1    0.93    1.00
  -5   6  -1    1.45    1.24
   5  -6   2    0.84    0.50
  -5   6  -2    0.93    0.94
   5  -6   3    0.96    0.71
  -5   6  -3    2.64    1.42
  -5   6  -4    0.55    0.95
  -5   6  -5    4.49    1.67
  -5   6  -6    0.60    0.92
  -5   6  -7    0.92    1.01
  -5   6  -8    1.35    1.23
   5  -6   9    0.40    0.81
   5  -6  10    0.56    0.84
   5  -6  11    1.61    1.28
   5  -5  -7   -0.03    0.68
   5  -5  -6   -0.09    0.76
   5  -5  -5   -0.46    0.72
   5  -5  -4    3.10    1.40
   5  -5  -3    0.47    0.82
   5  -5  -2    3.25    1.02
   5  -5  -1    1.64    1.58
  -5   5   1    3.72    1.44
   5  -5   0    1.51    0.78
  -5   5   0   -0.09    0.65
   5  -5   1    0.56    0.42
  -5   5  -1    0.44    0.80
   5  -5   2    0.67    0.45
  -5   5  -2    0.01    0.74
  -5   5  -3    1.10    0.98
  -5   5  -4    1.92    1.44
  -5   5  -5   14.88    2.31
  -5   5  -6    0.18    0.82
  -5   5  -7   -0.17    0.85
   5  -5   8    3.31    1.74
   5  -5   9    0.60    0.83
   5  -5  10   -0.10    0.75
   5  -5  11   -0.43    0.73
  -5   4  10    2.40    1.74
  -5   4   9    1.35    1.14
  -5   4   8    1.87    1.21
  -5   4   7    1.02    1.17
   5  -4  -5    0.61    0.71
   5  -4  -4    1.51    0.91
   5  -4  -3    3.64    1.38
   5  -4  -2   -0.43    0.82
   5  -4  -1    1.51    1.15
  -5   4   1    0.29    0.70
   5  -4   0    1.90    1.04
  -5   4   0    1.70    0.86
   5  -4   1    1.10    0.54
  -5   4  -1    2.27    1.20
   5  -4   2    0.76    0.55
  -5   4  -2    2.71    1.01
  -5   4  -3    0.38    0.81
  -5   4  -4    1.21    0.98
  -5   4  -5    1.95    1.37
   5  -4   7    0.18    0.70
   5  -4   8    0.13    0.75
   5  -4   9    0.06    0.74
   5  -4  10    0.36    0.67
   5  -4  11   -0.77    0.93
  -5   3  10    0.36    1.06
  -5   3   9    0.32    1.07
  -5   3   8    1.90    1.61
  -5   3   7    1.52    1.50
  -5   3   6    1.27    0.94
  -5   3   5    0.79    1.00
   5  -3  -3    0.34    0.77
   5  -3  -2    1.28    1.22
   5  -3  -1    4.27    1.42
  -5   3   1    0.81    0.92
   5  -3   0    0.59    0.59
  -5   3   0   -0.17    0.69
   5  -3   1    0.63    0.56
  -5   3  -1    0.25    0.72
  -5   3  -2    0.75    0.82
  -5   3  -3    1.20    0.90
   5  -3   5    0.41    0.73
   5  -3   6    0.17    0.72
   5  -3   7    1.12    0.84
   5  -3   8    0.65    0.50
   5  -3   9    1.78    1.07
   5  -3  10    2.67    1.85
   5  -3  11   -0.23    1.02
  -5   2  11    2.15    1.84
  -5   2  10    6.02    2.33
  -5   2   9    1.32    1.16
  -5   2   8    1.83    1.53
  -5   2   7    1.28    1.00
  -5   2   6   -0.05    0.84
  -5   2   5    0.79    1.26
  -5   2   4    0.74    0.86
   5  -2  -2    0.94    0.93
   5  -2  -1    0.30    0.59
  -5   2   1    0.52    0.62
   5  -2   0    0.52    0.69
  -5   2   0    1.17    0.80
   5  -2   1    0.35    0.62
   5  -2   2    0.48    0.66
   5  -2   3    8.36    2.04
   5  -2   4    5.21    1.71
   5  -2   5   -0.15    0.72
   5  -2   6    0.75    0.57
   5  -2   7    0.18    0.33
   5  -2   8   -0.50    0.91
   5  -2   9    0.65    0.75
   5  -2  10    1.09    0.70
   5  -2  11    0.11    0.78
  -5   1  11    0.37    1.16
  -5   1  10    1.88    1.19
  -5   1   9    1.88    1.55
  -5   1   8    0.91    1.02
  -5   1   7    0.86    0.97
  -5   1   6   -0.03    0.88
  -5   1   5    0.51    0.82
  -5   1   4    4.30    1.53
  -5   1   3   -0.49    0.68
   5  -1  -1    0.89    0.61
   5  -1  -1    0.58    0.64
   5  -1   0    0.57    0.66
   5  -1   0    1.26    0.98
   5  -1   1    0.29    0.67
  -5   1  -2   -0.03    0.56
   5  -1   2    0.40    0.63
   5  -1   3    1.39    0.67
   5  -1   4    1.84    0.80
   5  -1   5   -0.01    0.78
   5  -1   6   -0.22    0.72
   5  -1   7    0.34    0.49
   5  -1   8    0.80    1.17
   5  -1   9    0.40    0.50
   5  -1  10    0.89    0.84
   5  -1  11    1.85    1.40
  -5   0  11    0.99    1.25
  -5   0  10    1.53    1.27
  -5   0   9    5.93    2.27
  -5   0   8    0.01    0.95
  -5   0   7    0.87    1.02
  -5   0   6    0.71    0.88
   5   0  -5    1.86    0.94
  -5   0   5    3.74    1.39
   5   0  -4   -0.09    0.66
  -5   0   4    0.57    0.82
   5   0  -3    2.17    0.85
  -5   0   3    6.08    1.66
   5   0  -2    1.38    0.78
  -5   0   2    3.39    1.29
   5   0  -1    0.59    0.49
   5   0   0    1.40    0.96
   5   0   0    0.58    0.52
  -5   0  -1    2.55    1.14
   5   0   1    1.06    0.57
  -5   0  -2    0.98    1.04
   5   0   2    0.88    0.55
  -5   0  -3    5.05    1.42
   5   0   3    2.56    0.99
  -5   0  -4    4.52    1.52
   5   0   4    2.74    1.63
  -5   0  -5    3.91    1.32
   5   0   5    2.54    0.95
   5   0   6    0.20    0.48
   5   0   7    2.68    1.07
   5   0   8    0.52    1.04
   5   0   9   -0.09    0.91
   5   0  10    0.31    0.59
  -5  -1  11   -0.60    1.07
  -5  -1  10    0.46    1.01
  -5  -1   9    0.61    0.93
  -5  -1   8    1.08    1.03
   5   1  -7    1.55    0.99
  -5  -1   7    3.36    1.49
   5   1  -6   -0.18    0.67
  -5  -1   6    1.48    1.13
   5   1  -5   -0.07    0.66
  -5  -1   5    2.39    1.30
   5   1  -4    2.63    0.77
  -5  -1   4    9.74    1.91
   5   1  -3    4.60    1.15
  -5  -1   3    3.24    1.19
   5   1  -2    0.46    0.44
  -5  -1   2    1.37    0.82
   5   1  -1    0.29    0.29
  -5  -1   1    0.24    0.58
  -5  -1  -1    0.17    0.65
   5   1   1    0.54    0.53
  -5  -1  -2    1.48    0.85
   5   1   2    1.53    0.68
  -5  -1  -3    2.82    1.04
   5   1   3    2.68    1.46
  -5  -1  -4   -0.04    0.74
   5   1   4    2.06    1.07
  -5  -1  -5    2.18    1.17
   5   1   5    0.59    0.75
  -5  -1  -6    1.01    0.83
   5   1   6    0.45    0.64
   5   1   7    0.94    0.80
   5   1   8    1.31    0.88
   5   1   9    0.14    0.67
   5   1  10    0.28    0.58
  -5  -2  12    1.46    1.27
  -5  -2  11   -0.06    1.09
  -5  -2  10    2.25    1.23
  -5  -2   9    0.51    0.90
   5   2  -8    3.33    1.54
  -5  -2   8    0.69    0.98
   5   2  -7   -0.56    0.70
  -5  -2   7   -0.27    0.87
   5   2  -6    1.03    1.02
  -5  -2   6    1.14    0.93
   5   2  -5    1.11    0.60
  -5  -2   5    1.54    1.10
   5   2  -4    3.08    1.16
  -5  -2   4    5.28    1.64
   5   2  -3    3.75    1.46
  -5  -2   3    3.63    1.33
   5   2  -2    0.11    0.45
   5   2  -1    0.16    0.36
  -5  -2   0    1.61    1.07
  -5  -2  -1    0.67    0.79
   5   2   1    0.98    0.47
  -5  -2  -2    1.99    1.20
   5   2   2    1.44    0.71
  -5  -2  -3    0.58    0.83
   5   2   3    1.51    0.77
  -5  -2  -4    1.55    1.21
   5   2   4    0.93    0.58
  -5  -2  -5    0.99    0.86
   5   2   5    0.84    0.90
  -5  -2  -6    2.98    1.42
   5   2   6    0.75    1.06
  -5  -2  -7    0.28    0.87
   5   2   7    0.76    0.55
   5   2   8    2.83    2.13
   5   2   9    1.24    0.92
  -5  -3  11    1.61    1.90
   5   3 -10    1.28    0.56
  -5  -3  10    2.81    1.77
   5   3  -9    1.26    1.19
  -5  -3   9    1.63    0.99
  -5  -3   8    0.63    0.91
   5   3  -7    0.31    0.76
  -5  -3   7    0.88    0.88
   5   3  -6    1.86    0.88
  -5  -3   6    0.55    0.79
   5   3  -5    0.94    0.89
  -5  -3   5    1.62    1.13
   5   3  -4    0.12    0.75
  -5  -3   4    1.01    0.83
   5   3  -3    3.59    0.89
   5   3  -2    1.21    1.02
  -5  -3   0    2.93    1.21
  -5  -3  -1    3.32    1.33
  -5  -3  -2    0.39    0.82
   5   3   2    1.33    0.73
  -5  -3  -3    0.79    0.89
   5   3   3    1.32    0.50
  -5  -3  -4   -0.19    0.77
   5   3   4    1.20    0.37
  -5  -3  -5    0.61    0.84
   5   3   5    0.48    0.56
  -5  -3  -6    1.77    1.04
   5   3   6    1.33    0.38
  -5  -3  -7    2.35    1.19
   5   3   7    2.67    1.28
   5   3   8    0.75    0.52
  -5  -4  11    1.33    1.21
   5   4 -10    1.83    0.59
  -5  -4  10    1.60    1.49
   5   4  -9    0.01    0.84
  -5  -4   9    1.04    0.95
   5   4  -8   -0.02    0.80
  -5  -4   8    2.37    1.35
   5   4  -7    1.79    0.78
  -5  -4   7    2.67    1.50
   5   4  -6    1.17    0.73
  -5  -4   6    1.82    1.16
   5   4  -5    0.65    0.71
  -5  -4   5    0.96    0.86
   5   4  -4    2.32    0.91
   5   4  -3    1.35    1.06
   5   4  -2    0.62    0.66
  -5  -4   1    1.39    0.99
  -5  -4   0    1.32    0.97
  -5  -4  -1    0.22    0.89
  -5  -4  -2    0.43    0.84
  -5  -4  -3    1.56    1.24
   5   4   3   -0.09    0.77
  -5  -4  -4    0.06    0.79
   5   4   4    0.80    0.56
  -5  -4  -5    1.51    1.00
   5   4   5    0.77    0.55
  -5  -4  -6    0.41    0.82
   5   4   6    0.96    0.57
  -5  -4  -7    2.70    1.50
   5   4   7   -0.16    0.96
   5   5 -10    0.74    0.65
   5   5  -9    1.39    1.04
  -5  -5   9    2.21    1.46
   5   5  -8    0.23    0.64
  -5  -5   8    0.52    0.89
   5   5  -7    1.30    0.91
  -5  -5   7    0.47    0.85
   5   5  -6    0.54    0.64
   5   5  -5   -0.08    0.79
   5   5  -4    0.89    0.64
   5   5  -3    1.63    0.82
   5   5  -2   -0.12    0.73
  -5  -5   1    0.02    0.80
  -5  -5   0    0.21    0.84
  -5  -5  -1    1.42    0.99
  -5  -5  -2    4.56    1.57
  -5  -5  -3    1.26    0.95
  -5  -5  -4    1.05    1.26
  -5  -5  -5    1.20    0.98
   5   5   5    0.29    0.62
  -5  -5  -6    0.63    0.92
  -5  -5  -7    2.91    1.60
   5   6 -10   28.47    4.99
   5   6  -9    0.23    1.64
   5   6  -8    1.14    0.77
   5   6  -7    0.34    1.54
   5   6  -6    0.97    0.53
   5   6  -5    0.40    0.59
   5   6  -4    1.90    1.73
   5   6  -3   -0.27    0.76
   5   6  -2    1.23    0.75
  -5  -6   1    0.24    0.74
  -5  -6   0    0.42    0.83
  -5  -6  -1    1.88    1.07
  -5  -6  -2    0.93    1.29
  -5  -6  -3    1.46    1.26
  -5  -6  -4    2.26    1.35
  -5  -6  -5    0.06    0.83
  -5  -6  -6    2.26    1.52
   5   7 -10    2.44    1.38
   5   7  -9    1.64    1.02
   5   7  -8    1.46    0.75
   5   7  -7   -0.18    0.84
   5   7  -6    0.53    0.75
   5   7  -5    0.49    1.00
   5   7  -4    2.12    0.87
   5   7  -3    0.52    0.64
  -5  -7   1    1.06    0.98
  -5  -7   0    0.91    1.00
  -5  -7  -1    1.72    1.44
  -5  -7  -2    1.67    1.43
  -5  -7  -3    0.84    1.00
  -5  -7  -4    0.47    0.97
  -5  -7  -5    1.78    1.22
   5   8  -9    0.99    0.73
   5   8  -8   -0.36    0.93
   5   8  -7    1.82    1.07
   5   8  -6    3.04    1.38
   5   8  -5    1.65    1.41
   5   8  -4    0.30    0.52
   5   8  -3    0.72    0.77
  -5  -8   1    4.12    1.74
  -5  -8   0    3.16    1.66
  -5  -8  -1    1.20    1.14
  -5  -8  -2    1.40    1.12
  -5  -8  -3    4.28    2.07
  -5  -8  -4    1.44    1.25
  -5  -8  -5    0.94    1.14
   5   9  -9    0.00    0.86
   5   9  -8    2.65    1.39
   5   9  -7    0.55    0.51
   5   9  -6    1.32    0.87
   5   9  -5    0.80    0.72
   5   9  -4    0.69    0.50
   5   9  -3    0.75    1.13
  -5  -9   1    0.13    0.88
  -5  -9   0    0.55    1.06
  -5  -9  -1    0.27    0.98
  -5  -9  -2    0.55    1.06
  -5  -9  -3    0.86    1.23
   5  10  -8    0.66    0.67
   5  10  -7    0.84    0.83
   5  10  -6    0.75    0.67
   5  10  -5    0.57    0.47
   5  10  -4   -0.23    0.62
   5  10  -3    0.95    0.68
  -5 -10   1    1.03    1.09
  -5 -10   0    0.27    1.03
  -5 -10  -1    3.46    1.84
   5  11  -4    0.75    0.39
   5  11  -3    2.24    0.81
   0   0   0    0.00    0.00
;
_shelx_hkl_checksum              50927
loop_
_space_group_symop_operation_xyz
'x, y, z'
'-x, -y, -z'
loop_
_atom_site_label
_atom_site_type_symbol
_atom_site_fract_x
_atom_site_fract_y
_atom_site_fract_z
_atom_site_U_iso_or_equiv
_atom_site_adp_type
_atom_site_occupancy
_atom_site_site_symmetry_order
_atom_site_calc_flag
_atom_site_refinement_flags_posn
_atom_site_refinement_flags_adp
C001 C 0.3753(10) -0.0749(3) 0.1994(3) 0.0359(8) Uani 1 1 d . .
C002 C 0.8729(10) 0.3427(3) 0.3690(3) 0.0378(9) Uani 1 1 d . .
C004 C 1.1377(10) 0.3025(3) 0.2058(3) 0.0401(9) Uani 1 1 d . .
H004 H 1.2351 0.2538 0.1516 0.048 Uiso 1 1 calc R U
C006 C 0.3715(10) -0.1810(3) 0.2032(3) 0.0358(8) Uani 1 1 d . .
H006 H 0.2733 -0.2345 0.1497 0.043 Uiso 1 1 calc R U
C008 C 0.5167(10) -0.2051(3) 0.2880(3) 0.0394(9) Uani 1 1 d . .
C010 C 1.1128(10) 0.4073(3) 0.2021(3) 0.0346(8) Uani 1 1 d . .
C011 C 1.2469(11) 0.4466(3) 0.1154(3) 0.0403(9) Uani 1 1 d . .
C012 C 0.9657(10) 0.4798(3) 0.2843(3) 0.0391(9) Uani 1 1 d . .
H012 H 0.9498 0.5503 0.2831 0.047 Uiso 1 1 calc R U
C013 C 0.8434(10) 0.4471(3) 0.3673(3) 0.0412(9) Uani 1 1 d . .
H013 H 0.7426 0.4950 0.4214 0.049 Uiso 1 1 calc R U
C014 C 0.2173(11) -0.0462(3) 0.1108(3) 0.0400(9) Uani 1 1 d . .
C015 C 0.6598(11) -0.1248(3) 0.3691(3) 0.0447(10) Uani 1 1 d . .
H015 H 0.7538 -0.1415 0.4261 0.054 Uiso 1 1 calc R U
C017 C 1.0194(11) 0.2700(3) 0.2890(3) 0.0424(9) Uani 1 1 d . .
H017 H 1.0381 0.1999 0.2913 0.051 Uiso 1 1 calc R U
C018 C 0.6611(11) -0.0207(3) 0.3644(3) 0.0457(10) Uani 1 1 d . .
H018 H 0.7580 0.0327 0.4181 0.055 Uiso 1 1 calc R U
C019 C 0.5191(11) 0.0047(3) 0.2800(3) 0.0441(10) Uani 1 1 d . .
H019 H 0.5200 0.0751 0.2774 0.053 Uiso 1 1 calc R U
N1 N 1.2824(11) 0.3756(3) 0.0252(3) 0.0569(11) Uani 1 1 d . .
H1A H 1.3627 0.3955 -0.0260 0.068 Uiso 1 1 calc R U
H1B H 1.2248 0.3099 0.0184 0.068 Uiso 1 1 calc R U
O1 O 0.0819(10) -0.1217(2) 0.0368(2) 0.0565(9) Uani 1 1 d . .
H1 H -0.0081 -0.0960 -0.0056 0.085 Uiso 1 1 calc R U
O2 O 0.2220(10) 0.0489(2) 0.1079(3) 0.0605(10) Uani 1 1 d . .
O3 O 0.5263(10) -0.3057(2) 0.2978(2) 0.0591(9) Uani 1 1 d . .
H3 H 0.4536 -0.3476 0.2447 0.089 Uiso 1 1 calc R U
O4 O 1.3289(9) 0.5420(2) 0.1267(2) 0.0537(9) Uani 1 1 d . .
Cl1 Cl 0.7251(3) 0.30237(10) 0.47432(9) 0.0568(4) Uani 1 1 d . .
loop_
_atom_site_aniso_label
_atom_site_aniso_U_11
_atom_site_aniso_U_22
_atom_site_aniso_U_33
_atom_site_aniso_U_23
_atom_site_aniso_U_13
_atom_site_aniso_U_12
C001 0.043(2) 0.0326(19) 0.0338(19) 0.0104(15) 0.0044(16) 0.0050(15)
C002 0.042(2) 0.041(2) 0.033(2) 0.0147(16) -0.0026(16) -0.0058(16)
C004 0.052(2) 0.0301(19) 0.035(2) 0.0048(15) 0.0002(17) -0.0015(17)
C006 0.047(2) 0.0279(18) 0.0313(19) 0.0063(14) -0.0023(16) 0.0017(15)
C008 0.048(2) 0.037(2) 0.035(2) 0.0120(16) 0.0017(17) 0.0029(17)
C010 0.0414(19) 0.0326(19) 0.0288(18) 0.0073(15) -0.0031(15) -0.0019(15)
C011 0.052(2) 0.037(2) 0.034(2) 0.0125(16) -0.0020(17) -0.0019(17)
C012 0.051(2) 0.0290(18) 0.036(2) 0.0066(15) -0.0012(17) 0.0064(16)
C013 0.050(2) 0.037(2) 0.034(2) 0.0055(16) 0.0025(17) 0.0051(17)
C014 0.056(2) 0.0284(19) 0.036(2) 0.0100(16) 0.0032(18) 0.0025(17)
C015 0.052(2) 0.046(2) 0.037(2) 0.0130(18) -0.0021(18) 0.0041(19)
C017 0.052(2) 0.034(2) 0.042(2) 0.0120(17) -0.0007(18) -0.0013(17)
C018 0.050(2) 0.042(2) 0.042(2) 0.0039(18) -0.0063(19) -0.0010(18)
C019 0.055(2) 0.030(2) 0.046(2) 0.0079(17) 0.0008(19) -0.0012(17)
N1 0.100(3) 0.040(2) 0.0301(18) 0.0090(15) 0.0114(19) -0.009(2)
O1 0.098(3) 0.0342(16) 0.0372(17) 0.0115(13) -0.0156(17) -0.0058(16)
O2 0.103(3) 0.0287(15) 0.0508(19) 0.0131(13) -0.0182(18) -0.0017(16)
O3 0.100(3) 0.0376(17) 0.0437(18) 0.0176(14) -0.0127(18) 0.0040(17)
O4 0.090(2) 0.0351(16) 0.0378(16) 0.0142(12) 0.0058(16) -0.0034(15)
Cl1 0.0721(8) 0.0614(8) 0.0433(7) 0.0263(5) 0.0083(5) -0.0059(6)
loop_
_atom_type_symbol
_atom_type_description
_atom_type_scat_dispersion_real
_atom_type_scat_dispersion_imag
_atom_type_scat_source
C C 0.0033 0.0016 'International Tables Vol C Tables 4.2.6.8 and 6.1.1.4'
H H 0.0000 0.0000 'International Tables Vol C Tables 4.2.6.8 and 6.1.1.4'
N N 0.0061 0.0033 'International Tables Vol C Tables 4.2.6.8 and 6.1.1.4'
O O 0.0106 0.0060 'International Tables Vol C Tables 4.2.6.8 and 6.1.1.4'
Cl Cl 0.1484 0.1585 'International Tables Vol C Tables 4.2.6.8 and 6.1.1.4'
loop_
_geom_angle_atom_site_label_1
_geom_angle_atom_site_label_2
_geom_angle_atom_site_label_3
_geom_angle
C019 C001 C006 120.3(4)
C019 C001 C014 119.3(4)
C006 C001 C014 120.3(3)
C013 C002 C017 121.3(4)
C013 C002 Cl1 119.2(3)
C017 C002 Cl1 119.5(3)
C017 C004 C010 120.7(4)
C017 C004 H004 119.6
C010 C004 H004 119.6
C008 C006 C001 118.9(4)
C008 C006 H006 120.5
C001 C006 H006 120.5
O3 C008 C006 122.9(4)
O3 C008 C015 116.4(4)
C006 C008 C015 120.7(4)
C004 C010 C012 119.0(4)
C004 C010 C011 122.5(4)
C012 C010 C011 118.4(4)
O4 C011 N1 120.9(4)
O4 C011 C010 121.4(4)
N1 C011 C010 117.7(4)
C013 C012 C010 120.3(4)
C013 C012 H012 119.9
C010 C012 H012 119.9
C002 C013 C012 119.3(4)
C002 C013 H013 120.3
C012 C013 H013 120.3
O2 C014 O1 121.6(4)
O2 C014 C001 120.0(4)
O1 C014 C001 118.3(3)
C018 C015 C008 119.7(4)
C018 C015 H015 120.2
C008 C015 H015 120.2
C004 C017 C002 119.3(4)
C004 C017 H017 120.4
C002 C017 H017 120.4
C015 C018 C019 120.5(4)
C015 C018 H018 119.8
C019 C018 H018 119.8
C018 C019 C001 119.9(4)
C018 C019 H019 120.0
C001 C019 H019 120.0
C011 N1 H1A 120.0
C011 N1 H1B 120.0
H1A N1 H1B 120.0
C014 O1 H1 109.5
C008 O3 H3 109.5
loop_
_geom_bond_atom_site_label_1
_geom_bond_atom_site_label_2
_geom_bond_distance
C001 C019 1.390(6)
C001 C006 1.401(6)
C001 C014 1.482(6)
C002 C013 1.380(6)
C002 C017 1.383(6)
C002 Cl1 1.741(5)
C004 C017 1.382(6)
C004 C010 1.392(6)
C004 H004 0.9300
C006 C008 1.388(6)
C006 H006 0.9300
C008 O3 1.360(5)
C008 C015 1.397(6)
C010 C012 1.400(6)
C010 C011 1.491(6)
C011 O4 1.245(5)
C011 N1 1.335(6)
C012 C013 1.386(6)
C012 H012 0.9300
C013 H013 0.9300
C014 O2 1.254(5)
C014 O1 1.297(5)
C015 C018 1.380(6)
C015 H015 0.9300
C017 H017 0.9300
C018 C019 1.386(6)
C018 H018 0.9300
C019 H019 0.9300
N1 H1A 0.8600
N1 H1B 0.8600
O1 H1 0.8200
O3 H3 0.8200
loop_
_geom_hbond_atom_site_label_D
_geom_hbond_atom_site_label_H
_geom_hbond_atom_site_label_A
_geom_hbond_distance_DH
_geom_hbond_distance_HA
_geom_hbond_distance_DA
_geom_hbond_angle_DHA
_geom_hbond_site_symmetry_A
N1 H1A O4 0.86 2.13 2.966(6) 165.3 2_865
N1 H1B O1 0.86 2.61 3.449(7) 163.8 2_655
O1 H1 O2 0.82 1.86 2.678(6) 175.4 2
O3 H3 O4 0.82 1.89 2.706(6) 171.9 1_445
N1 H1A O4 0.86 2.13 2.966(6) 165.3 2_865
N1 H1B O1 0.86 2.61 3.449(7) 163.8 2_655
O1 H1 O2 0.82 1.86 2.678(6) 175.4 2
O3 H3 O4 0.82 1.89 2.706(6) 171.9 1_445
loop_
_geom_torsion_atom_site_label_1
_geom_torsion_atom_site_label_2
_geom_torsion_atom_site_label_3
_geom_torsion_atom_site_label_4
_geom_torsion
C019 C001 C006 C008 -0.7(6)
C014 C001 C006 C008 -179.0(4)
C001 C006 C008 O3 -179.6(4)
C001 C006 C008 C015 1.0(6)
C017 C004 C010 C012 0.0(6)
C017 C004 C010 C011 178.0(4)
C004 C010 C011 O4 -155.5(4)
C012 C010 C011 O4 22.5(6)
C004 C010 C011 N1 23.3(6)
C012 C010 C011 N1 -158.7(4)
C004 C010 C012 C013 -0.7(6)
C011 C010 C012 C013 -178.8(4)
C017 C002 C013 C012 -0.5(6)
Cl1 C002 C013 C012 179.0(3)
C010 C012 C013 C002 1.0(6)
C019 C001 C014 O2 1.8(6)
C006 C001 C014 O2 -179.9(4)
C019 C001 C014 O1 -179.4(4)
C006 C001 C014 O1 -1.1(6)
O3 C008 C015 C018 179.7(4)
C006 C008 C015 C018 -0.9(7)
C010 C004 C017 C002 0.4(6)
C013 C002 C017 C004 -0.2(6)
Cl1 C002 C017 C004 -179.7(3)
C008 C015 C018 C019 0.5(7)
C015 C018 C019 C001 -0.3(7)
C006 C001 C019 C018 0.4(6)
C014 C001 C019 C018 178.6(4)
