#------------------------------------------------------------------------------
#$Date: 2019-11-26 03:58:36 +0200 (Tue, 26 Nov 2019) $
#$Revision: 242558 $
#$URL: file:///home/coder/svn-repositories/cod/cif/4/13/26/4132611.cif $
#------------------------------------------------------------------------------
#
# This file is available in the Crystallography Open Database (COD),
# http://www.crystallography.net/
#
# All data on this site have been placed in the public domain by the
# contributors.
#
data_4132611
loop_
_publ_author_name
'Yang, Chen'
'Zhang, Chong'
'Zheng, Zhansheng'
'Jiang, Chao'
'Luo, Jun'
'Du, Yang'
'Hu, Bingcheng'
'Sun, Chengguo'
'Christe, Karl O.'
_publ_section_title
;
 Synthesis and Characterization of cyclo-Pentazolate Salts of
 NH<sub>4</sub><sup>+</sup>, NH<sub>3</sub>OH<sup>+</sup>,
 N<sub>2</sub>H<sub>5</sub><sup>+</sup>,
 C(NH<sub>2</sub>)<sub>3</sub><sup>+</sup>, and
 N(CH<sub>3</sub>)<sub>4</sub><sup/>.
;
_journal_issue                   48
_journal_name_full               'Journal of the American Chemical Society'
_journal_page_first              16488
_journal_page_last               16494
_journal_paper_doi               10.1021/jacs.8b05106
_journal_volume                  140
_journal_year                    2018
_chemical_formula_moiety         'C6 H6 Ag2 N4'
_chemical_formula_sum            'C6 H6 Ag2 N4'
_chemical_formula_weight         349.89
_space_group_crystal_system      orthorhombic
_space_group_IT_number           19
_space_group_name_Hall           'P 2ac 2ab'
_space_group_name_H-M_alt        'P 21 21 21'
_atom_sites_solution_hydrogens   geom
_audit_creation_date             2017-07-26
_audit_creation_method
;
Olex2 1.2-beta
(compiled 2017.07.20 svn.r3457 for OlexSys, GUI svn.r5370)
;
_cell_angle_alpha                90
_cell_angle_beta                 90
_cell_angle_gamma                90
_cell_formula_units_Z            4
_cell_length_a                   22.291(11)
_cell_length_b                   5.553(3)
_cell_length_c                   6.631(3)
_cell_measurement_reflns_used    3127
_cell_measurement_temperature    296(2)
_cell_measurement_theta_max      25.33
_cell_measurement_theta_min      3.20
_cell_volume                     820.8(7)
_computing_molecular_graphics    'Olex2 (Dolomanov et al., 2009)'
_computing_publication_material  'Olex2 (Dolomanov et al., 2009)'
_computing_structure_refinement  'ShelXL (Sheldrick, 2015)'
_computing_structure_solution    'SHELXT 2014/5 (Sheldrick, 2014)'
_diffrn_ambient_temperature      296.15
_diffrn_measured_fraction_theta_full 0.981
_diffrn_measured_fraction_theta_max 0.980
_diffrn_measurement_device_type  'Bruker APEX-II CCD'
_diffrn_measurement_method       '\f and \w scans'
_diffrn_radiation_type           MoK\a
_diffrn_radiation_wavelength     0.71073
_diffrn_reflns_av_R_equivalents  0.0730
_diffrn_reflns_av_unetI/netI     0.0721
_diffrn_reflns_Laue_measured_fraction_full 0.981
_diffrn_reflns_Laue_measured_fraction_max 0.980
_diffrn_reflns_limit_h_max       25
_diffrn_reflns_limit_h_min       -26
_diffrn_reflns_limit_k_max       6
_diffrn_reflns_limit_k_min       -6
_diffrn_reflns_limit_l_max       7
_diffrn_reflns_limit_l_min       -7
_diffrn_reflns_number            4416
_diffrn_reflns_point_group_measured_fraction_full 0.985
_diffrn_reflns_point_group_measured_fraction_max 0.984
_diffrn_reflns_theta_full        25.242
_diffrn_reflns_theta_max         25.346
_diffrn_reflns_theta_min         3.205
_exptl_absorpt_coefficient_mu    4.713
_exptl_absorpt_correction_T_max  0.7455
_exptl_absorpt_correction_T_min  0.4268
_exptl_absorpt_correction_type   multi-scan
_exptl_absorpt_process_details   SADABS
_exptl_crystal_colour            colourless
_exptl_crystal_colour_primary    colourless
_exptl_crystal_density_diffrn    2.832
_exptl_crystal_description       block
_exptl_crystal_F_000             656
_exptl_crystal_size_max          0.25
_exptl_crystal_size_mid          0.19
_exptl_crystal_size_min          0.16
_refine_diff_density_max         2.665
_refine_diff_density_min         -1.872
_refine_diff_density_rms         0.375
_refine_ls_abs_structure_details
;
 Refined as an inversion twin.
;
_refine_ls_abs_structure_Flack   0.3(5)
_refine_ls_extinction_method     none
_refine_ls_goodness_of_fit_ref   1.186
_refine_ls_hydrogen_treatment    constr
_refine_ls_matrix_type           full
_refine_ls_number_parameters     110
_refine_ls_number_reflns         1452
_refine_ls_number_restraints     150
_refine_ls_restrained_S_all      1.129
_refine_ls_R_factor_all          0.1137
_refine_ls_R_factor_gt           0.0903
_refine_ls_shift/su_max          0.000
_refine_ls_shift/su_mean         0.000
_refine_ls_structure_factor_coef Fsqd
_refine_ls_weighting_details
'w=1/[\s^2^(Fo^2^)+(0.0001P)^2^+67.9616P] where P=(Fo^2^+2Fc^2^)/3'
_refine_ls_weighting_scheme      calc
_refine_ls_wR_factor_gt          0.2028
_refine_ls_wR_factor_ref         0.2186
_reflns_Friedel_coverage         0.650
_reflns_Friedel_fraction_full    0.991
_reflns_Friedel_fraction_max     0.990
_reflns_number_gt                1189
_reflns_number_total             1452
_reflns_threshold_expression     'I > 2\s(I)'
_cod_data_source_file            (C3H3N2)Ag(C3H3N2)Ag.cif
_cod_data_source_block           11_a
_cod_original_cell_volume        820.7(7)
_cod_database_code               4132611
_shelx_shelxl_version_number     2016/6
_shelx_space_group_comment
;
The symmetry employed for this shelxl refinement is uniquely defined
by the following loop, which should always be used as a source of
symmetry information in preference to the above space-group names.
They are only intended as comments.
;
_shelx_estimated_absorpt_t_max   0.519
_shelx_estimated_absorpt_t_min   0.385
_olex2_refinement_description
;
1. Twinned data refinement
 Scales: 0.7(5)
 0.3(5)
2. Fixed Uiso
 At 1.2 times of:
  All C(H) groups
3. Uiso/Uaniso restraints and constraints
Uanis(N2) \\sim Ueq, Uanis(N1) \\sim Ueq, Uanis(N3) \\sim Ueq, Uanis(N4) \\sim
Ueq, Uanis(C2) \\sim Ueq, Uanis(C3) \\sim Ueq, Uanis(C5) \\sim Ueq, Uanis(C6)
\\sim Ueq, Uanis(C1) \\sim Ueq, Uanis(C4) \\sim Ueq: with sigma of 0.01 and
sigma for terminal atoms of 0.02
4. Rigid body (RIGU) restrains
 All non-hydrogen atoms
 with sigma for 1-2 distances of 0.004 and sigma for 1-3 distances of 0.004
5.a Aromatic/amide H refined with riding coordinates:
 C2(H2), C3(H3), C5(H5), C6(H6), C1(H1), C4(H4)
;
_shelx_res_file
;
TITL 11_a.res in P2(1)2(1)2(1)
    11_a.res
    created by SHELXL-2016/6 at 21:58:58 on 26-Jul-2017
CELL 0.71073 22.291 5.5528 6.6306 90 90 90
ZERR 4 0.0107 0.0027 0.0033 0 0 0
LATT -1
SYMM 0.5-X,-Y,0.5+Z
SYMM -X,0.5+Y,0.5-Z
SYMM 0.5+X,0.5-Y,-Z
SFAC C H Ag N
UNIT 24 24 8 16
RIGU
ISOR 0.01 0.02 $n $C

L.S. 10
PLAN  10
SIZE 0.25 0.19 0.16
TEMP 23
BOND $H
fmap 2
acta
TWIN -1 0 0 0 -1 0 0 0 -1 2
OMIT -2 2 2
OMIT 2 2 2
OMIT 2 0 4
OMIT -4 2 6
OMIT 2 2 0
OMIT 3 0 6
OMIT 1 0 6
REM <olex2.extras>
REM <HklSrc "%.\\11_a.hkl">
REM </olex2.extras>

WGHT    0.000100   67.961601
BASF   0.32922
FVAR       0.38892
AG1   3    0.377923    0.650694    0.431914    11.00000    0.03010    0.02997 =
         0.05031    0.00213   -0.00324    0.00175
AG2   3    0.115995    0.404640    0.402532    11.00000    0.03510    0.02789 =
         0.04733    0.00057    0.00342   -0.00366
N2    4    0.466426    0.570764    0.492507    11.00000    0.03037    0.02465 =
         0.02446   -0.00241    0.00123   -0.00120
N1    4    0.552069    0.362677    0.537636    11.00000    0.03242    0.02402 =
         0.03807   -0.00264   -0.00195   -0.00002
N3    4    0.289053    0.720107    0.373222    11.00000    0.03319    0.02612 =
         0.02545   -0.00342    0.00242    0.00376
N4    4    0.190655    0.627908    0.361606    11.00000    0.03599    0.03658 =
         0.04837    0.00295    0.00073   -0.00274
C2    1    0.513740    0.703227    0.415775    11.00000    0.03337    0.02880 =
         0.02806    0.00050   -0.00109   -0.00430
AFIX  43
H2    2    0.510557    0.856662    0.360572    11.00000   -1.20000
AFIX   0
C3    1    0.492809    0.363671    0.566039    11.00000    0.03328    0.02369 =
         0.03162   -0.00081    0.00321    0.00082
AFIX  43
H3    2    0.471758    0.239481    0.628065    11.00000   -1.20000
AFIX   0
C5    1    0.199042    0.850597    0.270356    11.00000    0.03296    0.02970 =
         0.02873   -0.00457   -0.00201    0.00106
AFIX  43
H5    2    0.169077    0.946486    0.214892    11.00000   -1.20000
AFIX   0
C6    1    0.245623    0.560756    0.421736    11.00000    0.03617    0.03223 =
         0.03428    0.00343    0.00101   -0.00065
AFIX  43
H6    2    0.253120    0.417852    0.490401    11.00000   -1.20000
AFIX   0
C1    1    0.565832    0.575436    0.433041    11.00000    0.03148    0.03331 =
         0.03803    0.00033   -0.00399   -0.00445
AFIX  43
H1    2    0.603328    0.620774    0.384663    11.00000   -1.20000
AFIX   0
C4    1    0.258543    0.904494    0.275951    11.00000    0.03450    0.02399 =
         0.01897   -0.00509    0.00026    0.00131
AFIX  43
H4    2    0.276004    1.042855    0.223032    11.00000   -1.20000
AFIX   0
HKLF 4




REM  11_a.res in P2(1)2(1)2(1)
REM R1 =  0.0903 for    1189 Fo > 4sig(Fo)  and  0.1137 for all    1452 data
REM    110 parameters refined using    150 restraints

END

WGHT      0.0001     67.9712

REM Highest difference peak  2.665,  deepest hole -1.872,  1-sigma level  0.375
Q1    1   0.1586  0.4040  0.3927  11.00000  0.05    2.67
Q2    1   0.1126  0.4127  0.5588  11.00000  0.05    2.48
Q3    1   0.0757  0.3929  0.3951  11.00000  0.05    2.41
Q4    1   0.3784  0.6538  0.5967  11.00000  0.05    2.39
Q5    1   0.1172  0.4119  0.2512  11.00000  0.05    2.33
Q6    1   0.3350  0.6411  0.4340  11.00000  0.05    2.33
Q7    1   0.3798  0.6464  0.2737  11.00000  0.05    2.22
Q8    1   0.4217  0.6251  0.4344  11.00000  0.05    2.11
Q9    1   0.3641  0.8478  0.5675  11.00000  0.05    1.37
Q10   1   0.4214  0.1328  0.6670  11.00000  0.05    1.24
;
_shelx_res_checksum              23169
_shelx_hkl_file
;
   0  -3   0   -0.30    4.10
   0  -4   0 4453.85  337.17
   0  -4   0 3927.01  334.67
   0  -4   0 4425.56  335.37
   0  -5   0    1.10    8.70
   0  -5   0   18.00   15.30
   0  -6   0   -0.10   21.10
   0  -6   0   34.40   12.50
   0   0   1    2.90    2.60
   0   0  -1    0.10    1.90
   0   0  -1    3.50    2.50
   0  -1   1 1058.79   88.99
   0   1  -1 1154.58   88.89
   0  -1  -1 1148.79   88.49
   0   2  -1   47.30   12.00
   0  -3   1  312.97   31.10
   0  -3  -1  351.86   28.90
   0  -4   1  550.74   48.60
   0  -4  -1  514.55   44.80
   0  -5  -1  350.36   36.40
   0  -5  -1  351.56   34.10
   0  -5   1  324.17   40.10
   0  -6  -1   40.20   16.60
   0  -6   1    8.90   26.40
   0  -6  -1    4.40   20.00
   0   0  -2 4838.22  429.96
   0   0  -2 5280.77  430.56
   0   0   2 6100.29  430.66
   0   0  -2 6160.48  430.66
   0   0   2 5129.79  430.06
   0  -1   2 5273.87  478.15
   0  -1  -2 6366.26  478.45
   0  -1  -2 5486.55  478.55
   0  -1  -2 6981.10  478.75
   0  -1   2 6682.43  478.65
   0   1  -2 5888.31  477.95
   0  -2  -2   45.70    9.30
   0  -3  -2 1467.15  126.89
   0  -3   2 1719.93  129.19
   0  -4   2  611.14   55.89
   0  -4  -2  616.44   54.19
   0  -5   2  326.97   41.40
   0  -5  -2  346.27   34.40
   0  -6  -2   10.50   19.30
   0  -6   2    6.20   28.20
   0   0   3   31.90    8.10
   0   0  -3   43.20    7.70
   0  -1  -3  134.29   13.50
   0  -1   3  133.69   13.40
   0  -1  -3  108.79   14.00
   0  -2  -3  552.44   45.30
   0  -2   3  468.65   44.50
   0  -2   3  584.64   45.80
   0  -3   3  177.18   27.50
   0  -3  -3  221.38   22.10
   0  -5  -3    6.60   10.60
   0  -5   3   18.80   18.50
   0  -6   3   -6.30   23.00
   0   0   4 1333.57   96.09
   0   0  -4 1094.19   96.99
   0   0  -4 1184.38   95.69
   0  -1  -4 1920.21  164.28
   0   1  -4 2041.50  163.48
   0  -1   4 2163.98  162.98
   0   1   4 2070.39  163.58
   0  -1  -4 1914.51  162.08
   0  -1   4 2249.68  163.98
   0  -2   4  134.79   17.50
   0  -2  -4  123.19   18.00
   0  -3  -4  770.92   67.99
   0  -3   4  869.11   67.79
   0  -3   4  720.33   67.29
   0  -5   4   64.99   26.60
   0  -5  -4   77.39   22.70
   0   0  -5   63.39   13.70
   0   0   5   99.39   17.80
   0   1   5  127.39   18.20
   0   1  -5   78.39   18.90
   0  -1  -5  138.09   18.70
   0  -1   5  126.89   18.70
   0  -1   5  118.89   19.70
   0  -2   5  284.27   33.50
   0  -2  -5  356.56   38.90
   0   2  -5  331.87   29.30
   0  -2   5  279.37   33.30
   0  -3   5  345.27   36.90
   0  -3   5  328.27   38.80
   0  -3  -5  352.16   37.60
   0  -4   5  102.09   30.90
   0  -4   5  120.39   28.40
   0  -5   5  168.48   39.80
   0  -5   5  147.39   39.00
   0   0   6 1078.89  101.49
   0   0  -6 1370.86  103.89
   0   1   6  248.58   29.30
   0  -1   6  220.88   30.80
   0  -1   6  245.28   27.60
   0  -3   6   80.79   24.60
   0  -3   6   78.09   26.00
   0  -4   6  202.48   45.50
   0  -4   6  259.97   37.90
   0  -4  -6  334.67   43.70
   0   0   7   88.49   28.70
   0   1  -7   33.30   13.60
   0  -1   7   36.50   23.30
   0  -1   7   66.59   25.60
   0   1   7   92.29   25.70
   0   2  -7  184.48   30.60
   0  -2   7  173.68   30.70
   0  -2   7  190.18   37.10
   0  -3   7  143.89   30.20
   0  -3   7  132.79   36.50
   1   1   0 3773.92  327.57
  -1  -1   0 3690.83  327.57
   1  -1   0 4463.45  327.67
  -1   1   0 4425.56  327.67
  -1  -1   0 4600.24  328.17
   1  -2   0 6699.03  481.55
  -1  -2   0 5509.65  480.35
  -1  -2   0 5725.83  480.35
  -1   2   0 6025.60  480.55
   1  -2   0 6248.17  480.55
  -1  -2   0 6662.23  481.65
   1  -3   0 1366.56  110.59
  -1  -3   0 1460.05  109.29
  -1  -3   0 1366.86  110.69
   1  -3   0 1389.06  109.19
  -1  -3   0 1313.87  108.99
   1  -4   0  139.59   21.10
   1  -5   0  200.18   29.10
  -1  -5   0  186.48   28.30
  -1  -5   0  198.88   21.00
  -1  -6   0   77.29   22.90
   1  -6   0   37.20   22.70
   1  -6   0   32.80   10.80
  -1   0  -1  100.59    9.30
  -1   0   1   88.99    9.40
  -1   0  -1  122.79    9.10
   1   0   1  117.49    9.20
  -1   0  -1   99.09    9.40
   1   0   1   99.29    9.50
   1   0  -1  114.39    9.60
  -1   0   1  108.09    9.50
   1   0   1  102.09    9.20
  -1   1   1  703.23   54.69
  -1  -1  -1  660.93   54.59
   1  -1  -1  681.73   54.59
  -1   1  -1  708.03   55.09
   1   1   1  681.33   54.69
  -1  -2  -1  399.36   34.30
   1   2  -1  428.66   35.60
   1  -2   1  346.47   35.10
  -1  -2   1  413.56   35.80
  -1   2  -1  447.56   35.60
   1  -2  -1  443.66   34.50
  -1  -3  -1  798.82   63.39
   1  -3   1  707.83   64.79
  -1  -3   1  859.61   65.59
   1  -3  -1  776.42   63.39
   1  -4   1  605.64   53.29
  -1  -4  -1  597.04   49.30
   1  -4  -1  688.13   51.29
  -1  -4   1  494.05   52.69
  -1  -5  -1  362.56   32.20
  -1  -5  -1  308.57   33.80
   1  -5   1  246.98   37.40
   1  -5  -1  291.27   34.50
   1  -5  -1  346.57   34.30
  -1  -5   1  279.37   37.80
  -1  -6  -1   92.39   29.80
   1  -6   1  129.89   37.40
   1  -6  -1  105.69   31.20
   1  -6  -1  149.99   27.30
  -1  -6   1   86.79   29.80
   1   0  -2 6796.52  547.65
  -1   0  -2 6682.63  547.45
   1   0  -2 7755.42  547.95
   1   0  -2 6208.78  547.15
  -1   0   2 7741.93  548.05
   1   0   2 7301.27  547.85
  -1   0   2 6449.55  547.15
   1   0   2 6924.81  547.85
  -1   0  -2 7460.85  547.85
  -1   0  -2 7424.06  547.95
   1   0   2 6294.97  547.45
  -1  -1  -2 4508.15  377.56
  -1  -1  -2 5152.78  377.46
   1   1  -2 4654.53  376.96
   1  -1   2 5223.18  377.66
   1  -1   2 4217.88  376.96
   1   1  -2 4878.31  376.96
   1  -1  -2 5220.38  377.56
   1  -1  -2 5142.29  377.66
  -1   1  -2 4380.56  376.96
  -1  -2  -2  949.01   76.19
  -1  -3  -2 1522.15  129.19
   1  -3   2 1789.42  131.49
   1  -3  -2 1471.45  129.29
  -1  -3   2 1712.73  131.49
   1  -4   2  728.03   64.79
  -1  -4  -2  667.93   60.09
   1  -4  -2  807.12   62.09
  -1  -4   2  725.43   64.59
  -1  -5  -2  114.49   23.30
   1  -5   2  150.58   31.30
   1  -5  -2  124.19   23.00
  -1  -5   2  130.49   31.10
   1  -6   2   28.40   28.60
  -1  -6  -2   33.00   19.50
   1  -6  -2   21.30   16.70
  -1  -6   2    2.60   28.00
   1  -6  -2   25.50   20.20
   1   0   3   28.90    7.70
   1   0  -3   40.20    9.30
   1   1  -3  585.54   46.40
   1  -1   3  467.25   46.10
   1  -1   3  549.45   46.80
   1   1  -3  595.04   46.30
  -1   1   3  608.04   46.60
  -1  -1  -3  584.74   47.20
  -1   1  -3  584.24   46.20
  -1  -1   3  630.84   47.40
  -1  -1   3  488.25   45.90
   1  -1  -3  580.74   47.10
  -1  -2  -3  585.04   48.10
   1  -2   3  504.05   47.40
   1  -2   3  566.74   47.80
   1  -2  -3  556.24   48.00
  -1  -2   3  623.64   48.70
  -1  -3  -3  419.16   35.40
  -1  -3   3  311.87   39.20
   1  -3  -3  424.96   35.90
   1  -4   3   70.59   23.40
  -1  -4  -3   27.80    9.10
   1  -5   3   80.09   27.20
  -1  -5   3   47.40   20.00
   1  -6   3   24.50   23.90
  -1  -6   3  115.89   35.90
   1   0  -4 1449.35  108.09
  -1   0  -4 1343.17  107.59
   1   0   4 1303.87  106.69
  -1   0   4 1350.26  107.69
  -1   0  -4 1386.16  106.59
  -1   0   4 1219.18  106.29
   1  -1   4 1965.30  154.48
   1  -1   4 2103.59  155.58
  -1  -1  -4 1939.21  153.88
  -1   1   4 1721.83  154.98
  -1  -1  -4 1967.10  155.88
   1   1  -4 1897.31  154.78
  -1   1  -4 2096.39  155.18
  -1  -1   4 1755.22  154.08
   1   1   4 2163.18  155.48
  -1  -1   4 1860.61  155.38
   1  -1  -4 2012.70  156.38
   1  -2   4  491.25   48.20
   1   2  -4  618.44   47.70
   1  -2   4  614.84   50.09
  -1   2  -4  546.05   49.70
   1  -3   4  573.64   51.09
  -1  -3  -4  563.84   50.59
  -1  -3   4  501.85   50.99
   1  -3  -4  548.25   51.09
  -1  -3   4  702.73   53.49
  -1  -4  -4  249.18   29.80
   1  -4   4  257.67   37.20
   1  -4   4  283.17   32.40
  -1  -4   4  257.77   38.00
   1  -5   4  122.79   33.70
  -1  -5   4   81.69   30.80
  -1   0  -5  244.28   25.60
   1   0  -5  218.88   27.20
  -1   0   5  232.78   26.30
   1  -1   5  212.48   25.10
   1   1  -5  261.07   25.10
  -1  -1  -5  194.68   24.70
  -1   1   5  242.78   25.10
   1  -1  -5  254.57   29.40
   1   1   5  237.18   25.20
  -1  -1   5  234.08   26.80
   1  -1  -5  204.48   23.50
  -1  -1   5  249.78   24.90
   1  -2   5  210.58   27.10
   1  -2   5  207.78   24.90
  -1  -2   5  183.58   25.50
  -1  -2   5  214.58   28.00
   1  -3   5  260.47   34.20
   1  -3   5  295.47   33.50
  -1  -3   5  200.88   29.90
  -1  -3   5  299.97   34.40
   1  -4   5  136.39   31.60
   1  -4   5  125.59   30.40
  -1  -4   5  115.79   32.60
   1  -5   5  214.58   38.00
   1  -5   5  132.79   40.60
  -1  -5   5  267.97   40.20
  -1  -5   5  188.48   42.30
   1  -5  -5  190.28   33.80
  -1   0  -6  282.77   34.30
   1  -1   6  330.57   34.10
  -1   1   6  388.96   35.30
  -1  -1  -6  250.37   40.90
   1   1  -6  315.87   36.70
   1  -1   6  338.17   36.80
   1  -1  -6  303.07   36.90
   1   1   6  344.77   35.70
  -1  -1   6  384.76   37.40
  -1  -1   6  275.37   33.00
   1   2  -6  299.57   34.00
   1  -2   6  378.16   41.00
   1  -2   6  361.76   39.60
  -1  -2  -6  403.46   43.10
   1  -2  -6  424.36   43.40
  -1   2  -6  303.27   35.10
  -1  -2   6  343.87   40.40
   1  -3   6  150.58   28.50
   1  -3   6   93.29   31.60
   1  -3  -6  104.29   31.50
   1  -4   6  152.08   40.50
   1  -4   6  146.29   33.10
  -1  -4   6  138.39   35.40
  -1  -4   6  137.49   39.60
   1   0   7  109.29   26.50
  -1   0   7   79.39   24.80
  -1   0  -7  128.69   33.60
   1   0  -7  125.89   34.80
  -1   1   7   92.49   27.10
   1  -1   7   99.69   27.30
  -1  -1   7  141.99   24.70
  -1  -1   7   56.59   26.00
   1   2  -7   25.10   14.30
   1  -2   7  120.09   33.10
  -1  -2   7   64.19   28.00
   1  -2  -7   19.00   16.60
  -1   2  -7   60.09   17.90
  -1  -2   7   35.50   22.00
   1  -3   7   92.79   35.40
   1  -3   7  128.69   28.70
  -1  -3   7  126.59   38.50
  -1  -3   7   45.40   32.30
   1  -3  -7   65.79   21.80
  -2  -1   0 6994.80  601.64
  -2  -1   0 7786.02  602.24
  -2   1   0 8249.38  601.84
   2  -1   0 7873.51  601.74
   2   1   0 7597.44  601.74
  -2  -2   0  225.58   20.50
  -2  -3   0 2792.12  223.38
   2  -3   0 2830.02  223.28
  -2  -3   0 3012.80  222.08
   2  -3   0 2664.73  221.88
   2  -4   0   89.29   16.30
  -2  -4   0   83.99   17.70
   2  -5   0  413.66   43.40
   2  -5   0  440.56   39.60
  -2  -5   0  441.66   43.10
  -2  -5   0  410.56   37.50
   2  -6   0   -0.30   12.70
   2  -6   0   15.70   21.90
  -2  -6   0  -14.10   20.10
  -2   0   1   35.60    5.30
   2   0  -1   27.20    4.70
   2   0  -1   29.60    4.70
   2   0   1   27.50    4.40
  -2   0  -1   32.70    4.70
  -2   0  -1   23.90    4.20
  -2   0   1   29.10    5.20
   2  -1   1  395.96   33.30
   2   1  -1  487.45   34.90
  -2  -1  -1  373.86   33.80
   2  -1   1  403.66   33.80
  -2   1   1  399.56   34.00
  -2  -1   1  472.55   35.50
  -2   1  -1  457.05   33.50
   2   1   1  419.06   34.10
   2  -1  -1  398.76   33.50
  -2   1  -1  403.56   34.20
   2  -1  -1  405.46   34.00
  -2  -2  -1  978.60   83.49
   2  -2   1  999.90   84.39
  -2   2   1 1116.59   83.99
  -2  -2   1 1038.80   84.99
   2  -2  -1 1050.59   83.89
  -2   2  -1 1137.89   84.49
   2  -3   1  164.18   20.90
  -2  -3  -1  184.48   17.80
  -2  -3   1  210.78   21.90
  -2  -4  -1   12.60   11.50
   2  -4   1   17.70   13.80
  -2  -4  -1   17.10    6.40
  -2  -4   1   57.89   18.80
   2  -5   1  251.27   35.60
  -2  -5  -1  254.57   26.50
  -2  -5  -1  286.97   30.90
   2  -5  -1  261.17   32.40
  -2  -5   1  257.37   35.50
  -2  -6  -1  737.43   68.89
   2  -6   1  749.23   72.79
  -2  -6   1  713.43   72.19
   2  -6  -1  862.31   68.69
   2  -6  -1  652.03   69.39
   2   0   2 1379.76  116.89
   2   0  -2 1722.33  116.99
   2   0   2 1377.46  116.59
  -2   0   2 1672.83  117.09
  -2   0  -2 1318.77  116.49
  -2   0  -2 1315.67  116.79
   2   0  -2 1590.94  116.89
  -2  -1  -2 2307.67  160.88
   2  -1   2 1780.52  160.58
  -2   1   2 2077.89  160.78
  -2  -1  -2 1861.91  160.98
  -2   1   2 2098.49  161.28
   2  -1   2 2262.07  160.88
   2  -1  -2 1987.60  160.78
   2   1   2 2094.59  161.28
   2  -1  -2 2108.39  160.98
  -2   1  -2 1860.11  160.38
   2  -2   2 1274.57  113.59
  -2  -2   2 1572.24  114.89
   2  -3   2  683.83   59.09
  -2  -4  -2   99.19   17.80
   2  -4  -2  116.79   18.10
  -2  -5  -2  254.97   30.50
   2  -5   2  215.28   36.10
  -2  -5   2  196.38   35.70
   2  -5  -2  290.27   33.50
  -2  -6  -2  135.49   28.30
  -2  -6  -2  148.09   26.00
   2  -6   2  102.99   32.70
   2  -6  -2  110.99   32.30
  -2  -6   2   99.29   31.30
   2  -6  -2  102.09   26.40
   2   0   3  652.03   45.20
  -2   0   3  593.54   45.20
  -2   0  -3  478.15   44.10
  -2   0   3  513.95   43.60
   2   0   3  495.75   44.30
  -2  -1  -3  275.87   23.40
   2  -1   3  303.37   23.70
   2  -1   3  259.17   23.10
   2   1  -3  251.47   22.90
  -2   1   3  249.97   23.40
  -2  -1  -3  244.78   23.60
   2  -1   3  249.68   23.40
   2   1  -3  241.78   23.00
  -2  -1   3  306.27   24.80
  -2  -1   3  229.78   22.90
  -2   1  -3  261.87   22.60
   2  -2   3  171.98   19.00
  -2  -3  -3  476.55   41.30
   2  -3   3  459.55   42.10
   2  -3  -3  507.75   43.00
   2  -5   3  148.79   29.90
  -2  -5   3  131.79   31.10
  -2  -6  -3   -3.00   11.70
   2  -6   3    2.50   24.10
  -2  -6   3   -6.40   23.20
   2  -6  -3    9.90   14.40
   2   0   4  672.23   56.99
   2   0   4  581.64   55.89
  -2   0   4  797.02   57.19
   2   1  -4  439.26   36.20
  -2  -1  -4  420.86   36.70
  -2   1  -4  392.66   35.40
   2  -2   4 1560.74  136.39
   2   2  -4 1671.03  136.09
   2  -2   4 1723.63  137.49
  -2  -2  -4 1730.43  137.19
   2   2  -4 1931.41  135.99
  -2   2  -4 1580.74  135.19
  -2  -2   4 1684.13  136.69
   2  -2  -4 1804.02  139.19
  -2  -3  -4  267.37   30.90
   2  -3   4  315.57   30.70
   2  -3  -4  297.07   34.60
   2  -4   4  138.19   26.30
   2  -5   4   47.10   24.90
   2  -5   4   88.79   24.60
   2  -5  -4   14.20   17.70
  -2  -5   4   11.10   29.40
   2   0  -5  246.58   25.30
  -2   0  -5  240.48   24.30
   2   0   5  185.38   25.00
  -2   0   5  231.28   25.70
   2  -1   5  179.08   23.20
  -2  -1  -5  178.18   24.60
  -2   1   5  184.58   22.50
   2   1  -5  190.68   21.70
  -2   1  -5  167.58   19.90
   2  -1  -5  175.18   22.30
  -2  -1   5  198.48   24.80
   2  -2   5  267.87   33.30
   2   2  -5  356.06   32.00
   2  -2   5  379.06   34.10
  -2  -2  -5  278.17   33.40
  -2  -2   5  328.57   36.30
  -2  -2   5  376.66   33.00
   2  -2  -5  273.37   30.40
  -2  -3  -5  319.67   34.90
   2  -3   5  282.67   32.50
   2  -3   5  283.57   34.60
  -2  -3   5  209.18   31.20
  -2  -3   5  231.98   34.50
   2  -4   5  114.79   30.20
   2  -4   5  178.88   31.70
  -2  -4   5  157.38   33.50
  -2  -4   5  169.58   33.90
   2  -5   5  106.29   24.40
   2  -5   5  105.09   30.90
  -2  -5   5   87.69   34.10
  -2  -5   5  104.99   28.20
  -2   0   6  129.89   25.60
   2  -1   6  464.85   44.40
  -2   1   6  514.05   45.20
   2  -1   6  473.25   46.90
   2   1  -6  412.16   45.50
  -2   1  -6  416.66   44.30
  -2  -1   6  501.65   42.50
  -2  -1   6  518.85   47.50
   2  -3   6  288.47   36.70
   2  -3   6  237.58   38.20
  -2  -3   6  287.37   40.10
  -2  -3   6  272.97   38.70
   2  -4   6   86.99   32.60
   2  -4   6   94.39   25.70
  -2  -4   6   38.90   30.80
   2  -4  -6   81.49   23.70
  -2  -4   6   48.00   23.50
  -2   0  -7   69.19   22.00
   2   0   7   87.29   28.10
  -2   0   7   75.59   24.90
   2  -1   7  144.69   36.00
  -2   1   7  104.99   28.20
   2  -1  -7  136.99   28.00
  -2  -1   7  165.78   33.70
  -2  -1   7  185.68   33.50
  -2   1  -7  152.38   29.90
   2  -2   7   99.49   27.00
   2   2  -7   17.50   13.40
  -2  -2   7   37.60   22.40
  -2   2  -7   39.20   13.20
  -2  -2   7   72.79   27.20
   2  -3   7  111.49   35.30
   2  -3   7  105.39   28.50
  -2  -3   7  108.59   32.80
  -2  -3   7  115.59   29.90
   3   0   0   -3.40    2.20
   3   0   0   -0.10    2.00
   3   0   0    1.80    1.80
  -3   0   0   -2.60    2.00
  -3   1   0 3906.21  305.97
   3  -1   0 4167.78  305.97
  -3  -1   0 3436.16  305.77
  -3  -1   0 4011.00  306.37
   3   1   0 4027.00  305.87
  -3  -2   0 3998.90  345.17
   3   2   0 4567.64  345.47
  -3  -2   0 4564.24  346.37
   3  -2   0 4141.09  345.37
  -3   2   0 4789.92  345.77
   3  -3   0 1217.68   98.89
   3  -3   0 1246.08  100.29
  -3  -3   0 1282.07  100.59
  -3  -3   0 1242.78   98.59
   3  -4   0   19.30   11.80
  -3  -4   0   17.30    6.30
  -3  -4   0   27.10   11.50
  -3  -5   0  492.25   44.40
  -3  -5   0  407.66   38.10
   3  -5   0  388.86   44.60
   3  -5   0  511.75   41.80
  -3  -6   0  199.98   35.80
   3  -6   0  230.68   30.40
   3  -6   0  247.18   38.50
  -3   0   1  159.18   13.50
   3   0  -1  140.09   13.20
  -3   0   1  150.28   13.50
   3   0   1  136.39   12.60
   3   0   1  178.68   13.50
   3   0   1  149.39   13.30
  -3   0  -1  156.28   13.20
  -3   0  -1  139.69   13.00
   3   0  -1  149.19   13.10
  -3   0  -1  159.48   12.80
   3  -1   1  746.33   61.59
   3   1  -1  810.42   62.59
   3  -1   1  787.92   61.49
  -3  -1  -1  744.23   61.69
  -3   1   1  782.92   62.09
   3   1  -1  852.51   61.39
  -3   1  -1  769.02   61.79
  -3   1  -1  848.82   61.69
  -3  -1   1  662.33   62.69
   3  -1  -1  794.12   61.49
  -3  -1   1  786.12   61.29
   3   1   1  821.22   61.99
   3  -1  -1  694.53   61.79
   3  -2   1  136.79   15.30
  -3  -2  -1  126.59   13.20
   3  -2   1  167.98   13.30
  -3   2   1  106.89   14.20
  -3  -2   1  152.68   17.10
  -3   2  -1  143.49   15.00
   3   2   1  123.99   15.20
   3  -2  -1  129.39   14.20
  -3   3   1  705.43   56.19
  -3  -3  -1  677.03   55.19
   3  -3   1  612.44   56.49
  -3  -3   1  721.23   57.79
  -3  -4  -1  767.52   67.59
   3  -4   1  812.02   70.59
  -3  -4  -1  902.51   70.59
  -3  -4   1  860.61   71.29
   3  -5   1  273.37   38.40
  -3  -5  -1  326.77   33.90
  -3  -5  -1  342.77   31.20
  -3  -5   1  287.57   38.50
   3  -5  -1  316.07   36.90
   3  -6   1   59.99   28.30
   3  -6  -1   64.39   24.00
  -3  -6   1   71.99   27.70
   3   0   2 2522.95  207.68
  -3   0  -2 2624.84  207.78
  -3   0  -2 2557.64  207.48
  -3   0   2 2536.45  207.78
   3   0  -2 2670.63  207.78
  -3   0   2 2785.12  207.98
   3   0  -2 2602.74  207.78
   3   0   2 2704.33  207.98
  -3   0  -2 2695.43  207.68
   3   0   2 2759.72  207.68
   3  -1   2 1014.60   74.09
   3  -1   2  887.01   73.79
  -3  -1  -2  892.11   74.39
  -3   1   2  929.81   74.09
   3  -1   2  846.82   73.99
   3   1  -2 1114.59   73.89
   3   1   2  935.41   74.79
   3  -1  -2 1035.10   74.29
  -3   1  -2  824.12   73.59
  -3   1  -2  833.52   74.19
   3  -2   2  620.04   52.69
   3  -2   2  708.23   54.19
  -3   2   2  620.34   54.59
  -3  -2  -2  707.23   54.19
   3  -3   2  729.63   60.99
  -3  -3  -2  630.84   58.69
  -3  -3   2  802.92   62.89
   3  -4   2 1013.00   78.39
  -3  -4  -2  861.61   74.49
  -3  -4   2  858.11   78.29
   3  -4  -2  909.31   75.59
   3  -5   2   32.60   22.50
  -3  -5  -2   22.10    9.10
  -3  -5   2   48.30   22.50
   3  -6   2   62.39   30.60
  -3  -6  -2   36.00   15.60
  -3  -6  -2   52.79   18.20
   3  -6  -2   54.49   19.10
  -3  -6   2   85.99   30.40
   3  -6  -2   31.90   21.90
  -3   0  -3   62.19   11.30
   3   0   3   97.39   11.30
  -3   1   3   86.69   11.30
  -3  -1  -3   97.29   12.60
  -3  -1  -3   44.80   10.80
   3  -1   3   54.49   10.90
   3  -1   3   76.59   11.00
  -3  -1   3   69.59   12.70
   3  -2   3  583.04   49.30
  -3  -2  -3  638.04   49.90
   3  -2   3  585.64   48.10
   3  -2   3  526.45   48.90
  -3  -2   3  674.63   51.69
  -3   2  -3  546.45   47.40
   3  -3   3  410.66   38.70
  -3  -3  -3  433.06   37.70
   3  -4   3  112.39   23.60
   3  -4   3   68.59   19.50
   3  -4  -3   67.49   20.90
   3  -5   3   56.19   21.50
  -3  -5   3  109.49   28.70
  -3  -6  -3  254.07   35.70
   3  -6  -3  359.66   42.30
  -3   0  -4 1807.12  139.39
   3   0   4 1649.13  138.69
   3   0   4 1638.64  138.09
  -3   0   4 1868.21  139.19
  -3   1   4  786.22   61.79
   3   1  -4  679.33   61.49
  -3  -1  -4  607.84   61.69
   3  -1   4  738.03   60.99
   3  -1   4  750.72   61.79
  -3  -1   4  825.02   62.79
  -3  -1   4  821.52   60.69
   3   2  -4  312.97   31.40
  -3  -2  -4  322.97   30.00
  -3  -2   4  282.07   30.00
  -3  -3  -4  226.18   26.20
   3  -3   4  256.17   26.70
   3  -3  -4  208.78   31.00
   3  -4   4  442.06   42.20
   3  -4   4  424.26   44.70
  -3  -4  -4  496.15   45.50
  -3  -4   4  335.67   46.40
   3  -5   4  143.99   28.90
   3  -5   4   92.19   29.20
  -3  -5   4   56.39   30.80
  -3   0  -5  287.77   27.50
   3   0   5  218.08   25.60
  -3   0   5  198.78   26.50
   3   0  -5  261.87   29.00
   3  -1   5  174.28   19.60
   3   1  -5  201.78   21.60
   3  -1   5  146.49   21.10
  -3  -1  -5  192.88   20.70
  -3   1   5  125.89   21.70
  -3  -1   5  131.29   23.60
  -3   1  -5  129.99   19.40
   3  -1  -5  148.49   25.00
  -3  -1   5  180.28   21.20
   3  -2   5  332.37   31.70
   3  -2   5  297.07   32.00
  -3  -2  -5  249.58   32.60
   3   2  -5  270.77   28.00
   3  -2  -5  280.07   35.10
  -3  -2   5  348.47   36.20
   3  -3   5  173.38   28.90
   3  -3   5  127.09   26.90
  -3  -3   5   99.59   21.70
   3  -4   5  300.97   37.00
   3  -4   5  267.57   38.50
  -3  -4   5  306.97   40.40
  -3  -4   5  276.47   37.80
   3  -5   5   96.39   27.10
   3  -5   5   34.10   29.40
  -3  -5   5   73.19   33.10
  -3  -5   5  110.39   26.20
   3   0   6  235.98   30.70
  -3   0   6  294.37   33.60
   3  -1   6  364.66   38.00
  -3   1   6  289.87   34.80
  -3   1  -6  326.07   35.20
  -3  -1   6  355.46   38.00
   3  -1  -6  286.57   37.20
  -3  -1   6  318.07   31.90
   3  -2   6  431.16   40.40
   3  -2   6  331.57   40.50
   3   2  -6  351.06   39.20
  -3   2  -6  364.66   35.70
  -3  -2   6  321.37   41.30
   3  -2  -6  457.85   45.80
  -3  -2   6  276.27   39.00
   3  -3   6  253.47   34.10
   3  -3   6  166.88   33.70
  -3   3  -6  161.18   24.30
  -3  -3   6  207.88   38.00
   3  -4   6   76.19   27.50
   3  -4   6   77.09   31.60
  -3  -4   6  134.59   33.90
  -3  -4   6  125.79   35.20
  -3   0   7   59.09   26.20
  -3   0  -7   84.99   25.50
   3   0   7  115.89   28.90
   3  -1   7  162.28   33.30
   3  -1   7  142.39   32.00
  -3   1   7   81.29   26.60
  -3   1  -7   83.19   26.50
   3  -1  -7   83.29   23.90
  -3  -1   7   50.39   24.70
   3  -2   7  109.09   34.10
   3  -2   7   72.89   22.40
   3   2  -7   25.00   19.80
  -3   2  -7   37.40   14.60
  -3  -2   7   57.39   28.90
   3  -2  -7   30.00   22.60
   3  -3   7  126.29   27.80
   3  -3   7   76.39   33.10
   3  -3  -7  109.09   28.40
  -3  -3   7   49.70   32.20
  -3  -3   7   82.49   28.60
   4   0   0 5324.57  469.25
  -4   0   0 5968.10  469.75
  -4   0   0 6646.33  469.55
  -4   0   0 5782.32  469.25
   4   0   0 5842.02  469.75
   4   0   0 6464.95  469.45
  -4  -1   0  309.37   25.90
   4  -1   0  285.27   25.10
  -4  -1   0  302.47   25.20
  -4   1   0  342.87   25.90
   4  -1   0  305.57   25.50
   4   1   0  321.37   25.40
   4   2   0   11.80    4.90
  -4  -2   0   13.50    6.20
  -4  -2   0   23.20    5.30
  -4   3   0  500.95   37.80
   4  -3   0  431.76   36.70
  -4  -3   0  450.15   38.50
   4  -3   0  424.36   37.80
  -4  -3   0  394.56   35.60
  -4  -4   0 2013.60  160.38
  -4  -4   0 2069.69  162.98
  -4  -4   0 2156.28  161.38
   4  -4   0 1894.81  162.58
  -4  -5   0   27.00    8.00
   4  -5   0   15.90   11.50
  -4  -5   0   31.40   15.20
   4  -5   0   49.60   17.10
   4  -6   0  -24.70   22.20
  -4  -6   0   -9.90   19.90
   4   0  -1  186.38   17.30
  -4   0  -1  215.88   17.50
  -4   0  -1  191.98   17.30
   4   0   1  206.58   17.50
   4   0   1  206.28   17.50
  -4   0   1  218.08   17.80
  -4   0   1  210.78   17.40
  -4   0  -1  207.88   16.80
   4   0  -1  211.08   17.50
   4   1  -1  151.68   13.20
   4   1  -1  149.69   15.50
  -4   1   1  139.69   14.00
   4  -1   1  140.49   13.30
   4  -1   1  152.88   13.20
  -4  -1  -1  131.89   13.10
  -4   1  -1  130.09   13.30
   4   1   1  159.98   14.00
  -4   1  -1  137.09   13.40
  -4   1  -1  157.18   13.80
   4  -1  -1  152.08   12.90
   4  -1  -1  122.19   13.50
  -4  -1   1  145.99   12.70
   4  -2   1   40.50    9.10
  -4   2   1   50.69   10.50
   4  -2   1   51.19   10.40
  -4  -2  -1   52.49    7.50
  -4   2  -1   46.90   10.10
  -4  -2   1   49.50   12.90
   4   2   1   79.49   11.90
  -4   2  -1   51.09    8.30
   4  -3   1  433.16   38.30
  -4   3   1  488.85   40.50
  -4  -3  -1  436.26   38.20
   4  -3   1  426.76   40.10
  -4   3  -1  532.05   39.00
  -4  -3   1  456.25   41.50
  -4  -4  -1  344.17   31.70
   4  -4   1  282.57   32.80
  -4  -4  -1  329.87   28.60
  -4  -4   1  316.07   34.00
  -4  -5  -1  925.31   75.59
   4  -5   1  895.41   79.19
  -4  -5  -1  917.51   77.29
  -4  -5   1  813.42   79.69
   4  -5  -1  871.11   78.79
   4  -5  -1 1005.90   77.59
   4  -6   1   25.70   26.40
  -4  -6  -1   23.30   19.60
   4  -6  -1    1.10   22.10
   4  -6  -1  -18.10   16.00
  -4  -6   1    9.20   25.00
   4   0   2 1653.23  148.89
   4   0  -2 1709.43  148.99
  -4   0  -2 2045.50  148.99
  -4   0   2 2001.10  149.39
  -4   0  -2 1893.91  149.19
   4   0   2 2048.79  148.89
   4   0  -2 1853.91  149.09
   4   0   2 1989.50  149.39
  -4   0   2 1939.01  149.29
  -4   0  -2 1800.72  148.89
   4  -1   2 3179.98  257.57
  -4  -1  -2 3169.08  258.07
   4   1  -2 2962.20  257.27
  -4   1   2 3540.95  257.97
   4  -1   2 3092.89  257.67
  -4   1   2 3491.35  258.47
   4  -1   2 3529.65  257.67
  -4  -1   2 3594.34  258.77
   4  -1  -2 3603.64  257.87
  -4  -1   2 3187.18  257.47
  -4   1  -2 2986.50  257.77
  -4   1  -2 3087.09  257.37
   4  -2   2   95.09   11.70
  -4  -2  -2  134.99   13.70
   4  -2   2  111.89   13.50
  -4   2  -2  137.29   13.50
   4  -3   2 1077.69  100.79
  -4   3   2 1403.76  101.79
  -4  -3  -2 1250.97  100.09
  -4  -3   2 1255.17  102.99
  -4  -4  -2  505.35   43.90
  -4  -4   2  498.35   49.30
   4  -5   2  556.34   55.99
  -4  -5  -2  562.94   51.09
  -4  -5   2  471.85   55.69
   4  -5  -2  643.54   55.89
  -4  -6  -2   22.70   17.00
   4  -6   2    3.20   29.00
  -4  -6  -2   20.10   15.30
  -4  -6   2   25.80   29.40
   4  -6  -2   15.30   20.90
  -4   0   3   -5.70    5.70
  -4   0  -3   -0.30    4.20
   4   0   3   -4.20    6.30
  -4   0   3   -2.60    7.50
   4   0   3    2.10    6.10
  -4  -1  -3  437.06   33.30
   4  -1   3  353.26   32.10
   4  -1   3  347.07   32.10
   4   1  -3  367.46   32.50
   4  -1   3  399.76   32.70
  -4   1   3  383.86   33.50
  -4   1   3  409.46   32.80
  -4  -1   3  337.07   31.90
  -4   1  -3  371.16   31.50
  -4  -1   3  386.16   33.70
  -4   2   3   67.99   15.80
  -4  -2  -3   97.99   12.90
   4  -2   3   79.19   11.20
  -4  -2   3   84.59   19.00
   4  -3   3  139.09   21.50
  -4  -3  -3  126.09   16.30
   4  -3   3   98.79   17.30
   4  -4   3  818.62   76.99
  -4  -4  -3 1016.80   79.69
   4  -4  -3  900.31   77.69
   4  -5   3    5.30   19.60
  -4  -5  -3   32.80   11.40
   4  -5   3   86.49   23.10
  -4  -5   3    4.20   18.30
   4  -6   3    6.70   25.60
   4  -6   3   60.89   24.00
  -4  -6  -3    5.10   15.50
   4  -6  -3   -8.10   20.00
  -4  -6   3  -18.60   23.20
  -4   0   4 1060.09   96.99
   4   0   4 1337.07   96.89
  -4  -1  -4 1140.49   90.99
   4  -1   4 1128.19   89.89
   4  -1   4 1099.89   90.19
  -4   1   4 1103.79   90.49
  -4  -1   4 1105.59   91.19
  -4  -1   4 1191.28   89.39
  -4   1  -4 1027.70   89.59
  -4  -2  -4  118.39   18.20
   4   2  -4  172.18   18.40
   4  -2   4  177.58   19.40
  -4  -2   4  166.78   24.20
   4  -3   4  724.13   64.89
   4  -3   4  795.32   65.19
  -4  -3  -4  829.72   64.79
   4  -3  -4  784.12   68.49
  -4  -3   4  657.13   68.09
   4  -4   4  351.16   36.80
   4  -4   4  331.57   37.70
   4  -4  -4  290.37   41.50
   4  -5   4   78.79   30.10
  -4  -5  -4   88.59   21.50
   4  -5   4  120.49   26.00
   4  -5  -4   85.59   22.80
  -4   0   5   94.89   19.20
   4   0   5  119.59   18.10
  -4   0  -5   71.09   15.40
   4   0  -5  109.39   20.40
   4  -1   5   58.39   16.10
  -4   1   5   27.50   14.10
   4   1  -5   24.50   10.30
   4  -1  -5   15.30   11.30
  -4  -1   5   66.89   19.70
   4  -2   5  247.18   27.30
   4   2  -5  246.68   26.40
   4  -2   5  219.78   27.40
   4  -2  -5  276.17   30.20
  -4  -2   5  226.88   32.20
  -4  -2   5  222.78   27.20
  -4   2  -5  211.18   24.00
   4  -3   5   74.79   25.50
   4  -3   5  138.79   26.10
  -4   3  -5  115.99   17.80
  -4  -3   5   73.29   19.80
  -4  -3   5  101.99   29.00
   4  -4   5  198.68   33.00
   4  -4   5  172.18   28.40
  -4  -4   5  119.99   34.80
   4  -4  -5  113.49   32.70
   4  -5   5   79.59   29.30
   4  -5   5  152.78   32.40
  -4  -5  -5   82.29   25.00
  -4  -5   5  112.89   35.20
   4   0  -6  855.71   67.29
  -4   0   6  662.03   65.09
  -4   0  -6  816.82   67.09
   4   0   6  592.94   63.19
   4  -1   6   91.39   17.50
  -4   1   6   65.99   22.30
  -4  -1   6  123.69   19.70
  -4  -1   6   76.79   26.10
   4  -2   6  330.27   38.60
   4  -2   6  334.77   37.70
  -4  -2   6  246.18   39.50
  -4  -2   6  346.67   36.80
   4  -3   6  101.79   30.70
   4  -3   6  164.18   29.80
  -4   3  -6   94.79   21.80
  -4  -3   6   63.59   31.00
   4  -4   6   87.69   29.60
  -4  -4   6   60.09   22.70
  -4  -4   6   64.09   32.20
  -4   0   7   35.00   25.00
   4   0  -7   13.20   19.40
  -4   0  -7    2.60   15.00
   4   0   7   84.09   24.50
   4  -1   7   92.59   27.50
  -4  -1  -7   48.80   16.10
   4   1  -7   47.70   16.80
  -4   1   7   14.80   21.70
  -4   1  -7   68.49   19.10
  -4  -1   7   38.10   25.80
  -4  -2  -7  129.79   27.40
   4  -2   7  109.89   35.60
   4  -2   7  107.99   32.00
  -4  -2   7  126.59   35.20
  -4  -2   7   74.99   31.90
  -4   2  -7  120.69   28.70
   4  -3   7  102.79   34.90
   4  -3   7   57.69   27.60
   4  -3  -7   -3.50   25.30
  -4  -3   7   37.70   32.10
  -4  -3   7   47.80   29.00
  -5   0   0    1.10    3.90
   5   0   0    6.20    2.60
   5   0   0    4.80    2.90
  -5   0   0    5.80    3.80
   5   0   0    1.80    3.90
  -5   0   0    4.00    4.20
  -5   1   0 2708.63  196.88
   5  -1   0 2369.56  196.48
   5   1   0 2604.34  196.48
  -5  -1   0 2287.47  196.58
  -5   1   0 2824.32  196.58
  -5  -1   0 2410.56  196.38
   5  -1   0 2321.77  196.18
   5  -2   0 6122.39  520.05
  -5  -2   0 6687.73  520.85
  -5  -2   0 5957.80  519.75
  -5   2   0 7392.16  520.55
   5   2   0 7072.09  520.15
  -5   3   0 1529.95  110.59
   5  -3   0 1265.47  110.49
  -5  -3   0 1318.87  109.19
  -5  -3   0 1419.36  111.29
  -5   4   0  119.09   22.50
  -5  -4   0  124.69   19.30
  -5  -4   0  128.59   14.50
  -5  -5   0  194.48   20.80
  -5  -5   0  194.88   27.60
   5  -5   0  186.68   28.90
  -5  -6   0  327.77   42.40
   5  -6   0  376.46   45.60
   5   0  -1   26.70    6.10
  -5   0  -1   23.90    5.10
   5   0  -1   19.50    5.50
  -5   0   1   22.60    6.30
  -5   0  -1   34.70    5.40
   5   0   1   27.80    5.90
  -5   0   1   22.10    5.10
  -5   0   1   28.00    5.80
   5   0   1   21.30    6.30
  -5   1   1  166.88   15.20
   5   1  -1  170.38   16.90
   5  -1   1  179.28   15.00
   5  -1   1  164.28   14.40
  -5  -1  -1  143.89   14.00
   5   1  -1  154.48   14.40
   5  -1  -1  150.48   13.20
  -5   1  -1  144.29   14.50
   5   1   1  165.68   14.70
  -5   1  -1  144.99   14.70
  -5  -1   1  176.18   14.40
  -5  -1   1  138.89   17.20
   5  -1  -1  131.99   14.60
   5  -1  -1  153.68   13.80
   5  -2   1  126.59   13.20
  -5  -2  -1  121.69   12.00
   5  -2   1   89.59   13.10
   5  -2   1  117.79   12.80
   5   2  -1  117.19   11.40
  -5   2   1  103.79   14.20
  -5  -2   1  123.49   16.40
  -5   2  -1  116.29   12.50
  -5  -2   1   90.09   11.70
   5  -3   1  312.17   30.30
  -5   3   1  380.36   32.50
  -5  -3  -1  344.17   29.90
   5  -3   1  369.26   31.90
  -5   3  -1  368.26   30.50
  -5  -3   1  329.07   33.40
  -5   4   1  432.56   40.30
  -5  -4  -1  429.86   39.40
   5  -4   1  386.26   37.90
   5  -4   1  428.76   40.30
  -5  -4  -1  411.56   36.60
  -5  -4   1  409.26   41.60
  -5   4  -1  498.25   40.30
  -5  -5  -1  269.47   29.60
  -5  -5  -1  327.47   32.70
   5  -5   1  337.77   37.30
   5  -5  -1  264.37   36.00
  -5  -5   1  271.97   37.50
  -5  -6  -1  216.58   33.50
   5  -6   1  187.68   40.40
  -5  -6  -1  210.18   28.40
  -5  -6   1  205.68   39.90
   5  -6  -1  186.88   37.70
  -5   0  -2 1950.20  140.89
  -5   0   2 2066.19  141.49
   5   0   2 1577.24  140.99
  -5   0  -2 1837.42  141.19
   5   0   2 1617.14  141.19
   5   0  -2 1643.44  140.99
  -5   0  -2 1800.82  141.19
   5   0   2 1811.42  140.69
  -5   0   2 1905.91  141.59
   5   0  -2 1687.93  141.09
   5  -1   2 1690.23  128.69
  -5   1   2 1681.33  129.49
  -5  -1  -2 1657.73  128.89
   5   1  -2 1471.15  128.19
  -5   1   2 1705.73  128.79
   5  -1   2 1637.64  128.19
   5  -1   2 1588.84  128.59
  -5  -1   2 1595.74  128.49
  -5   1  -2 1539.45  128.29
   5  -1  -2 1785.32  128.69
  -5  -1   2 1563.84  129.69
   5  -2   2 1119.49   92.29
  -5  -2  -2 1229.68   93.19
   5  -2   2 1134.59   93.09
  -5   2  -2 1205.18   93.99
  -5   2  -2 1136.69   92.79
  -5   3   2 2102.99  165.18
  -5  -3  -2 1963.00  162.38
   5  -3   2 2055.59  162.88
   5  -3   2 2104.89  161.28
  -5   3  -2 2073.69  161.48
  -5  -3   2 1993.60  165.28
  -5  -4  -2  469.85   38.10
   5  -4   2  422.66   43.20
  -5  -4   2  377.36   44.00
  -5  -5  -2  128.79   21.40
   5  -5   2  132.59   31.70
  -5  -5  -2   96.29   23.30
  -5  -5   2   61.19   24.70
   5  -5  -2  106.39   23.10
  -5  -6  -2   46.30   15.10
   5  -6   2   29.50   30.90
  -5  -6  -2   19.10   16.30
   5  -6  -2   27.50   22.30
  -5  -6   2   24.30   30.90
   5   0   3   21.60    7.40
   5   0   3   20.20    7.20
  -5   0  -3   28.00    8.30
  -5   0   3   22.30    8.90
  -5   1   3  216.78   23.50
   5  -1   3  256.97   21.60
   5   1  -3  233.18   22.00
  -5   1   3  221.48   22.10
   5  -1   3  251.67   22.10
  -5  -1  -3  243.98   21.70
  -5  -1   3  220.18   23.50
  -5  -1   3  219.08   22.50
  -5   1  -3  228.58   20.80
  -5   2   3  138.99   20.40
   5  -2   3  164.68   17.60
   5  -2   3  173.78   17.90
  -5  -2  -3  157.88   16.70
   5   2  -3  160.68   16.80
   5  -2   3  173.98   17.50
  -5   2  -3  167.68   16.10
  -5  -2   3  111.29   22.50
  -5  -3  -3   54.19   11.20
   5  -3   3   66.69   14.50
   5  -4   3   17.10   18.00
  -5  -4   3   35.50   18.90
  -5  -6  -3  397.56   41.70
   5  -6   3  342.77   47.10
  -5  -6  -3  264.67   41.70
   5   0   4 1035.10   77.89
  -5   0   4  836.52   77.99
  -5   0  -4  923.41   77.59
   5   0   4 1012.00   77.79
  -5  -1  -4  695.53   57.59
  -5   1   4  695.83   58.39
  -5   1  -4  633.64   56.49
  -5  -1   4  748.53   59.79
  -5  -1   4  682.13   56.19
   5  -2   4  730.63   64.09
   5  -2   4  808.02   64.09
   5   2  -4  827.92   65.09
  -5  -2  -4  710.63   64.59
   5  -3   4  483.95   38.50
   5  -3   4  342.17   37.80
  -5   3  -4  388.96   35.50
  -5  -3   4  375.96   44.00
   5  -4   4  301.27   33.20
  -5  -4  -4  228.08   30.60
   5  -4   4  306.57   35.30
   5  -4  -4  331.47   37.30
   5  -5   4   96.89   28.10
  -5  -5  -4   86.79   23.00
   5  -5   4   85.99   26.70
  -5  -5   4   18.70   32.40
  -5   0  -5  246.88   25.70
   5   0   5  228.48   25.70
   5   0   5  252.87   25.90
  -5   0   5  231.38   27.30
   5   1  -5  184.08   24.60
   5  -1   5  246.18   24.30
  -5  -1  -5  216.58   23.10
  -5   1   5  175.88   25.20
  -5  -1   5  158.98   26.50
  -5   1  -5  215.78   23.90
  -5  -1   5  218.38   22.40
   5  -2   5   46.40   17.10
  -5  -2  -5   54.49   15.70
   5  -2   5   84.39   20.00
   5   2  -5   35.80   11.30
  -5  -2   5   33.20   20.30
   5  -2  -5   37.40   12.80
  -5   2  -5   50.39   14.10
  -5  -2   5   36.00   13.20
   5  -3   5   80.59   24.50
   5  -3   5   66.09   16.70
  -5  -3   5   52.99   18.90
  -5  -3   5   49.60   22.10
   5  -4   5  141.59   27.60
  -5  -4  -5  113.59   22.20
   5  -4   5   56.19   25.30
  -5  -4   5   76.39   29.30
  -5  -5  -5  144.69   30.30
   5  -5   5  191.58   41.50
   5  -5  -5  170.68   40.60
   5   0   6  234.18   27.60
  -5   0   6  149.79   28.90
  -5   1   6  174.58   29.70
   5   1  -6  218.28   31.60
   5  -1   6  240.58   28.70
  -5  -1  -6  186.88   29.60
   5  -1   6  280.97   34.10
   5  -1  -6  242.48   37.80
  -5  -1   6  216.58   33.20
  -5   1  -6  202.18   28.10
  -5  -2  -6  387.26   41.60
   5  -2   6  303.77   42.80
   5   2  -6  464.45   41.90
   5  -2   6  405.86   42.40
  -5  -2   6  295.67   43.20
  -5  -2   6  447.76   40.00
  -5   2  -6  371.26   38.20
   5  -3   6  158.08   35.00
   5  -3   6  173.08   33.10
  -5  -3  -6  116.79   26.10
  -5  -3   6  143.49   39.30
  -5  -3   6  225.28   33.20
   5  -3  -6  138.59   35.30
  -5   3  -6  158.78   25.30
   5  -4   6  160.18   38.90
   5  -4   6   88.39   23.20
  -5  -4   6   25.70   32.50
  -5  -4   6  119.59   25.80
  -5   0   7  119.39   32.50
   5   0   7  157.28   31.60
  -5  -1  -7   25.60   16.10
  -5   1   7   -9.90   21.20
   5  -1   7   22.60   25.00
   5   1  -7   35.10   18.60
  -5   1  -7   21.20   12.70
  -5  -1   7   28.30   25.70
   5   2  -7   40.10   19.90
   5  -2   7   73.29   21.80
   5  -2   7   80.59   30.40
  -5  -2  -7   41.10   17.60
  -5  -2   7   24.90   30.20
  -5  -2   7   35.00   23.50
  -5   2  -7   43.50   17.40
   6   0   0  728.03   54.09
  -6   0   0  592.54   54.09
   6   0   0  706.93   54.99
  -6   0   0  728.03   55.09
   6   0   0  655.43   53.89
  -6   1   0 6633.74  476.55
  -6  -1   0 5839.92  476.45
   6  -1   0 5529.55  476.45
   6  -1   0 6150.48  476.25
  -6   1   0 6594.54  477.05
  -6  -1   0 5504.75  476.55
   6   1   0 6367.96  476.65
  -6  -2   0  202.98   19.70
   6  -2   0  191.88   18.20
  -6   2   0  191.08   19.40
   6  -2   0  196.68   18.70
   6   2   0  217.98   18.60
  -6  -2   0  196.48   17.60
  -6   3   0 2832.52  200.78
   6  -3   0 2365.66  200.08
  -6  -3   0 2589.24  200.88
  -6  -3   0 2349.86  198.98
   6  -4   0   56.89   17.60
  -6   4   0   82.09   19.60
  -6  -4   0   64.49   10.90
  -6  -4   0   80.39   16.50
  -6  -5   0  512.95   47.30
   6  -5   0  625.44   53.39
  -6  -5   0  587.84   53.19
   6  -6   0   31.10   25.20
  -6  -6   0   77.19   23.20
   6   0   1  125.79   12.60
  -6   0   1  134.79   10.80
  -6   0  -1  108.19   11.30
  -6   0   1  112.09   11.30
  -6   0   1  106.09   11.90
  -6   0  -1   96.49   11.80
   6   0  -1  122.39   11.70
   6   0   1  106.79   11.60
   6  -1   1  116.29   11.80
  -6   1   1  110.99   11.00
   6  -1   1  122.89   13.30
   6   1  -1  120.79   14.80
   6   1  -1  120.59   12.40
  -6  -1  -1  107.09   11.50
  -6   1   1  119.89   13.40
   6  -1  -1  109.29   11.10
   6  -1  -1  135.89   12.60
  -6  -1   1  131.99   12.60
   6  -1  -1  119.39   10.80
   6   1   1  127.09   12.90
  -6  -1   1   90.19   15.10
  -6   1  -1  102.89   12.80
  -6  -2  -1  780.72   66.89
   6  -2   1  809.72   67.09
   6  -2   1  830.52   66.99
   6   2  -1  933.71   66.89
  -6   2   1  859.21   68.29
  -6  -2   1  731.33   66.79
  -6   2  -1  881.21   67.49
  -6  -2   1  872.31   68.99
   6  -3   1   76.59   13.90
   6  -3   1   59.49    9.90
   6  -3   1   53.69   14.30
  -6   3   1   49.50   15.50
  -6  -3  -1   78.19    9.40
  -6  -3   1   49.50   16.10
  -6   3  -1   58.39   13.70
  -6  -4  -1   86.49   12.40
   6  -4   1   99.49   20.00
  -6  -4  -1   79.99   16.50
  -6   4  -1   92.59   19.30
  -6  -4   1   89.79   19.30
  -6  -5  -1   93.39   17.70
  -6  -5  -1   93.09   22.40
   6  -5   1  145.59   27.60
   6  -5  -1  103.09   27.20
  -6  -5   1  104.89   27.90
  -6  -6  -1  822.12   69.39
  -6  -6  -1  663.73   64.69
   6  -6   1  793.92   72.69
   6  -6  -1  711.03   70.79
  -6  -6   1  718.03   72.49
  -6   0  -2   62.29    9.50
  -6   0  -2   73.29    9.90
   6   0  -2   77.99   10.50
  -6   0   2   67.79   11.00
   6   0   2   95.69   10.80
  -6   1   2 1081.09   81.09
  -6   1   2 1104.69   82.09
  -6  -1  -2 1052.99   81.29
   6  -1   2  970.30   80.89
   6  -1   2  972.40   80.29
   6  -1   2  955.80   80.89
   6   1  -2 1027.70   80.69
   6  -1  -2 1043.80   80.79
  -6  -1   2  922.91   82.19
  -6   1  -2  985.80   80.69
  -6  -1   2 1039.40   80.99
  -6   2   2 4777.52  357.86
   6  -2   2 4302.07  356.36
  -6  -2  -2 4436.16  356.46
   6  -2   2 4438.76  355.96
   6  -2   2 4689.53  355.96
   6   2  -2 4469.75  355.76
  -6   2  -2 4425.26  356.26
  -6   2  -2 4726.63  356.36
  -6  -2   2 4603.84  355.76
  -6   3   2  159.18   26.10
   6  -3   2  177.18   19.50
  -6  -3  -2  189.68   19.10
  -6  -3   2  202.68   28.90
  -6   3  -2  197.18   19.50
   6  -4   2   65.99   17.00
  -6   4   2    4.70   14.40
   6  -4   2   -0.30   16.70
  -6  -4   2   31.70   19.00
   6  -5   2  142.19   24.90
  -6  -5  -2  150.18   25.90
  -6  -5  -2  181.38   23.50
   6  -5   2  147.39   33.30
  -6  -5   2  109.69   32.30
   6  -6   2  122.99   35.80
  -6  -6  -2  177.58   28.80
  -6  -6  -2  179.18   28.10
   6  -6   2  195.88   31.50
  -6  -6   2  155.88   44.00
   6  -6  -2  166.48   36.70
  -6   0   3  420.36   34.40
   6   0   3  367.96   33.10
  -6   0   3  408.96   34.70
   6   0   3  360.46   33.90
  -6   0  -3  418.06   33.50
   6  -1   3   19.90    7.70
  -6   1   3   23.60    8.90
  -6  -1  -3   46.80    9.60
   6  -1   3   29.10    7.50
  -6   1   3   22.10    9.10
  -6  -1   3   21.70    7.90
  -6   1  -3   22.80    5.80
  -6  -1   3   27.70   10.70
   6  -2   3   39.90    9.70
   6   2  -3   30.90    7.80
   6  -2   3   45.50   11.40
  -6  -2  -3   48.80   10.40
   6  -2   3   39.30   10.30
  -6   2   3   37.30   12.10
  -6  -2   3   17.70   14.90
  -6   2  -3   54.69   10.90
  -6  -2   3   41.40   11.50
  -6  -3  -3  421.36   35.20
   6  -3   3  410.16   36.10
  -6   3   3  374.16   38.30
   6  -3   3  405.76   36.00
   6  -3   3  351.86   33.30
  -6   3  -3  380.36   34.20
   6  -4   3   18.60   18.80
   6  -4   3   55.79   17.30
  -6  -4   3   -9.00   18.00
  -6  -5  -3  285.67   35.90
   6  -5   3  303.57   35.30
   6  -5  -3  367.16   41.30
   6  -6   3   72.39   23.00
  -6  -6  -3   32.90   24.10
  -6  -6  -3   32.40   18.10
   6  -6   3    5.10   30.00
  -6  -6   3  -21.80   23.80
  -6   1   4  384.56   38.10
   6  -1   4  469.45   37.10
  -6   1   4  394.26   39.90
  -6  -1  -4  445.56   37.20
  -6  -1   4  395.66   37.80
  -6   1  -4  385.46   36.00
  -6  -1   4  425.56   39.80
  -6   2   4 1576.64  138.39
   6  -2   4 1590.14  135.29
   6  -2   4 1764.42  135.29
  -6  -2  -4 1843.12  135.89
  -6  -2   4 1733.23  137.19
  -6   2  -4 1621.24  134.19
   6  -3   4  453.65   44.10
  -6  -3  -4  477.55   42.30
   6  -3   4  519.95   45.00
  -6   3  -4  450.85   41.70
   6  -4   4  139.09   26.00
   6  -4   4   83.79   26.00
   6  -5   4   34.10   24.20
   6  -5   4   36.30   18.90
  -6  -5  -4   14.60   14.50
  -6  -5   4   47.10   32.90
   6  -5  -4   31.50   22.40
  -6   0  -5   69.09   16.20
  -6   0   5   75.49   19.70
  -6  -1  -5  119.29   22.20
   6  -1   5  133.09   22.40
   6  -1   5  141.19   20.10
  -6   1  -5  117.19   18.10
  -6  -1   5  160.88   18.10
  -6  -1   5   92.29   23.70
   6  -2   5   20.20   15.80
   6   2  -5   50.99   13.90
  -6  -2  -5   36.30   10.80
  -6  -2   5   32.90   20.80
  -6  -2   5   31.00   13.60
  -6   2  -5   59.89   12.80
  -6  -3  -5  128.49   22.00
   6  -3   5  165.48   25.50
   6  -3   5  110.59   26.80
   6  -3  -5  176.08   27.50
  -6  -3   5  102.69   31.00
  -6   3  -5  174.68   21.60
   6  -4   5   65.89   25.30
  -6  -4  -5    8.60   12.50
  -6  -4   5   20.00   25.90
   6  -4  -5   13.50   19.10
  -6   0  -6   31.40   13.90
   6   0  -6   49.60   19.80
   6   0   6   81.19   21.50
   6  -1   6  559.64   53.49
  -6  -1  -6  580.44   53.09
   6  -1   6  573.44   51.19
   6   1  -6  634.84   55.39
  -6   1   6  495.55   51.69
   6  -1  -6  569.34   56.09
  -6   1  -6  530.55   51.29
  -6  -1   6  457.45   52.99
   6  -2   6  197.98   31.30
   6  -2   6  175.58   29.90
  -6  -2   6  107.19   32.90
  -6  -2   6  167.88   28.00
   6  -3   6  225.98   40.20
  -6  -3  -6  291.47   36.50
   6  -3   6  294.57   38.90
   6   3  -6  283.67   34.20
  -6  -3   6  201.68   43.50
   6  -3  -6  306.67   45.90
  -6  -3   6  196.88   36.80
  -6  -4  -6   42.00   17.50
   6  -4   6   30.20   30.10
  -6  -4   6   55.29   24.40
  -6  -4   6   33.10   32.30
  -6   0   7   79.49   28.80
  -6   0  -7  136.39   31.80
   6   0   7  139.69   32.50
   6   1  -7   69.59   21.60
   6  -1   7   47.60   26.20
  -6   1   7   62.49   23.40
   6  -1   7   56.09   26.50
  -6  -1   7   48.30   27.10
  -6   1  -7   56.49   15.90
   6   2  -7   41.10   17.00
  -6  -2  -7   45.50   17.90
   6  -2   7   24.90   21.70
  -6  -2   7   32.10   31.30
   7   0   0   -2.60    3.40
   7   0   0    0.50    3.40
  -7   0   0   -0.60    4.80
  -7   0   0   -4.20    4.70
  -7   1   0 4685.33  333.77
  -7  -1   0 4195.08  333.87
  -7   1   0 4470.45  334.37
   7   1   0 4464.55  333.97
   7  -1   0 3661.73  333.67
  -7  -1   0 4052.99  333.77
   7  -1   0 4274.07  333.37
  -7  -2   0 1687.13  141.19
   7  -2   0 1681.23  140.39
  -7   2   0 1873.01  141.29
   7   2   0 1963.00  140.89
  -7  -2   0 1701.93  140.29
  -7  -3   0 1299.17  107.79
   7  -3   0 1347.47  108.89
  -7  -3   0 1386.46  109.69
  -7   3   0 1416.06  109.59
  -7  -4   0    6.10    5.80
   7  -4   0   11.90   11.70
  -7  -4   0    6.00   10.30
  -7   4   0  -11.00   12.20
  -7  -5   0  258.27   25.60
  -7   5   0  217.78   35.10
  -7  -5   0  273.47   32.20
   7  -5   0  309.37   32.90
  -7  -6   0   84.49   24.10
   7  -6   0  124.29   34.90
  -7   0   1   -3.90    4.70
   7   0   1   -1.40    4.90
  -7   0   1    1.90    4.70
   7   0  -1    4.00    4.30
   7   0   1   -3.40    4.80
  -7   0   1   -4.40    4.80
  -7   0  -1    6.50    5.50
   7   0  -1    8.10    5.00
  -7   0  -1   -1.60    3.40
   7  -1   1   23.20    5.30
  -7   1   1   22.50    6.40
   7   1  -1   18.70    5.50
  -7  -1  -1   14.10    4.00
   7   1  -1   23.20    9.10
   7  -1   1   10.00    6.30
  -7   1   1   14.30    4.80
  -7   1  -1   14.90    5.80
   7  -1  -1   18.10    4.00
  -7  -1   1    8.30    5.60
   7   1   1   35.80    9.10
  -7  -1   1   15.90    9.40
   7  -1  -1   11.10    4.50
   7   2  -1   90.79   12.90
  -7  -2  -1  102.29   11.50
   7  -2   1  125.79   14.90
   7  -2   1  117.69   12.70
  -7   2   1   92.69   14.40
   7  -2  -1  109.69   11.40
  -7  -2   1  105.69   16.10
  -7  -2   1   85.89   12.80
  -7   2  -1   93.79   14.00
   7  -2  -1  109.19   12.10
  -7  -3  -1  478.55   41.70
   7  -3   1  529.55   43.20
  -7  -3  -1  488.35   43.50
   7  -3   1  507.85   42.80
  -7   3   1  473.65   44.40
  -7   3  -1  536.65   43.10
  -7  -3   1  493.85   41.70
  -7  -3   1  524.55   45.40
  -7  -4  -1  829.02   73.99
  -7   4   1 1002.70   78.29
   7  -4   1  978.30   74.79
   7  -4   1  816.92   73.19
  -7  -4  -1  855.41   72.39
  -7   4  -1  922.21   74.09
  -7  -4   1  849.72   76.29
   7  -5   1   72.19   18.80
  -7  -5  -1   62.49   21.80
  -7  -5  -1  101.29   17.30
   7  -5  -1   79.59   26.90
  -7  -5   1   80.79   22.40
  -7  -6  -1   31.60   19.90
   7  -6   1   73.99   27.20
   7  -6  -1   74.29   21.70
  -7  -6   1   61.09   27.10
   7  -6  -1   16.80   24.00
  -7   0   2 5202.18  377.66
  -7   0   2 5001.00  377.96
  -7   0  -2 5111.29  376.96
   7   0   2 4275.37  377.36
  -7   0  -2 4478.55  377.26
  -7   1   2 1424.16  104.89
   7  -1   2 1225.08  103.79
  -7   1   2 1431.36  105.99
   7   1  -2 1326.77  104.59
   7  -1   2 1316.17  104.69
  -7  -1  -2 1367.46  104.99
  -7   1  -2 1316.67  104.59
  -7  -1   2 1479.75  105.09
   7  -1  -2 1157.88  104.39
  -7  -1   2 1141.09  105.99
   7  -2   2  550.14   42.80
   7  -2   2  520.35   42.10
  -7  -2  -2  519.65   42.80
  -7   2   2  486.15   44.50
   7   2  -2  486.45   42.60
  -7   2  -2  469.15   42.90
  -7   2  -2  552.44   43.30
  -7  -2   2  507.25   42.10
   7  -3   2  787.32   56.59
  -7  -3  -2  730.03   57.19
   7  -3   2  592.64   57.29
  -7   3   2  698.43   59.99
  -7  -3   2  647.44   61.79
  -7   3  -2  659.33   56.69
   7  -4   2  620.94   63.49
   7  -4   2  716.23   62.09
  -7   4   2  701.73   66.19
   7  -4   2  774.52   60.49
  -7  -4  -2  814.62   62.89
  -7   4  -2  732.33   61.29
  -7  -4   2  738.93   66.79
   7  -5   2  189.08   27.90
   7  -5   2  184.48   33.90
  -7  -5  -2  185.78   23.10
  -7  -5  -2  148.89   24.80
  -7  -5   2  116.09   33.80
  -7  -6  -2    8.30   16.30
   7  -6   2   69.89   23.80
  -7  -6  -2   46.30   15.00
   7  -6   2   24.10   31.50
  -7  -6   2    8.20   30.00
   7  -6  -2   26.00   22.90
   7  -6  -2   38.50   22.20
  -7   0   3    8.50    8.80
  -7   0   3   14.80    7.70
   7   0   3   38.60   11.40
  -7   0  -3   16.20    5.70
  -7   1   3   39.20   12.10
  -7  -1  -3   72.69   11.60
   7  -1   3   44.00   10.10
   7  -1   3   67.09   11.70
  -7  -1   3   54.09   12.00
  -7   1  -3   53.09    8.90
  -7  -1   3   51.99   12.70
   7   2  -3  204.08   22.60
   7  -2   3  238.78   22.80
   7  -2   3  228.58   22.90
  -7   2  -3  261.77   22.70
  -7  -2   3  241.68   23.10
  -7  -2   3  248.28   29.20
   7  -3   3  385.46   33.90
   7  -3   3  339.07   32.70
  -7  -3  -3  369.76   32.20
   7  -3   3  375.76   34.50
  -7   3   3  297.87   37.60
  -7   3  -3  320.47   32.00
   7  -4   3   27.60   12.30
  -7  -4  -3    6.90   11.20
  -7  -4   3  -20.80   17.60
   7   0   4 1505.35  134.29
  -7   0   4 1884.31  136.09
   7   0   4 1721.93  134.99
  -7   0  -4 1643.04  135.19
  -7   0   4 1703.63  136.69
   7  -1   4  832.22   63.99
   7  -1   4  808.42   64.99
  -7  -1  -4  671.63   64.69
  -7   1   4  806.62   68.29
  -7   1   4  762.22   65.59
  -7  -1   4  850.51   66.19
  -7  -1   4  696.83   66.39
  -7   1  -4  782.52   63.79
  -7   2   4   73.89   20.90
   7  -3   4  224.88   25.90
   7  -3   4  162.38   26.10
  -7  -3   4  190.48   32.70
   7  -4   4  330.97   36.80
   7  -4   4  290.37   37.20
  -7  -4  -4  370.36   38.10
   7  -5   4  123.39   35.20
   7  -5   4  180.48   32.40
  -7  -5  -4  212.98   30.80
   7   0   5   87.09   18.00
  -7   0  -5  118.89   18.10
  -7   0   5   59.59   20.40
   7  -1   5  184.68   25.30
  -7   1   5  152.48   25.50
  -7  -1  -5  200.98   23.90
  -7   1  -5  218.58   22.70
   7  -2   5  143.79   23.60
  -7  -2  -5  112.89   21.70
  -7  -2   5  123.29   29.00
  -7  -3  -5   23.80   13.00
   7  -3   5   68.49   22.40
   7   3  -5   40.30   11.90
  -7   3  -5    5.90   11.50
  -7  -3   5   19.50   21.60
   7  -4   5  141.39   34.40
   7  -4   5  133.39   29.60
  -7  -4  -5  113.99   27.50
  -7  -4   5   85.89   29.10
   7  -4  -5   99.49   30.20
  -7   1   6  368.56   44.40
   7   1  -6  530.65   48.60
   7  -1   6  490.75   46.10
   7  -1   6  419.96   45.00
  -7  -1  -6  448.26   48.40
  -7  -1   6  361.36   46.80
  -7   1  -6  485.65   46.00
   7  -1  -6  505.65   48.90
   7  -2   6   61.19   22.60
   7  -2   6  112.39   25.30
  -7  -2   6   84.69   27.10
  -7  -2   6   49.00   19.40
  -7   2  -6   66.49   17.30
  -7  -3  -6  111.59   29.90
   7  -3   6  143.39   33.50
   7   3  -6  150.38   28.30
  -7   3  -6  119.49   26.50
  -7  -3   6   59.79   32.50
   7  -3  -6  132.89   36.10
  -7  -4  -6   32.40   18.60
   7  -4   6   54.29   25.30
  -7  -4   6   19.50   32.60
   7  -4  -6   23.50   24.50
  -7   0   7  -22.00   25.60
  -7   0  -7   26.40   16.30
   7  -1   7   79.09   27.60
  -7   1   7   16.10   23.10
  -7  -1  -7   54.49   19.10
  -7   1  -7   44.90   16.70
  -7  -1   7   11.60   26.50
   7  -2   7   54.19   22.80
  -7   2  -7   23.80   15.10
  -7  -2   7  -11.20   31.30
   8   0   0 8656.23  738.43
  -8   0   0 9999.00  739.73
   8   0   0 9694.03  739.53
   8   1   0  567.34   42.40
  -8   1   0  501.95   42.80
  -8   1   0  561.74   41.90
   8  -1   0  481.65   41.20
  -8  -1   0  481.55   42.00
  -8  -1   0  463.65   41.80
  -8  -2   0    8.50    4.70
  -8  -2   0    8.70    6.60
   8  -2   0   -0.20    5.40
  -8   2   0   -7.90    6.20
  -8  -3   0   48.30   10.50
   8  -3   0   46.10   11.40
   8  -3   0   46.40   12.10
  -8   3   0   45.30   10.50
  -8  -3   0   38.70    9.30
   8  -4   0 1520.15  126.59
   8  -4   0 1703.63  127.59
  -8   4   0 1625.64  128.59
  -8  -4   0 1570.54  128.29
  -8  -4   0 1503.75  125.69
  -8  -5   0   -8.50    8.40
  -8  -5   0  -20.60   13.60
   8  -6   0   -2.10   17.30
  -8  -6   0  -17.60   18.60
   8  -6   0    0.80   24.40
  -8   0   1  198.88   19.50
  -8   0   1  220.48   18.20
   8   0   1  214.48   19.00
  -8   0  -1  179.28   18.50
   8   0  -1  196.58   18.30
  -8   1   1  284.47   27.00
  -8   1   1  332.17   29.30
   8  -1   1  348.57   27.90
  -8  -1  -1  304.97   27.60
   8   1  -1  344.57   29.10
  -8   1   1  373.26   27.80
  -8  -1   1  338.17   28.90
   8  -1  -1  304.57   27.10
  -8   1  -1  352.76   29.20
   8  -1  -1  318.47   26.90
   8  -2   1  326.47   28.90
  -8  -2  -1  317.47   28.70
   8   2  -1  343.87   29.60
  -8   2   1  339.47   30.90
  -8  -2   1  370.76   31.70
  -8   2  -1  344.07   30.70
   8  -2  -1  348.27   28.90
  -8  -2   1  326.57   29.50
   8  -2  -1  335.57   28.50
   8   3  -1  356.56   29.70
  -8  -3  -1  320.27   30.70
   8  -3   1  354.56   30.30
  -8  -3  -1  321.47   29.10
  -8   3   1  362.56   32.60
  -8   3  -1  333.77   30.90
   8  -3  -1  291.07   28.70
  -8  -3   1  339.97   33.60
  -8  -3   1  337.47   29.60
  -8  -4  -1  397.96   35.40
   8  -4   1  399.86   38.40
  -8   4   1  448.46   43.40
   8  -4   1  431.36   37.40
  -8  -4  -1  354.46   36.80
  -8  -4   1  380.96   40.80
  -8   4  -1  413.26   38.70
  -8  -5  -1  594.14   47.90
   8  -5   1  495.65   51.29
  -8  -5  -1  529.15   50.89
  -8   5   1  422.76   54.59
   8  -5   1  581.44   51.59
   8  -5  -1  579.54   51.69
  -8  -5   1  497.45   52.49
  -8  -6  -1   44.00   20.20
  -8  -6  -1   34.60   12.80
   8  -6   1   76.39   21.30
   8  -6   1   59.99   26.90
  -8  -6   1   60.09   26.50
   8  -6  -1   18.50   24.40
   8   0   2 1885.01  148.89
  -8   0   2 2002.50  147.69
  -8   0  -2 1639.14  148.39
  -8   0  -2 1894.51  148.09
  -8   0   2 1907.01  148.99
  -8   0   2 1959.90  149.49
  -8   1   2 2009.60  158.48
  -8  -1  -2 1913.11  158.48
  -8   1   2 2112.49  159.78
   8  -1   2 1914.11  158.38
   8  -1  -2 1768.52  157.18
  -8  -1   2 2197.78  160.28
  -8   1  -2 1990.50  158.58
  -8  -1   2 2159.48  158.88
  -8  -2  -2  408.46   32.00
   8  -2   2  318.57   30.80
  -8   2   2  364.66   34.70
   8  -2   2  402.06   32.50
   8   2  -2  350.26   32.70
  -8  -2   2  381.26   31.80
   8  -2  -2  368.66   30.60
  -8   2  -2  364.06   33.00
  -8  -3  -2  641.54   54.59
  -8   3   2  699.53   58.89
   8  -3   2  635.24   54.99
  -8  -3   2  609.44   59.89
  -8   3  -2  699.03   55.09
  -8  -4  -2  304.27   29.30
  -8   4   2  311.07   38.40
   8  -4   2  352.06   32.20
  -8  -4   2  289.27   38.60
  -8   4  -2  294.87   31.60
  -8  -5  -2  165.08   22.80
   8  -5   2  153.38   31.90
  -8  -5  -2  146.29   25.20
   8  -5   2  180.88   25.90
  -8  -5   2  167.38   34.40
  -8  -6  -2    9.00   16.90
   8  -6   2   49.00   30.40
  -8  -6  -2   19.30   14.50
  -8  -6   2   14.70   29.20
   8  -6  -2   36.80   24.00
   8   0   3    6.50    8.40
  -8   0  -3    7.90    5.40
  -8   0   3  -13.20    8.40
  -8   0   3  -11.60    6.10
  -8   1   3  335.67   30.60
   8  -1   3  369.56   29.40
  -8   1   3  308.17   32.20
  -8  -1  -3  331.37   29.40
   8  -1   3  331.37   29.60
  -8   1  -3  344.97   28.90
  -8  -1   3  326.67   30.50
  -8  -1   3  281.67   31.60
  -8   1  -3  358.46   30.50
  -8   2   3   -1.20   11.30
   8  -2   3    2.50    8.80
  -8  -2  -3    7.40    6.50
  -8   2  -3   -3.90    6.80
  -8  -2   3   -3.60   16.50
  -8  -3  -3   59.89   13.90
   8  -3   3   72.29   15.90
   8  -3   3   59.99   15.40
  -8   3   3   35.20   15.80
  -8   3  -3   41.50   10.60
  -8  -3   3    6.90   19.30
  -8   4   3  562.64   59.39
   8  -4   3  603.24   53.99
  -8  -4  -3  635.94   54.59
   8  -5   3   48.50   25.90
  -8   0  -4  607.94   46.10
  -8   0   4  480.65   47.50
  -8   0   4  491.95   48.70
  -8   1   4  944.81   86.49
   8  -1   4 1131.99   83.59
  -8   1   4 1035.60   84.79
   8  -1   4 1050.79   83.79
  -8  -1  -4 1033.60   83.89
  -8   1  -4  930.31   82.79
  -8  -1   4  939.51   85.59
  -8  -1   4 1117.49   86.19
  -8  -2  -4  110.49   16.90
   8  -2   4  126.29   19.10
  -8   2   4   93.99   25.10
  -8  -2   4   95.49   23.90
  -8  -2   4  111.79   21.00
  -8   3   4  541.85   54.59
   8  -3   4  500.55   48.90
   8  -3   4  551.84   48.00
  -8   3  -4  607.74   47.30
  -8  -3   4  439.06   52.49
   8  -4   4   87.29   24.90
  -8  -4  -4  140.59   24.20
   8  -5   4   66.49   21.00
  -8  -5  -4   31.00   16.20
   8  -5   4   34.60   28.50
   8  -5  -4   45.00   21.10
  -8  -5   4   -5.90   32.80
  -8   0  -5   13.60    8.30
  -8   0   5    2.70   15.60
  -8   0   5   -3.20   13.30
  -8   1   5   -9.80   15.90
  -8  -1  -5    4.20   11.80
  -8   1   5    3.00   15.00
  -8  -1   5   -3.10   17.50
  -8  -2  -5  293.17   32.10
   8  -2   5  261.87   31.50
  -8   2  -5  289.57   28.20
  -8  -2   5  221.98   35.60
   8  -3   5  190.28   27.00
  -8   3  -5  192.58   24.60
  -8  -3   5  115.99   32.80
   8  -4   5   88.89   26.60
  -8  -4  -5  112.09   26.20
   8  -4   5   54.69   27.80
  -8  -4   5   45.90   28.80
   8  -4  -5   73.69   22.70
  -8   0  -6  897.21   75.99
  -8   0   6  803.92   74.99
   8  -1   6  115.59   27.50
   8  -2   6   95.79   29.40
  -8  -2   6  119.79   29.40
   8   3  -6   68.29   18.30
   8  -3   6  119.59   31.90
   8  -3  -6  101.59   24.70
  -8   3  -6  127.09   24.90
  -8  -3   6    8.20   23.00
  -8  -3   6   42.40   32.10
  -8   0  -7    8.70   12.40
  -8   0   7    4.20   26.40
  -8   1   7   21.60   24.10
   8  -1   7   50.19   19.60
  -8  -1  -7   53.49   18.50
  -8  -1   7    4.70   26.40
  -8   1  -7   87.99   26.30
  -8  -2  -7   67.69   21.60
   8  -2   7   86.39   25.70
  -8  -2   7   67.19   33.60
   8  -2  -7   97.99   30.50
  -8   2  -7   62.09   18.30
   9   0   0    7.70    4.20
  -9   0   0   -4.70    5.60
  -9   0   0    0.00    4.60
  -9  -1   0 1087.49   89.69
  -9   1   0 1071.79   89.59
   9  -1   0 1211.58   89.19
  -9  -1   0 1094.69   89.89
  -9   1   0 1152.48   90.69
  -9  -2   0 5125.89  402.16
  -9  -2   0 5068.99  402.86
   9  -2   0 5361.26  402.16
  -9   2   0 4962.20  402.96
   9  -3   0  340.57   28.30
  -9  -3   0  298.47   26.90
  -9  -3   0  312.37   29.50
   9  -3   0  304.87   27.90
  -9   3   0  280.57   30.30
  -9   4   0  -16.00   12.50
   9  -4   0    1.20   11.40
   9  -4   0   10.80   10.10
  -9  -4   0   -5.90    6.50
  -9  -4   0    0.20   10.90
   9  -5   0   67.09   18.90
  -9  -5   0   51.59   14.70
  -9  -5   0   64.69   21.90
   9  -6   0  235.78   40.50
  -9  -6   0  204.08   33.70
  -9   0  -1    6.10    5.10
  -9   0   1    4.20    6.00
  -9   0   1   -1.20    6.00
   9   0   1    1.70    4.30
   9   0  -1   -3.40    7.60
  -9   0   1   10.30    6.00
  -9   1   1  172.98   17.60
   9  -1   1  210.68   18.70
  -9   1   1  232.88   19.20
  -9   1   1  206.38   20.60
  -9  -1  -1  182.88   18.50
  -9   1  -1  227.48   20.50
   9  -1  -1  177.68   17.50
   9  -1  -1  204.78   17.50
  -9  -1   1  199.08   20.20
  -9  -2  -1  410.76   36.30
  -9   2   1  415.86   38.70
   9  -2   1  493.95   37.20
   9   2  -1  484.65   37.50
  -9  -2  -1  438.56   37.40
  -9  -2   1  467.65   37.50
   9  -2  -1  389.76   36.30
  -9  -2   1  478.05   39.40
  -9   2  -1  400.16   38.40
   9  -2  -1  409.16   36.00
  -9   3   1  406.36   41.00
   9  -3   1  426.96   38.20
   9  -3   1  481.35   39.00
  -9  -3  -1  456.85   38.80
  -9  -3  -1  418.76   37.50
   9   3  -1  529.45   40.00
   9  -3  -1  435.06   37.50
  -9  -3   1  449.86   38.30
  -9  -3   1  426.26   41.40
  -9   3  -1  414.96   39.10
   9  -4   1   34.80   13.70
  -9  -4  -1   18.10   10.40
  -9   4   1   45.10   16.50
  -9  -4  -1   21.80    8.50
   9  -4   1   41.00   11.00
  -9   4  -1   17.60   12.50
  -9  -4   1   40.30    9.90
  -9  -4   1   64.29   17.60
   9  -4  -1   22.70    9.80
  -9   5   1  498.65   53.59
   9  -5   1  393.26   40.00
  -9  -5  -1  390.56   37.90
   9  -5   1  356.16   43.00
  -9  -5  -1  422.66   43.10
   9  -5  -1  483.75   43.40
   9  -5  -1  434.56   38.50
  -9  -5   1  366.96   44.60
   9  -6   1  137.09   36.40
  -9  -6  -1  129.29   23.20
  -9  -6  -1  121.99   29.00
  -9  -6   1  107.09   29.10
   9  -6  -1  106.99   35.50
   9  -6  -1  158.08   30.30
  -9   0  -2  472.55   43.60
  -9   0  -2  507.55   43.20
   9   0   2  561.24   44.60
  -9   0   2  467.75   44.20
  -9   0   2  597.74   45.40
  -9   0   2  583.64   43.00
   9  -1   2 2524.05  207.88
  -9   1   2 2744.73  208.08
  -9   1   2 2700.83  209.48
  -9  -1  -2 2583.94  208.18
  -9  -1   2 2852.91  208.58
   9  -1  -2 2426.96  206.78
  -9  -1   2 2667.23  209.28
  -9   1  -2 2624.14  208.18
   9  -2   2  769.82   68.59
   9   2  -2  916.61   69.19
  -9   2   2  780.02   70.79
  -9  -2  -2  822.82   68.69
  -9  -2   2  988.10   69.29
  -9   2  -2  845.22   69.49
   9  -2  -2  811.22   67.49
  -9  -3  -2  934.11   69.89
   9  -3   2  815.12   69.59
  -9   3   2  862.21   73.39
  -9  -3   2  731.93   73.69
  -9   3  -2  866.71   70.09
  -9  -3   2  888.81   68.99
   9  -3  -2  824.02   68.29
   9  -4   2  168.78   23.20
  -9  -4  -2  181.98   21.20
  -9   4   2  207.18   34.50
  -9   4  -2  191.88   25.80
  -9  -4   2  186.58   32.20
  -9   5   2   81.09   27.30
  -9  -5  -2   94.59   20.30
  -9  -5  -2  106.59   22.00
   9  -5   2  109.59   22.50
  -9  -5   2  150.48   33.00
  -9   5  -2   89.29   21.70
  -9  -6  -2   17.40   21.50
   9  -6   2   23.70   19.20
   9  -6   2   18.80   29.60
   9  -6  -2   28.80   25.10
  -9  -6   2   54.99   31.90
  -9   0  -3   31.20    9.40
   9   0   3   46.40   13.10
  -9   0   3   15.80    9.10
  -9   1   3   88.99   17.70
  -9   1   3  120.49   16.20
   9  -1   3   89.99   14.10
  -9  -1  -3  117.59   14.40
   9  -1   3   99.29   13.20
  -9  -1   3   88.79   17.80
  -9   1  -3   99.39   17.60
  -9  -1   3  127.29   16.20
  -9   1  -3  124.59   13.80
   9  -2   3  505.55   50.19
  -9   2   3  585.94   53.69
   9  -2   3  575.54   49.60
  -9  -2  -3  539.25   50.19
  -9  -2   3  659.13   50.99
  -9   2  -3  660.33   52.99
   9  -2  -3  604.64   48.20
  -9   2  -3  654.83   50.69
  -9  -2   3  635.84   55.29
   9  -3   3   59.09   16.50
   9  -3   3   24.40   11.60
  -9   3   3   10.00   17.00
  -9  -3  -3   13.90    7.40
  -9  -3   3   27.80   20.90
  -9   3  -3   25.50   10.10
  -9  -4  -3    9.80    9.10
  -9   4   3  -15.60   16.90
   9  -4   3    4.00   13.40
   9  -4   3  -23.80   15.80
  -9  -4   3   -2.70   20.20
  -9   4  -3  -15.00   11.00
   9  -5   3   25.40   21.10
   9  -5   3   63.19   18.20
  -9  -5   3   -2.30   20.20
  -9   0  -4  608.54   48.90
  -9   0   4  487.75   50.29
  -9   0   4  535.25   51.29
   9   0   4  627.14   48.60
  -9   1   4  537.75   55.39
   9  -1   4  628.64   51.69
   9  -1   4  687.53   51.99
  -9  -1  -4  664.93   51.69
  -9   1   4  627.74   53.09
  -9  -1   4  588.14   53.49
  -9   1  -4  571.34   50.49
  -9  -1   4  507.85   53.99
   9  -2   4  337.87   35.20
  -9   2   4  380.56   42.60
  -9  -2  -4  398.26   36.60
  -9   2  -4  378.06   34.40
  -9  -2   4  409.56   41.00
  -9   3   4  134.19   32.30
   9  -3   4  180.88   24.00
  -9  -3   4  166.28   32.20
  -9   3  -4  147.49   23.40
   9  -4   4  168.58   26.70
   9  -4   4   98.69   26.00
  -9  -4   4   60.89   27.20
  -9   4  -4  123.59   22.20
  -9  -5  -4   95.19   22.40
   9  -5   4   81.89   21.70
   9  -5   4  104.19   34.20
  -9  -5   4   40.50   34.50
  -9   0   5   86.99   22.80
  -9   0   5   48.30   18.10
  -9   1   5  162.38   25.90
   9  -1   5  189.78   24.30
  -9   1   5  111.39   27.40
   9  -1   5  182.08   23.60
  -9  -1  -5  168.68   24.10
  -9  -1   5  142.59   27.20
  -9  -1   5  133.89   26.60
  -9   1  -5  138.89   21.10
  -9  -2  -5   19.60   13.70
   9  -2   5   24.10   16.90
  -9   2   5   11.40   19.20
  -9  -2   5   -9.20   21.20
  -9   2  -5   22.30   11.10
  -9  -3  -5   38.30   15.00
  -9  -3   5   12.00   22.30
  -9  -4  -5   31.80   16.20
   9  -4   5    8.50   25.10
   9  -4   5   55.09   20.90
  -9  -4   5   32.10   28.60
  -9   1   6   13.70   21.10
  -9  -1  -6   66.39   20.20
   9  -1   6   28.30   21.10
  -9  -1   6   28.00   24.50
  -9   1  -6   31.90   14.60
   9   2  -6  392.66   42.10
   9  -2   6  332.47   40.00
  -9   2  -6  360.26   38.50
  -9  -2   6  359.96   40.50
   9  -3   6   86.39   24.40
  -9  -3  -6   61.59   19.60
  -9  -3   6   54.29   32.80
  -9  -3   6   18.80   24.20
   9   0  -7  129.79   35.20
  -9   0  -7  134.29   31.30
  -9   1   7  -27.50   24.70
   9  -1   7   39.50   19.80
  -9  -1  -7    8.80   13.60
   9  -1  -7   27.90   20.40
  -9   1  -7   15.30   16.50
  -9  -1   7   -5.20   26.40
   9  -2   7   38.50   25.50
  -9  -2  -7   19.00   17.40
  -9   2  -7    8.90   16.10
  -9  -2   7    9.20   32.90
 -10   0   0 1402.86  112.19
 -10  -1   0 4211.88  318.57
 -10  -1   0 3973.00  318.67
  10  -1   0 4220.28  317.77
 -10   1   0 3805.22  319.27
  10  -2   0   27.70    6.50
 -10  -2   0   26.20    6.80
 -10   2   0    9.30    8.60
 -10  -2   0   24.00    8.80
 -10  -3   0 1761.12  145.39
  10  -3   0 1812.12  145.49
 -10   3   0 1969.00  147.99
  10  -3   0 1835.22  145.89
 -10  -3   0 1810.72  146.99
  10  -4   0  152.68   20.60
 -10   4   0  130.09   25.10
 -10  -4   0  154.68   17.90
 -10  -4   0  156.38   22.00
  10  -4   0  155.68   19.50
  10  -5   0  331.17   33.30
  10  -5   0  254.97   33.80
 -10   5   0  201.18   40.70
 -10  -5   0  277.57   33.70
 -10  -5   0  278.77   27.70
  10  -6   0  -16.30   24.30
 -10  -6   0  -18.40   21.60
  10   0  -1  406.26   38.20
  10   0   1  480.85   37.70
 -10   0  -1  454.75   38.60
 -10   0   1  484.05   39.50
 -10   1   1   32.00    9.20
 -10   1   1   60.69   11.30
 -10   1   1   41.30    8.40
 -10  -1  -1   35.70    8.20
  10  -1   1   52.79    9.40
 -10  -1  -1   57.09    9.40
  10  -1  -1   45.30    8.40
 -10   1  -1   68.19   12.60
 -10  -1   1   39.00   12.20
  10  -1  -1   46.40    8.30
 -10  -2  -1  332.97   30.10
 -10  -2  -1  333.97   30.40
 -10   2   1  388.86   33.40
  10  -2   1  350.06   30.20
 -10   2  -1  308.47   32.40
  10  -2  -1  372.66   30.10
 -10  -2   1  403.36   33.80
  10  -2  -1  312.37   29.70
 -10  -2   1  362.26   31.20
 -10  -3  -1  399.36   35.70
 -10   3   1  406.26   39.20
  10  -3   1  368.26   35.30
 -10  -3  -1  414.86   34.40
 -10   3  -1  355.16   36.70
  10  -3  -1  428.16   34.70
 -10  -3   1  423.76   35.70
 -10  -4  -1   86.89   19.10
 -10  -4  -1  113.09   14.40
 -10   4   1   63.89   19.60
  10  -4   1   99.79   19.40
  10  -4   1  102.19   16.80
  10  -4  -1   78.89   16.70
 -10  -4   1  106.09   23.40
 -10   4  -1  129.89   21.90
 -10  -4   1   80.99   17.60
  10  -5   1  190.18   27.20
 -10   5   1  174.08   38.80
  10  -5   1  148.99   29.40
 -10  -5  -1  190.18   27.60
  10  -5  -1  208.38   29.40
 -10  -5   1  120.79   30.30
  10  -6   1  330.97   48.90
 -10  -6  -1  421.46   45.00
 -10  -6  -1  392.26   39.90
  10  -6  -1  367.66   47.70
 -10  -6   1  394.56   48.30
 -10   0  -2    4.20    7.70
  10   0   2    1.90    5.30
 -10   0  -2   -2.20    5.40
 -10   0   2   -4.90    9.30
 -10   0   2   -1.50    7.30
 -10   0   2   -1.00    6.40
 -10  -1  -2  932.01   77.39
 -10   1   2 1008.70   79.49
 -10   1   2  969.30   77.69
  10  -1   2  892.31   77.29
  10  -1  -2  886.71   76.19
 -10  -1   2 1049.70   78.49
 -10  -1   2 1039.80   79.69
 -10   1  -2  942.51   77.99
 -10   2   2 2743.23  225.98
  10  -2   2 2839.82  224.28
 -10  -2  -2 2869.31  224.38
  10  -2  -2 2659.03  222.88
 -10   2  -2 2894.21  224.48
 -10  -2   2 3029.20  224.18
 -10   3   2  248.48   32.10
  10  -3   2  295.57   28.20
  10  -3   2  231.18   27.10
 -10   3  -2  275.97   29.50
  10  -3  -2  327.67   26.40
 -10  -3   2  352.86   28.80
 -10  -3   2  253.07   35.10
  10  -4   2   -3.10   11.20
 -10  -4  -2   12.00   13.70
 -10   4   2    2.90   18.00
 -10  -4  -2    2.60    8.60
  10  -4   2   -5.90   14.60
  10  -4  -2   18.60   10.90
 -10  -4   2   -0.50   20.00
  10  -5   2  116.99   25.00
 -10  -5  -2  100.69   22.10
 -10  -5  -2  101.99   20.80
 -10   5   2   96.49   26.20
 -10   5  -2   75.39   21.10
 -10  -5   2  124.99   28.70
  10  -5  -2  116.99   21.80
  10   0   3  234.38   25.80
 -10   0   3  338.57   29.20
 -10   0  -3  282.57   25.70
 -10   0   3  301.87   27.90
 -10   1   3    6.70   10.10
  10  -1   3   11.00    8.20
 -10  -1  -3   11.80    6.40
 -10   1   3   -5.10   10.60
 -10   1  -3    4.10    6.40
  10  -2   3   35.50   11.70
 -10   2   3   55.29   15.50
  10  -2   3   48.80   14.80
 -10  -2  -3   65.49   12.20
 -10   2  -3   47.00    9.90
 -10  -2   3    3.40   18.40
 -10  -2   3   41.50   10.30
 -10  -3  -3  285.07   26.80
 -10   3   3  251.97   33.70
  10  -3   3  260.77   26.10
  10  -3   3  225.48   26.40
 -10  -3   3  254.57   26.50
 -10   3  -3  208.68   27.00
  10  -3  -3  239.88   23.70
 -10   4   3  278.07   44.20
 -10  -4  -3  290.27   29.10
  10  -4   3  297.87   32.40
  10  -4   3  276.77   30.60
 -10   4  -3  231.58   30.60
  10  -4  -3  242.78   29.40
 -10  -5  -3  125.69   25.70
  10  -5   3  165.48   28.80
 -10   0  -4  319.87   32.50
  10   0   4  352.46   32.30
 -10   0   4  365.66   36.30
 -10  -1  -4  167.78   19.30
 -10   1   4  119.29   24.60
 -10   1   4   96.49   21.80
  10  -1   4  135.49   18.10
 -10   1  -4  171.18   18.00
 -10  -1   4  104.59   22.90
  10  -2   4 1011.20   91.09
 -10   2   4 1242.98   98.59
  10  -2   4 1172.48   92.49
 -10  -2  -4 1224.48   92.59
 -10  -2   4 1071.39   94.79
 -10  -2   4 1016.00   92.49
 -10   2  -4 1124.29   91.19
 -10  -3  -4  149.49   19.70
 -10   3   4   90.69   26.60
  10  -3   4  153.08   23.30
  10  -3   4   96.39   21.50
 -10  -3   4  118.59   32.70
 -10   3  -4  158.18   23.10
  10  -3  -4  134.09   16.30
  10  -4   4   15.30   21.50
 -10  -4  -4   22.50   11.40
 -10   4   4    2.00   24.30
  10  -4   4   75.59   22.20
 -10  -4   4    2.20   25.00
  10  -5   4   37.10   19.60
 -10  -5  -4    2.10   12.00
 -10  -5   4  -32.20   34.30
 -10   0   5   46.40   19.80
 -10   0   5   25.00   18.40
 -10   0  -5   77.39   18.30
  10  -1   5  102.29   18.70
 -10  -1  -5   66.89   20.40
 -10   1   5   35.60   18.80
  10  -1   5   80.09   20.50
 -10   1  -5   57.19   15.80
  10  -2   5   57.79   15.10
  10  -2   5   97.89   23.60
 -10  -2  -5   61.79   17.30
 -10   2   5   26.30   18.10
 -10  -2   5   22.10   23.10
 -10   2  -5   38.90   12.70
 -10  -3  -5  202.88   31.60
  10  -3   5  210.38   32.10
 -10   3  -5  268.97   29.20
 -10  -4  -5   12.90   14.00
  10  -4   5   32.20   19.90
 -10  -4   5   46.70   28.80
 -10   4  -5   51.99   17.00
 -10   0   6   18.10   21.70
 -10   0  -6  106.99   23.40
 -10  -1  -6  246.98   33.20
  10  -1   6  292.27   37.00
 -10   1  -6  233.58   31.30
 -10  -2  -6    4.10   11.90
 -10  -2   6   18.30   26.10
 -10   2  -6   -3.80   13.30
  10  -3   6  154.48   34.00
 -10  -3  -6  133.09   29.00
 -10   3  -6   95.49   28.20
 -10   0   7   -4.40   27.30
  10   0  -7   28.80   19.70
 -10   0  -7   15.60   16.80
 -10  -1  -7  102.99   27.00
  10   1  -7   55.19   21.40
  10  -1   7   34.40   20.50
 -10   1   7   10.60   26.90
  10  -1  -7   38.90   22.80
 -10  -1   7   13.70   29.40
 -10   1  -7   52.89   17.20
 -10  -2  -7   13.30   14.90
 -10   2  -7   10.30   17.50
 -10  -2   7  -30.00   33.30
  10  -2  -7   48.20   23.60
 -11   0   0   -6.30    6.50
 -11  -1   0 4608.44  334.17
 -11  -1   0 4194.08  334.27
 -11   1   0 3722.53  334.77
  11  -1   0 4473.65  333.47
 -11  -2   0  754.32   64.69
 -11   2   0  783.02   65.79
 -11  -2   0  801.62   64.29
  11  -2   0  813.12   63.79
 -11  -3   0 1141.89   89.59
  11  -3   0 1137.59   89.09
 -11   3   0 1105.29   92.29
  11  -3   0 1164.68   89.69
 -11  -3   0 1014.20   90.89
 -11  -4   0   10.90   13.20
 -11   4   0   47.40   16.30
  11  -4   0   31.20   11.10
 -11  -4   0   27.10    8.50
 -11   5   0  440.46   56.79
 -11  -5   0  521.65   51.99
  11  -5   0  593.04   51.69
  11  -5   0  614.94   52.79
  11  -6   0   60.59   28.30
 -11  -6   0   62.99   26.00
 -11   6   0   29.30   25.80
 -11   0  -1  160.38   18.10
 -11   0   1  154.18   19.50
  11   0  -1  163.68   17.80
  11   0   1  198.08   17.10
  11  -1   1  157.18   15.90
 -11  -1  -1  148.99   15.80
 -11   1   1  130.69   14.70
 -11  -1  -1  148.99   14.70
 -11   1   1  151.18   18.60
  11  -1  -1  125.29   14.90
 -11  -1   1  188.68   18.70
  11  -1  -1  163.28   14.70
 -11   1  -1  145.29   18.10
 -11  -2  -1   10.70    5.80
 -11   2   1   -2.80    8.50
 -11  -2  -1    8.80    6.00
  11  -2  -1   13.10    8.50
 -11   2  -1    5.00    9.20
 -11  -2   1    5.50    7.50
 -11  -2   1   23.10   11.90
  11  -2  -1   11.90    6.40
 -11  -3  -1  413.86   38.60
  11  -3   1  423.66   39.10
 -11   3   1  490.05   43.20
  11  -3  -1  463.95   38.70
 -11  -3   1  429.96   41.80
 -11  -3   1  463.05   39.60
 -11   3  -1  480.85   41.70
 -11  -4  -1  587.74   51.59
 -11  -4  -1  617.84   48.90
  11  -4   1  610.44   49.30
 -11   4   1  455.95   52.79
  11  -4   1  538.45   49.20
 -11  -4   1  564.04   52.59
 -11  -4   1  546.15   48.60
  11  -4  -1  570.64   48.90
 -11   5   1  105.89   28.50
 -11  -5  -1   84.29   19.50
  11  -5   1  131.19   27.00
 -11  -5  -1   97.89   23.20
  11  -5  -1   64.59   19.10
 -11  -5   1   83.49   26.80
 -11  -6  -1   22.70   15.00
  11  -6   1   -8.90   25.80
 -11  -6  -1   -0.30   20.20
  11  -6   1  -16.30   17.80
 -11  -6   1    7.90   23.60
  11  -6  -1   -3.70   23.80
 -11   0  -2 3437.66  295.37
 -11   0   2 4100.79  296.77
 -11   0  -2 3620.14  294.57
  11   0   2 3493.65  295.17
 -11   0   2 4134.79  294.57
 -11  -1  -2  881.71   73.19
 -11   1   2  889.81   75.09
  11  -1   2  820.42   73.09
 -11   1   2  853.41   73.19
 -11  -1   2  990.80   75.19
 -11  -1   2  986.50   74.39
 -11   1  -2  930.91   73.79
  11  -1  -2  887.41   71.89
  11  -2   2  243.28   24.00
 -11   2   2  203.18   27.60
 -11  -2  -2  256.27   22.90
 -11   2  -2  238.38   25.30
 -11  -2   2  218.28   25.00
  11  -2  -2  234.38   21.30
 -11  -3  -2  361.06   31.50
 -11   3   2  299.47   36.30
  11  -3   2  392.26   33.00
 -11   3  -2  358.46   34.60
  11  -3  -2  329.77   31.00
 -11  -3   2  267.17   38.80
 -11  -3   2  375.46   33.30
  11  -4   2  721.53   58.49
 -11   4   2  582.04   62.99
 -11  -4  -2  604.04   57.39
 -11  -4  -2  744.53   57.59
 -11  -4   2  669.33   63.79
  11  -4  -2  540.95   55.39
 -11   4  -2  743.23   58.19
  11  -5   2  123.49   31.50
 -11  -5  -2   65.09   20.90
  11  -5   2  125.19   24.20
 -11   5   2   86.49   33.00
 -11  -5  -2  117.79   22.60
 -11   5  -2  107.89   21.60
 -11  -5   2   72.39   28.00
  11   0   3   96.89   13.90
 -11   0  -3   97.89   13.00
 -11   0   3   61.09   16.20
 -11   0   3   52.19   16.80
  11  -1   3   46.40   12.50
 -11   1   3   54.79   15.20
 -11  -1  -3   57.79   11.80
 -11   1   3   43.40   13.20
 -11   1  -3   29.90    8.40
 -11  -1   3   54.89   15.80
 -11  -1   3   16.00   13.80
 -11  -2  -3  159.58   18.10
 -11   2   3  127.29   23.20
  11  -2   3  152.18   19.00
 -11  -2   3  152.58   20.30
  11  -2  -3  139.29   15.10
 -11  -2   3  117.89   27.10
 -11   2  -3  177.68   19.80
 -11  -3  -3  204.08   23.10
 -11   3   3  154.78   31.20
  11  -3   3  188.38   23.10
  11  -3   3  136.19   21.40
  11  -3  -3  186.68   19.50
 -11  -3   3  153.18   23.50
 -11  -3   3  244.08   37.60
 -11   3  -3  218.78   24.80
 -11   4   3   11.70   22.30
 -11  -4  -3   28.20   11.30
  11  -4   3   37.30   16.60
  11  -4   3   15.60   13.90
 -11  -4   3  -13.70   21.50
 -11   4  -3   40.40   14.00
 -11  -5  -3  115.89   29.00
 -11   5   3  153.28   36.20
 -11  -5   3  111.99   35.50
  11   0   4 1030.30   79.39
 -11   0   4  818.82   79.89
 -11   0  -4 1038.00   79.19
 -11   0   4  952.30   82.09
 -11   1   4  227.78   30.20
 -11  -1  -4  339.77   30.70
  11  -1   4  333.97   29.60
 -11   1   4  277.17   34.60
 -11  -1   4  215.18   33.10
 -11   1  -4  250.77   27.10
 -11  -1   4  286.27   31.30
 -11  -2  -4   23.30   10.50
 -11   2   4    4.60   16.70
  11  -2   4   51.29   16.90
 -11  -2   4   16.30   18.40
 -11  -2   4   18.20   14.50
 -11  -3  -4   92.09   20.10
  11  -3   4  144.09   22.40
 -11  -3   4  106.59   33.30
 -11  -3   4  136.09   25.40
  11  -4   4  269.37   35.80
 -11   4   4  222.48   45.10
 -11  -4  -4  271.37   32.80
  11  -4   4  244.88   34.00
 -11   4  -4  299.67   32.60
 -11  -5  -4  110.49   26.90
  11  -5   4  110.79   32.40
 -11   0   5   43.20   19.10
 -11   0  -5   60.49   17.10
 -11   1   5   18.60   19.60
 -11  -1  -5   84.99   19.90
 -11   1   5   43.80   22.20
  11  -1   5   62.39   16.10
 -11  -1   5   45.30   21.30
 -11   1  -5   76.79   18.10
 -11  -1   5   57.59   19.00
 -11  -2  -5   72.99   20.40
 -11   2   5   42.40   22.00
  11  -2   5   70.59   24.40
  11  -2   5   95.29   21.80
 -11  -2   5   32.50   24.00
 -11   2  -5   58.99   13.40
 -11   3   5  -18.10   22.10
  11  -3   5   31.10   18.00
 -11  -3  -5    9.20   11.30
 -11  -3   5   -4.00   24.10
 -11   3  -5    5.30   13.80
 -11  -4   5  129.99   39.70
 -11   4  -5  139.79   30.90
 -11   0  -6   -3.10   12.90
 -11   0   6   -9.70   20.60
  11  -1   6  225.38   35.90
 -11  -1  -6  226.68   33.30
 -11   1   6  155.18   32.70
 -11   1  -6  226.28   29.60
  11  -2   6   30.80   18.60
 -11  -2  -6   44.50   14.40
 -11  -2   6   -3.40   26.60
 -11   2  -6   22.80   15.50
  11  -3   6  148.29   33.30
 -11  -3  -6   80.49   23.60
 -11   3  -6   68.69   19.10
 -11  -3   6   -0.70   33.90
 -11   0  -7  -17.30   15.80
 -11   0   7   13.30   28.90
 -11   1   7   -4.00   27.20
  11  -1   7   54.39   22.30
 -11  -1  -7   33.40   18.70
 -11  -1   7   -4.10   28.90
 -11   1  -7   25.60   15.30
 -12   0   0 6436.26  505.35
 -12   1   0   80.59   16.60
 -12  -1   0   79.69   13.80
  12  -1   0   84.69   11.40
 -12  -2   0   30.50    7.90
  12  -2   0   54.39   10.80
 -12   2   0   22.70   10.90
 -12  -2   0   28.70    9.70
 -12  -3   0  392.86   40.80
  12  -3   0  504.25   39.90
 -12  -3   0  475.85   39.70
 -12   3   0  455.35   43.60
  12  -4   0 1208.98   92.19
 -12  -4   0 1109.69   93.59
 -12  -4   0 1054.29   90.89
 -12   4   0 1003.90   94.49
  12  -4   0 1216.88   91.19
  12  -5   0   22.90   15.50
 -12  -5   0   35.10   12.20
  12  -5   0   41.60   18.80
 -12  -5   0    9.60   15.30
 -12   5   0   26.10   21.90
 -12   0   1   35.30   11.30
 -12   0   1   45.20   10.50
 -12   0  -1   73.59   12.00
  12   0  -1   52.19   10.70
 -12   1   1  352.46   33.20
 -12  -1  -1  342.17   30.40
 -12  -1  -1  352.46   30.00
  12  -1   1  359.76   30.50
 -12   1  -1  361.46   32.10
 -12  -1   1  354.96   32.50
  12  -1  -1  316.27   29.30
 -12  -2  -1   11.70    6.60
 -12  -2  -1   12.80    6.90
 -12   2   1   18.40   10.80
  12  -2   1   20.80    8.40
 -12   2  -1   25.40   10.50
 -12  -2   1   13.20   12.80
  12  -2  -1   10.70    8.80
 -12  -2   1    6.00    8.30
  12  -2  -1   16.30    7.30
 -12   3   1   73.39   16.30
  12  -3   1   94.89   15.30
 -12  -3  -1   92.19   16.40
 -12  -3   1  107.79   19.30
  12  -3  -1   62.09   13.60
 -12  -3   1   71.89   16.60
 -12   3  -1   56.09   14.90
 -12   4   1  128.79   28.30
  12  -4   1  117.69   18.60
  12  -4   1  143.09   21.70
 -12  -4  -1  153.48   23.40
 -12  -4  -1  118.29   17.90
 -12  -4   1  136.89   24.70
  12  -4  -1  144.89   18.70
 -12  -4   1   97.59   20.60
 -12   5   1  351.76   51.29
 -12  -5  -1  364.76   38.20
 -12  -5  -1  362.46   34.70
  12  -5   1  302.87   39.00
  12  -5   1  350.26   36.80
  12  -5  -1  359.26   38.80
 -12  -5   1  336.57   40.80
  12  -5  -1  393.46   36.10
 -12  -5   1  322.97   35.60
  12   0   2 1134.79   91.09
 -12   0  -2 1005.20   89.99
 -12   0   2 1315.27   90.89
 -12   0   2  968.20   91.19
 -12   0  -2 1096.19   91.19
 -12   0   2 1294.07   93.09
  12  -1   2 1109.89  101.39
 -12   1   2 1347.87  104.19
 -12  -1  -2 1238.48  101.69
 -12   1   2 1403.06  101.59
 -12   1  -2 1159.68  101.89
 -12  -1   2 1352.46  102.99
 -12  -2  -2  485.55   40.00
  12  -2   2  462.95   40.40
 -12   2   2  417.16   43.60
  12  -2  -2  471.15   38.80
 -12   2  -2  458.25   41.70
 -12  -2   2  479.45   42.00
  12  -3   2  612.34   54.39
 -12   3   2  653.73   59.29
 -12  -3  -2  702.03   54.49
 -12   3  -2  528.55   56.39
  12  -3  -2  674.83   53.29
 -12  -3   2  681.23   55.49
 -12  -4  -2  358.46   32.20
  12  -4   2  326.87   32.70
 -12  -4  -2  330.37   32.70
 -12   4   2  300.27   42.30
 -12  -4   2  277.37   43.10
 -12  -4   2  328.97   34.40
  12  -4  -2  292.37   31.40
  12  -5   2  123.69   28.30
 -12   5   2   95.49   30.30
 -12  -5  -2  120.49   22.80
 -12  -5  -2   84.49   23.20
 -12  -5   2  163.58   36.80
 -12   5  -2  170.48   33.60
  12   0   3  195.98   22.50
 -12   0   3  200.08   24.00
 -12   0  -3  247.28   22.20
 -12   1   3  205.88   23.90
 -12   1   3  184.68   25.90
  12  -1   3  176.88   21.90
 -12  -1  -3  215.48   20.80
 -12  -1   3  236.28   26.60
 -12  -1   3  217.68   24.70
  12  -2   3    9.00   10.00
 -12   2   3   -8.50   13.30
 -12  -2  -3   12.90    8.00
 -12  -2   3    2.70   18.60
 -12   2  -3  -11.20    9.00
 -12  -2   3  -18.50   10.70
  12  -2  -3    1.40    6.60
 -12   3   3   22.80   18.90
  12  -3   3   67.69   18.50
 -12  -3  -3   62.69   17.10
  12  -3  -3   72.79   13.40
 -12  -3   3   71.59   19.60
 -12   3  -3   41.20   14.50
 -12  -3   3   16.40   25.20
 -12   4   3  563.94   62.19
 -12  -4  -3  548.75   51.89
  12  -4   3  504.15   49.40
  12  -4  -3  579.94   49.50
 -12  -5  -3   90.89   24.30
 -12  -5  -3   46.70   19.20
  12  -5   3   53.49   22.10
 -12   5   3   52.19   25.20
 -12   5  -3   53.29   20.30
 -12   0   4   91.89   21.50
 -12   0   4  102.29   22.80
 -12   1   4  418.26   44.60
 -12  -1  -4  456.45   40.20
  12  -1   4  388.86   38.20
 -12   1  -4  400.56   37.60
 -12  -1   4  337.37   42.40
 -12  -1   4  445.56   40.70
  12  -2   4  181.38   22.50
  12  -2   4  144.19   20.80
 -12   2   4  150.98   30.60
 -12  -2  -4  182.28   21.20
 -12  -2   4  113.69   28.80
 -12  -2   4   86.99   25.00
 -12   2  -4  112.09   20.80
 -12   3   4  423.96   56.79
 -12  -3  -4  470.55   47.50
  12  -3   4  515.45   46.40
 -12  -3   4  390.56   47.00
 -12   3  -4  552.54   45.40
 -12  -3   4  454.55   52.19
 -12   4   4   33.80   25.60
 -12  -4  -4   26.40   13.40
 -12  -4   4   20.90   27.90
 -12   4  -4    1.50   16.40
 -12   0   5   75.79   24.40
 -12   0  -5  111.79   22.00
  12  -1   5    0.20   14.70
 -12   1   5  -14.80   19.20
 -12   1   5  -21.90   20.40
 -12  -1  -5   -2.80   10.70
 -12   1  -5   -2.60   11.30
 -12  -1   5   20.10   20.50
 -12  -1   5   -7.40   20.50
 -12  -2  -5  125.09   24.20
  12  -2   5   82.79   24.00
 -12   2   5   69.29   26.40
 -12  -2   5   69.99   26.30
 -12  -2   5   83.69   22.60
 -12   3   5   39.50   22.70
 -12  -3   5   30.40   25.70
 -12   3  -5   41.60   15.90
 -12  -4  -5   19.30   15.30
 -12  -4   5  -19.90   32.00
 -12   0   6  270.67   42.30
 -12   0   6  191.38   34.30
 -12   1   6    2.20   22.70
 -12  -1  -6   11.70   13.90
  12  -1   6   15.50   21.90
 -12   1   6  -15.90   21.60
 -12   1  -6   20.50   13.30
 -12  -1   6  -31.60   25.10
  12  -2   6   13.00   20.00
 -12  -2  -6   12.00   14.80
 -12   2  -6   -7.10   15.30
 -12  -2   6   31.20   28.30
  12  -3   6   25.90   22.20
 -12   3  -6    4.60   18.00
 -12  -3   6   23.10   34.50
 -12   0   7  -37.50   28.50
 -12   0  -7  -21.20   16.10
  12  -1   7   27.30   22.90
 -12   1   7  -15.80   27.20
 -12  -1  -7   18.60   17.40
 -12  -1   7  -22.30   29.80
 -13   0   0   -3.50    7.50
  13  -1   0    4.90    7.30
 -13  -1   0   25.50    8.10
 -13   1   0   -6.90    9.20
 -13  -1   0   13.90    9.30
  13  -2   0 4247.57  318.97
 -13  -2   0 3827.12  319.37
 -13  -2   0 4294.67  320.37
 -13   2   0 3858.41  320.77
 -13  -3   0  225.78   23.60
 -13   3   0  204.88   29.30
  13  -3   0  222.28   23.10
 -13  -3   0  240.88   25.00
 -13  -4   0    6.70   13.20
  13  -4   0   18.70   12.10
 -13   4   0  -12.90   14.50
  13  -4   0    8.80   10.90
 -13  -5   0    7.20   11.80
  13  -5   0    8.20   19.00
 -13  -5   0  -11.80   17.50
  13  -5   0   13.90   15.70
 -13   5   0   12.70   19.50
 -13   0   1  221.68   22.00
  13   0  -1  234.38   23.30
 -13   0   1  216.68   24.70
 -13   0  -1  237.78   23.00
 -13   1   1   68.79   13.90
 -13  -1  -1   77.09   13.30
 -13  -1  -1  103.09   12.60
  13  -1   1   88.59   13.20
  13  -1  -1   94.89   12.40
 -13  -1   1  114.29   17.30
 -13   1  -1   70.59   15.60
 -13  -2  -1  392.46   34.20
 -13   2   1  333.37   37.40
 -13  -2  -1  344.57   33.10
  13  -2   1  426.06   33.50
  13  -2  -1  339.87   32.40
 -13  -2   1  380.56   37.20
 -13  -2   1  407.76   35.00
  13  -3   1  181.48   20.70
 -13  -3  -1  180.48   20.40
 -13   3   1  146.09   26.80
 -13  -3  -1  165.78   22.60
 -13  -3   1  211.68   25.90
 -13  -3   1  216.98   22.60
  13  -3  -1  175.58   19.90
 -13   3  -1  230.58   26.30
  13  -4   1  147.49   22.30
 -13  -4  -1  146.49   19.40
 -13  -4  -1  153.88   23.30
 -13   4   1  112.69   30.50
 -13   4  -1  131.09   23.40
 -13  -4   1  143.19   25.70
 -13  -4   1  178.38   22.50
  13  -4  -1  162.88   20.70
 -13   5   1  207.18   43.70
  13  -5   1  236.08   28.30
  13  -5   1  236.88   34.40
 -13  -5  -1  225.58   28.10
 -13  -5  -1  260.47   34.40
 -13  -5   1  244.88   30.00
 -13   5  -1  164.78   36.00
  13  -5  -1  225.18   30.70
 -13  -5   1  235.78   33.90
 -13   0  -2  310.27   27.70
  13   0   2  335.97   28.20
 -13   0   2  285.57   30.80
 -13   0   2  259.07   28.60
 -13  -1  -2  874.41   72.99
  13  -1   2  838.12   72.89
 -13   1   2  913.91   76.09
 -13  -1   2  938.91   74.79
 -13   1  -2  800.82   73.39
 -13  -1   2  997.20   74.89
  13  -2   2  610.44   52.99
 -13  -2  -2  667.93   52.89
 -13   2   2  609.74   56.69
 -13   2  -2  626.14   54.49
  13  -2  -2  592.44   51.39
 -13  -2   2  668.53   54.89
 -13  -3  -2  620.04   56.99
 -13   3   2  668.13   62.09
  13  -3   2  692.33   57.79
 -13  -3  -2  717.23   56.99
 -13  -3   2  553.14   57.69
  13  -3  -2  765.82   55.69
 -13   3  -2  669.23   59.69
 -13  -4  -2   36.80   12.40
  13  -4   2   28.40   13.10
 -13   4   2   42.10   22.10
 -13  -4  -2   22.40   10.90
 -13   4  -2   87.59   24.70
 -13  -4   2   31.60   24.60
 -13  -4   2   18.00   13.80
  13  -4  -2    1.00   12.30
 -13  -5  -2   28.10   13.40
  13  -5   2   46.00   20.20
 -13   5   2  -14.10   28.40
 -13   5  -2    3.60   19.60
 -13  -5   2   25.10   29.20
 -13   0   3   -7.70   11.50
  13  -1   3  204.08   24.10
 -13   1   3  209.68   25.20
 -13  -1  -3  246.28   23.00
 -13   1   3  187.48   27.50
 -13  -1   3  224.38   27.80
 -13  -1   3  231.28   27.10
 -13   1  -3  202.38   23.20
 -13  -2  -3  216.68   22.30
  13  -2   3  189.18   25.00
 -13   2   3  210.18   29.90
  13  -2  -3  172.38   20.20
 -13  -2   3  253.27   26.90
 -13  -2   3  199.68   31.10
 -13   2  -3  216.88   24.80
 -13  -3  -3   31.60   11.90
  13  -3   3   39.20   13.50
 -13   3   3   26.20   20.20
 -13   3  -3   86.09   22.50
  13  -3  -3   43.90   13.70
 -13  -3   3   18.50   14.50
 -13  -4  -3    0.50   11.50
  13  -4   3   16.40   14.00
 -13  -5  -3   19.30   13.40
 -13   5   3   47.20   29.70
  13  -5   3   14.10   18.50
 -13  -5  -3   12.90   20.40
 -13  -5   3   -8.30   25.00
 -13   0  -4  181.28   22.30
 -13   0   4  142.89   28.00
 -13  -1  -4  563.54   44.40
  13  -1   4  487.05   44.50
 -13   1   4  443.26   45.20
 -13   1   4  420.46   49.00
 -13  -1   4  402.36   46.70
 -13   1  -4  535.45   44.40
 -13  -1   4  466.15   48.10
  13  -2   4  178.58   23.30
  13  -2   4  125.89   19.90
 -13   2   4  120.99   31.20
 -13  -2  -4  152.38   25.40
 -13  -2   4  110.79   30.20
 -13   2  -4  119.49   21.40
 -13   3   4  170.88   42.30
  13  -3   4  273.97   31.10
 -13  -3  -4  265.77   29.60
 -13  -3   4  217.08   38.80
 -13  -3   4  226.88   32.70
 -13  -4  -4   87.79   24.20
  13  -4   4  112.89   25.90
 -13   4   4   75.29   34.30
 -13  -4   4   48.10   33.00
 -13   0   5   97.09   31.10
 -13   0  -5  131.39   19.80
 -13   1   5  139.49   38.60
  13  -1   5  170.78   26.60
 -13   1   5  104.79   28.00
 -13  -1  -5  149.09   25.00
 -13  -1   5   89.19   29.60
 -13   1  -5  126.99   23.90
 -13  -1   5  134.49   33.20
  13  -2   5   15.30   15.90
 -13  -2  -5    8.70   13.00
 -13   2   5    0.80   21.90
 -13  -2   5  -33.80   21.90
 -13  -2   5   16.70   25.60
 -13   2  -5    2.90   12.60
 -13   3   5  -25.90   23.40
  13  -3   5   22.90   18.90
 -13  -3  -5   -4.30   12.40
 -13  -3   5    4.70   25.90
 -13   3  -5   18.10   16.40
 -13   4   5    8.40   32.90
 -13  -4  -5   40.30   16.20
 -13   4  -5  -33.00   22.90
 -13  -4   5   33.00   33.60
 -13   0   6  -20.70   22.20
 -13   0   6   -8.60   20.30
 -13   0  -6    5.80   12.90
  13  -1   6   24.20   22.80
 -13   1   6  -30.10   22.60
 -13   1   6   -3.90   22.00
 -13  -1   6   20.80   22.50
 -13   1  -6   -7.40   13.40
 -13  -1   6  -25.70   26.20
  13  -2   6  386.76   46.00
 -13   2   6  314.97   53.79
 -13  -2  -6  426.66   45.00
 -13  -2   6  291.37   48.50
 -13   2  -6  417.26   43.70
 -13   3  -6   45.50   20.00
 -14   0   0 1477.55  119.19
 -14   1   0 2049.40  167.38
 -14  -1   0 2045.00  166.18
 -14  -1   0 2286.07  165.98
  14  -1   0 1962.70  164.98
 -14  -2   0  120.99   17.00
 -14   2   0  106.19   23.00
  14  -2   0  107.49   16.60
 -14  -2   0  143.49   19.60
  14  -3   0  474.95   42.50
 -14  -3   0  540.65   43.30
 -14  -3   0  533.15   45.70
 -14   3   0  400.46   47.00
 -14  -4   0  211.08   26.30
 -14  -4   0  283.27   31.70
 -14   4   0  241.18   35.20
  14  -4   0  244.58   27.00
 -14  -5   0  268.47   36.20
  14  -5   0  285.17   37.30
  14  -5   0  246.88   32.10
 -14   0   1    7.30    9.30
 -14   0  -1   28.10    8.20
 -14   0   1    8.70    9.60
  14   0  -1   22.40   10.20
  14  -1   1    7.20    8.70
 -14   1   1   28.00   11.00
 -14  -1  -1    7.10    7.40
 -14   1  -1   17.90    9.10
 -14  -1   1   -3.80   11.00
  14  -1  -1   19.50    7.70
 -14  -2  -1  408.66   34.40
 -14  -2  -1  366.06   33.70
  14  -2  -1  396.96   33.20
 -14   2  -1  405.46   38.10
 -14  -2   1  305.37   38.10
 -14  -2   1  363.26   35.40
 -14  -3  -1  143.69   18.80
 -14  -3  -1  179.48   21.30
 -14   3   1  111.89   27.20
  14  -3   1  167.18   20.60
 -14  -3   1  168.88   25.80
 -14   4   1   36.50   20.90
 -14  -4  -1   59.29   16.60
  14  -4   1   38.60   13.20
 -14  -4  -1   34.40   13.70
 -14   4  -1   33.30   19.30
  14  -4  -1   44.90   12.90
 -14  -4   1   49.90   19.20
  14  -5   1  114.89   26.40
 -14  -5  -1   52.09   15.40
 -14  -5  -1   74.99   24.90
 -14   5   1   74.89   27.80
 -14   5  -1   87.49   25.90
 -14  -5   1   80.19   24.30
  14  -5  -1   42.80   19.50
 -14   0   2  173.28   23.90
 -14   0  -2  137.29   18.30
 -14   1   2 1204.68   99.19
 -14  -1  -2 1153.48   96.59
  14  -1   2 1076.69   96.59
 -14  -1   2 1213.78   98.19
 -14  -1   2 1336.17   98.09
 -14   1  -2 1180.08   97.19
  14  -2   2 1160.48   94.09
 -14   2   2 1115.39   97.49
 -14  -2  -2 1188.08   94.39
 -14  -2   2 1076.69   95.29
  14  -2  -2 1175.58   92.69
 -14   2  -2 1231.48   95.49
  14  -3   2  160.28   21.90
 -14  -3  -2  166.58   21.90
 -14   3   2  105.59   30.70
 -14  -3  -2  193.28   21.80
 -14  -3   2  173.58   25.80
  14  -3  -2  201.48   20.90
 -14  -4  -2   15.60   10.90
 -14   4   2  -18.00   18.00
  14  -4   2    3.50   11.50
 -14  -4  -2    4.50   11.00
 -14  -4   2   17.60   15.00
  14  -4  -2    4.10   13.10
 -14  -4   2   25.00   23.80
 -14   5   2  226.98   48.10
  14  -5   2  302.47   35.80
 -14  -5  -2  263.37   33.60
 -14  -5   2  244.98   45.70
 -14   5  -2  250.97   39.70
 -14   0   3   59.49   15.00
 -14   0   3   52.19   15.50
 -14   0   3   99.49   17.60
 -14  -1  -3   31.50    9.50
 -14   1   3    7.70   13.30
  14  -1   3   18.60   11.10
 -14   1   3   16.20   13.80
 -14  -1   3   10.70   15.10
 -14   1  -3    7.50    8.80
  14  -2   3   56.69   17.20
 -14   2   3   65.29   19.10
 -14  -2  -3   91.09   14.70
 -14   2  -3   47.50   14.00
 -14  -2   3  105.09   22.70
  14  -2  -3   66.39   13.40
 -14  -2   3   27.00   16.40
 -14   3   3  186.08   34.60
  14  -3   3  280.57   30.20
 -14  -3  -3  240.98   26.70
  14  -3  -3  207.58   24.30
 -14  -3   3  277.97   32.50
 -14  -3   3  140.99   40.80
 -14  -4  -3  106.59   24.20
 -14   4   3   80.29   28.80
  14  -4   3  122.39   24.20
 -14  -4  -3  105.59   21.00
 -14  -4   3  101.49   27.70
 -14   5   3  127.49   38.30
 -14  -5  -3   48.50   21.10
 -14  -5  -3  111.59   24.40
  14  -5   3  114.79   28.20
 -14  -5   3   -0.40   27.50
 -14   5  -3   50.89   22.30
 -14   0  -4   54.59   16.80
 -14   0   4   21.00   19.30
 -14   0   4   70.79   18.60
 -14   1   4  126.89   29.70
 -14   1   4   94.69   24.30
  14  -1   4  145.19   23.10
 -14  -1   4  113.79   29.60
 -14  -1   4  119.19   27.10
  14  -2   4  590.54   54.19
 -14   2   4  574.04   59.79
 -14  -2  -4  649.64   53.89
 -14  -2   4  551.94   55.99
 -14  -2   4  581.14   57.19
 -14   2  -4  560.04   52.59
 -14   3   4   32.00   24.90
  14  -3   4   86.59   23.00
 -14  -3  -4   62.49   16.80
 -14   3  -4   92.69   24.30
 -14  -3   4   81.09   27.70
  14  -4   4   85.19   26.40
 -14   4   4   46.50   32.20
 -14  -4  -4   35.70   16.60
 -14  -4   4   27.20   33.90
 -14   0  -5   -3.10   10.80
 -14   0   5  -17.00   19.70
 -14   0   5  -20.80   18.70
 -14  -1  -5   91.49   24.10
 -14   1   5   41.30   23.70
 -14   1   5   59.79   24.70
  14  -1   5   98.89   27.20
 -14  -1   5   80.39   24.20
 -14   1  -5  110.99   22.90
 -14  -1   5   40.00   24.30
 -14   2   5   26.70   26.00
 -14  -2  -5   11.80   13.30
  14  -2   5   36.10   17.10
 -14  -2   5   36.30   22.10
 -14  -2   5   13.90   26.80
 -14   2  -5   23.60   14.10
  14  -3   5  291.47   36.60
 -14   3   5  310.07   55.19
 -14  -3  -5  297.27   36.70
 -14  -3   5  237.08   45.20
 -14   3  -5  253.27   36.90
 -14   0   6   17.50   23.60
 -14   0  -6   35.30   15.50
 -14   0   6   43.60   25.30
  14  -1   6  211.38   30.20
 -14   1   6  153.18   44.50
 -14  -1   6  138.39   42.70
 -14  -2  -6   13.10   17.00
  14  -2   6   13.30   20.70
 -14   2   6  -12.60   25.70
 -14   2  -6  -17.70   15.50
 -14  -2   6  -26.00   29.60
 -15   0   0    6.80    9.50
  15  -1   0 1833.52  159.78
 -15   1   0 1968.50  162.48
 -15  -1   0 2101.69  161.38
 -15  -1   0 2167.28  160.88
  15  -2   0  215.88   21.70
 -15  -2   0  211.98   22.90
 -15  -2   0  182.98   23.70
  15  -3   0  601.44   49.10
 -15   3   0  570.24   54.49
 -15  -3   0  536.05   49.30
 -15  -4   0   21.90   11.70
 -15  -4   0   76.59   23.60
 -15   4   0   13.70   18.90
  15  -4   0   39.50   14.10
 -15   5   0  159.48   40.60
 -15  -5   0  195.68   27.30
 -15  -5   0  225.48   35.10
  15  -5   0  194.78   30.80
 -15   0  -1   38.20    9.80
 -15   0   1   17.50   11.00
 -15   1   1   74.69   16.80
 -15  -1  -1   86.99   15.00
 -15  -1  -1  117.69   14.80
 -15   1  -1   96.99   18.10
  15  -1  -1  119.89   15.60
 -15  -2  -1   18.60    9.20
 -15   2   1   20.10   14.20
 -15  -2  -1   13.00    8.30
 -15   2  -1    3.00   12.30
 -15  -2   1   -1.80   16.90
  15  -2  -1   45.70   12.50
 -15   3   1  183.18   31.40
  15  -3   1  194.88   23.90
 -15  -3  -1  212.38   22.80
 -15  -3  -1  223.48   24.50
  15  -3  -1  187.18   22.30
 -15   3  -1  142.99   29.00
 -15  -3   1  241.88   29.30
 -15   4   1  470.55   54.69
 -15  -4  -1  587.44   50.49
 -15  -4  -1  534.85   46.80
  15  -4   1  453.55   47.10
 -15  -4   1  543.95   52.39
 -15   4  -1  480.35   52.19
 -15  -5  -1   39.00   19.00
 -15   5   1   28.50   27.00
 -15  -5  -1   35.00   14.30
 -15  -5   1   60.49   24.20
 -15   5  -1   40.20   25.20
 -15   0   2 2977.20  235.28
 -15   0   2 3197.78  237.58
 -15   0  -2 2759.82  235.78
 -15   1   2  301.07   35.90
 -15   1   2  301.47   31.10
  15  -1   2  291.67   31.10
 -15  -1  -2  354.66   31.20
 -15   1  -2  296.67   31.80
 -15  -1   2  377.56   34.00
 -15  -1   2  376.56   35.30
 -15  -2  -2    2.70    8.90
 -15  -2  -2   32.60    9.80
 -15   2   2    9.60   14.70
  15  -2   2   22.70   10.80
 -15   2  -2   16.20   11.70
 -15  -2   2   -8.90   18.40
 -15  -2   2   21.10   13.20
  15  -2  -2   18.60    9.10
 -15   3   2  103.19   24.20
 -15  -3  -2  157.18   19.60
 -15  -3  -2  134.59   18.80
  15  -3   2  131.79   21.40
  15  -3  -2   97.59   20.60
 -15   3  -2   86.29   25.90
 -15  -4  -2  682.83   58.69
 -15   4   2  592.74   64.99
  15  -4   2  634.74   56.89
 -15   4  -2  661.73   60.79
  15  -4  -2  646.54   55.89
  15  -5   2    4.90   15.40
 -15   5   2    4.00   28.70
 -15  -5  -2   19.40   16.20
 -15  -5   2   -2.90   29.40
 -15   5  -2   10.50   22.20
 -15   0  -3  276.37   29.40
 -15   0   3  304.97   30.20
 -15   0   3  265.07   30.90
 -15   0   3  307.87   34.50
  15  -1   3   -5.90   11.20
 -15   1   3  -10.00   13.60
 -15  -1  -3   -0.20    9.00
 -15  -1   3   -3.60   15.30
 -15   1  -3   11.40    9.30
 -15   2   3  151.18   30.60
 -15  -2  -3  144.59   20.10
  15  -2   3  125.29   21.90
 -15  -2   3  117.59   29.80
 -15  -2   3  149.99   27.40
 -15   2  -3  137.39   23.10
 -15   3   3  135.69   34.30
  15  -3   3  222.78   26.70
 -15  -3  -3  218.28   26.40
  15  -3  -3  160.38   22.70
 -15   3  -3  217.28   29.50
 -15  -3   3  161.88   26.90
 -15  -4  -3   14.20   17.30
  15  -4   3   18.10   15.50
 -15  -4  -3   11.90   12.20
 -15   4   3   -1.30   23.70
 -15  -4   3   29.80   19.90
 -15  -4   3  -20.20   25.90
 -15   4  -3   34.40   18.80
  15  -4  -3   45.80   16.30
 -15   0   4 1143.09   95.09
 -15   0   4 1106.09   98.19
 -15   0  -4 1145.79   94.99
 -15   1   4  353.36   39.10
 -15  -1  -4  416.06   37.20
  15  -1   4  342.67   38.20
 -15   1   4  333.57   43.90
 -15  -1   4  336.47   42.20
 -15  -1   4  389.76   42.50
 -15   1  -4  361.86   36.40
 -15   2   4  -35.20   19.90
  15  -2   4    2.40   14.70
 -15  -2  -4    2.00    9.60
 -15   2  -4    6.60   12.70
 -15  -2   4  -15.60   20.80
 -15   3   4    0.60   25.70
  15  -3   4   58.49   18.40
 -15  -3  -4   35.00   12.80
 -15   3  -4   18.10   15.70
 -15  -3   4   30.40   27.10
 -15   4   4  177.68   52.59
  15  -4   4  230.18   35.30
 -15  -4  -4  261.77   33.90
 -15   4  -4  273.67   38.30
 -15  -4   4  169.58   49.80
 -15   0  -5   21.60   12.20
 -15   0   5    3.80   20.30
 -15   0   5   -0.50   20.90
  15  -1   5   99.09   29.80
 -15   1   5   68.29   24.80
 -15  -1  -5   98.29   24.00
 -15   1   5   42.20   24.60
 -15   1  -5  103.39   22.00
 -15  -1   5   59.39   25.10
 -15  -1   5   86.39   25.40
  15  -2   5   13.00   18.10
 -15   2   5    5.00   26.10
 -15   2  -5    4.00   14.20
 -15  -2   5   -5.10   26.80
 -15  -2   5   26.60   24.70
 -15   3   5  -29.50   29.90
  15  -3   5   -7.50   19.10
 -15  -3  -5   -7.80   14.70
 -15   3  -5    6.40   17.90
 -15  -3   5  -15.40   29.10
 -15   0  -6  -13.40   14.80
 -15   0   6  -42.00   28.10
 -15   1   6  149.39   35.60
  15  -1   6  224.98   32.90
 -15  -1  -6  213.78   34.00
 -15   1  -6  196.48   33.00
 -15  -1   6  221.98   53.39
  15  -2   6   49.70   24.20
 -15   2   6   49.99   29.60
 -15  -2   6   50.69   27.90
 -15   2  -6   23.10   18.20
 -15  -2   6   14.00   32.10
 -16   0   0 3904.41  308.97
 -16  -1   0  772.92   63.59
  16  -1   0  796.22   62.69
 -16   1   0  732.73   65.39
 -16  -1   0  707.23   63.59
 -16   2   0  -12.30   12.00
  16  -2   0  -16.20    9.40
 -16  -3   0  616.64   52.19
 -16   3   0  486.65   54.69
  16  -3   0  594.44   49.99
 -16  -3   0  539.55   49.20
  16  -4   0  888.71   78.49
 -16  -4   0 1022.70   78.99
 -16   4   0  898.81   84.09
 -16  -5   0   19.50   14.90
 -16   5   0    9.20   23.60
 -16  -5   0   33.70   22.80
 -16   0   1  138.09   22.80
 -16   0   1  153.38   18.50
 -16   0  -1  140.89   19.60
  16  -1   1  178.18   22.80
 -16   1   1  161.78   27.80
 -16  -1  -1  222.28   22.90
 -16   1  -1  212.58   24.80
 -16  -1   1  216.48   26.90
  16  -1  -1  243.18   20.60
 -16  -2  -1   68.59   15.90
 -16  -2  -1  100.69   16.30
 -16   2   1   85.89   25.60
  16  -2  -1   78.09   13.40
 -16  -2   1   64.89   19.90
 -16  -2   1   89.69   25.40
 -16   2  -1   73.29   22.00
 -16  -3  -1   13.40   13.40
 -16   3   1  -16.90   15.50
  16  -3   1    5.60   12.20
 -16  -3  -1    4.30    9.50
  16  -3  -1  -13.30   11.70
 -16  -3   1   -4.10   11.50
 -16   3  -1   -4.30   15.60
 -16  -3   1    6.00   18.30
 -16   4   1  126.09   25.80
 -16  -4  -1   78.59   23.80
  16  -4   1   82.29   22.90
 -16  -4  -1   92.69   20.00
 -16  -4   1   73.89   16.60
 -16   4  -1   41.90   22.00
  16  -4  -1   69.69   15.70
 -16  -4   1   87.49   22.90
 -16  -5  -1  232.88   34.60
 -16  -5  -1  220.38   31.50
 -16   5   1  189.28   45.10
 -16   5  -1  254.17   43.10
 -16  -5   1  298.47   40.10
 -16  -5   1  154.28   27.30
 -16   0  -2  573.44   48.90
 -16   0   2  556.94   51.79
 -16   0   2  538.75   48.30
 -16  -1  -2  631.54   55.39
 -16   1   2  652.93   56.69
  16  -1   2  628.14   57.59
 -16  -1  -2  711.23   57.49
 -16   1   2  708.73   62.19
 -16  -1   2  708.93   58.49
 -16   1  -2  756.72   58.49
 -16  -1   2  580.14   59.19
 -16  -2  -2  372.16   35.60
 -16  -2  -2  417.26   37.10
  16  -2   2  366.86   37.20
 -16   2   2  364.96   43.60
 -16  -2   2  387.96   45.10
 -16   2  -2  415.96   39.00
  16  -2  -2  399.86   34.80
 -16  -3  -2  352.16   33.30
 -16  -3  -2  294.87   33.50
 -16   3   2  304.67   42.60
  16  -3   2  322.07   32.60
 -16   3  -2  304.77   38.90
 -16  -3   2  311.97   37.10
  16  -3  -2  338.67   32.00
  16  -4   2  197.28   29.50
 -16  -4  -2  195.68   27.30
 -16  -4  -2  224.38   35.10
 -16   4   2  151.98   36.50
 -16  -4   2  262.47   34.20
 -16   4  -2  130.69   34.60
  16  -4  -2  186.68   26.10
  16  -5   2   50.49   21.40
 -16   5   2   64.39   33.00
 -16   5  -2   31.70   23.40
 -16  -5   2   60.09   33.10
 -16   0  -3    8.40    9.40
 -16   0   3   18.10   15.90
 -16   1   3   56.09   18.70
 -16  -1  -3   61.89   15.80
  16  -1   3   60.29   19.20
 -16   1  -3   64.29   17.20
 -16  -1   3   68.59   18.40
 -16  -1   3   48.30   17.80
  16  -2   3  128.89   22.50
 -16   2   3  105.99   30.70
 -16  -2  -3  142.39   21.90
 -16   2  -3  129.89   24.00
 -16  -2   3  110.49   29.30
 -16  -3  -3   17.60   12.20
  16  -3   3   12.40   13.90
 -16   3   3   -1.50   18.40
 -16   3  -3   10.30   16.60
 -16  -3   3   47.00   19.50
 -16  -3   3   19.30   26.70
  16  -3  -3   14.40   12.10
 -16   4   3  111.29   31.70
 -16  -4  -3  149.29   25.40
 -16  -4  -3   98.79   25.10
  16  -4  -3   94.79   20.10
 -16  -4   3   46.40   32.00
 -16   4  -3  125.59   34.40
 -16   0   4   84.89   26.50
 -16   0  -4  106.09   20.90
 -16   0   4  101.19   23.10
 -16   1   4  326.47   37.10
 -16  -1  -4  352.76   35.20
  16  -1   4  324.07   37.20
 -16   1   4  285.67   42.00
 -16   1  -4  330.17   34.50
 -16  -1   4  267.27   39.70
 -16  -1   4  273.07   41.30
 -16  -2  -4  145.89   25.60
 -16   2   4   63.99   23.20
 -16  -2   4   91.49   31.90
 -16   2  -4  100.29   23.70
 -16  -2   4  168.28   32.60
 -16   3   4  228.78   46.10
  16  -3   4  298.07   34.40
 -16  -3  -4  311.17   35.00
 -16   3  -4  259.07   36.30
 -16  -3   4  289.17   43.50
 -16   4   4   -7.00   35.60
 -16  -4  -4   18.70   14.50
 -16  -4   4    3.70   35.40
 -16   4  -4  -37.30   19.70
 -16   0   5   81.19   26.40
 -16   0  -5  107.89   26.40
 -16  -1  -5   -0.10   12.60
 -16   1   5   -5.50   23.10
 -16   1   5  -21.60   22.80
  16  -1   5    3.00   19.60
 -16  -1   5  -13.90   22.80
 -16  -1   5  -40.60   23.50
 -16   1  -5   -9.10   13.00
 -16  -2  -5  161.18   28.00
 -16   2   5  123.39   32.40
  16  -2   5  122.99   32.40
 -16  -2   5  111.09   29.70
 -16  -2   5   76.59   32.30
 -16   2  -5  122.29   27.00
 -16   3   5   20.80   31.60
 -16  -3  -5   17.30   13.90
 -16   3  -5   21.60   17.70
 -16  -3   5    9.10   26.80
 -16  -3   5    7.70   30.40
 -16   0   6  300.87   45.10
 -16   0   6  341.67   55.49
  16  -1   6   16.50   19.80
 -16   1   6   21.00   28.50
 -16   1   6   34.90   32.00
 -16  -1  -6   33.90   18.30
 -16  -1   6   44.70   33.10
 -16  -1   6    7.70   30.10
 -17   0   0  -14.30    9.90
 -17  -1   0    8.70   13.90
 -17  -1   0   21.20   10.20
 -17   1   0   11.90   13.30
  17  -1   0   25.00   11.80
  17  -2   0 1750.12  138.09
 -17  -2   0 1690.23  138.59
  17  -3   0  105.39   20.00
 -17  -3   0  114.99   24.80
 -17   3   0   82.29   22.20
 -17  -3   0  131.39   21.20
 -17  -4   0    2.30   12.90
 -17  -4   0   -9.80   18.10
 -17   4   0    3.90   20.80
 -17  -5   0   -5.80   23.00
  17  -5   0    4.50   16.90
 -17   5   0  -22.70   24.90
 -17  -5   0  -28.00   15.00
 -17   0  -1   11.00   10.10
 -17   0   1   -4.10   11.80
 -17   0   1   21.50   12.50
 -17  -1  -1   88.59   17.00
 -17  -1  -1   80.59   17.80
 -17   1   1   69.89   17.30
  17  -1   1   74.69   17.70
 -17   1  -1   83.69   19.40
 -17  -1   1   85.49   16.10
 -17  -2  -1  194.28   22.00
 -17   2   1  119.89   30.30
  17  -2   1  175.58   22.50
 -17  -2  -1  149.39   22.50
 -17  -2   1  132.39   24.10
 -17   2  -1  179.28   27.80
 -17  -2   1  177.18   25.10
  17  -3   1  291.37   31.10
 -17  -3  -1  318.57   31.30
 -17   3   1  239.88   39.50
 -17  -3  -1  324.57   34.00
 -17  -3   1  300.57   32.80
 -17  -3   1  302.97   38.00
  17  -3  -1  275.27   29.70
 -17  -4  -1   -8.40   16.10
 -17  -4  -1  -10.50   11.30
  17  -4   1   -3.30   12.70
 -17   4   1  -16.80   21.30
  17  -4  -1  -21.00   13.10
 -17   4  -1  -13.40   19.90
 -17  -4   1   -4.70   20.70
 -17  -4   1   -4.90   14.30
 -17  -5  -1  152.78   33.60
 -17  -5  -1  139.59   30.50
  17  -5   1  134.69   31.80
  17  -5  -1  133.89   28.70
 -17  -5   1  142.99   37.10
 -17  -5   1  126.59   31.80
 -17   5  -1   88.39   28.80
 -17   0   2  -11.00   12.90
 -17   0  -2    1.60    9.30
 -17   0   2    1.70   14.20
 -17   1   2  722.93   62.39
 -17  -1  -2  754.32   63.69
 -17   1   2  716.83   68.19
  17  -1   2  706.73   63.89
 -17   1  -2  751.82   64.39
 -17  -1   2  834.32   65.09
 -17  -1   2  718.73   65.99
 -17  -2  -2  365.86   35.40
  17  -2   2  340.57   36.20
 -17   2   2  333.67   43.50
 -17   2  -2  375.46   38.20
  17  -2  -2  403.56   33.90
 -17  -2   2  313.77   39.10
 -17  -3  -2  711.03   61.99
 -17  -3  -2  734.43   65.49
  17  -3   2  655.03   61.59
 -17   3   2  671.83   68.39
  17  -3  -2  780.62   60.29
 -17   3  -2  645.44   64.69
 -17  -4  -2   20.90   13.60
  17  -4   2   25.40   16.10
 -17   4   2   19.00   24.30
 -17  -4   2   -7.30   18.30
  17  -4  -2   31.90   16.40
 -17  -4   2  -35.70   18.40
 -17   4  -2   -1.70   19.70
 -17   0   3   65.29   21.50
 -17   0   3   12.20   17.10
 -17   0  -3   25.50   11.50
 -17   1   3  146.59   30.50
  17  -1   3  135.19   23.10
 -17  -1  -3  131.29   20.90
 -17   1   3   77.59   23.50
 -17  -1   3  105.59   24.70
 -17  -1   3  137.39   29.30
 -17   1  -3  128.09   21.80
 -17  -2  -3  143.09   22.00
 -17   2   3   94.59   25.00
  17  -2   3  102.89   23.70
 -17   2  -3   90.59   23.20
 -17  -2   3  150.78   30.20
 -17  -2   3  117.59   26.80
 -17  -3  -3  121.39   26.40
 -17   3   3   67.99   26.60
 -17  -3  -3  122.99   24.40
  17  -3   3  100.49   24.30
  17  -3  -3  144.39   22.30
 -17   3  -3   96.79   29.00
 -17  -4  -3  -16.40   16.10
  17  -4   3   -3.40   17.40
 -17   4   3    9.30   29.80
 -17  -4  -3   -2.80   14.00
 -17  -4   3  -51.79   31.10
 -17   4  -3    3.00   21.20
 -17   0  -4  -20.30   10.90
 -17   0   4    0.80   19.70
 -17   0   4   -6.80   19.00
 -17   1   4  339.17   48.50
 -17   1   4  420.86   42.80
 -17  -1  -4  397.86   40.50
  17  -1   4  418.16   43.60
 -17  -1   4  389.06   47.10
 -17   1  -4  418.26   40.90
 -17  -1   4  392.16   45.60
  17  -2   4  242.78   34.40
 -17   2   4  129.89   39.10
 -17  -2  -4  242.28   29.50
 -17  -2   4  180.98   36.80
 -17   2  -4  190.08   30.00
 -17  -2   4  231.98   38.20
  17  -3   4  108.79   32.00
 -17  -3  -4  130.59   26.50
 -17   3   4  126.99   33.00
 -17  -3   4   83.99   27.10
 -17  -3   4  129.29   35.80
 -17   3  -4  127.49   29.30
 -17   0  -5  120.19   27.00
 -17   0   5   69.49   27.80
 -17   0   5   64.79   25.80
 -17   1   5   27.60   24.90
 -17  -1  -5   50.19   16.50
  17  -1   5   29.60   15.50
 -17   1   5   21.10   24.90
 -17  -1   5   29.50   25.20
 -17  -1   5   36.40   26.40
 -17   1  -5   53.29   17.20
 -17   2   5   42.90   29.90
 -17  -2  -5   27.60   16.70
  17  -2   5   33.20   21.10
 -17  -2   5   35.30   32.40
 -17  -2   5   54.79   29.00
 -17   2  -5   35.90   16.80
 -17   3   5   14.70   36.00
 -17  -3  -5   -1.80   14.40
 -17  -3   5   -1.60   31.30
 -17  -3   5  -26.40   32.50
 -17   3  -5  -18.40   18.00
 -17   0   6  -28.90   34.20
 -17   0   6   19.50   30.10
 -17   1   6  -25.60   31.40
 -17   1   6  -32.40   28.60
 -17  -1   6  -29.80   34.80
 -17  -1   6  -39.20   31.50
 -18   0   0  999.30   84.19
  18  -1   0  439.46   43.70
 -18   1   0  541.45   49.80
 -18  -1   0  581.34   47.20
 -18  -2   0   29.00   17.00
  18  -2   0   10.50   11.80
 -18  -2   0    5.70   10.80
 -18   2   0    1.80   15.50
 -18  -3   0  257.27   32.70
 -18  -3   0  263.07   30.40
  18  -3   0  254.67   28.90
 -18   4   0  134.69   39.00
 -18  -4   0  202.78   28.70
 -18  -4   0  221.88   32.70
 -18   0  -1   61.79   17.40
 -18   0   1   47.80   15.50
 -18   1   1   35.80   16.50
 -18  -1  -1   70.89   16.80
 -18  -1  -1   50.79   16.30
  18  -1   1   42.30   14.30
 -18  -1   1   17.90   16.20
 -18   1  -1   46.20   13.80
 -18  -1   1   69.19   16.00
 -18  -2  -1  121.59   19.90
  18  -2   1   92.39   20.80
 -18   2   1   99.79   29.90
 -18   2  -1  102.89   20.70
 -18  -2   1  130.09   24.10
  18  -2  -1  128.29   19.80
  18  -3   1  316.57   33.80
 -18  -3  -1  324.47   33.10
 -18  -3  -1  316.07   35.50
 -18   3   1  280.97   42.70
 -18  -3   1  267.17   40.70
 -18  -3   1  345.57   36.40
  18  -3  -1  339.97   32.10
  18  -4   1  122.89   26.60
 -18   4   1   91.39   28.20
 -18  -4  -1  133.69   24.20
 -18  -4  -1  131.49   27.60
  18  -4  -1  118.29   25.30
 -18  -4   1  146.19   28.90
 -18  -4   1  142.19   33.60
 -18   4  -1   81.09   25.70
 -18   0   2  121.89   30.20
 -18   0  -2  177.98   22.90
 -18   0   2  181.78   23.70
 -18  -1  -2  488.25   39.20
 -18   1   2  387.56   45.80
 -18  -1  -2  376.06   39.70
  18  -1   2  402.36   41.80
 -18   1   2  390.66   38.90
 -18   1  -2  393.96   40.80
 -18  -1   2  479.05   42.90
 -18  -1   2  426.36   44.40
 -18   2   2  486.05   54.19
 -18  -2  -2  578.44   49.20
  18  -2   2  530.15   47.50
 -18  -2  -2  481.35   46.10
 -18  -2   2  447.56   53.49
 -18   2  -2  509.85   48.90
  18  -2  -2  454.05   45.00
 -18  -2   2  571.04   50.79
  18  -3   2   12.50   13.80
 -18   3   2   28.30   21.20
 -18  -3  -2   23.30   12.40
 -18  -3   2   16.60   22.60
 -18   3  -2   21.70   17.40
  18  -3  -2   22.60   14.10
 -18  -3   2    4.40   17.30
 -18  -4  -2   56.59   16.80
  18  -4   2   70.59   22.20
 -18   4   2   19.70   26.40
 -18  -4  -2   88.99   28.80
 -18  -4   2   50.49   23.90
 -18   4  -2   26.70   22.20
 -18  -4   2   62.19   21.50
  18  -4  -2   52.79   17.60
 -18   0  -3   80.99   19.60
 -18   0   3   38.40   18.70
 -18   0   3   44.20   20.00
  18  -1   3    4.80   15.40
 -18   1   3   16.80   17.80
 -18  -1  -3   14.60   11.20
 -18  -1   3   -2.90   18.40
 -18  -1   3    4.70   18.20
 -18   1  -3   -5.80   11.00
 -18   2   3   86.69   24.30
 -18  -2  -3   57.49   20.60
 -18  -2  -3  111.69   20.30
  18  -2   3   89.79   25.00
 -18  -2   3   88.49   22.40
 -18   2  -3   76.19   23.80
 -18  -2   3   94.19   29.00
 -18  -3  -3   94.69   23.70
 -18   3   3   50.99   25.70
 -18  -3  -3   81.79   22.50
  18  -3   3  100.99   26.90
 -18   3  -3   85.39   22.70
  18  -3  -3   94.69   21.00
 -18  -3   3  114.19   34.80
 -18  -3   3   87.79   33.00
  18  -4   3  155.48   29.40
 -18  -4  -3  133.89   30.80
 -18   4   3  114.99   35.80
 -18  -4  -3  176.18   29.00
 -18  -4   3   77.99   29.80
 -18   4  -3  163.58   38.90
  18  -4  -3   81.79   26.90
 -18   0   4   99.59   25.60
 -18   0   4   88.69   28.90
 -18  -1  -4   33.40   15.60
  18  -1   4   20.40   13.40
 -18   1   4   28.00   23.00
 -18   1   4   27.90   22.50
 -18   1  -4   32.40   14.40
 -18  -1   4   34.00   21.90
 -18  -1   4   32.80   22.70
 -18  -2  -4  422.46   45.30
 -18   2   4  313.27   50.39
  18  -2   4  380.36   44.20
 -18  -2   4  442.56   48.90
 -18  -2   4  418.26   50.79
 -18   2  -4  463.85   45.30
  18  -3   4    7.40   20.40
 -18   3   4   61.69   31.30
 -18  -3   4   41.40   32.00
 -18   3  -4   29.90   18.50
 -18  -3   4   44.80   26.90
 -18   0  -5  -12.10   15.10
 -18   0   5  -22.00   23.40
  18  -1   5   12.20   16.00
 -18   1   5   11.20   27.40
 -18   1   5  -12.60   25.30
 -18  -1   5  -10.40   25.20
 -18   1  -5    6.30   17.30
 -18  -1   5    7.80   23.90
  18  -2   5    3.10   21.00
 -18   2   5   21.80   30.10
 -18   2  -5   21.50   18.40
 -18  -2   5  -18.00   32.70
 -18  -2   5   28.10   27.80
 -19   0   0  -11.30   12.40
 -19  -1   0  947.81   79.39
  19  -1   0  923.21   77.19
 -19   1   0  946.81   82.09
  19  -2   0   22.10   12.90
 -19  -2   0   13.50   11.50
 -19   2   0    5.10   15.50
 -19  -2   0    2.30   17.20
 -19  -3   0  784.22   66.29
  19  -3   0  641.34   60.69
 -19  -3   0  669.83   61.39
 -19   4   0   66.89   25.80
 -19  -4   0   48.70   16.10
 -19  -4   0   76.59   22.90
  19  -4   0   31.90   16.90
 -19   0   1   16.00   15.30
 -19   0  -1   53.39   13.00
 -19   0   1   43.90   16.00
 -19  -1  -1   88.59   19.20
 -19   1   1   59.99   19.20
  19  -1   1   59.59   15.60
 -19  -1  -1   63.39   18.80
 -19   1  -1   77.39   21.60
 -19  -1   1   84.09   23.70
 -19  -1   1   74.99   23.50
 -19   2   1   23.70   18.70
 -19  -2  -1   38.80   17.40
 -19  -2  -1   14.70   10.90
  19  -2   1   18.20   14.80
 -19  -2   1   12.80   14.80
 -19   2  -1   -1.50   15.40
 -19  -3  -1  133.59   22.30
 -19   3   1  127.19   27.80
 -19  -3  -1  137.89   30.40
  19  -3   1   89.99   20.60
 -19  -3   1  117.89   29.50
  19  -3  -1  125.79   23.20
 -19  -3   1  129.79   26.80
 -19   3  -1   91.29   23.40
 -19   4   1  331.57   53.29
 -19  -4  -1  448.56   43.70
  19  -4   1  344.67   41.10
 -19   4  -1  278.97   49.90
 -19  -4   1  416.46   43.60
 -19  -4   1  416.66   49.60
  19  -4  -1  396.46   39.80
 -19   0   2  755.12   75.89
 -19   0   2  945.71   71.59
 -19   0  -2  818.42   72.19
 -19   1   2   45.30   21.20
 -19  -1  -2   78.29   18.30
  19  -1   2   56.59   17.70
 -19   1   2   72.99   19.70
 -19  -1  -2  104.79   18.10
 -19  -1   2   65.59   19.10
 -19  -1   2  112.69   24.60
 -19   1  -2   87.69   21.50
 -19   2   2   24.00   21.20
 -19  -2  -2   37.70   15.40
  19  -2   2   40.00   17.20
 -19  -2  -2   67.19   20.00
 -19  -2   2   61.59   19.10
 -19   2  -2   49.99   16.50
  19  -2  -2   35.50   10.90
 -19  -2   2   15.40   23.30
  19  -3   2  121.69   25.60
 -19  -3  -2  138.69   23.70
 -19   3   2  120.39   37.20
 -19   3  -2  133.89   31.50
 -19  -3   2   83.99   22.30
 -19  -3   2   60.59   27.20
 -19  -4  -2  295.27   34.90
 -19   4   2  262.67   50.89
  19  -4  -2  293.87   36.20
 -19  -4   2  306.07   44.40
 -19   0   3  173.28   34.70
 -19   0   3  109.79   27.60
 -19   0  -3  135.19   23.60
 -19  -1  -3    4.50   12.00
 -19   1   3   26.60   18.90
 -19  -1  -3   18.60   12.30
 -19   1   3    4.00   18.50
  19  -1   3   -9.60   10.50
 -19  -1   3   25.40   21.10
 -19   1  -3  -17.10   11.50
 -19  -1   3    6.10   19.80
 -19  -2  -3   11.20   13.20
 -19   2   3    8.90   21.30
  19  -2   3   15.80   17.30
 -19  -2  -3   32.80   13.20
 -19   2  -3   11.30   14.70
 -19  -2   3   44.60   24.60
 -19  -2   3   38.00   21.20
 -19   3   3   61.69   28.40
 -19  -3  -3   81.29   25.00
 -19  -3  -3  119.69   24.20
 -19  -3   3   57.99   25.60
 -19   3  -3   84.39   23.30
 -19  -3   3  121.49   41.80
 -19   0  -4  523.35   50.79
 -19   0   4  456.25   51.09
 -19   0   4  472.45   55.99
 -19   1   4   64.99   25.00
 -19   1   4   72.89   27.50
  19  -1   4   43.00   15.90
 -19  -1  -4   75.89   18.10
 -19  -1   4   46.20   23.40
 -19   1  -4   84.19   22.40
 -19  -1   4   61.39   25.20
 -19   2   4   13.70   26.80
 -19  -2  -4    6.60   15.70
  19  -2   4    9.50   20.00
 -19  -2   4    3.60   26.10
 -19   2  -4    6.80   16.90
 -19  -2   4    1.90   22.40
 -19   3   4    2.30   32.30
 -19  -3  -4   -4.80   16.60
  19  -3   4    8.10   20.70
 -19  -3   4  -28.30   25.90
 -19  -3   4    4.10   31.60
 -19   3  -4  -19.50   18.30
 -19   0   5   27.40   25.80
 -19   0  -5   57.09   19.40
 -19   0   5   20.20   27.30
 -19   1   5   36.50   27.10
 -19  -1  -5   63.69   20.30
  19  -1   5   17.70   19.30
 -19   1   5   77.19   31.70
 -19  -1   5   35.50   26.10
 -19  -1   5  -11.30   27.00
 -19   1  -5   53.89   19.80
  19  -2   5   26.50   23.10
 -19   2   5   32.60   32.00
 -19  -2  -5   35.90   19.20
 -19  -2   5   40.20   28.20
 -19  -2   5   13.70   34.80
 -19   2  -5   22.70   19.10
 -20   0   0  895.91   77.39
 -20  -1   0  341.47   36.40
 -20   1   0  356.56   40.20
 -20   2   0  -17.00   16.70
  20  -2   0  -12.70   14.10
 -20  -2   0  -13.40   11.90
 -20  -2   0  -27.60   19.80
  20  -3   0  225.28   33.10
 -20  -3   0  251.17   31.20
 -20  -3   0  254.67   36.70
 -20   4   0  178.68   45.10
 -20  -4   0  175.98   30.90
 -20  -4   0  269.97   41.90
  20  -4   0  218.48   32.30
 -20   0  -1   71.99   19.90
 -20   0   1  114.09   25.60
 -20   0   1   55.59   18.30
 -20   1   1  188.08   34.50
 -20  -1  -1  227.98   28.60
 -20  -1  -1  240.08   28.20
  20  -1   1  217.38   26.90
 -20   1  -1  220.88   30.20
 -20  -1   1  280.37   32.40
 -20  -1   1  234.38   28.70
  20  -2   1   75.29   23.50
 -20  -2  -1  138.39   26.70
 -20   2   1   73.79   23.40
 -20  -2  -1  104.89   21.40
 -20  -2   1   86.09   26.40
 -20   2  -1  106.19   28.80
  20  -2  -1  109.79   23.20
  20  -3   1   -2.40   16.60
 -20  -3  -1  -10.20   11.80
 -20  -3  -1   -6.20   21.40
 -20  -3   1  -13.20   15.90
  20  -3  -1    8.50   15.40
 -20   3  -1  -17.80   18.90
 -20  -3   1  -10.00   18.00
  20  -4   1   28.30   19.20
 -20  -4  -1    6.40   15.90
 -20   4   1    2.70   26.10
 -20   4  -1    2.90   25.20
 -20  -4   1   60.39   32.40
 -20  -4   1   30.30   18.90
  20  -4  -1   20.00   17.50
 -20   0  -2  287.07   33.80
 -20   0   2  312.77   40.90
 -20   0   2  331.17   34.20
  20  -1   2  259.87   28.40
 -20  -1  -2  266.97   29.80
 -20  -1  -2  249.88   29.40
 -20   1   2  244.58   29.40
 -20  -1   2  220.08   36.00
 -20  -1   2  230.08   33.50
 -20   1  -2  243.18   31.40
 -20   2   2  433.06   54.89
  20  -2   2  417.66   47.30
 -20  -2  -2  496.55   45.70
 -20  -2   2  493.45   51.19
 -20  -2   2  506.05   53.39
 -20   2  -2  512.85   48.90
 -20   3   2  214.18   46.10
 -20  -3  -2  268.27   35.30
  20  -3   2  202.88   36.50
 -20  -3   2  285.37   40.10
  20  -3  -2  317.07   36.20
 -20   3  -2  236.98   38.90
 -20   4   2   81.39   33.30
 -20  -4   2   66.69   25.70
 -20   4  -2   78.29   25.90
  20  -4  -2  124.99   29.00
 -20  -4   2   49.20   30.00
 -20   0  -3   -1.10   12.10
 -20   0   3   -3.90   21.10
 -20  -1  -3  182.58   27.00
  20  -1   3  183.48   25.70
 -20   1   3  190.78   38.50
 -20   1  -3  162.98   27.70
 -20  -1   3  151.28   37.30
 -20  -1   3  161.58   34.10
  20  -2   3   -1.90   16.40
 -20   2   3   -7.40   22.00
 -20  -2  -3    9.60   12.70
 -20   2  -3   11.10   15.10
 -20  -2   3   18.90   22.60
 -20  -2   3   24.70   24.10
 -20   3   3  -28.80   27.00
 -20  -3  -3    3.20   16.40
 -20   3  -3   -3.90   20.40
 -20  -3   3   -7.10   24.80
 -20  -3   3   10.60   30.80
 -20   0   4   17.30   23.80
 -20   0   4   10.40   24.00
 -20   0  -4    8.60   16.50
 -20   1   4  156.58   35.10
 -20  -1  -4  221.88   32.40
  20  -1   4  208.28   31.90
 -20   1   4  148.79   45.60
 -20   1  -4  211.98   32.40
 -20  -1   4  134.99   35.40
 -20  -1   4  141.29   41.50
 -20  -2  -4  101.09   27.60
 -20   2   4   60.89   31.10
  20  -2   4   60.69   24.00
 -20  -2   4   69.49   26.50
 -20   2  -4   69.69   20.20
 -20  -2   4   71.19   30.00
 -20   0   5   10.50   29.10
 -20   0   5   36.80   28.80
 -20   0  -5   16.00   17.70
 -20   1   5    2.30   31.60
 -20   1   5   -2.10   27.30
 -20   1  -5    4.90   18.40
 -20  -1   5  -14.60   24.80
 -21   0   0   -7.80   14.10
 -21   1   0  -15.10   14.80
 -21  -1   0   10.30   13.00
 -21   2   0 1996.50  161.78
 -21  -2   0 1658.73  159.88
 -21  -2   0 2176.88  159.38
  21  -2   0 1992.60  158.68
 -21   3   0   43.70   24.10
 -21  -3   0   62.89   25.40
  21  -3   0   64.49   19.90
 -21  -3   0   40.70   15.60
 -21  -4   0  -11.70   15.60
  21  -4   0  -14.60   18.70
 -21   4   0  -30.00   25.60
 -21   0  -1   -8.30   11.90
 -21   0   1   -1.00   16.00
 -21  -1  -1   12.40   12.30
 -21  -1  -1    4.60   17.70
 -21   1   1  -11.20   16.60
 -21   1  -1   22.10   15.00
 -21  -1   1   18.10   16.10
 -21   2   1  306.07   43.90
  21  -2   1  269.97   36.30
 -21  -2  -1  280.37   33.70
 -21  -2  -1  278.27   36.60
 -21   2  -1  276.07   39.00
  21  -2  -1  340.57   36.80
 -21  -2   1  351.36   37.80
 -21  -3  -1  115.99   23.50
 -21  -3  -1  147.09   33.60
 -21   3   1   54.99   28.40
  21  -3   1   90.19   26.00
 -21   3  -1   93.79   25.10
  21  -3  -1   99.29   28.90
 -21  -3   1  118.29   29.00
 -21  -4  -1  -14.60   15.40
 -21   4   1  -22.80   26.60
  21  -4   1   16.60   20.30
 -21  -4   1    0.70   30.10
  21  -4  -1    6.10   17.90
 -21   4  -1  -21.90   25.60
 -21   0   2   -4.60   17.50
 -21   0   2  -20.20   16.60
 -21   0  -2   -8.50   12.00
  21  -1   2  570.94   52.39
 -21  -1  -2  580.44   53.39
 -21   1   2  526.95   50.89
 -21   1  -2  595.84   54.29
 -21  -1   2  552.44   53.59
 -21  -1   2  590.54   58.09
  21  -2   2  341.27   39.70
 -21  -2  -2  382.46   38.10
 -21   2   2  224.78   48.20
 -21  -2  -2  363.46   39.40
 -21  -2   2  311.27   44.00
 -21  -2   2  343.77   43.70
 -21   2  -2  328.37   40.20
 -21  -3  -2  279.77   35.60
 -21   3   2  205.28   49.00
  21  -3   2  230.08   35.40
 -21  -3   2  286.87   41.60
 -21  -3   2  161.58   49.40
  21  -3  -2  272.67   36.50
 -21   3  -2  282.07   41.20
 -21   0   3   64.29   24.70
 -21   0  -3    9.70   12.90
 -21   0   3    8.60   20.50
 -21   1   3  162.18   30.00
 -21   1   3  136.49   39.90
  21  -1   3  115.79   26.30
 -21  -1  -3  145.49   25.40
 -21  -1   3  111.19   34.20
 -21   1  -3   85.19   27.00
 -21   2   3   55.69   26.50
  21  -2   3   81.89   23.10
 -21  -2  -3   61.89   19.50
 -21  -2   3   22.40   24.20
 -21   2  -3   58.39   18.20
 -21  -2   3   55.19   25.70
  21  -3   3   30.80   22.10
 -21   3   3   20.40   30.50
 -21   3  -3   38.90   22.60
 -21  -3   3   25.80   28.60
 -21  -3   3   34.10   26.90
 -21   0   4    0.00   24.80
 -21   0   4   22.30   25.20
 -21   0  -4    8.40   17.10
 -21   1   4  217.98   38.60
 -21   1   4  247.18   50.99
 -21  -1   4  197.58   39.30
 -21   1  -4  259.37   33.80
 -21  -1   4  193.78   46.60
  21  -2   4   78.39   28.50
 -21   2   4   66.19   33.20
 -21  -2   4  113.09   32.40
 -21  -2   4  102.09   30.50
 -21   2  -4   79.29   22.00
 -22   0   0 1206.48  102.19
 -22  -1   0  736.93   62.79
 -22   1   0  691.33   65.09
 -22  -1   0  627.64   63.99
 -22  -2   0   13.20   17.60
 -22   2   0   13.30   19.00
 -22  -2   0   24.60   14.20
  22  -2   0   16.80   20.00
 -22  -3   0  119.99   38.20
 -22  -3   0  106.49   25.20
  22  -3   0  105.89   30.20
 -22   3   0   51.29   27.30
 -22   0   1  466.15   47.50
 -22   0  -1  388.06   42.70
 -22  -1  -1  -13.50   14.40
 -22   1   1   18.60   19.30
 -22  -1  -1   -3.50   12.60
 -22   1  -1    4.20   15.20
 -22  -1   1    3.40   18.70
 -22  -1   1   19.40   16.90
 -22  -2  -1   61.09   24.20
 -22   2   1   57.09   24.90
  22  -2   1   64.89   22.10
 -22  -2  -1   83.19   23.90
 -22   2  -1   43.80   20.20
  22  -2  -1   78.69   20.10
 -22  -2   1   44.50   27.70
 -22  -2   1   75.49   19.70
 -22   3   1   94.19   31.40
 -22  -3  -1  136.79   29.30
  22  -3  -1  109.69   31.00
 -22  -3   1  109.69   30.80
 -22   3  -1   65.79   25.70
 -22   0  -2   88.49   22.80
 -22   0   2   51.59   21.30
 -22   0   2   21.00   20.20
 -22   1   2  398.16   54.99
 -22  -1  -2  500.35   46.20
 -22   1  -2  465.55   47.50
 -22  -1   2  488.75   52.49
 -22  -1   2  454.65   46.70
 -22   2   2  303.47   52.59
 -22  -2  -2  402.26   42.80
  22  -2   2  287.17   43.20
 -22   2  -2  365.56   43.30
 -22  -2   2  423.06   46.90
 -22  -2   2  377.06   44.80
 -22   3   2   76.39   31.70
 -22  -3  -2   47.00   18.60
 -22  -3   2   71.19   24.60
 -22   3  -2   62.79   23.70
  22  -3  -2   81.29   22.50
 -22  -3   2   43.20   38.40
 -22   0  -3    9.40   15.20
 -22   0   3   30.10   23.10
 -22   0   3   36.80   25.40
 -22  -1  -3   25.00   15.10
 -22   1   3   40.80   23.50
 -22   1   3   49.20   26.70
 -22   1  -3   30.50   15.90
 -22  -1   3   -0.60   27.40
 -22  -1   3   25.80   25.00
 -22  -2  -3   13.10   18.10
  22  -2   3    5.60   22.80
 -22   2   3  -31.00   25.30
 -22  -2   3   22.10   25.10
 -22  -2   3    1.00   27.10
 -22   2  -3   10.10   17.30
 -22   0  -4  113.29   31.00
 -22   0   4   26.70   28.40
 -22   0   4   45.80   29.80
 -22   1   4   80.29   29.40
 -22   1   4  136.59   36.40
 -22   1  -4  147.89   33.00
 -22  -1   4   68.89   31.20
 -22  -1   4   79.29   30.60
 -23   0   0    2.30   16.10
 -23  -1   0  941.31   75.09
 -23   1   0  783.32   77.29
 -23  -1   0  791.72   75.19
 -23   2   0    4.30   19.60
 -23  -2   0    1.00   14.00
  23  -2   0   -3.10   13.20
 -23  -2   0   10.70   25.80
 -23  -3   0  309.17   48.70
  23  -3   0  240.98   38.90
 -23  -3   0  367.36   38.10
 -23   3   0  225.98   49.70
 -23   0  -1   51.59   16.90
 -23   0   1   80.59   21.50
 -23  -1  -1  119.69   26.50
 -23   1   1  124.09   36.30
 -23  -1   1  178.98   31.70
 -23  -1   1  189.28   30.20
 -23   1  -1  123.69   30.00
 -23  -2  -1    9.50   14.20
 -23  -2  -1  -12.60   23.00
 -23   2   1   23.10   24.00
  23  -2   1    4.00   22.20
 -23  -2   1   16.60   18.10
 -23   2  -1    3.20   18.60
 -23  -3  -1   58.69   19.40
 -23   3   1   28.40   31.00
  23  -3   1   62.89   23.50
 -23  -3   1   68.09   21.20
 -23  -3   1   24.10   29.30
  23  -3  -1   55.19   24.40
 -23   3  -1   56.99   26.30
 -23   0  -2  935.91   80.39
 -23   0   2  899.21   79.19
 -23   0   2  874.81   84.59
 -23  -1  -2  213.08   33.30
 -23   1   2  132.69   41.60
 -23   1  -2  145.19   29.30
 -23  -1   2  120.99   30.40
 -23  -1   2  163.68   37.80
  23  -2   2   18.20   24.50
 -23   2   2  -51.19   26.50
 -23  -2  -2    2.80   15.70
 -23  -2   2    4.30   24.80
 -23  -2   2   -8.80   20.00
 -23   2  -2    3.60   18.80
 -23   3   2   92.39   34.30
 -23  -3   2  127.49   27.80
 -23   3  -2   94.49   28.50
 -23   0   3  118.19   32.80
 -23   0  -3  156.48   29.40
 -23   0   3  125.59   33.30
 -23   1   3  -30.20   26.20
 -23   1   3   25.40   23.90
 -23  -1  -3   15.20   18.40
 -23   1  -3   16.40   16.40
 -23  -1   3   -2.10   25.80
 -23  -1   3   -5.10   25.40
 -23   2   3   28.30   29.20
  23  -2   3   32.30   29.70
 -23  -2  -3   48.70   21.20
 -23   2  -3   53.99   21.20
 -23  -2   3   28.50   29.50
 -23  -2   3   35.80   27.40
 -23   0  -4  520.35   56.09
 -23   0   4  523.35   57.19
 -23   0   4  353.96   64.89
 -24   0   0  533.15   54.09
 -24  -1   0  235.88   35.10
 -24   1   0  217.98   38.10
 -24  -1   0  284.27   33.90
  24  -2   0   19.00   16.40
 -24   2   0   -6.90   21.60
 -24  -2   0   11.60   16.70
 -24  -3   0  173.88   44.10
 -24   0   1   37.80   20.30
 -24   0  -1   29.60   16.60
 -24  -1  -1  143.69   28.10
 -24   1   1  144.09   39.40
 -24   1  -1  115.79   31.50
 -24  -1   1  200.48   31.70
 -24  -1   1  157.68   33.00
 -24  -2  -1   95.29   27.60
 -24   2   1   39.10   27.60
  24  -2   1   27.90   17.10
 -24   2  -1   25.50   20.70
 -24  -2   1   42.00   21.50
 -24   0   2   67.79   25.50
 -24   0  -2  149.69   33.00
 -24   0   2   94.89   27.30
 -24   1   2   70.79   28.60
 -24  -1  -2  105.49   26.60
 -24  -1   2   18.90   22.30
 -24   1  -2   57.19   19.00
 -24  -1   2  107.79   31.10
  24  -2   2  201.88   36.60
 -24  -2  -2  259.67   35.30
 -24   2   2  203.08   53.49
 -24   2  -2  224.38   41.00
 -24  -2   2  313.77   43.80
 -24  -2   2  270.77   42.90
 -24   0  -3   28.20   20.30
 -24   0   3   50.79   29.00
 -24   0   3   17.60   30.30
 -24   1   3   56.39   26.40
 -24  -1  -3   61.59   20.00
 -24   1   3   18.30   30.70
 -24   1  -3   57.29   19.90
 -24  -1   3   79.09   30.10
 -24  -1   3   58.89   27.20
 -25   0   0  -24.00   17.80
 -25  -1   0   10.60   18.20
 -25   1   0  -16.10   19.30
 -25  -1   0   56.19   23.10
 -25   2   0  691.33   76.59
 -25  -2   0  828.92   71.89
 -25   0   1   -6.40   20.20
 -25   0  -1    6.30   16.80
 -25  -1  -1   10.90   16.20
 -25   1   1   16.90   22.10
 -25  -1   1   15.10   19.80
 -25   1  -1  -28.50   18.10
 -25  -2  -1  148.09   35.20
 -25   2   1  190.18   47.40
  25  -2   1  129.09   33.80
 -25  -2   1  206.78   39.10
 -25   2  -1  124.09   37.70
 -25  -2   1  105.59   36.10
 -25   0   2  -15.30   23.90
 -25   0  -2   14.20   18.50
 -25   0   2   53.99   27.00
 -25  -1  -2  228.68   35.70
 -25   1   2  157.88   37.00
 -25  -1   2  241.78   40.50
 -25   1  -2  204.08   39.10
 -25  -1   2  207.68   43.00
 -26   0   0  724.03   71.69
 -26  -1   0  132.29   33.40
 -26   1   0  136.89   38.90
 -26   0   1  220.88   42.20
 -26   0  -1  167.28   34.00
 -26   1   1   13.30   24.30
 -26  -1  -1    2.50   17.40
 -26   1  -1    3.60   21.10
 -26  -1   1   -2.00   20.60
 -26  -1   1   39.40   25.50
   0   0   0    0.00    0.00

_computing_structure_solution     'SHELXT 2014/5 (Sheldrick, 2014)'
;
_shelx_hkl_checksum              36044
_olex2_submission_special_instructions 'No special instructions were received'
loop_
_space_group_symop_operation_xyz
'x, y, z'
'-x+1/2, -y, z+1/2'
'-x, y+1/2, -z+1/2'
'x+1/2, -y+1/2, -z'
loop_
_atom_site_label
_atom_site_type_symbol
_atom_site_fract_x
_atom_site_fract_y
_atom_site_fract_z
_atom_site_U_iso_or_equiv
_atom_site_adp_type
_atom_site_occupancy
_atom_site_site_symmetry_order
_atom_site_calc_flag
_atom_site_refinement_flags_posn
_atom_site_refinement_flags_adp
Ag1 Ag 0.37792(11) 0.6507(5) 0.4319(5) 0.0368(8) Uani 1 1 d . U
Ag2 Ag 0.11600(12) 0.4046(5) 0.4025(5) 0.0368(7) Uani 1 1 d . U
N2 N 0.4664(11) 0.571(5) 0.493(4) 0.026(5) Uani 1 1 d . U
N1 N 0.5521(12) 0.363(5) 0.538(5) 0.032(5) Uani 1 1 d . U
N3 N 0.2891(12) 0.720(5) 0.373(4) 0.028(5) Uani 1 1 d . U
N4 N 0.1907(13) 0.628(6) 0.362(5) 0.040(6) Uani 1 1 d . U
C2 C 0.5137(14) 0.703(6) 0.416(6) 0.030(6) Uani 1 1 d . U
H2 H 0.510557 0.856662 0.360572 0.036 Uiso 1 1 calc R .
C3 C 0.4928(14) 0.364(6) 0.566(5) 0.030(6) Uani 1 1 d . U
H3 H 0.471758 0.239481 0.628065 0.035 Uiso 1 1 calc R .
C5 C 0.1990(15) 0.851(7) 0.270(5) 0.030(6) Uani 1 1 d . U
H5 H 0.169077 0.946486 0.214892 0.037 Uiso 1 1 calc R .
C6 C 0.2456(15) 0.561(7) 0.422(7) 0.034(6) Uani 1 1 d . U
H6 H 0.253120 0.417852 0.490401 0.041 Uiso 1 1 calc R .
C1 C 0.5658(14) 0.575(7) 0.433(6) 0.034(6) Uani 1 1 d . U
H1 H 0.603328 0.620774 0.384663 0.041 Uiso 1 1 calc R .
C4 C 0.2585(14) 0.904(7) 0.276(5) 0.026(6) Uani 1 1 d . U
H4 H 0.276004 1.042855 0.223032 0.031 Uiso 1 1 calc R .
loop_
_atom_site_aniso_label
_atom_site_aniso_U_11
_atom_site_aniso_U_22
_atom_site_aniso_U_33
_atom_site_aniso_U_23
_atom_site_aniso_U_13
_atom_site_aniso_U_12
Ag1 0.0301(13) 0.0300(14) 0.0503(17) 0.0021(13) -0.0032(13) 0.0017(11)
Ag2 0.0351(14) 0.0279(13) 0.0473(17) 0.0006(13) 0.0034(13) -0.0037(11)
N2 0.030(6) 0.025(9) 0.024(10) -0.002(8) 0.001(7) -0.001(7)
N1 0.032(7) 0.024(9) 0.038(11) -0.003(9) -0.002(8) 0.000(7)
N3 0.033(7) 0.026(9) 0.025(11) -0.003(8) 0.002(8) 0.004(6)
N4 0.036(7) 0.037(10) 0.048(12) 0.003(9) 0.001(8) -0.003(7)
C2 0.033(8) 0.029(9) 0.028(12) 0.000(9) -0.001(9) -0.004(7)
C3 0.033(8) 0.024(9) 0.032(12) -0.001(9) 0.003(8) 0.001(7)
C5 0.033(8) 0.030(10) 0.029(12) -0.005(9) -0.002(8) 0.001(7)
C6 0.036(7) 0.032(10) 0.034(12) 0.003(9) 0.001(9) -0.001(7)
C1 0.031(8) 0.033(10) 0.038(12) 0.000(9) -0.004(9) -0.004(7)
C4 0.035(8) 0.024(9) 0.019(11) -0.005(9) 0.000(8) 0.001(7)
loop_
_atom_type_symbol
_atom_type_description
_atom_type_scat_dispersion_real
_atom_type_scat_dispersion_imag
_atom_type_scat_source
C C 0.0033 0.0016 'International Tables Vol C Tables 4.2.6.8 and 6.1.1.4'
H H 0.0000 0.0000 'International Tables Vol C Tables 4.2.6.8 and 6.1.1.4'
Ag Ag -0.8971 1.1015 'International Tables Vol C Tables 4.2.6.8 and 6.1.1.4'
N N 0.0061 0.0033 'International Tables Vol C Tables 4.2.6.8 and 6.1.1.4'
loop_
_geom_angle_atom_site_label_1
_geom_angle_atom_site_label_2
_geom_angle_atom_site_label_3
_geom_angle
_geom_angle_site_symmetry_1
_geom_angle_site_symmetry_3
N2 Ag1 Ag2 75.2(8) . 2_565
N3 Ag1 Ag2 104.4(8) . 2_565
N3 Ag1 N2 178.3(12) . .
N1 Ag2 Ag1 98.5(8) 4_456 2_564
N4 Ag2 Ag1 84.0(9) . 2_564
N4 Ag2 N1 170.0(11) . 4_456
C2 N2 Ag1 123(2) . .
C3 N2 Ag1 131(2) . .
C3 N2 C2 104(3) . .
C3 N1 Ag2 130(2) . 4_556
C3 N1 C1 106(3) . .
C1 N1 Ag2 123(2) . 4_556
C6 N3 Ag1 122(2) . .
C6 N3 C4 104(3) . .
C4 N3 Ag1 134(2) . .
C5 N4 Ag2 134(2) . .
C6 N4 Ag2 122(3) . .
C6 N4 C5 105(3) . .
N2 C2 H2 125.0 . .
C1 C2 N2 110(3) . .
C1 C2 H2 125.0 . .
N2 C3 H3 124.0 . .
N1 C3 N2 112(3) . .
N1 C3 H3 124.0 . .
N4 C5 H5 125.8 . .
C4 C5 N4 108(3) . .
C4 C5 H5 125.8 . .
N3 C6 H6 123.2 . .
N4 C6 N3 114(3) . .
N4 C6 H6 123.2 . .
N1 C1 H1 126.5 . .
C2 C1 N1 107(3) . .
C2 C1 H1 126.5 . .
N3 C4 H4 125.4 . .
C5 C4 N3 109(3) . .
C5 C4 H4 125.4 . .
loop_
_geom_bond_atom_site_label_1
_geom_bond_atom_site_label_2
_geom_bond_distance
_geom_bond_site_symmetry_2
Ag1 Ag2 3.138(4) 2_565
Ag1 N2 2.06(3) .
Ag1 N3 2.06(3) .
Ag2 N1 2.10(3) 4_456
Ag2 N4 2.09(3) .
N2 C2 1.38(4) .
N2 C3 1.38(4) .
N1 C3 1.33(4) .
N1 C1 1.40(5) .
N3 C6 1.35(5) .
N3 C4 1.39(4) .
N4 C5 1.39(5) .
N4 C6 1.34(4) .
C2 H2 0.9300 .
C2 C1 1.37(5) .
C3 H3 0.9300 .
C5 H5 0.9300 .
C5 C4 1.36(4) .
C6 H6 0.9300 .
C1 H1 0.9300 .
C4 H4 0.9300 .
loop_
_twin_individual_id
_twin_individual_mass_fraction_refined
1 0.7(5)
2 0.3(5)
