#------------------------------------------------------------------------------
#$Date: 2019-11-26 03:38:48 +0200 (Tue, 26 Nov 2019) $
#$Revision: 242524 $
#$URL: file:///home/coder/svn-repositories/cod/cif/4/13/25/4132569.cif $
#------------------------------------------------------------------------------
#
# This file is available in the Crystallography Open Database (COD),
# http://www.crystallography.net/
#
# All data on this site have been placed in the public domain by the
# contributors.
#
data_4132569
loop_
_publ_author_name
'Yuan, Shuai'
'Zhang, Peng'
'Zhang, Liangliang'
'Garcia-Esparza, Angel T'
'Sokaras, Dimosthenis'
'Qin, Jun-Sheng'
'Feng, Liang'
'Day, Gregory S.'
'Chen, Wenmiao'
'Drake, Hannah F.'
'Elumalai, Palani'
'Madrahimov, Sherzod T.'
'Sun, Daofeng'
'Zhou, Hong-Cai'
_publ_section_title
;
 Exposed Equatorial Positions of Metal Centers via Sequential Ligand
 Elimination and Installation in MOFs.
;
_journal_issue                   34
_journal_name_full               'Journal of the American Chemical Society'
_journal_page_first              10814
_journal_page_last               10819
_journal_paper_doi               10.1021/jacs.8b04886
_journal_volume                  140
_journal_year                    2018
_chemical_formula_moiety         'C16 H22 Cl2 Cu N2 O6 S2, 2(C2 H6 O S)'
_chemical_formula_sum            'C20 H34 Cl2 Cu N2 O8 S4'
_chemical_formula_weight         693.17
_space_group_crystal_system      triclinic
_space_group_IT_number           2
_space_group_name_Hall           '-P 1'
_space_group_name_H-M_alt        'P -1'
_atom_sites_solution_hydrogens   geom
_atom_sites_solution_primary     dual
_audit_creation_date             2018-05-04
_audit_creation_method
;
Olex2 1.2
(compiled 2018.04.26 svn.r3504 for OlexSys, GUI svn.r5492)
;
_cell_angle_alpha                71.8866(9)
_cell_angle_beta                 83.9415(10)
_cell_angle_gamma                76.9365(10)
_cell_formula_units_Z            1
_cell_length_a                   7.0833(3)
_cell_length_b                   10.3708(5)
_cell_length_c                   10.9549(5)
_cell_measurement_reflns_used    9898
_cell_measurement_temperature    100(2)
_cell_measurement_theta_max      78.747
_cell_measurement_theta_min      4.249
_cell_volume                     744.53(6)
_computing_cell_refinement       'SAINT v8.37A (Bruker, 2015)'
_computing_data_reduction        'SAINT v8.37A (Bruker, 2015)'
_computing_molecular_graphics    'Olex2 (Dolomanov et al., 2009)'
_computing_publication_material  'Olex2 (Dolomanov et al., 2009)'
_computing_structure_refinement  'XL (Sheldrick, 2008)'
_computing_structure_solution    'ShelXT (Sheldrick, 2015)'
_diffrn_ambient_temperature      99.99
_diffrn_detector                 'Bruker APEX2 area detector'
_diffrn_detector_area_resol_mean 7.9
_diffrn_detector_type            'CCD area detector'
_diffrn_measured_fraction_theta_full 0.907
_diffrn_measured_fraction_theta_max 0.977
_diffrn_measurement_device       'three-circle diffractometer'
_diffrn_measurement_device_type  'Bruker SMART APEX2 area detector'
_diffrn_measurement_method       '\w and \f scans'
_diffrn_radiation_monochromator  'mirror optics'
_diffrn_radiation_probe          x-ray
_diffrn_radiation_type           CuK\a
_diffrn_radiation_wavelength     1.54184
_diffrn_reflns_av_R_equivalents  0.0295
_diffrn_reflns_av_unetI/netI     0.0252
_diffrn_reflns_Laue_measured_fraction_full 0.907
_diffrn_reflns_Laue_measured_fraction_max 0.977
_diffrn_reflns_limit_h_max       8
_diffrn_reflns_limit_h_min       -8
_diffrn_reflns_limit_k_max       12
_diffrn_reflns_limit_k_min       -12
_diffrn_reflns_limit_l_max       13
_diffrn_reflns_limit_l_min       -13
_diffrn_reflns_number            11845
_diffrn_reflns_point_group_measured_fraction_full 0.907
_diffrn_reflns_point_group_measured_fraction_max 0.977
_diffrn_reflns_theta_full        26.000
_diffrn_reflns_theta_max         74.744
_diffrn_reflns_theta_min         4.249
_diffrn_source                   'microfocus sealed X-ray tube'
_diffrn_source_type              'Incoatec I\ms'
_exptl_absorpt_coefficient_mu    5.699
_exptl_absorpt_correction_T_max  0.7538
_exptl_absorpt_correction_T_min  0.4581
_exptl_absorpt_correction_type   multi-scan
_exptl_crystal_colour            blue
_exptl_crystal_colour_primary    blue
_exptl_crystal_density_diffrn    1.546
_exptl_crystal_description       needle
_exptl_crystal_F_000             359
_exptl_crystal_size_max          0.08
_exptl_crystal_size_mid          0.05
_exptl_crystal_size_min          0.04
_refine_diff_density_max         0.454
_refine_diff_density_min         -0.528
_refine_diff_density_rms         0.072
_refine_ls_extinction_method     none
_refine_ls_goodness_of_fit_ref   1.081
_refine_ls_hydrogen_treatment    constr
_refine_ls_matrix_type           full
_refine_ls_number_parameters     174
_refine_ls_number_reflns         2989
_refine_ls_number_restraints     0
_refine_ls_restrained_S_all      1.081
_refine_ls_R_factor_all          0.0277
_refine_ls_R_factor_gt           0.0267
_refine_ls_shift/su_max          0.001
_refine_ls_shift/su_mean         0.000
_refine_ls_structure_factor_coef Fsqd
_refine_ls_weighting_details
'w=1/[\s^2^(Fo^2^)+(0.0418P)^2^+0.5316P] where P=(Fo^2^+2Fc^2^)/3'
_refine_ls_weighting_scheme      calc
_refine_ls_wR_factor_gt          0.0728
_refine_ls_wR_factor_ref         0.0780
_reflns_Friedel_coverage         0.000
_reflns_number_gt                2901
_reflns_number_total             2989
_reflns_threshold_expression     'I > 2\s(I)'
_cod_data_source_file            ja8b04886_si_002.cif
_cod_data_source_block           CuINA2
_cod_database_code               4132569
_shelx_shelxl_version_number     2014/7
_shelx_space_group_comment
;
The symmetry employed for this shelxl refinement is uniquely defined
by the following loop, which should always be used as a source of
symmetry information in preference to the above space-group names.
They are only intended as comments.
;
_olex2_refinement_description
;
1. Fixed Uiso
 At 1.2 times of:
  All C(H) groups
 At 1.5 times of:
  All C(H,H,H) groups, All O(H) groups
2.a Aromatic/amide H refined with riding coordinates:
 C7(H7), C8(H8), C11(H11), C20(H20)
2.b Idealised Me refined as rotating group:
 C1AA(H1Aa,H1Ab,H1Ac), C3(H3a,H3b,H3c), C4(H4a,H4b,H4c), C5(H5a,H5b,H5c)
2.c Idealised tetrahedral OH refined as rotating group:
 O10(H10)
;
_shelx_res_file
;
    CuINA2.res created by SHELXL-2014/7

TITL CuINA2 in P-1 #2
REM reset to P-1 #2
CELL 1.54184 7.0833 10.3708 10.9549 71.8866 83.9415 76.9365
ZERR 1 0.0003 0.0005 0.0005 0.0009 0.001 0.001
LATT 1
SFAC C H Cl Cu N O S
UNIT 20 34 2 1 2 8 4

L.S. 90
PLAN  20
TEMP -173.16
BOND
MORE -1
BOND $H
CONF
fmap 2
acta 52
REM <olex2.extras>
REM <HklSrc "%.\\CuINA2.hkl">
REM </olex2.extras>

WGHT    0.041800    0.531600
FVAR       1.16279
CU1   4    1.000000    0.000000    0.000000    10.50000    0.01558    0.01047 =
         0.00886    0.00018   -0.00369   -0.00189
CL2   3    0.893470   -0.187823   -0.027381    11.00000    0.01916    0.01301 =
         0.01282   -0.00240   -0.00162   -0.00380
S3    7    1.323435   -0.139195   -0.215571    11.00000    0.02085    0.01385 =
         0.01345   -0.00351   -0.00112   -0.00172
S4    7    0.964005    0.508688   -0.271970    11.00000    0.02050    0.01856 =
         0.01289   -0.00542   -0.00033   -0.00550
O2    6    1.258452   -0.020668   -0.158746    11.00000    0.02070    0.01605 =
         0.01174   -0.00454    0.00037   -0.00250
O0AA  6    0.523368    0.377328   -0.567927    11.00000    0.02113    0.02140 =
         0.00931   -0.00086    0.00016   -0.00435
C7    1    0.505224    0.212152   -0.222596    11.00000    0.01697    0.01446 =
         0.01093   -0.00278    0.00057   -0.00328
AFIX  43
H7    2    0.368975    0.221140   -0.207585    11.00000   -1.20000
AFIX   0
C8    1    0.781521    0.260327   -0.361143    11.00000    0.01607    0.01380 =
         0.00994   -0.00203   -0.00094   -0.00361
AFIX  43
H8    2    0.837503    0.301802   -0.442613    11.00000   -1.20000
AFIX   0
O10   6    0.275721    0.321746   -0.431544    11.00000    0.01567    0.04635 =
         0.00955    0.00104   -0.00341   -0.00586
AFIX 147
H10   2    0.214806    0.346955   -0.499569    11.00000   -1.50000
AFIX   0
C11   1    0.630880    0.141977   -0.123777    11.00000    0.01767    0.01388 =
         0.00904   -0.00101   -0.00005   -0.00452
AFIX  43
H11   2    0.578110    0.101807   -0.040816    11.00000   -1.20000
AFIX   0
C13   1    0.583146    0.269450   -0.344846    11.00000    0.01686    0.01083 =
         0.00966   -0.00148   -0.00231   -0.00160
C16   1    0.458135    0.330683   -0.459999    11.00000    0.01719    0.01281 =
         0.01131   -0.00247   -0.00134    0.00062
C20   1    0.897673    0.189662   -0.256688    11.00000    0.01233    0.01386 =
         0.01243   -0.00192   -0.00174   -0.00266
AFIX  43
H20   2    1.033735    0.184480   -0.267865    11.00000   -1.20000
AFIX   0
N28   5    0.824003    0.128212   -0.140059    11.00000    0.01575    0.01124 =
         0.01005   -0.00209   -0.00282   -0.00272

O1    6    0.917162    0.647451   -0.376356    11.00000    0.02100    0.02967 =
         0.01176    0.00174   -0.00462   -0.00738
C1AA  1    1.148769    0.527692   -0.184782    11.00000    0.02128    0.01943 =
         0.01656    0.00039   -0.00556   -0.00573
AFIX 137
H1AA  2    1.263759    0.541544   -0.241472    11.00000   -1.50000
H1AB  2    1.182538    0.444004   -0.112159    11.00000   -1.50000
H1AC  2    1.101845    0.608001   -0.152659    11.00000   -1.50000
AFIX   0

C3    1    1.171718   -0.102783   -0.347740    11.00000    0.02551    0.02809 =
         0.01949   -0.01203   -0.00339   -0.00412
AFIX 137
H3A   2    1.038942   -0.109815   -0.315316    11.00000   -1.50000
H3B   2    1.220656   -0.169737   -0.395860    11.00000   -1.50000
H3C   2    1.172425   -0.008844   -0.404466    11.00000   -1.50000
AFIX   0

C4    1    0.768631    0.511145   -0.154966    11.00000    0.02351    0.03017 =
         0.01375   -0.00020    0.00247   -0.00556
AFIX 137
H4A   2    0.754538    0.593255   -0.125865    11.00000   -1.50000
H4B   2    0.795901    0.427465   -0.081542    11.00000   -1.50000
H4C   2    0.648230    0.514062   -0.193279    11.00000   -1.50000
AFIX   0

C5    1    1.543049   -0.107033   -0.305688    11.00000    0.02416    0.02535 =
         0.02266   -0.01106    0.00427   -0.00273
AFIX 137
H5A   2    1.518570   -0.013992   -0.367254    11.00000   -1.50000
H5B   2    1.588308   -0.175922   -0.352151    11.00000   -1.50000
H5C   2    1.642366   -0.113597   -0.246941    11.00000   -1.50000
AFIX   0
HKLF 4

REM  CuINA2 in P-1 #2
REM R1 =  0.0267 for    2901 Fo > 4sig(Fo)  and  0.0277 for all    2989 data
REM    174 parameters refined using      0 restraints

END

WGHT      0.0418      0.5316

REM Highest difference peak  0.454,  deepest hole -0.528,  1-sigma level  0.072
Q1    1   1.2607 -0.0743 -0.1838  11.00000  0.05    0.45
Q2    1   1.0607 -0.0753 -0.0406  11.00000  0.05    0.45
Q3    1   1.0029  0.4394 -0.3039  11.00000  0.05    0.43
Q4    1   0.9425 -0.2652 -0.0658  11.00000  0.05    0.33
Q5    1   1.0587  0.5223 -0.2216  11.00000  0.05    0.31
Q6    1   0.6655  0.2762 -0.3603  11.00000  0.05    0.30
Q7    1   0.8598  0.5149 -0.2192  11.00000  0.05    0.29
Q8    1   0.5168  0.2953 -0.3926  11.00000  0.05    0.29
Q9    1   1.4439 -0.1268 -0.2597  11.00000  0.05    0.27
Q10   1   0.8373 -0.1211  0.0171  11.00000  0.05    0.26
Q11   1   0.8786  0.0956 -0.1051  11.00000  0.05    0.25
Q12   1   0.9265 -0.1401  0.0173  11.00000  0.05    0.25
Q13   1   0.8546  0.1608 -0.1928  11.00000  0.05    0.24
Q14   1   1.0329 -0.2162 -0.0354  11.00000  0.05    0.24
Q15   1   0.8364  0.2379 -0.3062  11.00000  0.05    0.23
Q16   1   0.7247  0.1131 -0.1527  11.00000  0.05    0.23
Q17   1   0.5597  0.2393 -0.2966  11.00000  0.05    0.22
Q18   1   1.1570  0.0196  0.0197  11.00000  0.05    0.22
Q19   1   0.5359  0.3180 -0.5933  11.00000  0.05    0.22
Q20   1   1.0678  0.5831 -0.1404  11.00000  0.05    0.22
;
_shelx_res_checksum              23736
_shelx_hkl_file
;
  -2   0   0 853.051 35.7522   4
  -3   0   0 13.4554 1.18992   4
  -3   0   0 17.4206 2.14156   7
  -3   0   0 13.1201 1.28519   4
  -4   0   0 556.628 24.6018   7
   4   0   0 548.821 24.4339  11
   4   0   0 538.543 24.1018   2
   5   0   0 190.197 10.4187  11
   5   0   0 183.941 9.53980   1
   5   0   0 181.916 9.28237   2
   6   0   0 193.586 9.98283  11
   6   0   0 174.120 9.41679   1
   6   0   0 185.352 9.41408   2
   7   0   0 27.7321 4.43204   2
   7   0   0 34.9035 4.07658  11
   8   0   0 54.5205 4.29510  11
   8   0   0 53.3027 3.73408   2
   8  -1   0 19.9102 2.41549   2
   7  -1   0 75.7172 4.96046   2
   7  -1   0 77.9128 5.76041  11
   6  -1   0 9.37017 2.46218  11
   6  -1   0 7.39805 1.75300   2
   5  -1   0 354.495 17.3648   1
   5  -1   0 383.470 17.5722  11
   5  -1   0 392.985 17.3424   2
   4  -1   0 93.1337 5.77895  11
   4  -1   0 85.6984 5.13815   2
  -4   1   0 77.4462 7.27480   7
  -4   1   0 76.6785 4.93349   4
  -4   1   0 83.1395 4.42177   4
  -3   1   0 1414.51 59.3897   4
   2  -1   0 350.914 14.6698   4
   2  -1   0 327.168 14.6335   4
  -2   1   0 372.425 14.6647   4
  -2   1   0 329.212 14.6931   4
   1  -1   0 1117.85 48.2625   4
  -1   1   0 1222.53 48.2702   4
  -1   1   0 1118.38 48.3013   4
   0  -1   0 964.226 40.1946   4
   0  -1   0 976.442 40.2336   4
   0   1   0 941.127 40.2254   7
  -1  -1   0 315.253 13.3862   4
  -1  -1   0 326.110 13.4335   4
  -1  -1   0 326.349 13.5262   7
   1   1   0 319.440 13.5329   7
   1   1   0 303.740 13.3995   4
   1   1   0 316.265 13.3743   4
  -2  -1   0 2400.05 101.669   4
  -2  -1   0 2443.46 101.954   7
  -2  -1   0 2454.08 101.645   4
  -3  -1   0 2.09265 1.07362   7
  -3  -1   0 2.56594 0.64468   4
  -4  -1   0 742.044 31.4779   7
   4   1   0 692.755 31.4697  11
   5   1   0 213.070 12.1984   9
   5   1   0 230.811 11.1341   1
   5   1   0 228.160 11.4777  11
   5   1   0 233.874 11.0030   2
   6   1   0 997.028 43.1308   2
   6   1   0 976.470 42.9988   1
   6   1   0 1020.11 43.7164  11
   7   1   0 956.419 40.9193  11
   7   1   0 962.481 40.4116   2
   7   1   0 881.575 41.5789   1
   8   1   0 100.208 5.58134   2
   8   1   0 99.6993 5.99555  11
   8  -2   0 1.44267 1.17909   2
   7  -2   0 7.41370 2.47423  11
   7  -2   0 6.21684 1.63683   2
   6  -2   0 160.318 8.50153   2
   6  -2   0 165.896 9.11747  11
   5  -2   0 2298.44 94.8762   2
   5  -2   0 2172.68 94.8563  11
   4  -2   0 568.384 26.2297   5
   4  -2   0 538.384 23.9911   2
   4  -2   0 565.241 24.3273  11
   4  -2   0 499.541 23.4537   3
  -4   2   0 547.893 23.5592   4
  -3   2   0 3147.53 132.806   4
  -3   2   0 3187.42 132.729   4
   2  -2   0 941.086 41.2994   4
   2  -2   0 1014.18 41.3547   4
  -2   2   0 1000.50 41.2592   4
  -2   2   0 961.373 41.3460   4
   1  -2   0 13.7316 1.32850   4
  -1   2   0 16.2265 1.31749   4
  -1   2   0 16.6910 1.14341   4
   0  -2   0 178.888 7.73771   4
   0   2   0 176.393 7.83616   7
   0   2   0 182.320 7.73692   4
   0   2   0 176.341 7.80273   4
  -2  -2   0 11.5974 1.19474   4
  -2  -2   0 13.4460 1.06745   4
  -2  -2   0 10.8857 1.41133   7
   2   2   0 12.3676 1.21005   4
   2   2   0 13.5217 1.62703   7
   2   2   0 13.0703 1.05455   4
  -3  -2   0 438.659 19.4444   7
  -3  -2   0 440.478 18.7547   4
  -4  -2   0 5399.81 214.392   7
   4   2   0 4945.18 214.017   1
   4   2   0 4967.38 214.419  11
   5   2   0 940.577 43.5219   2
   5   2   0 1009.92 42.9043  11
   5   2   0 994.945 42.3922   1
   6   2   0 1015.34 44.2204  11
   6   2   0 994.420 43.6160   9
   6   2   0 1016.94 43.5828   1
   6   2   0 1008.14 43.4855   2
   7   2   0 967.638 41.2412  11
   7   2   0 914.224 41.1161   2
   7   2   0 929.418 40.4309   1
   7  -3   0 111.429 5.97481   2
   7  -3   0 113.429 6.81514  11
   6  -3   0 14.1037 2.95655  11
   6  -3   0 10.3594 2.05476   2
   5  -3   0 1300.34 56.5186  11
   5  -3   0 1321.12 56.3125   2
   4  -3   0 1292.56 56.2543   2
   4  -3   0 1338.05 56.4761  11
   3  -3   0 70.7685 4.51727   2
   3  -3   0 54.1760 4.68569   3
   3  -3   0 71.6266 5.60775  11
  -3   3   0 67.6683 4.09050   4
   2  -3   0 44.8607 3.93635   4
  -2   3   0 48.1197 3.43968   4
  -2   3   0 47.6495 2.84760   4
   1  -3   0 2456.31 105.606   4
  -1   3   0 2568.24 105.744   4
  -1   3   0 2534.42 105.599   4
   0  -3   0 2731.79 116.018   4
   0  -3   0 2826.63 115.919   4
   0   3   0 2728.80 115.903   4
   0   3   0 2849.76 116.029   4
   0   3   0 2703.50 116.034   7
  -1  -3   0 3.91782 0.76186   4
  -1  -3   0 5.10849 0.99374   4
  -1  -3   0 4.16910 0.80251   7
   1   3   0 4.20386 0.94636   4
   1   3   0 4.55477 1.06613   7
  -2  -3   0 397.514 17.1595   4
  -2  -3   0 414.287 17.4310   7
  -2  -3   0 401.021 17.3046   4
   2   3   0 372.642 17.2148   4
   2   3   0 393.328 17.5595   7
   2   3   0 423.565 17.2619   4
  -3  -3   0 -0.3216 1.43606   7
  -3  -3   0 1.72821 1.09444   4
  -3  -3   0 2.24072 1.07068   4
   3   3   0 2.46129 1.75605   7
  -4  -3   0 3803.00 156.165   7
  -4  -3   0 3692.79 155.251   4
  -4  -3   0 3671.99 155.209   4
   4   3   0 3596.50 155.807   1
   4   3   0 3768.63 155.918   9
   5   3   0 6.77529 2.63975   9
   6   3   0 295.362 14.1371   9
   6   3   0 292.440 14.0159   1
   6   3   0 301.789 14.7989  11
   8   3   0 70.0494 5.00343  11
   8   3   0 70.9451 4.57379   1
   7  -4   0 495.776 22.8340  11
   7  -4   0 548.007 22.7300   2
   6  -4   0 128.768 6.79092   2
   6  -4   0 132.075 7.89067  11
  -6   4   0 113.443 7.22077   6
   5  -4   0 1001.13 41.3177   2
   5  -4   0 889.870 43.9636   5
   5  -4   0 980.507 41.7230  11
  -5   4   0 933.566 41.0230   6
   4  -4   0 1404.69 56.3366  11
   4  -4   0 1320.52 55.2137   3
   4  -4   0 1370.97 55.9161   2
  -4   4   0 1291.37 56.5482   8
  -4   4   0 1130.96 56.3769   6
   3  -4   0 125.686 6.59566   3
   3  -4   0 130.457 6.80960   2
   3  -4   0 147.990 8.77780  11
  -3   4   0 118.088 8.32109   8
  -3   4   0 107.503 8.09690   6
  -3   4   0 127.157 7.37248   4
   2  -4   0 -0.2879 2.40357   4
   2  -4   0 -0.7749 2.54113   3
   2  -4   0 -4.2771 3.33182  11
  -2   4   0 1.92518 1.54726   4
  -2   4   0 2.05840 2.57162   4
  -2   4   0 1.47628 2.31756   7
   1  -4   0 3241.37 136.291   4
   1  -4   0 3208.91 136.403   4
  -1   4   0 3353.56 136.265   4
  -1   4   0 3190.95 136.394   7
   0  -4   0 67.2188 3.88105   4
   0   4   0 69.4590 3.61864   4
   0   4   0 64.4386 4.05357   4
   0   4   0 67.6938 4.27928   7
  -1  -4   0 3821.17 148.920   7
  -1  -4   0 3467.38 149.003   4
  -1  -4   0 3642.32 148.879   4
   1   4   0 3320.48 148.807   4
   1   4   0 3391.40 148.973   4
   1   4   0 3678.87 149.297   7
  -2  -4   0 2936.23 126.772   4
  -2  -4   0 3120.81 126.402   7
  -2  -4   0 3072.95 126.465   4
   2   4   0 2817.47 126.341   4
   2   4   0 3066.36 126.841   7
   2   4   0 3052.38 126.236   4
  -3  -4   0 1364.57 59.2960   4
  -3  -4   0 1420.00 59.7169   7
  -3  -4   0 1462.73 59.4795   4
   3   4   0 1366.77 60.1865   7
  -4  -4   0 1952.37 79.1684   4
   4   4   0 1897.39 80.1520  11
   4   4   0 1880.37 79.4985   9
   4   4   0 1764.44 78.9148   3
   5   4   0 1517.00 66.0621  11
   5   4   0 1520.89 65.3443   9
   5   4   0 1551.95 65.3870   1
   6   4   0 6.99370 2.29324   9
   6   4   0 8.16089 2.24195   1
   7   4   0 0.30867 2.31561  11
   7   4   0 4.64974 2.19099   1
   7   4   0 4.43601 2.58594   9
   8   4   0 365.005 17.4684  11
   8   4   0 392.890 16.9707   1
   7  -5   0 293.918 13.4423  11
   7  -5   0 314.144 13.2988   2
   6  -5   0 12.1819 2.16042   2
  -6   5   0 11.2246 2.07763   6
   5  -5   0 1028.45 42.2353   2
   5  -5   0 988.621 42.5434  11
  -5   5   0 936.758 42.6980   8
  -5   5   0 954.378 41.9140   6
   4  -5   0 125.893 6.82797   3
   4  -5   0 136.479 7.10165   2
   4  -5   0 145.518 8.17095  11
  -4   5   0 133.942 8.34882   8
  -4   5   0 117.256 7.10618   6
   3  -5   0 125.441 7.32352  11
   3  -5   0 112.579 7.07248   3
   3  -5   0 104.735 6.35537   2
  -3   5   0 118.485 6.54259   6
  -3   5   0 118.550 7.43797   8
   2  -5   0 6.42528 2.47510   2
   2  -5   0 6.46390 2.40412  11
   2  -5   0 11.2374 1.88215   3
  -2   5   0 8.12119 2.47555   8
  -2   5   0 5.66964 1.95157   6
  -2   5   0 4.43715 2.24230   4
   1  -5   0 291.757 13.3180   3
   1  -5   0 296.457 13.6960  11
  -1   5   0 277.069 13.1871   6
  -1   5   0 291.195 13.9536   4
  -1   5   0 302.861 13.9960   8
  -1   5   0 311.068 14.8108   4
  -1   5   0 274.604 14.2948   7
   0  -5   0 6.63415 2.14531   4
   0  -5   0 9.50737 2.92842   4
   0   5   0 4.28087 1.46546   4
   0   5   0 5.83231 2.62605   7
  -1  -5   0 554.922 23.0829   4
  -1  -5   0 520.544 23.0955   4
   1   5   0 515.087 23.7393   7
   1   5   0 508.902 22.7931   4
  -2  -5   0 3361.39 134.475   7
  -2  -5   0 3042.69 134.632   4
   2   5   0 3189.63 135.293   7
  -3  -5   0 1.76313 2.22952   4
  -3  -5   0 2.98131 3.45578   7
   3   5   0 2.62867 2.39052   9
   3   5   0 8.25921 2.84200   1
   3   5   0 3.51377 2.17458   3
  -4  -5   0 220.732 11.1792   4
   4   5   0 190.494 10.0100   1
   4   5   0 201.656 10.2090   9
   5   5   0 0.18212 2.36893  11
   5   5   0 -0.5558 2.46887   3
   5   5   0 5.29494 2.01595   9
   6   5   0 223.917 10.7977   1
   6   5   0 207.566 10.7451   9
   6   5   0 209.179 11.6913  11
   7   5   0 438.110 19.4812   9
   7   5   0 403.741 20.2804  11
   7   5   0 444.703 19.5203   1
   8   5   0 691.178 27.1984   1
   8   5   0 564.960 27.5804  11
   8   5   0 617.875 26.9904   9
   6  -6   0 7.26110 1.38780   2
  -6   6   0 4.83016 1.50531   6
   5  -6   0 1030.65 42.3316   2
   5  -6   0 936.135 44.7530   5
   5  -6   0 984.824 42.5068  11
  -5   6   0 1026.04 42.2249   6
  -5   6   0 955.506 42.8266   8
   4  -6   0 319.115 15.0680   2
   4  -6   0 328.061 14.8087   3
   4  -6   0 329.790 15.6266  11
  -4   6   0 346.597 15.9848   8
  -4   6   0 325.024 14.9715   6
   3  -6   0 1767.52 72.5538   3
   3  -6   0 1768.11 73.0152  11
   3  -6   0 1648.70 72.6843   2
  -3   6   0 1623.55 72.5163   6
  -3   6   0 1763.84 73.4402   8
   2  -6   0 682.619 32.9858   2
   2  -6   0 825.622 33.2841  11
   2  -6   0 821.512 32.7787   3
  -2   6   0 695.285 34.5286   8
   1  -6   0 5539.93 222.790   8
  -1   6   0 4941.72 223.090   3
  -1   6   0 5365.17 224.070   8
  -1   6   0 5389.58 222.828   6
   0  -6   0 6345.12 255.800   8
   0  -6   0 5763.35 255.122   6
   0  -6   0 6226.04 255.503   3
   0  -6   0 6374.65 256.312   4
   0   6   0 5963.46 255.955   3
   0   6   0 5867.71 255.346   6
   0   6   0 6176.25 255.941   8
  -1  -6   0 403.973 17.5890   8
  -1  -6   0 377.987 16.7883   6
  -1  -6   0 373.795 18.7018   3
  -1  -6   0 404.558 18.0593   4
   1   6   0 388.197 17.6242   8
   1   6   0 353.797 17.1935   6
   1   6   0 369.705 17.4641   3
  -2  -6   0 199.423 9.86942   8
  -2  -6   0 193.658 10.3563   4
  -2  -6   0 183.562 9.02417   6
   2   6   0 181.419 10.6812   8
   2   6   0 186.590 9.99171   9
   2   6   0 187.580 9.59846   3
  -3  -6   0 617.283 26.5474   4
  -3  -6   0 528.807 24.9703   6
  -3  -6   0 616.466 25.8682   8
   3   6   0 558.516 25.5155   1
   3   6   0 556.182 25.9063   9
   3   6   0 588.702 25.4083   3
  -4  -6   0 29.2984 4.07967   8
  -4  -6   0 25.9039 3.23464   6
   4   6   0 29.9482 3.79530   3
   4   6   0 26.3302 3.58802   1
   4   6   0 27.6840 3.77943   9
  -5  -6   0 482.195 22.6278   8
  -5  -6   0 454.141 21.6464   6
   5   6   0 497.217 21.5120   3
   5   6   0 519.670 22.0906   1
   5   6   0 495.498 22.0298   9
   5   6   0 472.736 23.2931  11
  -6  -6   0 64.6932 6.38047   6
   6   6   0 62.0291 4.74773   1
   6   6   0 59.9454 6.03428  11
   6   6   0 66.4537 4.85940   9
   7   6   0 96.1268 5.75630   9
   7   6   0 102.517 5.67611   1
   7   6   0 78.0037 6.63045  11
   8   6   0 275.730 12.1583   1
   8   6   0 257.641 12.1414   9
  -6   7   0 201.975 9.01335   6
   5  -7   0 257.788 12.2264   2
   5  -7   0 296.036 14.3372   5
  -5   7   0 295.255 12.3256   6
  -5   7   0 239.467 12.7682   8
   4  -7   0 4.75695 2.65868  11
   4  -7   0 7.74332 3.43786   3
   4  -7   0 6.78011 1.94429   2
  -4   7   0 7.96253 2.47333   8
   3  -7   0 1603.92 66.5494  11
   3  -7   0 1436.81 66.0561   2
   3  -7   0 1592.94 66.1388   3
  -3   7   0 1562.01 66.1353   6
  -3   7   0 1600.84 66.9777   8
   2  -7   0 122.637 6.66409   3
  -2   7   0 120.834 6.38603   6
  -2   7   0 123.770 7.25994   8
   1  -7   0 83.1745 5.19235   3
   1  -7   0 87.4296 6.09809   8
  -1   7   0 73.2980 7.49283   3
  -1   7   0 85.1194 5.65006   8
  -1   7   0 81.5697 4.76279   6
   0  -7   0 53.0720 4.77691   8
   0  -7   0 52.1565 3.88787   6
   0  -7   0 49.5903 4.27477   3
   0   7   0 54.7547 5.30169   3
   0   7   0 48.8776 4.92626   8
   0   7   0 52.8386 8.28048   4
   0   7   0 52.2224 3.67845   6
  -1  -7   0 1408.99 59.4804   8
  -1  -7   0 1384.84 60.9226   4
  -1  -7   0 1420.25 58.7848   6
   1   7   0 1379.15 59.5355   3
   1   7   0 1375.41 59.5265   8
   1   7   0 1369.27 59.2059   6
  -2  -7   0 1484.20 65.8974   6
  -2  -7   0 1567.12 66.4854   8
  -2  -7   0 1724.79 68.7449   4
   2   7   0 1617.93 67.3609   3
   2   7   0 1465.71 66.5469   9
   2   7   0 1490.42 66.5340   8
  -3  -7   0 234.784 11.4956   8
  -3  -7   0 224.543 10.5965   6
   3   7   0 210.282 11.1377   1
   3   7   0 225.896 11.2072   9
   3   7   0 234.007 11.1273   3
  -4  -7   0 1.84656 1.96339   6
  -4  -7   0 1.51380 2.88383   8
   4   7   0 3.89022 1.94733   9
   4   7   0 3.91756 2.08905   3
   4   7   0 7.91826 2.25547   1
  -5  -7   0 148.080 9.02504   8
   5   7   0 164.468 8.30635   9
   5   7   0 136.135 9.92127  11
   5   7   0 157.783 8.19512   3
   5   7   0 148.674 8.05995   1
  -6  -7   0 459.763 19.9668   6
   6   7   0 380.579 21.5299  11
   6   7   0 487.659 20.7717   1
   6   7   0 468.499 20.3971   9
  -7  -7   0 135.784 7.86395   6
   7   7   0 153.352 7.63718   9
   7   7   0 153.719 7.52749   1
   8   7   0 9.83392 2.25521  11
   8   7   0 7.28049 1.71349   1
   5  -8   0 211.132 10.6276   5
  -5   8   0 216.600 9.58051   6
   4  -8   0 258.222 11.7696   3
   4  -8   0 262.406 13.9087   5
  -4   8   0 275.678 11.9415   6
  -4   8   0 252.987 12.4935   8
   3  -8   0 566.538 24.9896   3
  -3   8   0 562.647 25.6843   8
  -3   8   0 587.208 24.9719   6
   2  -8   0 484.147 21.5080   3
  -2   8   0 496.219 21.4030   6
  -2   8   0 476.202 22.1495   8
   1  -8   0 310.341 14.1806   3
   1  -8   0 313.361 14.6486   8
  -1   8   0 305.806 13.8626   6
  -1   8   0 301.195 14.6641   8
  -1   8   0 301.468 15.4362   3
   0  -8   0 1546.87 68.4878   6
   0  -8   0 1693.43 69.5353   8
   0  -8   0 1611.67 69.0852   3
   0   8   0 1640.13 68.7931   6
   0   8   0 1604.33 69.6772   3
   0   8   0 1662.96 69.6490   8
  -1  -8   0 785.931 34.1141   6
  -1  -8   0 796.384 34.6822   3
  -1  -8   0 822.552 34.9693   8
   1   8   0 804.514 34.9867   8
   1   8   0 775.712 34.9618   3
  -2  -8   0 18.0308 3.85709   3
  -2  -8   0 12.2304 2.50374   8
  -2  -8   0 11.1161 1.84992   6
   2   8   0 13.3498 3.14991   8
   2   8   0 7.09988 2.10087   3
   2   8   0 11.4177 3.29697   9
  -3  -8   0 1333.23 55.3337   8
  -3  -8   0 1260.78 54.4345   6
   3   8   0 1262.15 54.9879   9
   3   8   0 1275.55 55.0514   3
  -4  -8   0 2099.52 86.7745   8
  -4  -8   0 2036.47 85.9926   6
   4   8   0 1916.22 86.2981   1
   4   8   0 1997.99 86.5417   9
   4   8   0 2141.69 86.5510   3
  -5  -8   0 1978.39 80.8237   6
   5   8   0 1629.40 82.6622  11
   5   8   0 1901.42 81.1661   1
   5   8   0 2058.64 81.1405   3
   5   8   0 2001.41 81.4092   9
  -6  -8   0 934.761 38.0267   6
  -6  -8   0 809.018 38.6525   8
   6   8   0 973.042 38.4088   1
   6   8   0 768.769 39.5420  11
   6   8   0 960.112 38.5406   9
  -7  -8   0 42.4089 4.51950   6
   7   8   0 48.0506 4.63023  11
   7   8   0 52.4357 3.53568   9
   7   8   0 51.1844 3.49390   1
   4  -9   0 39.8143 3.80624   5
  -4   9   0 34.8033 2.65467   6
  -4   9   0 33.9207 3.16556   8
   3  -9   0 1.61459 1.41871   3
  -3   9   0 -1.9103 1.25181   6
  -3   9   0 1.92334 1.52065   8
   2  -9   0 78.3613 4.82743   3
  -2   9   0 70.9968 4.92575   8
  -2   9   0 68.0495 4.36536   6
   1  -9   0 1125.91 46.8063   3
   1  -9   0 1051.01 46.9038   8
  -1   9   0 1060.41 47.5243   3
  -1   9   0 1095.90 47.2769   8
  -1   9   0 1124.61 46.4678   6
   0  -9   0 9.00756 2.03645   3
   0  -9   0 7.85436 2.45439   8
   0   9   0 9.49887 2.21795   6
   0   9   0 9.28577 2.13654   8
   0   9   0 8.64655 2.75861   3
  -1  -9   0 766.216 33.7156   6
  -1  -9   0 808.964 34.7271   8
  -1  -9   0 791.163 34.4201   3
   1   9   0 799.913 34.8127   3
   1   9   0 783.572 34.6013   8
  -2  -9   0 39.7861 6.43746   3
  -2  -9   0 49.5984 4.35993   8
  -2  -9   0 43.8183 3.40455   6
   2   9   0 39.8640 4.07198   3
  -3  -9   0 3.28066 1.58293   6
  -3  -9   0 0.18700 2.22014   8
   3   9   0 9.20366 2.17161   3
   3   9   0 6.50199 2.59795   9
  -4  -9   0 220.385 11.3986   8
  -4  -9   0 234.036 10.6679   6
   4   9   0 239.448 11.2336   3
   4   9   0 220.632 11.1281   9
  -5  -9   0 112.217 5.70743   6
  -5  -9   0 100.011 6.38100   8
   5   9   0 101.904 6.02205   1
   5   9   0 102.035 5.96143   9
   5   9   0 101.926 6.16664   3
   5   9   0 102.718 7.58795  11
  -6  -9   0 9.59843 3.25487   8
  -6  -9   0 2.94267 1.82247  10
  -6  -9   0 5.33843 1.63160   6
   6   9   0 6.06810 1.94124   1
   6   9   0 3.65701 2.47633  11
   6   9   0 1.53960 1.50183   9
  -7  -9   0 49.1302 3.49701   6
   7   9   0 58.4174 4.07841  11
   7   9   0 46.8690 3.61039   1
   3 -10   0 2.26442 1.46326   3
   3 -10   0 3.79271 1.73122   5
  -3  10   0 6.67847 1.46938   8
  -3  10   0 6.59299 1.57103   6
   2 -10   0 329.859 14.8488   3
  -2  10   0 347.345 14.6715   6
  -2  10   0 327.247 15.2374   8
   1 -10   0 244.044 11.5241   3
  -1  10   0 241.431 12.5991   3
  -1  10   0 255.975 11.8864   8
   0 -10   0 454.602 21.2456   8
   0 -10   0 488.386 21.2049   3
   0  10   0 485.720 21.6695   3
   0  10   0 477.377 21.3897   8
  -1 -10   0 2109.90 87.4236  10
  -1 -10   0 2117.48 88.2600   8
  -1 -10   0 2021.45 87.5234   3
   1  10   0 2028.47 87.6269   8
  -2 -10   0 1394.71 59.8679   3
  -2 -10   0 1370.71 60.0412   8
   2  10   0 1437.10 60.7936   3
  -3 -10   0 2.23112 2.02207   8
  -3 -10   0 2.42534 1.55361   6
   3  10   0 3.13274 1.79364   3
  -4 -10   0 1281.15 50.9634   6
  -4 -10   0 1203.54 51.5556   8
   4  10   0 1086.87 51.0152   9
   4  10   0 1236.99 51.3123   3
  -5 -10   0 1.89431 1.36025   6
  -5 -10   0 1.63939 1.48449  10
  -5 -10   0 2.57343 1.93914   8
   5  10   0 2.75237 2.04067  11
   5  10   0 -0.6446 1.73463   3
   5  10   0 3.32676 1.56307   9
  -6 -10   0 30.2941 4.26006   8
  -6 -10   0 41.1082 2.93286   6
  -6 -10   0 41.9584 3.14704  10
   6  10   0 39.5474 4.02815  11
   2 -11   0 143.906 7.54194   5
   2 -11   0 146.351 6.63510   3
  -2  11   0 142.237 6.77986   8
   1 -11   0 291.583 13.0184   3
  -1  11   0 296.363 14.0055   3
  -1  11   0 292.383 13.1509   8
   0 -11   0 9.76476 1.80841   3
   0 -11   0 14.2803 2.53218   8
   0  11   0 12.6296 2.28331   3
   0  11   0 12.7464 1.94014   8
  -1 -11   0 335.948 14.7746   3
  -1 -11   0 314.975 14.7890   8
   1  11   0 322.240 14.6203   8
   1  11   0 331.033 14.9590   3
  -2 -11   0 234.612 11.4322   8
  -2 -11   0 252.725 11.9409   3
  -2 -11   0 239.295 11.1973  10
   2  11   0 246.774 11.4428   3
  -3 -11   0 394.680 17.7884  10
  -3 -11   0 400.656 17.4308   6
   3  11   0 418.612 17.9543   3
  -4 -11   0 213.849 10.3015  10
  -4 -11   0 227.020 10.0605   6
   4  11   0 236.485 10.3441   3
   4  11   0 228.130 10.9997  11
  -5 -11   0 5.57624 1.67128   8
  -5 -11   0 6.81669 1.46572   6
   5  11   0 9.12414 1.75754  11
   0 -12   0 35.6281 3.38096   5
   0 -12   0 36.4177 2.74303   3
  -1 -12   0 95.1525 5.26556   3
   1  12   0 96.6024 5.07466   3
  -2 -12   0 135.187 6.50565   8
  -3 -12   0 5.43983 1.39008   8
  -3 -12   0 8.01710 1.60864  10
   3  12   0 6.67416 1.54396  11
   3  12   0 7.34338 1.29919   3
   4  11  -1 157.323 7.73019  11
   4  11  -1 159.859 7.84416   3
  -4 -11   1 142.459 6.81906   6
  -4 -11   1 150.359 7.11431  10
  -4 -11   1 148.294 7.24909   8
   3  11  -1 7.51276 1.52226   3
  -3 -11   1 5.57589 1.65565   8
  -3 -11   1 3.41534 1.49074  10
   2  11  -1 3.35832 1.46911   3
  -2 -11   1 -3.3285 4.68938   3
  -2 -11   1 2.55776 1.62098   8
  -2 -11   1 6.49423 1.80509  10
   1  11  -1 913.806 38.2772   3
   1  11  -1 848.905 37.8498   8
  -1 -11   1 911.520 38.0527   3
   0  11  -1 465.371 20.5442   8
   0  11  -1 489.454 21.1217   3
   0 -11   1 466.175 20.5512   3
  -1  11  -1 263.618 12.7505   8
   1 -11   1 284.609 12.2645   3
   1 -11   1 285.325 13.7669   5
   6  10  -1 323.846 14.2902  11
  -6 -10   1 298.142 13.8320  10
  -6 -10   1 328.215 13.6549   6
   5  10  -1 23.8249 3.35600  11
  -5 -10   1 23.1152 2.60793  10
  -5 -10   1 22.4342 2.39650   6
   4  10  -1 237.291 11.6841  11
   4  10  -1 236.697 10.5988   3
  -4 -10   1 205.845 10.6299   8
  -4 -10   1 226.722 10.1744   6
  -4 -10   1 215.435 10.4416  10
   3  10  -1 575.860 25.7862   3
  -3 -10   1 593.833 25.9892   8
  -3 -10   1 586.601 25.6258  10
  -3 -10   1 594.551 25.2469   6
   2  10  -1 4.43377 1.87048   3
  -2 -10   1 7.20714 2.98147   3
  -2 -10   1 9.39218 2.32709   8
  -2 -10   1 7.31237 2.06938  10
  -2 -10   1 6.99368 1.70550   6
   1  10  -1 1095.83 46.6745   8
   1  10  -1 1101.60 46.9164   3
  -1 -10   1 1061.78 46.7533   8
  -1 -10   1 1094.92 46.6066   3
  -1 -10   1 1089.56 46.4400  10
   0  10  -1 247.419 11.8302   3
   0  10  -1 240.140 11.4346   8
   0 -10   1 248.159 11.2666   3
   0 -10   1 224.177 11.3869   8
  -1  10  -1 184.761 9.07638   8
  -1  10  -1 181.685 10.1688   3
   1 -10   1 188.745 8.82126   3
  -2  10  -1 0.97653 1.23988   8
   2 -10   1 1.08427 1.21350   3
  -3  10  -1 3.63377 1.33014   8
   3 -10   1 4.97993 1.23363   3
   3 -10   1 3.37322 1.60822   5
   6   9  -1 7.88889 2.31352  11
   6   9  -1 11.0823 1.73486   9
   6   9  -1 14.9475 2.73216   1
  -6  -9   1 7.48283 1.53236   6
  -6  -9   1 9.49507 2.69642   8
  -6  -9   1 9.16033 1.88183  10
   5   9  -1 325.741 14.3504   3
   5   9  -1 303.870 14.3683   9
   5   9  -1 317.146 15.7749  11
  -5  -9   1 312.916 14.3236  10
  -5  -9   1 306.191 14.6463   8
  -5  -9   1 332.473 14.1232   6
   4   9  -1 628.417 27.8300   3
   4   9  -1 582.880 26.5357   9
  -4  -9   1 609.159 26.9428   8
   3   9  -1 1547.03 64.1333   3
   3   9  -1 1428.69 63.7770   9
  -3  -9   1 1487.60 64.1730   8
  -3  -9   1 1538.85 63.4721   6
   2   9  -1 486.320 22.2968   8
   2   9  -1 488.472 22.3110   3
  -2  -9   1 488.102 22.3599   3
  -2  -9   1 505.410 22.4133   8
  -2  -9   1 503.658 21.5122   6
   1   9  -1 227.667 11.4176   3
   1   9  -1 229.293 11.2585   8
  -1  -9   1 217.379 10.3857   6
  -1  -9   1 240.134 11.1322  10
  -1  -9   1 225.779 11.3226   8
  -1  -9   1 229.269 11.2489   3
   0   9  -1 969.058 40.1924   6
   0   9  -1 936.184 40.9440   8
   0   9  -1 955.668 41.1595   3
   0  -9   1 950.466 40.6110   3
   0  -9   1 898.986 40.7141   8
  -1   9  -1 14.6979 2.34873   6
  -1   9  -1 16.8530 2.97204   8
  -1   9  -1 19.2363 3.91611   3
   1  -9   1 19.3357 3.12841   3
  -2   9  -1 1.01014 1.65376   6
  -2   9  -1 0.89016 1.60794   8
   2  -9   1 -0.7664 1.53881   3
  -3   9  -1 241.119 11.4332   8
  -3   9  -1 251.495 10.9539   6
   3  -9   1 230.225 10.8488   3
   3  -9   1 241.448 12.6291   5
  -4   9  -1 156.963 7.14082   6
  -4   9  -1 132.349 7.05016   8
   4  -9   1 147.325 7.81022   5
   7   8  -1 177.564 8.14543   1
   7   8  -1 168.292 8.83813  11
  -7  -8   1 160.518 7.81597   6
   6   8  -1 1955.09 85.8494  11
   6   8  -1 2003.32 84.4309   1
   6   8  -1 2056.98 84.6450   9
  -6  -8   1 2107.53 84.2777   6
  -6  -8   1 2066.30 84.3437  10
  -6  -8   1 1812.43 84.6516   8
   5   8  -1 307.860 14.5910   3
   5   8  -1 304.886 14.7145   9
   5   8  -1 303.934 16.0959  11
   5   8  -1 312.424 14.1998   1
  -5  -8   1 302.367 14.5855   8
   4   8  -1 536.230 22.4170   3
   4   8  -1 462.706 22.2089   1
   4   8  -1 493.083 22.3840   9
  -4  -8   1 514.514 21.8720   6
  -4  -8   1 489.836 22.5174   8
   3   8  -1 817.762 35.7160   3
   3   8  -1 805.930 35.6459   9
  -3  -8   1 826.921 35.9241   8
  -3  -8   1 823.859 35.1097   6
   2   8  -1 47.2538 5.23893   8
   2   8  -1 48.1980 4.36050   3
   2   8  -1 48.8348 5.22450   9
  -2  -8   1 53.8784 4.66431   8
  -2  -8   1 52.9256 3.66481   6
  -2  -8   1 57.5652 5.97994   3
   1   8  -1 249.724 12.6072   3
   1   8  -1 252.017 12.5264   8
  -1  -8   1 253.371 12.5337   8
  -1  -8   1 268.925 12.4569   3
  -1  -8   1 255.741 11.6290   6
   0   8  -1 15.2438 2.35509   6
   0   8  -1 21.9941 3.42063   3
   0   8  -1 15.4291 2.56586   8
   0  -8   1 19.1848 3.26729   3
   0  -8   1 21.8633 3.90396   8
   0  -8   1 14.5434 3.26147  10
  -1   8  -1 127.781 8.68658   3
  -1   8  -1 134.911 6.78373   6
  -1   8  -1 135.640 7.46528   8
   1  -8   1 123.971 7.62079   8
   1  -8   1 130.765 6.98734   3
  -2   8  -1 243.083 12.1772   8
  -2   8  -1 244.604 11.4280   6
   2  -8   1 252.602 11.6315   3
  -3   8  -1 847.708 37.5551   8
  -3   8  -1 838.179 36.8655   6
   3  -8   1 896.453 36.9428   3
  -4   8  -1 662.287 28.0365   6
  -4   8  -1 652.615 28.5494   8
   4  -8   1 633.314 27.7816   3
   4  -8   1 662.722 29.9467   5
  -5   8  -1 9.25460 1.44434   6
  -5   8  -1 3.16920 2.98754   8
   5  -8   1 10.5322 2.28911   5
   7   7  -1 16.3478 2.77432   9
   7   7  -1 19.3259 3.95613  11
   7   7  -1 18.6590 2.49397   1
  -7  -7   1 20.4235 3.29342   6
   6   7  -1 176.019 8.72792   1
   6   7  -1 173.825 10.3859  11
   6   7  -1 178.353 8.92942   9
  -6  -7   1 180.019 8.83167  10
  -6  -7   1 153.874 9.92976   8
  -6  -7   1 168.880 8.54538   6
   5   7  -1 537.690 23.6310   9
   5   7  -1 515.960 23.4231   1
   5   7  -1 536.158 25.3479  11
   5   7  -1 538.501 23.3549   3
  -5  -7   1 508.142 23.0400   6
   4   7  -1 536.048 22.7139   3
   4   7  -1 509.241 22.8028   9
   4   7  -1 479.942 22.6064   1
  -4  -7   1 520.629 23.0129   8
  -4  -7   1 494.334 22.2219   6
   3   7  -1 10.0089 3.62893   1
   3   7  -1 15.6489 2.40186   3
   3   7  -1 8.49064 2.22604   9
  -3  -7   1 12.5259 2.03990   6
  -3  -7   1 16.1163 2.82568   8
   2   7  -1 50.9713 8.43472   8
   2   7  -1 79.1612 5.16189   3
   2   7  -1 65.6894 5.64848   9
  -2  -7   1 70.9222 6.91324   3
  -2  -7   1 76.2752 5.35931   8
  -2  -7   1 66.2125 4.26325   6
   1   7  -1 44.2329 4.43366   8
   1   7  -1 50.3665 4.53892   6
   1   7  -1 40.0946 4.52456   3
  -1  -7   1 49.5842 4.45296   8
  -1  -7   1 46.7936 3.45386   6
  -1  -7   1 41.3744 4.52348   3
  -1  -7   1 34.1785 7.10727   4
   0   7  -1 1100.25 48.0956   8
   0   7  -1 1087.67 49.4931   3
   0   7  -1 1084.09 47.4554   6
   0  -7   1 1147.09 48.0563   8
   0  -7   1 1150.84 47.7264   3
  -1   7  -1 1366.34 60.3714   3
  -1   7  -1 1323.97 59.3181   6
  -1   7  -1 1440.50 60.1517   8
   1  -7   1 1424.11 59.8687   8
   1  -7   1 1442.50 59.5509   3
  -2   7  -1 691.576 30.7020   8
  -2   7  -1 683.060 29.9214   6
   2  -7   1 697.531 30.0315   3
  -3   7  -1 1083.62 45.6657   8
  -3   7  -1 1050.79 44.8578   6
   3  -7   1 952.823 44.7861   2
   3  -7   1 1110.88 44.8585   3
  -4   7  -1 2580.18 108.930   8
  -4   7  -1 2592.48 108.299   6
   4  -7   1 2480.92 108.227   2
   4  -7   1 2599.27 108.030   3
   4  -7   1 2606.82 110.968   5
  -5   7  -1 198.673 8.68480   6
   5  -7   1 158.993 8.83183   2
   5  -7   1 200.969 10.4525   5
   7   6  -1 77.1534 5.98428  11
   7   6  -1 73.2970 4.88913   9
   7   6  -1 77.3696 4.69696   1
  -7  -6   1 70.9472 5.26692   6
   6   6  -1 305.559 14.3321   1
   6   6  -1 305.866 15.7521  11
   6   6  -1 315.754 14.4872   9
  -6  -6   1 298.471 14.3190   6
   5   6  -1 1271.50 53.6715   1
   5   6  -1 1290.27 55.2084  11
   5   6  -1 1299.21 53.3253   3
  -5  -6   1 1217.77 53.2106   6
  -5  -6   1 1173.31 53.7288   8
   4   6  -1 70.4545 4.90054   1
   4   6  -1 70.9948 4.84659   3
  -4  -6   1 67.7831 5.80879   8
  -4  -6   1 66.0443 4.83970   6
   3   6  -1 18.1218 2.59825   9
   3   6  -1 14.9734 2.33372   3
  -3  -6   1 17.9233 2.97435   6
  -3  -6   1 20.8748 3.04136   8
   2   6  -1 720.954 31.8127   3
   2   6  -1 665.128 31.0615   8
   2   6  -1 670.781 30.8298   9
  -2  -6   1 743.599 31.3068   8
  -2  -6   1 729.287 31.7552   4
   1   6  -1 70.0826 5.31300   8
   1   6  -1 75.7864 5.67936   3
   1   6  -1 72.3999 5.26204   6
  -1  -6   1 68.7548 5.75360   3
  -1  -6   1 73.8851 6.75453   4
  -1  -6   1 81.6860 5.29323   8
  -1  -6   1 75.1738 4.32578   6
   0   6  -1 270.633 12.8733   6
   0   6  -1 290.026 13.3307   8
   0   6  -1 273.116 13.8107   3
   0  -6   1 280.399 12.9402   3
   0  -6   1 293.760 13.2872   8
   0  -6   1 272.284 12.5333   6
  -1   6  -1 1912.76 84.6207   4
  -1   6  -1 1921.17 83.8514   6
  -1   6  -1 1964.35 84.8747   3
  -1   6  -1 2157.84 84.6623   8
   1  -6   1 1989.22 83.9461   3
  -2   6  -1 121.943 6.36657   6
  -2   6  -1 127.202 7.32466   8
   2  -6   1 106.177 6.77456   2
   2  -6   1 135.864 7.22082  11
   2  -6   1 120.128 6.51008   3
  -3   6  -1 52.5577 3.79734   6
  -3   6  -1 48.1994 4.88422   8
   3  -6   1 54.2780 5.01212  11
   3  -6   1 45.8088 3.97136   2
   3  -6   1 54.9438 3.92530   3
  -4   6  -1 21.7175 3.02374   6
  -4   6  -1 31.5955 4.47350   8
   4  -6   1 19.3911 3.25807   3
   4  -6   1 32.3628 4.51783  11
   4  -6   1 25.0928 2.99530   2
  -5   6  -1 26.2707 4.70248   8
  -5   6  -1 29.7488 3.08097   6
   5  -6   1 31.1634 5.19834   5
   5  -6   1 31.6487 2.95005   2
  -6   6  -1 684.803 32.0557   6
   6  -6   1 715.307 32.0965   2
   6  -6   1 858.982 33.4451   5
   8   5  -1 152.173 7.24141   1
   8   5  -1 137.024 7.84808  11
   7   5  -1 32.1986 3.37854   1
   7   5  -1 34.9947 4.61224  11
   7   5  -1 37.5526 4.00236   9
  -7  -5   1 40.7475 5.11777   6
   6   5  -1 1093.02 46.5947  11
   6   5  -1 1068.93 45.4703   9
   6   5  -1 1070.07 45.4709   1
  -6  -5   1 977.217 45.0471   6
   5   5  -1 194.910 9.32074   3
   5   5  -1 195.703 10.8913  11
   5   5  -1 202.826 9.83523   1
  -5  -5   1 175.793 10.9346   8
  -5  -5   1 184.941 9.95480   6
   4   5  -1 265.209 12.5756   1
   4   5  -1 260.553 12.2935   3
   3   5  -1 40.9525 4.01697   9
   3   5  -1 31.3441 3.92669   3
   3   5  -1 34.7345 4.30506   1
  -3  -5   1 36.5775 5.61739   8
  -3  -5   1 34.8797 5.08188   4
   2   5  -1 1115.21 48.0754   9
   2   5  -1 1065.15 47.7209   3
  -2  -5   1 1208.55 47.9706   7
  -2  -5   1 1121.81 47.8980   8
  -2  -5   1 1145.77 47.9659   4
  -2  -5   1 1038.69 47.2805   6
   1   5  -1 1364.30 59.9499   4
   1   5  -1 1419.68 60.7705   7
  -1  -5   1 1441.19 60.2541   4
  -1  -5   1 1424.94 60.1597   4
   0   5  -1 1289.80 56.8565   7
   0   5  -1 1273.07 56.8661   4
   0   5  -1 1306.25 56.1792   4
   0   5  -1 1361.25 56.5664   8
   0   5  -1 1233.11 55.9814   6
   0  -5   1 1436.73 56.5962   8
   0  -5   1 1355.92 56.5528   4
  -1   5  -1 4834.92 196.733   8
  -1   5  -1 4636.81 196.452   4
  -1   5  -1 4298.01 196.092   6
   1  -5   1 4850.33 196.467  11
   1  -5   1 4726.36 196.477   8
   1  -5   1 4751.38 196.154   3
  -2   5  -1 28.9013 4.25569   8
  -2   5  -1 31.2968 3.33011   6
  -2   5  -1 29.6203 4.88286   4
   2  -5   1 35.0998 5.51034  11
   2  -5   1 29.0917 3.25872   3
   2  -5   1 38.3622 3.79842   2
  -3   5  -1 14.0456 3.33253   6
  -3   5  -1 9.92746 3.34296   8
   3  -5   1 14.6282 2.73413   2
   3  -5   1 17.6368 2.83497   3
   3  -5   1 20.5305 4.24405  11
  -4   5  -1 49.5029 4.46505   6
  -4   5  -1 39.0555 5.56638   8
   4  -5   1 45.5856 3.99786   3
   4  -5   1 56.8426 3.96637   2
   4  -5   1 56.9907 5.43006  11
  -5   5  -1 996.147 44.8461   8
   5  -5   1 962.842 46.5532   5
   5  -5   1 1074.86 43.9550   2
   5  -5   1 1048.94 44.2403  11
  -6   5  -1 139.358 7.56621   6
   6  -5   1 153.985 7.50234   2
   6  -5   1 160.281 8.04133  11
   6  -5   1 154.537 10.2217   5
   7  -5   1 600.815 25.5673   2
   8   4  -1 77.9887 5.25377  11
   8   4  -1 73.2982 4.54005   1
   7   4  -1 125.751 6.92654   1
   7   4  -1 114.780 7.09587   9
   7   4  -1 127.916 7.83476  11
   6   4  -1 11.5922 2.46028   1
   6   4  -1 16.2184 2.75531   9
   6   4  -1 18.9172 4.09649  11
   5   4  -1 322.571 15.3380   1
   5   4  -1 310.752 16.0379  11
   5   4  -1 354.213 15.4819   9
   4   4  -1 3939.07 175.259  11
   4   4  -1 4490.98 175.219   9
   4   4  -1 3960.12 173.727   3
  -4  -4   1 4192.76 174.113   4
   3   4  -1 76.9388 7.60033   7
   3   4  -1 79.6924 5.50179   9
   3   4  -1 69.4410 5.34279   3
  -3  -4   1 83.4381 5.06602   4
  -3  -4   1 75.0797 5.39911   4
  -3  -4   1 75.8207 6.27821   7
   2   4  -1 2784.31 116.365   7
  -2  -4   1 2750.79 116.144   7
  -2  -4   1 2862.63 116.015   4
  -2  -4   1 2628.51 115.775   4
   1   4  -1 3438.70 149.440   4
   1   4  -1 3635.58 149.671   7
   1   4  -1 3459.83 149.239   4
  -1  -4   1 3548.81 149.264   4
  -1  -4   1 3546.54 149.428   4
  -1  -4   1 3731.28 149.293   7
   0   4  -1 1103.01 46.5845   7
   0   4  -1 1064.51 46.2095   4
   0  -4   1 1104.95 46.4754   4
  -1   4  -1 474.936 20.3169   4
  -1   4  -1 470.407 20.7798   4
  -1   4  -1 450.400 20.6414   7
   1  -4   1 472.335 20.6379   4
  -2   4  -1 773.262 38.6930   7
  -2   4  -1 925.419 38.3777   4
   2  -4   1 867.472 38.1597   3
   2  -4   1 1018.01 39.0049  11
  -3   4  -1 517.926 22.8150   4
  -3   4  -1 466.749 22.7064   6
  -3   4  -1 523.464 23.3779   8
   3  -4   1 553.413 23.2187  11
   3  -4   1 493.258 22.8168   2
  -4   4  -1 16.0969 4.11435   8
  -4   4  -1 10.5284 3.24573   6
   4  -4   1 11.3552 2.41702   2
   4  -4   1 12.6333 1.93624   3
   4  -4   1 11.2336 2.79365  11
  -5   4  -1 205.485 10.8522   6
   5  -4   1 220.601 11.3017  11
   5  -4   1 207.018 13.1739   5
   5  -4   1 216.025 10.4335   2
  -6   4  -1 85.7726 6.39425   6
   6  -4   1 101.662 5.71828   2
   6  -4   1 118.488 6.92352  11
  -7   4  -1 6.94899 2.39600   6
   7  -4   1 5.68886 1.27543   2
   8   3  -1 128.269 7.25983  11
   8   3  -1 135.486 6.91595   1
   7   3  -1 68.0238 5.45261   1
   7   3  -1 60.1667 5.71621  11
   6   3  -1 100.655 7.00508  11
   6   3  -1 109.696 6.33204   1
   6   3  -1 106.816 6.68228   9
   5   3  -1 10.1713 2.41936   1
   5   3  -1 9.42257 2.53952  11
   5   3  -1 13.0212 3.99638   9
   4   3  -1 2201.36 97.6896   3
   4   3  -1 2383.24 98.2551   9
   4   3  -1 2269.12 98.6749  11
  -4  -3   1 2445.28 97.9168   4
   3   3  -1 1783.72 76.4024   7
  -3  -3   1 1758.64 76.0968   7
  -3  -3   1 1841.22 75.8001   4
  -3  -3   1 1808.70 75.7281   4
   2   3  -1 247.454 11.1972   7
   2   3  -1 239.674 10.6600   4
   2   3  -1 237.921 10.9549   4
  -2  -3   1 241.019 11.0593   7
  -2  -3   1 242.930 10.7437   4
  -2  -3   1 240.417 10.8326   4
   1   3  -1 264.964 12.0962   4
   1   3  -1 270.528 12.2091   7
   1   3  -1 265.963 11.9059   4
  -1  -3   1 277.704 11.9506   4
  -1  -3   1 278.674 12.0193   7
  -1  -3   1 277.531 12.0847   4
   0   3  -1 170.976 7.50620   4
   0   3  -1 164.096 7.74633   7
   0   3  -1 165.008 7.70229   4
   0  -3   1 167.465 7.53284   4
   0  -3   1 164.107 7.67272   4
  -1   3  -1 17.3868 1.52016   4
  -1   3  -1 13.1449 2.04955   4
   1  -3   1 11.4424 1.91605   4
   1  -3   1 13.7804 2.29453   4
  -2   3  -1 789.101 34.0794   4
  -2   3  -1 800.903 33.8188   4
  -3   3  -1 899.888 38.0828   4
   3  -3   1 870.642 38.3445   2
   3  -3   1 836.017 37.9275   3
   3  -3   1 964.390 38.8748  11
   4  -3   1 916.378 41.6445  11
   4  -3   1 956.944 40.9799   2
   4  -3   1 967.221 40.2131   3
   5  -3   1 3212.27 133.705   5
   5  -3   1 3040.85 131.129   2
   5  -3   1 3072.17 131.530  11
   6  -3   1 896.845 37.8286   2
   6  -3   1 842.628 38.1854  11
   7  -3   1 142.366 7.80028  11
   7  -3   1 140.012 7.08781   2
   8   2  -1 36.6099 3.68484   1
   8   2  -1 35.1784 3.55528  11
   7   2  -1 2788.68 116.441   2
   7   2  -1 2800.03 117.150  11
   7   2  -1 2691.60 116.477   1
   6   2  -1 1993.84 84.3927  11
   6   2  -1 1933.50 83.7277   1
   6   2  -1 1967.87 83.7438   2
   6   2  -1 1994.75 83.6814   9
   5   2  -1 759.220 33.6498   2
   5   2  -1 785.430 33.7079   9
   4   2  -1 2435.31 103.539   1
   4   2  -1 2454.28 103.961  11
   4   2  -1 2455.51 103.600   9
  -4  -2   1 2441.58 103.037   4
  -4  -2   1 2431.56 103.058   4
  -4  -2   1 2502.87 104.030   7
   3   2  -1 1287.37 54.2635   4
   3   2  -1 1266.80 54.3681   4
  -3  -2   1 1286.19 54.3793   4
  -3  -2   1 1342.50 54.8876   7
  -3  -2   1 1270.77 54.4096   4
   2   2  -1 6525.60 270.851   4
   2   2  -1 6507.53 271.031   7
  -2  -2   1 6447.17 270.708   4
  -2  -2   1 6437.98 270.939   7
   1   2  -1 3311.82 140.681   4
   1   2  -1 3375.80 140.760   7
   1   2  -1 3401.42 140.581   4
  -1  -2   1 3373.18 140.596   4
  -1  -2   1 3359.01 140.685   4
  -1  -2   1 3349.72 140.690   7
   0   2  -1 3338.47 139.144   7
   0   2  -1 3287.73 139.146   4
   0  -2   1 3325.01 139.053   4
   0  -2   1 3290.98 139.147   4
   0  -2   1 3385.04 139.102   7
  -1   2  -1 78.2865 3.71426   4
  -1   2  -1 79.6094 3.86257   7
  -1   2  -1 82.5697 3.89873   4
   1  -2   1 74.8038 3.83282   4
   1  -2   1 80.9030 3.77917   4
  -2   2  -1 329.066 14.0638   4
  -2   2  -1 326.328 13.8986   4
   2  -2   1 321.959 13.9808   4
   2  -2   1 311.605 13.9672   4
  -3   2  -1 2413.74 101.651   4
  -3   2  -1 2426.65 101.572   4
  -4   2  -1 1043.61 44.5842   4
   4  -2   1 905.634 44.4108   3
   4  -2   1 1119.96 45.5792   2
   4  -2   1 1138.81 47.0558   5
   5  -2   1 101.662 6.40970  11
   5  -2   1 91.1339 5.62706   2
   5  -2   1 92.4321 8.23247   5
   6  -2   1 59.0379 4.23569   2
   6  -2   1 62.0340 5.25635  11
   7  -2   1 117.193 6.30932   2
   7  -2   1 118.063 7.25404  11
   8  -2   1 183.248 8.48681   2
   8  -2   1 184.434 8.72996  11
   8   1  -1 7.70689 1.99938  11
   8   1  -1 6.39341 1.97542   2
   7   1  -1 93.5588 7.63206   2
   7   1  -1 93.3822 6.29640  11
   6   1  -1 9.55444 2.45070  11
   6   1  -1 12.4948 2.48225   1
   6   1  -1 10.3633 2.08414   2
   5   1  -1 726.307 32.6749   9
   5   1  -1 747.754 32.5909   2
   5   1  -1 760.922 32.5018   1
   4   1  -1 252.979 12.1686   1
   4   1  -1 242.399 12.2739  11
  -4  -1   1 256.788 11.2552   4
  -4  -1   1 248.367 11.3516   4
  -4  -1   1 258.730 12.6963   7
  -3  -1   1 1562.10 65.0987   7
  -3  -1   1 1561.98 64.6050   4
  -3  -1   1 1488.25 64.5494   4
   2   1  -1 2.22711 0.79173   4
   2   1  -1 1.59989 0.65580   4
  -2  -1   1 2.57442 0.70645   7
  -2  -1   1 2.36587 0.62695   4
  -2  -1   1 2.72029 0.57704   4
   1   1  -1 2.77677 0.54655   4
   1   1  -1 3.05876 0.59621   7
   1   1  -1 1.81143 0.45019   4
  -1  -1   1 1.35709 0.54493   4
  -1  -1   1 1.21034 0.58974   7
  -1  -1   1 2.33858 0.44179   4
  -1   1  -1 3593.41 141.819   4
   1  -1   1 3192.32 141.839   4
  -2   1  -1 3888.27 162.525   4
  -3   1  -1 2578.37 105.400   4
  -3   1  -1 2458.85 105.466   4
  -4   1  -1 1658.84 73.7777   7
   4  -1   1 1748.55 73.2332   2
   4  -1   1 1771.25 74.7795   5
   4  -1   1 1727.06 73.4433  11
   5  -1   1 3.34216 1.49961   2
   5  -1   1 3.88239 3.63261   5
   5  -1   1 1.84608 2.11600  11
   6  -1   1 801.953 35.5267  11
   6  -1   1 813.138 35.2478   2
   7  -1   1 82.6798 6.04209  11
   7  -1   1 88.8638 5.22193   2
   8  -1   1 4.91005 2.15242  11
   8  -1   1 2.25835 1.27291   2
   8   0  -1 362.961 16.1236  11
   8   0  -1 344.962 15.8402   2
   7   0  -1 9.14641 2.07586   2
   7   0  -1 11.0106 2.99342   1
   6   0  -1 1014.89 46.1391   1
   6   0  -1 1130.17 46.9930  11
   6   0  -1 1083.88 46.6106   2
   5   0  -1 1145.90 48.6880   2
   5   0  -1 1065.61 49.3866  11
   5   0  -1 1134.53 47.8395   1
   4   0  -1 575.796 24.6224  11
   4   0  -1 547.525 24.3247   2
   4   0  -1 550.991 24.3476   1
  -4   0   1 540.312 23.6861   4
  -4   0   1 528.072 23.5751   4
  -4   0   1 559.212 24.9322   7
  -3   0   1 5633.19 234.023   7
  -3   0   1 5833.49 233.489   4
  -3   0   1 5292.39 233.411   4
   2   0  -1 1102.02 45.8171   4
   2   0  -1 1151.10 45.8021   4
  -2   0   1 1048.84 45.7966   4
  -2   0   1 1057.18 45.7839   4
  -2   0   1 1095.43 46.0964   7
   0   0  -1 778.590 32.2721   4
   0   0  -1 742.209 32.2187   7
   0   0  -1 798.104 32.2471   4
   0   0   1 767.015 32.2612   4
   0   0   1 753.321 32.2193   7
   0   0   1 782.952 32.2478   4
  -3   0  -1 557.096 24.0730   7
  -4   0  -1 56.9276 5.43334   7
   4   0   1 55.3677 4.10765   2
   4   0   1 48.2667 4.89277  11
   5   0   1 363.521 16.2192   2
   5   0   1 344.294 16.7715  11
   6   0   1 187.880 10.0014  11
   6   0   1 183.913 9.33169   2
   7   0   1 184.349 10.9369   2
   7   0   1 183.318 10.2612  11
   8   0   1 269.168 12.1177   2
   8   0   1 262.479 12.6149  11
   8  -1  -1 12.4518 2.28370   2
   8  -1  -1 19.5897 3.12793  11
   7  -1  -1 269.677 12.9020   2
   7  -1  -1 271.278 13.1647  11
   6  -1  -1 472.041 21.3785   2
   6  -1  -1 465.424 21.5103  11
   5  -1  -1 34.1344 3.53863   2
   5  -1  -1 33.5116 4.09140  11
   5  -1  -1 37.6915 4.57909   1
   4  -1  -1 183.601 10.0061   1
   4  -1  -1 195.027 9.51506   2
  -4   1   1 197.828 11.1278   7
  -4   1   1 180.322 8.74721   4
   3  -1  -1 1081.93 45.5316   4
  -3   1   1 1044.18 45.5579   4
  -3   1   1 1113.40 45.5355   4
   2  -1  -1 4286.29 182.766   4
   2  -1  -1 4472.03 182.797   4
  -2   1   1 4360.98 182.781   4
   1  -1  -1 298.609 13.4710   4
   1  -1  -1 320.487 13.4970   4
  -1   1   1 339.965 13.4983   4
  -1   1   1 308.966 13.4502   4
  -1  -1  -1 2220.04 92.7584   7
  -2  -1  -1 119.706 5.44058   7
  -3  -1  -1 581.258 25.0013   7
  -4  -1  -1 4750.02 188.384   7
   4   1   1 4220.37 188.475  11
   5   1   1 1474.92 61.9015   1
   5   1   1 1441.29 61.4651   2
   5   1   1 1445.39 61.8186   9
   5   1   1 1410.02 61.8913  11
   6   1   1 557.851 24.7778  11
   6   1   1 527.448 24.0438   1
   6   1   1 540.598 24.0477   2
   7   1   1 1115.31 48.4332  11
   7   1   1 1116.51 47.8595   2
   8   1   1 1159.03 50.2084  11
   8   1   1 1180.91 49.7004   2
   8  -2  -1 306.966 13.6385   2
   7  -2  -1 105.859 6.03429   2
   7  -2  -1 105.891 6.73827  11
   6  -2  -1 26.6292 3.83155  11
   6  -2  -1 27.9973 3.18054   2
   5  -2  -1 2408.96 102.297   2
   5  -2  -1 2417.17 102.327  11
   4  -2  -1 4430.85 185.247   2
   4  -2  -1 4549.10 185.478  11
   4  -2  -1 4274.38 185.008   1
   4  -2  -1 4395.93 184.497   3
  -4   2   1 4389.18 184.743   4
   2  -2  -1 2337.98 99.3683   4
  -2   2   1 2316.64 99.3614   4
  -2   2   1 2454.30 99.3045   4
   1  -2  -1 704.246 30.2745   4
   1  -2  -1 670.943 30.2453   4
  -1   2   1 767.161 30.2088   4
  -1   2   1 721.071 30.2500   4
   0  -2  -1 1176.83 49.7366   4
   0   2   1 1192.91 49.7228   4
  -1  -2  -1 1736.18 73.1304   4
  -1  -2  -1 1773.46 73.0836   4
  -1  -2  -1 1721.65 73.1160   7
   1   2   1 1730.85 73.0963   4
   1   2   1 1773.10 73.2052   7
  -2  -2  -1 57.9667 2.82079   4
  -2  -2  -1 61.1362 3.07158   7
  -2  -2  -1 61.8546 2.74212   4
   2   2   1 58.6802 3.14924   7
  -3  -2  -1 365.727 16.0852   7
  -4  -2  -1 11.9678 2.76114   7
   4   2   1 3.50925 2.96345   1
   4   2   1 4.93969 2.39884  11
   5   2   1 297.466 14.9997  11
   5   2   1 315.428 14.6828   1
   5   2   1 322.465 14.4900   2
   6   2   1 29.0944 5.22625   9
   6   2   1 28.2579 3.32269   2
   6   2   1 33.1228 3.86602   1
   6   2   1 31.5864 4.27073  11
   7   2   1 -1.1500 2.24023   1
   7   2   1 1.70057 1.75539   2
   7   2   1 1.88043 2.08067  11
   8   2   1 88.5886 6.10512   1
   8   2   1 98.9231 5.83820  11
   7  -3  -1 404.461 18.9929  11
   7  -3  -1 431.896 18.7218   2
   6  -3  -1 7.13830 2.62476  11
   6  -3  -1 3.23005 1.63675   2
  -6   3   1 3.62147 6.44648   6
   5  -3  -1 249.878 12.5315  11
   5  -3  -1 248.235 12.1893   2
   4  -3  -1 489.264 22.2347   2
   4  -3  -1 493.640 21.6290   3
   4  -3  -1 510.259 22.4246  11
   3  -3  -1 406.726 18.5063   3
   3  -3  -1 438.885 19.1289  11
   3  -3  -1 409.218 18.8991   2
  -3   3   1 430.320 18.5052   4
   2  -3  -1 189.583 8.76210   4
   2  -3  -1 167.158 8.87159   4
  -2   3   1 199.676 8.47161   4
  -2   3   1 185.186 8.67009   4
   1  -3  -1 1.46219 1.04441   4
   1  -3  -1 0.92317 0.97260   4
  -1   3   1 0.98537 0.90246   4
  -1  -3  -1 5432.88 239.906   4
   1   3   1 6048.88 240.106   7
  -2  -3  -1 1835.67 77.9626   4
  -2  -3  -1 1948.67 78.1769   7
  -2  -3  -1 1845.47 78.0771   4
   2   3   1 1744.96 77.9500   4
   2   3   1 1912.74 78.3340   7
   2   3   1 1877.74 77.9344   4
  -3  -3  -1 4704.61 195.541   4
  -3  -3  -1 4458.71 195.396   4
  -3  -3  -1 4805.43 195.875   7
   3   3   1 4735.57 196.083   7
  -4  -3  -1 664.161 28.3442   7
   4   3   1 645.269 28.1228   1
   4   3   1 625.378 28.1423   9
   4   3   1 622.182 28.5085  11
   5   3   1 5689.10 248.864  11
   5   3   1 6143.13 248.566   9
   5   3   1 5934.59 248.438   1
   6   3   1 832.383 36.7577   1
   6   3   1 826.331 37.3684  11
   6   3   1 870.837 36.8828   9
   7   3   1 15.9755 2.69213   1
   8   3   1 159.205 8.57073  11
   8   3   1 165.263 8.16639   1
   7  -4  -1 1619.89 71.6515  11
   7  -4  -1 1769.82 71.6361   2
   6  -4  -1 1138.20 46.4739   2
   6  -4  -1 1044.73 46.8917  11
  -6   4   1 1048.01 46.0408   6
   5  -4  -1 8.23957 2.20399   3
   5  -4  -1 12.5962 2.68895   2
  -5   4   1 13.2384 2.73188   6
  -5   4   1 10.7270 3.81618   8
   4  -4  -1 1277.53 52.1034  11
   4  -4  -1 1237.77 51.7529   2
   4  -4  -1 1201.47 51.0466   3
  -4   4   1 1093.95 52.1620   6
  -4   4   1 1203.78 52.3623   8
   3  -4  -1 45.1146 3.79130   3
   3  -4  -1 41.5735 3.71363   2
   3  -4  -1 45.9770 4.96821  11
  -3   4   1 43.5431 5.57724   6
  -3   4   1 36.4299 5.61367   8
  -3   4   1 47.0000 4.49725   4
  -2   4   1 100.569 6.27453   4
  -2   4   1 96.7590 5.31969   4
   1  -4  -1 73.7644 4.62725   4
   1  -4  -1 75.4792 4.54724   4
  -1   4   1 80.4818 4.56005   4
  -1   4   1 77.5479 4.02815   4
  -1   4   1 70.8804 4.50524   7
   0  -4  -1 1596.93 66.6405   4
   0  -4  -1 1639.72 66.5215   4
   0   4   1 1516.97 66.6264   7
   0   4   1 1606.55 66.6180   4
   0   4   1 1533.12 66.4327   4
  -1  -4  -1 959.277 38.5706   4
  -1  -4  -1 894.175 38.6697   4
   1   4   1 886.808 38.9938   7
   1   4   1 889.462 38.6336   4
   1   4   1 920.793 38.5428   4
  -2  -4  -1 3259.65 130.363   7
  -2  -4  -1 3073.74 130.368   4
  -2  -4  -1 3121.85 130.230   4
   2   4   1 3181.97 130.782   7
   2   4   1 2906.12 130.248   4
  -3  -4  -1 941.279 39.4267   4
  -3  -4  -1 937.635 39.4613   7
  -3  -4  -1 903.758 39.0397   4
   3   4   1 902.835 39.8847   7
  -4  -4  -1 516.901 23.3990   7
  -4  -4  -1 499.738 21.7643   4
   4   4   1 499.395 22.4551   9
   4   4   1 489.196 22.9993  11
   5   4   1 20.1933 4.26046  11
   5   4   1 18.0456 3.42776   1
   5   4   1 10.9631 3.02335   9
   6   4   1 437.551 20.8134  11
   6   4   1 448.203 20.1438   1
   6   4   1 433.884 20.1432   9
   7   4   1 464.231 20.3328   1
   7   4   1 429.796 20.9334  11
   8   4   1 22.6462 3.68781  11
   8   4   1 17.9811 3.03120   1
   7  -5  -1 25.7326 2.91315  11
   7  -5  -1 21.2542 2.05444   2
   6  -5  -1 48.5973 3.41469   2
  -6   5   1 40.5986 3.67721   6
   5  -5  -1 958.243 42.9212   3
   5  -5  -1 1072.69 43.7601   2
   5  -5  -1 997.540 43.9844  11
  -5   5   1 998.254 44.1835   8
  -5   5   1 1032.91 43.4097   6
   4  -5  -1 8.25420 2.71737  11
   4  -5  -1 6.48401 1.85177   3
  -4   5   1 4.70579 2.05359   6
   3  -5  -1 302.590 14.2012   2
  -3   5   1 298.713 14.0212   6
  -3   5   1 317.923 14.8822   8
   2  -5  -1 111.456 5.91951   3
   2  -5  -1 98.9854 6.79255   2
   2  -5  -1 103.683 6.71456  11
   2  -5  -1 97.0197 8.16395   8
  -2   5   1 119.117 7.11007   8
  -2   5   1 119.815 6.59125   4
  -2   5   1 109.167 6.10295   6
   1  -5  -1 871.426 39.8033   4
  -1   5   1 927.855 39.8307   7
  -1   5   1 920.034 39.9653   4
  -1   5   1 967.664 39.4812   4
   0  -5  -1 4210.57 176.316   4
   0  -5  -1 4293.85 176.160   4
   0   5   1 4238.86 176.378   7
   0   5   1 4044.55 176.032   4
   0   5   1 4211.29 176.308   4
  -1  -5  -1 97.1127 5.45373   4
  -1  -5  -1 105.148 5.42912   4
   1   5   1 93.2686 6.13017   4
   1   5   1 88.5933 6.74553   7
   1   5   1 90.2026 5.09663   4
  -2  -5  -1 885.604 38.4954   4
  -2  -5  -1 943.722 38.4534   7
  -2  -5  -1 925.618 38.3758   4
   2   5   1 832.940 39.3107   7
  -3  -5  -1 1034.23 41.7620   4
  -3  -5  -1 988.326 41.8412   7
   3   5   1 972.276 41.6829   3
   3   5   1 952.972 41.8927   9
   3   5   1 912.486 42.9203   7
   3   5   1 968.003 41.9540   1
  -4  -5  -1 11.5398 3.17302   4
   4   5   1 12.1797 2.58940   9
   4   5   1 8.28295 2.14062   1
   4   5   1 8.27206 2.50898   3
   5   5   1 117.037 7.03597   1
   5   5   1 129.057 7.32672   9
   5   5   1 123.328 7.97970  11
   6   5   1 313.952 14.8125   9
   6   5   1 295.736 15.5255  11
   6   5   1 319.160 14.8225   1
   7   5   1 211.612 10.3445   9
   7   5   1 194.483 11.5742   1
   7   5   1 195.227 11.1021  11
   8   5   1 151.984 8.67403  11
   8   5   1 172.174 8.16905   1
   6  -6  -1 473.909 22.0557  11
   6  -6  -1 507.903 21.8664   2
  -6   6   1 533.390 21.8892   6
   5  -6  -1 2.37043 1.95311   3
  -5   6   1 3.24957 2.62056   8
   4  -6  -1 188.177 9.77207  11
   4  -6  -1 175.971 8.79242   3
   4  -6  -1 178.125 9.05510   2
  -4   6   1 185.844 9.95872   8
  -4   6   1 179.317 8.85538   6
   3  -6  -1 2474.17 100.261  11
   3  -6  -1 2296.14 99.9105   2
   3  -6  -1 2393.56 99.7106   3
  -3   6   1 2275.23 99.7115   6
  -3   6   1 2392.15 100.601   8
   2  -6  -1 1711.45 74.8399   8
   2  -6  -1 1691.80 74.4996   3
   2  -6  -1 1875.32 74.8012  11
  -2   6   1 1678.25 74.3381   6
  -2   6   1 1845.06 75.2173   8
   1  -6  -1 815.518 34.9461  11
   1  -6  -1 819.460 34.7654   3
   1  -6  -1 874.293 35.2501   8
   1  -6  -1 716.633 34.4170   6
  -1   6   1 781.959 34.5777   6
  -1   6   1 800.721 35.8741   3
  -1   6   1 850.426 35.3638   8
   0  -6  -1 2251.49 94.6396   3
   0  -6  -1 2250.81 94.3178   6
   0  -6  -1 2315.31 95.2953   4
   0   6   1 2156.75 94.4397   6
   0   6   1 2342.05 95.1444   8
   0   6   1 2215.99 95.1350   3
   0   6   1 2185.38 94.8717   4
  -1  -6  -1 325.632 15.9800   4
  -1  -6  -1 324.957 15.0734   4
  -1  -6  -1 308.186 14.0803   6
   1   6   1 313.793 15.1328   8
   1   6   1 312.744 14.8978   3
  -2  -6  -1 343.991 15.8921   8
  -2  -6  -1 303.784 14.8646   6
  -2  -6  -1 332.922 15.7840   4
   2   6   1 332.879 15.4220   3
   2   6   1 360.454 17.1881   9
  -3  -6  -1 237.352 12.0428   4
  -3  -6  -1 223.045 12.0192   8
  -3  -6  -1 193.508 10.7815   6
   3   6   1 218.042 11.1826   9
   3   6   1 223.618 11.1311   1
   3   6   1 255.573 13.9787   5
   3   6   1 225.647 10.9763   3
  -4  -6  -1 191.877 14.3433   8
   4   6   1 202.826 9.98821   3
   4   6   1 203.920 10.3246   9
   5   6   1 3.83117 2.70103  11
   5   6   1 10.7725 2.50286   9
   5   6   1 1.50942 2.80018   3
   5   6   1 6.14234 2.33609   1
   6   6   1 351.244 18.2755  11
   6   6   1 388.798 17.3701   1
   6   6   1 375.505 17.3247   9
   7   6   1 20.6707 3.22990   1
   7   6   1 16.9634 3.35391  11
   7   6   1 18.3722 2.92422   9
   8   6   1 67.8196 5.29206  11
   8   6   1 76.4453 4.52246   1
  -6   7   1 168.153 7.66766   6
   5  -7  -1 186.194 9.13655   2
   5  -7  -1 221.824 11.4808   5
   5  -7  -1 189.895 9.70912  11
  -5   7   1 212.772 9.23003   6
  -5   7   1 171.879 9.82264   8
   4  -7  -1 54.2152 4.14133   2
   4  -7  -1 47.0538 5.03160  11
   4  -7  -1 59.3867 4.15278   3
  -4   7   1 61.8371 3.88404   6
  -4   7   1 57.2638 5.05237   8
   3  -7  -1 600.249 28.6932   2
   3  -7  -1 684.454 29.2148  11
   3  -7  -1 671.123 28.7826   3
  -3   7   1 672.961 29.6234   8
  -3   7   1 679.437 28.7337   6
   2  -7  -1 1319.95 54.5610  11
   2  -7  -1 1282.82 54.2879   3
  -2   7   1 1271.17 54.9973   8
  -2   7   1 1219.53 54.0835   6
   1  -7  -1 432.221 19.2160   3
  -1   7   1 437.905 18.9710   6
  -1   7   1 439.220 19.7884   8
  -1   7   1 411.017 20.1472   3
   0  -7  -1 348.636 15.2227   6
   0  -7  -1 354.990 15.7217   3
   0  -7  -1 349.824 16.0307   8
   0   7   1 343.819 16.2396   3
   0   7   1 356.382 16.0763   8
   0   7   1 284.641 17.0680   4
   0   7   1 356.862 15.3757   6
  -1  -7  -1 322.999 15.7040   3
  -1  -7  -1 339.534 15.6312   8
  -1  -7  -1 325.116 17.5125   4
  -1  -7  -1 330.775 14.8400   6
   1   7   1 330.952 15.7500   8
   1   7   1 330.852 15.6398   3
   1   7   1 356.605 15.3497   6
  -2  -7  -1 55.8376 9.11237   4
  -2  -7  -1 70.7477 5.53574   8
   2   7   1 76.5371 6.51707   1
   2   7   1 74.8253 5.97931   9
   2   7   1 70.2925 7.10397   8
   2   7   1 61.4768 5.02558   3
  -3  -7  -1 60.7569 5.83532   8
   3   7   1 70.1728 4.97975   3
   3   7   1 62.9697 5.36269   1
   3   7   1 61.5215 5.85189   9
  -4  -7  -1 1719.58 74.5212   8
  -4  -7  -1 1890.62 74.4192   6
   4   7   1 1805.06 74.2081   3
   4   7   1 1676.65 74.3827   9
   4   7   1 1639.30 74.2913   1
  -5  -7  -1 581.072 26.3821   8
  -5  -7  -1 571.633 25.4541   6
   5   7   1 532.824 27.2584  11
   5   7   1 609.422 26.0048   9
   5   7   1 607.448 25.9680   1
  -6  -7  -1 812.700 34.8414   6
   6   7   1 845.335 34.9543   1
   6   7   1 709.040 35.9139  11
   6   7   1 820.856 34.9618   9
   7   7   1 893.900 37.3144   9
   7   7   1 768.322 37.9293  11
   7   7   1 922.937 37.3756   1
   8   7   1 54.5063 3.88595   9
   8   7   1 50.7480 4.45586  11
   5  -8  -1 2443.75 100.056   5
  -5   8   1 2530.90 99.2786   6
  -5   8   1 2122.70 99.5137   8
   4  -8  -1 12.6641 1.88870   3
  -4   8   1 14.3109 2.27402   6
  -4   8   1 11.3992 2.29821   8
   3  -8  -1 626.177 27.0239   3
  -3   8   1 606.047 27.7209   8
  -3   8   1 628.246 26.8985   6
   2  -8  -1 310.465 14.3926   3
  -2   8   1 316.302 15.0330   8
  -2   8   1 310.174 14.1079   6
   1  -8  -1 141.911 7.97542   8
   1  -8  -1 131.994 7.25652   3
  -1   8   1 135.612 6.89347   6
  -1   8   1 132.735 8.92937   3
  -1   8   1 134.992 7.75893   8
   0  -8  -1 38.1293 4.16581   3
   0  -8  -1 41.0086 3.57499   6
   0  -8  -1 38.5061 4.38146   8
   0   8   1 38.1464 4.04788   8
   0   8   1 47.4655 4.95802   3
   0   8   1 34.6295 3.23574   6
  -1  -8  -1 429.619 19.6369   8
  -1  -8  -1 427.645 18.7823   6
   1   8   1 413.658 19.5828   8
   1   8   1 440.367 19.7376   3
  -2  -8  -1 3.37238 2.24768   8
  -2  -8  -1 4.94502 1.67825   6
   2   8   1 7.35974 2.13344   3
   2   8   1 9.96070 3.39391   8
   2   8   1 8.33309 3.54788   9
  -3  -8  -1 22.7237 4.32252   8
  -3  -8  -1 21.9629 3.19030   6
   3   8   1 23.7130 3.84797   9
   3   8   1 30.1858 4.39054   1
   3   8   1 22.7055 3.69459   3
  -4  -8  -1 805.740 34.2529   6
  -4  -8  -1 800.873 35.0958   8
   4   8   1 797.276 34.8023   9
   4   8   1 770.625 34.6920   1
   4   8   1 804.890 34.7159   3
  -5  -8  -1 174.748 8.57300   6
  -5  -8  -1 167.805 9.73846   8
   5   8   1 163.186 10.6215  11
   5   8   1 168.100 8.90197   9
   5   8   1 178.614 8.91018   1
   5   8   1 162.481 9.05612   3
  -6  -8  -1 22.6924 4.00766   6
   6   8   1 29.8921 3.59853   9
   6   8   1 26.7797 3.26298   1
   6   8   1 24.4554 4.82194  11
  -7  -8  -1 32.5291 5.72597   6
   7   8   1 37.7578 3.17567   1
   7   8   1 34.4789 3.31674   9
   7   8   1 39.2811 4.37406  11
   4  -9  -1 40.8466 4.01625   5
   4  -9  -1 38.8315 3.22158   3
  -4   9   1 40.9939 3.23925   8
  -4   9   1 34.7214 2.66518   6
   3  -9  -1 324.583 14.2483   3
  -3   9   1 315.460 14.7881   8
  -3   9   1 312.416 14.0711   6
   2  -9  -1 30.4842 3.44153   3
  -2   9   1 30.8639 3.53980   8
  -2   9   1 31.3012 2.89553   6
   1  -9  -1 320.868 14.4364   3
   1  -9  -1 304.517 14.7605   8
  -1   9   1 297.262 16.6931   3
  -1   9   1 315.753 14.8659   8
  -1   9   1 318.351 14.0047   6
   0  -9  -1 299.444 14.3400   3
   0  -9  -1 312.799 14.7147   8
   0   9   1 296.974 14.6279   8
   0   9   1 310.660 13.7934   6
   0   9   1 318.573 15.1278   3
  -1  -9  -1 988.419 41.8840   6
  -1  -9  -1 974.158 42.5006   3
  -1  -9  -1 989.401 42.8087   8
   1   9   1 995.020 42.8919   3
   1   9   1 969.648 42.6740   8
  -2  -9  -1 1331.62 56.3574   8
  -2  -9  -1 1291.39 55.4630   6
  -2  -9  -1 1283.01 56.2114   3
   2   9   1 1326.06 56.2999   3
  -3  -9  -1 249.238 11.2004   6
  -3  -9  -1 246.005 12.1923   8
   3   9   1 229.637 11.7392   9
   3   9   1 240.614 11.8406   3
  -4  -9  -1 894.273 38.6789   8
  -4  -9  -1 899.817 37.9167   6
   4   9   1 916.986 38.4447   3
   4   9   1 863.906 38.2642   1
   4   9   1 850.753 38.3178   9
  -5  -9  -1 1106.80 50.1671   8
  -5  -9  -1 1256.53 49.6910   6
   5   9   1 1254.23 51.6498  11
   5   9   1 1094.58 49.8553   1
   5   9   1 1164.18 49.7503   3
   5   9   1 1128.27 50.0136   9
  -6  -9  -1 139.581 6.85605   6
  -6  -9  -1 111.070 8.36658   8
   6   9   1 151.487 8.24985  11
   6   9   1 129.947 6.94602   9
   6   9   1 136.048 6.88097   1
  -7  -9  -1 0.68792 1.81848   6
   7   9   1 -2.5741 1.53317   1
   7   9   1 2.85551 1.39893   9
   7   9   1 3.10401 1.86484  11
   3 -10  -1 34.9143 2.66480   3
  -3  10   1 35.5196 2.93905   8
   2 -10  -1 338.619 14.7485   3
  -2  10   1 331.967 14.4319   6
  -2  10   1 316.236 15.0360   8
   0 -10  -1 374.610 19.3168   8
   0  10   1 322.956 19.0194   3
   0  10   1 417.728 17.6648   8
  -1 -10  -1 1490.74 64.4601   8
  -1 -10  -1 1552.36 64.2412   3
  -1 -10  -1 1462.28 63.4900   6
   1  10   1 1529.78 64.5995   3
   1  10   1 1499.12 64.2461   8
  -2 -10  -1 937.372 41.4372   8
  -2 -10  -1 907.001 40.5236   6
  -2 -10  -1 1052.24 42.3464   3
   2  10   1 919.771 41.3262   3
  -3 -10  -1 47.8522 4.53970   8
  -3 -10  -1 51.4661 3.76680   6
   3  10   1 59.0342 4.49859   3
  -4 -10  -1 101.734 5.29625   6
  -4 -10  -1 94.8151 6.08298   8
   4  10   1 95.5611 5.83285   3
   4  10   1 88.6464 5.64667   9
  -5 -10  -1 18.0894 2.62573   6
  -5 -10  -1 11.3278 2.57037   8
   5  10   1 16.2259 2.59955   9
   5  10   1 18.3865 3.66796  11
   5  10   1 13.8515 3.32399   1
   5  10   1 12.3449 2.19334   3
  -6 -10  -1 39.4840 5.42314   8
  -6 -10  -1 57.7647 3.48400   6
  -6 -10  -1 55.1003 3.67278  10
   6  10   1 57.3054 4.24085  11
   6  10   1 51.9800 4.17943   1
   6  10   1 51.3572 3.45637   9
   2 -11  -1 14.6408 1.98639   3
  -2  11   1 14.3419 2.06790   8
   1 -11  -1 602.984 26.4230   3
  -1  11   1 618.145 26.6119   8
  -1  11   1 622.640 28.5305   3
   0 -11  -1 2.84285 1.73865   3
   0 -11  -1 1.88586 2.06555   8
   0  11   1 0.95249 1.56310   8
   0  11   1 1.98984 1.90202   3
  -1 -11  -1 34.3175 3.73629   3
  -1 -11  -1 28.7146 3.38574   8
   1  11   1 27.7185 3.30456   3
   1  11   1 20.9900 2.83225   8
  -2 -11  -1 502.096 22.2097   8
  -2 -11  -1 504.712 21.8366  10
  -2 -11  -1 492.907 22.3241   3
   2  11   1 494.460 22.1360   3
  -3 -11  -1 7.38175 1.46038   6
  -3 -11  -1 6.06950 1.98502   8
   3  11   1 7.08898 1.81569   3
  -4 -11  -1 150.904 7.88897   8
  -4 -11  -1 153.792 7.30103   6
   4  11   1 161.591 8.32413  11
   4  11   1 161.114 7.62038   3
  -5 -11  -1 7.76530 2.42800   8
  -5 -11  -1 12.4843 2.25618  10
  -5 -11  -1 11.4478 2.05362   6
   5  11   1 9.56970 1.86181  11
   0 -12  -1 148.654 6.86491   3
   0  12   1 138.231 7.16645   3
  -1 -12  -1 44.0929 3.44127   8
  -1 -12  -1 48.9769 4.03735   3
   1  12   1 58.8742 3.63782   3
  -2 -12  -1 4.09837 1.51240   8
  -2 -12  -1 4.98935 2.24122  10
   2  12   1 4.17630 1.42329   3
  -3 -12  -1 35.1675 2.91789  10
  -3 -12  -1 34.1220 2.86637   8
   3  12   1 38.8462 2.82028   3
  -4 -12  -1 25.1340 2.51316   8
  -4 -12  -1 29.7975 2.51216  10
   4  12   1 29.9276 2.82256  11
   4  11  -2 96.6206 4.66611   3
   4  11  -2 100.861 5.16754  11
  -4 -11   2 97.3163 4.83996  10
  -4 -11   2 89.6798 4.79674   8
   3  11  -2 567.201 24.3611  11
   3  11  -2 578.403 23.9171   3
  -3 -11   2 523.115 23.9181   8
   2  11  -2 6.08089 1.44096   3
  -2 -11   2 3.54141 1.73662  10
  -2 -11   2 1.71748 1.48449   8
  -2 -11   2 9.13284 2.42569   3
   1  11  -2 331.943 14.6737   3
  -1 -11   2 321.431 14.7694   3
   0  11  -2 745.495 31.9596   3
   0  11  -2 776.472 31.6682   8
   0 -11   2 756.547 32.3164   5
   0 -11   2 700.167 32.4658   3
  -1  11  -2 623.973 26.7643   8
   1 -11   2 635.292 26.7138   3
   5  10  -2 413.872 18.6705  11
  -5 -10   2 382.974 18.2509  10
  -5 -10   2 456.953 18.1946   6
   4  10  -2 1.05165 1.85859  11
   4  10  -2 0.67016 1.36403   3
  -4 -10   2 1.76470 1.20488   6
  -4 -10   2 1.92243 1.54489   8
  -4 -10   2 1.58308 1.51561  10
   3  10  -2 797.597 32.9751   3
  -3 -10   2 774.990 33.0834   8
  -3 -10   2 730.948 32.3288   6
  -3 -10   2 750.378 32.7533  10
   2  10  -2 294.708 13.3781   3
  -2 -10   2 282.880 13.4112   3
  -2 -10   2 284.861 13.3194   8
  -2 -10   2 288.481 13.1059  10
   1  10  -2 35.3854 3.88994   3
   1  10  -2 40.1028 3.60758   8
  -1 -10   2 45.2430 4.02038  10
  -1 -10   2 37.9500 3.66454   8
  -1 -10   2 41.5142 3.74488   3
   0  10  -2 71.0197 5.23133   3
   0  10  -2 66.4579 4.38960   8
   0 -10   2 71.6330 4.43083   3
  -1  10  -2 16.9843 2.38109   8
   1 -10   2 11.3480 1.67073   3
  -2  10  -2 441.072 19.2981   8
   2 -10   2 443.938 20.1806   5
   2 -10   2 438.257 18.9791   3
   6   9  -2 117.218 6.30345  11
  -6  -9   2 94.1052 5.79196   8
  -6  -9   2 118.595 5.31348   6
  -6  -9   2 107.959 5.87460  10
   5   9  -2 1006.49 42.1818   3
   5   9  -2 1014.52 43.3906  11
  -5  -9   2 1069.26 42.1482   6
  -5  -9   2 920.363 42.4869   8
  -5  -9   2 954.608 42.2493  10
   4   9  -2 530.758 22.9293   3
  -4  -9   2 498.223 22.7274  10
  -4  -9   2 482.673 22.9598   8
  -4  -9   2 560.446 22.5246   6
   3   9  -2 1820.11 83.0984   3
  -3  -9   2 2044.72 83.3963   8
   2   9  -2 766.487 32.8783   3
  -2  -9   2 756.567 32.8681   8
  -2  -9   2 747.388 32.5199  10
  -2  -9   2 728.164 32.0006   6
   1   9  -2 185.788 9.69322   3
   1   9  -2 179.812 9.45404   8
  -1  -9   2 201.869 9.40459  10
  -1  -9   2 177.303 9.48611   8
  -1  -9   2 185.323 9.40088   3
  -1   9  -2 127.592 9.04343   3
  -1   9  -2 140.443 7.31455   6
  -1   9  -2 144.546 7.62695   8
   1  -9   2 147.659 7.25339   3
  -2   9  -2 362.227 16.6058   8
  -2   9  -2 366.462 16.1181   6
   2  -9   2 363.169 16.1332   3
  -3   9  -2 36.3742 3.08107   6
  -3   9  -2 40.8217 3.19822   8
   3  -9   2 40.2786 2.78553   3
   3  -9   2 38.5052 3.88557   5
  -4   9  -2 444.607 20.9616   8
  -4   9  -2 521.485 20.7814   6
   4  -9   2 495.499 21.6245   5
   7   8  -2 0.45730 1.73727  11
  -7  -8   2 0.74525 1.35738   6
   6   8  -2 33.4025 4.10712  11
   6   8  -2 32.9156 3.25728   1
   6   8  -2 28.8723 2.81806   9
  -6  -8   2 26.4514 3.84919   8
  -6  -8   2 31.0519 2.92776   6
  -6  -8   2 24.4273 3.58414  10
   5   8  -2 23.2434 3.59700   3
   5   8  -2 28.2584 3.26858   9
   5   8  -2 36.3024 4.02069   1
   5   8  -2 33.0326 4.83909  11
  -5  -8   2 24.9215 3.76142   8
  -5  -8   2 30.3516 3.50831  10
  -5  -8   2 31.5201 3.10329   6
   4   8  -2 34.6260 3.68471   9
   4   8  -2 38.3110 3.80802   3
  -4  -8   2 32.3025 3.87275   8
  -4  -8   2 34.6322 3.18151   6
  -4  -8   2 30.3431 3.43176  10
   3   8  -2 8.52767 2.14542   3
   3   8  -2 8.93090 2.34189   9
  -3  -8   2 8.82195 2.35496   8
  -3  -8   2 7.72742 1.71057   6
   2   8  -2 378.685 17.7171   8
   2   8  -2 367.995 17.5812   3
  -2  -8   2 387.795 17.7412   3
  -2  -8   2 393.918 16.8724   6
  -2  -8   2 378.437 17.6272   8
   1   8  -2 319.205 15.3761   8
   1   8  -2 329.592 15.5475   3
  -1  -8   2 330.793 15.1580   3
  -1  -8   2 327.610 15.3351   8
  -1  -8   2 340.032 15.1185  10
  -1  -8   2 313.929 14.4689   6
   0   8  -2 172.930 9.57250   3
   0   8  -2 172.780 8.64244   6
   0   8  -2 174.115 9.14032   8
   0  -8   2 177.966 8.86705   3
   0  -8   2 176.631 9.17135  10
   0  -8   2 168.949 9.09069   8
  -1   8  -2 183.830 11.1545   3
  -1   8  -2 188.445 9.23866   6
  -1   8  -2 192.417 9.86845   8
   1  -8   2 197.087 9.42861   3
  -2   8  -2 9.30047 1.94148   6
  -2   8  -2 9.13541 1.96219   8
   2  -8   2 12.3150 2.03333   3
  -3   8  -2 17.0537 2.65762   8
  -3   8  -2 17.9256 2.70190   6
   3  -8   2 21.1379 3.74935   5
   3  -8   2 18.8565 2.61069   3
  -4   8  -2 1272.48 52.9497   6
  -4   8  -2 1241.82 53.3112   8
   4  -8   2 1240.40 54.5494   5
   7   7  -2 636.088 26.9804   1
   7   7  -2 628.509 27.7869  11
  -7  -7   2 615.730 26.8075   6
   6   7  -2 1502.48 64.1897   1
   6   7  -2 1561.91 64.3632   9
   6   7  -2 1606.54 65.6468  11
  -6  -7   2 1538.88 63.9992  10
  -6  -7   2 1526.80 63.9518   6
  -6  -7   2 1340.98 64.2991   8
   5   7  -2 134.690 7.39509   1
   5   7  -2 148.042 7.57189   3
   5   7  -2 138.196 8.98998  11
   5   7  -2 139.899 7.58293   9
  -5  -7   2 137.120 7.21816   6
  -5  -7   2 134.270 7.39254  10
  -5  -7   2 134.198 7.88847   8
   4   7  -2 952.681 43.2338   1
   4   7  -2 1005.09 43.5131   9
   4   7  -2 1039.61 43.4242   3
  -4  -7   2 1000.15 43.6289   8
  -4  -7   2 1033.72 42.9614   6
   3   7  -2 26.6500 3.65028   3
   3   7  -2 26.9730 3.77135   9
  -3  -7   2 27.4148 3.97828   8
  -3  -7   2 25.6036 2.87630   6
   2   7  -2 861.744 37.8284   8
   2   7  -2 843.173 37.6720   3
  -2  -7   2 900.637 37.8044   8
  -2  -7   2 838.031 37.6216   3
  -2  -7   2 885.783 37.0026   6
   1   7  -2 187.566 9.55903   8
   1   7  -2 179.901 9.66398   3
   1   7  -2 182.910 9.41974   6
  -1  -7   2 183.561 9.43375   3
  -1  -7   2 190.759 9.60505   8
  -1  -7   2 182.262 8.69088   6
   0   7  -2 770.056 35.4873   3
   0   7  -2 828.931 35.4690   8
   0   7  -2 807.466 34.8177   6
   0  -7   2 816.427 35.0554  10
   0  -7   2 792.798 34.9520   3
   0  -7   2 834.700 35.3233   8
  -1   7  -2 2589.11 105.968   8
  -1   7  -2 2415.32 106.042   3
  -1   7  -2 2418.41 105.199   6
   1  -7   2 2521.43 105.540   8
   1  -7   2 2543.52 105.348   3
  -2   7  -2 865.900 38.0288   6
  -2   7  -2 890.035 38.7726   8
   2  -7   2 901.650 38.1312   3
  -3   7  -2 11.9568 2.48343   8
   3  -7   2 2.48974 2.51673   2
   3  -7   2 6.87925 1.78069   3
  -4   7  -2 392.484 17.8755   8
  -4   7  -2 401.349 17.2996   6
   4  -7   2 355.680 17.3088   2
   4  -7   2 399.076 17.0523   3
   4  -7   2 402.074 19.5527   5
  -5   7  -2 311.647 12.7863   6
   5  -7   2 250.488 12.7291   2
   5  -7   2 295.870 14.2076   5
   8   6  -2 152.205 7.94451  11
   8   6  -2 166.319 7.54526   1
   7   6  -2 404.279 17.9593   9
   7   6  -2 416.443 18.9108  11
   7   6  -2 393.227 17.9393   1
  -7  -6   2 404.953 17.7728   6
  -6  -6   2 20.6069 3.73303   8
  -6  -6   2 21.8920 3.64201   6
  -6  -6   2 18.6771 3.38342  10
   5   6  -2 5.58744 2.05860   9
   5   6  -2 9.04827 2.11343   3
   5   6  -2 9.07226 2.70984  11
   5   6  -2 11.7336 2.42174   1
  -5  -6   2 11.2116 2.32084   6
  -5  -6   2 7.36048 2.95149   8
   4   6  -2 283.933 13.1958   9
   4   6  -2 264.590 12.9836   1
   4   6  -2 285.953 13.0222   3
  -4  -6   2 287.129 13.4764   8
  -4  -6   2 257.536 12.5837   6
   3   6  -2 1072.33 43.7833   3
   3   6  -2 950.266 43.5658   1
   3   6  -2 1009.90 43.7496   9
  -3  -6   2 1078.95 43.9710   8
  -3  -6   2 963.444 43.1475   6
   2   6  -2 634.725 29.1865   9
   2   6  -2 699.305 29.5096   8
   2   6  -2 648.206 29.2428   3
  -2  -6   2 721.581 29.4223   8
  -2  -6   2 651.383 28.6047   6
  -2  -6   2 643.756 29.3446   3
  -2  -6   2 666.959 30.9468   4
   1   6  -2 720.674 32.1693   3
   1   6  -2 728.852 32.0537   6
   1   6  -2 750.118 32.2038   8
  -1  -6   2 797.528 32.1702   8
  -1  -6   2 696.287 33.4033   4
  -1  -6   2 715.146 31.3805   6
   0   6  -2 47.1997 4.08259   8
   0   6  -2 40.6589 5.03811   4
   0   6  -2 41.4441 3.36049   6
   0  -6   2 45.3443 4.55768   8
   0  -6   2 52.4153 5.44781  10
   0  -6   2 37.5623 3.68686   3
  -1   6  -2 56.8186 4.56237   8
   1  -6   2 54.3501 5.16695   8
   1  -6   2 51.3535 3.90937   3
  -2   6  -2 1407.87 58.0718   8
  -2   6  -2 1361.20 57.3727   6
   2  -6   2 1267.84 57.3989   2
   2  -6   2 1362.13 57.3205   3
  -3   6  -2 17.1888 2.66664   6
  -3   6  -2 12.0297 2.76037   8
   3  -6   2 12.0337 3.01280  11
   3  -6   2 11.4540 2.03824   3
   3  -6   2 14.9203 2.93338   2
  -4   6  -2 79.2525 5.98107   8
  -4   6  -2 82.7289 4.89477   6
   4  -6   2 88.1753 6.27033  11
   4  -6   2 77.0527 6.87878   5
   4  -6   2 73.9062 4.82959   2
   4  -6   2 75.4519 4.76127   3
  -5   6  -2 235.424 10.5380   6
   5  -6   2 225.370 10.4766   2
   5  -6   2 210.753 12.4052   5
  -6   6  -2 4.17511 1.49455   6
   6  -6   2 1.52045 1.55299   2
   6  -6   2 6.74849 2.86581   5
   8   5  -2 5.99443 2.81975  11
  -8  -5   2 5.24104 3.02856   6
   7   5  -2 236.051 11.1092   1
   7   5  -2 248.126 12.0737  11
   7   5  -2 225.831 11.0696   9
  -7  -5   2 228.973 11.0690   6
   6   5  -2 7.07633 2.51678  11
   6   5  -2 8.03634 2.13600   1
   6   5  -2 10.5252 2.31787   9
  -6  -5   2 9.01717 2.68904   6
  -6  -5   2 0.90659 3.96549   8
   5   5  -2 317.240 14.7833   3
   5   5  -2 336.073 15.3564   9
   5   5  -2 315.553 15.1853   1
   5   5  -2 345.466 16.3791  11
  -5  -5   2 357.135 15.7022   6
  -5  -5   2 289.724 15.4973   8
   4   5  -2 938.744 38.6940   3
   4   5  -2 900.315 38.8209   1
   4   5  -2 919.048 38.9781   9
  -4  -5   2 830.956 40.8648   8
   3   5  -2 1277.65 54.9904   1
   3   5  -2 1279.21 54.8807   9
   3   5  -2 1307.25 54.7842   3
  -3  -5   2 1289.41 55.5018   4
  -3  -5   2 1265.33 55.6165   8
   2   5  -2 953.989 42.5822   9
   2   5  -2 999.848 42.8229   8
   2   5  -2 973.930 42.6069   3
  -2  -5   2 977.996 42.0698   6
  -2  -5   2 1035.74 43.1182   4
  -2  -5   2 1006.18 42.6613   8
   1   5  -2 3831.34 158.325   4
   1   5  -2 3778.79 158.369   3
   1   5  -2 3440.88 157.951   6
   1   5  -2 3805.17 158.384   8
  -1  -5   2 3621.76 157.676   6
  -1  -5   2 3742.63 158.591   4
  -1  -5   2 3795.28 158.105   3
  -1  -5   2 4111.67 158.340   8
   0   5  -2 6980.62 274.830   4
   0   5  -2 5929.46 274.170   6
   0   5  -2 6960.60 274.796   8
   0  -5   2 7136.61 274.642   8
   0  -5   2 5774.03 273.920   6
  -1   5  -2 1310.51 56.3807   6
  -1   5  -2 1350.99 56.8824   4
  -1   5  -2 1392.25 56.9912   8
   1  -5   2 1232.31 56.7137  10
   1  -5   2 1373.00 56.8060   8
   1  -5   2 1323.60 56.3910   3
  -2   5  -2 1065.23 47.1118   6
  -2   5  -2 1182.91 47.8648   8
   2  -5   2 1042.83 47.2394   2
   2  -5   2 1081.69 47.0449   3
   2  -5   2 1160.00 47.5158  11
  -3   5  -2 202.233 9.93550   6
  -3   5  -2 213.950 10.8537   8
   3  -5   2 220.753 10.6190  11
   3  -5   2 203.556 9.71852   3
   3  -5   2 195.141 9.91402   2
  -4   5  -2 331.339 15.1669   6
  -4   5  -2 348.723 16.0517   8
   4  -5   2 323.161 17.5799   5
   4  -5   2 336.540 15.7429  11
   4  -5   2 332.904 15.2201   2
   4  -5   2 320.030 14.7831   3
  -5   5  -2 518.045 22.6953   6
   5  -5   2 488.010 24.3458   2
   5  -5   2 538.811 25.0783  11
  -6   5  -2 129.117 7.51057   6
   6  -5   2 174.830 8.12829  11
   6  -5   2 157.335 7.44369   2
   6  -5   2 146.002 9.47187   5
   8   4  -2 526.329 23.1530   1
   8   4  -2 538.700 23.5226  11
   7   4  -2 5.53287 2.34266  11
   7   4  -2 3.88113 2.26659   9
   7   4  -2 5.86725 2.07956   1
  -7  -4   2 4.72935 2.90504   6
   6   4  -2 15.6265 2.94901  11
   6   4  -2 13.5119 2.41554   1
   6   4  -2 15.3687 2.60716   9
  -6  -4   2 17.3986 3.16021   6
   5   4  -2 78.6151 5.89729  11
   5   4  -2 73.0830 4.64216   3
   5   4  -2 72.1918 5.11210   9
   5   4  -2 70.9298 4.89310   1
  -5  -4   2 59.2254 5.76845   6
  -5  -4   2 65.4383 6.98961   8
   4   4  -2 1743.10 71.8054   3
   4   4  -2 1778.98 72.9413  11
   4   4  -2 1713.10 72.0891   1
   4   4  -2 1782.52 72.2114   9
  -4  -4   2 1483.46 71.5953   6
  -4  -4   2 1682.15 72.1907   8
   3   4  -2 3401.02 144.124   9
   3   4  -2 3422.76 144.083   1
   3   4  -2 3379.21 143.944   3
  -3  -4   2 3320.40 144.169   8
  -3  -4   2 3613.62 144.331   4
   2   4  -2 36.1302 5.22525   7
  -2  -4   2 35.9503 4.70280   4
  -2  -4   2 30.6252 4.12821   7
  -2  -4   2 32.2859 3.63159   4
   1   4  -2 724.526 30.8786   7
   1   4  -2 711.206 30.3414   4
   1   4  -2 684.817 30.8967   4
  -1  -4   2 674.122 30.7710   7
  -1  -4   2 730.079 30.5817   4
   0   4  -2 2.59207 2.95582   4
   0   4  -2 0.21626 1.38765   4
   0   4  -2 3.63151 2.06995   7
   0  -4   2 -0.2036 2.09452   4
   0  -4   2 4.02603 1.50641   4
  -1   4  -2 62.7552 5.75799   4
  -1   4  -2 55.3198 5.53553   7
   1  -4   2 66.0369 5.49805   3
  -2   4  -2 1118.53 47.9160   4
  -2   4  -2 1071.98 47.8957   6
  -2   4  -2 1169.65 48.4061   8
   2  -4   2 1067.54 47.8018   2
   2  -4   2 1230.73 48.2696  11
   2  -4   2 1079.74 47.5812   3
  -3   4  -2 69.4524 6.25158   8
  -3   4  -2 73.3802 5.56070   6
   3  -4   2 82.0728 5.86334  11
   3  -4   2 69.6259 4.42344   2
   3  -4   2 58.9629 4.40899   3
  -4   4  -2 337.146 15.7186   6
  -4   4  -2 335.077 16.5606   8
   4  -4   2 340.148 15.0748   3
   4  -4   2 349.739 17.8622   5
   4  -4   2 338.635 16.2076  11
   4  -4   2 335.554 15.5366   2
  -5   4  -2 613.832 27.1664   6
   5  -4   2 618.251 27.1367   2
   5  -4   2 614.140 27.6023  11
   5  -4   2 623.030 29.7822   5
  -6   4  -2 897.109 42.4744   6
   6  -4   2 1111.70 42.8021   2
   6  -4   2 851.371 44.6681   5
   6  -4   2 1113.38 43.0301  11
   7  -4   2 464.414 20.1611   2
   8   3  -2 2.92734 1.89533   1
   8   3  -2 1.64842 1.70918  11
   7   3  -2 504.075 22.4695  11
   7   3  -2 482.293 21.7445   1
  -7  -3   2 478.875 21.9968   6
   6   3  -2 595.849 26.6690   9
   6   3  -2 606.322 26.6865   1
   6   3  -2 604.222 27.3931  11
   5   3  -2 473.724 21.7129   3
   5   3  -2 499.960 22.2168   9
   5   3  -2 510.009 22.2037   1
   4   3  -2 2050.01 85.3179   9
   4   3  -2 2008.92 84.6320   3
  -4  -3   2 2083.50 85.0044   4
  -4  -3   2 1890.95 85.1708   8
   3   3  -2 6191.84 256.654   7
   3   3  -2 5697.40 256.314   9
  -3  -3   2 6271.89 256.001   4
  -3  -3   2 6199.98 256.335   7
  -3  -3   2 6202.88 255.977   4
   2   3  -2 171.781 8.57069   7
   2   3  -2 158.276 8.79716   4
   2   3  -2 164.346 8.01809   4
  -2  -3   2 176.160 8.20010   4
  -2  -3   2 178.386 8.37959   7
  -2  -3   2 174.663 8.17381   4
   1   3  -2 125.001 5.99500   4
   1   3  -2 124.815 6.40479   7
   1   3  -2 120.921 6.51539   4
  -1  -3   2 125.796 6.15617   7
  -1  -3   2 127.412 6.12648   4
  -1  -3   2 125.208 6.17861   4
   0   3  -2 2545.45 108.096   4
   0   3  -2 2568.70 107.909   4
   0   3  -2 2525.23 108.051   7
   0  -3   2 2605.48 107.936   4
   0  -3   2 2610.98 108.056   4
  -1   3  -2 1136.87 47.1411   4
  -1   3  -2 1097.78 47.2463   7
   1  -3   2 1107.46 47.2001   4
  -2   3  -2 1480.96 61.2728   4
  -2   3  -2 1409.70 61.4738   7
  -2   3  -2 1462.65 61.6330   4
  -3   3  -2 1674.56 71.1455   4
   3  -3   2 1747.57 71.8359  11
   3  -3   2 1703.10 71.4213   2
   3  -3   2 1611.61 70.8820   3
   4  -3   2 1686.61 73.2749   2
   4  -3   2 1714.31 73.7710  11
   4  -3   2 1618.79 72.6084   3
   4  -3   2 1888.91 75.6448   5
   5  -3   2 40.0501 3.43694   2
   5  -3   2 35.2988 5.60383   5
   5  -3   2 47.9379 5.17587  11
   6  -3   2 1989.15 77.3838   2
   6  -3   2 1702.01 79.7258   5
   6  -3   2 1766.08 78.4868  11
   7  -3   2 2.54287 1.26460   2
   7  -3   2 5.92022 2.44447  11
   8   2  -2 70.3492 4.60738   1
   8   2  -2 73.1727 4.65326  11
   7   2  -2 14.4878 2.63962   2
   7   2  -2 20.7146 4.28487  11
   7   2  -2 20.0206 3.16147   1
   6   2  -2 906.773 40.1814   1
   6   2  -2 955.750 40.8641  11
   6   2  -2 932.976 40.3404   2
   6   2  -2 916.880 40.1516   9
   5   2  -2 33.6181 3.61681   1
   5   2  -2 29.1850 4.07884  11
   5   2  -2 34.2070 4.24051   3
   5   2  -2 29.1959 4.17746   2
   4   2  -2 734.738 31.4961   1
   4   2  -2 701.536 31.5383   9
   4   2  -2 728.377 31.0703   3
   4   2  -2 700.422 31.9108  11
  -4  -2   2 754.930 31.2912   4
  -3  -2   2 113.357 6.56950   7
  -3  -2   2 121.209 5.96131   4
  -3  -2   2 121.100 6.16046   4
   2   2  -2 152.222 7.49238   4
   2   2  -2 154.583 7.03296   4
   2   2  -2 154.521 7.51099   7
  -2  -2   2 156.982 7.17248   4
  -2  -2   2 150.673 7.11409   4
  -2  -2   2 152.992 7.35764   7
   1   2  -2 1948.92 80.1446   4
   1   2  -2 1888.65 80.1261   7
   1   2  -2 1872.48 79.9472   4
  -1  -2   2 1878.85 80.0573   7
  -1  -2   2 1895.67 80.0673   4
  -1  -2   2 1948.07 79.9985   4
   0   2  -2 1729.73 71.5110   4
   0   2  -2 1676.37 71.6211   4
   0   2  -2 1636.47 71.5524   7
   0  -2   2 1733.46 71.5090   7
   0  -2   2 1708.30 71.5958   4
   0  -2   2 1734.21 71.5187   4
  -1   2  -2 597.812 25.6188   4
  -1   2  -2 602.740 25.5136   7
  -1   2  -2 607.906 25.4655   4
   1  -2   2 600.134 25.4586   4
   1  -2   2 586.317 25.5317   4
  -2   2  -2 2875.47 115.083   4
  -2   2  -2 2415.40 115.169   7
  -2   2  -2 2650.56 115.632   4
   2  -2   2 2836.08 115.095   4
   2  -2   2 2953.11 115.135   4
  -3   2  -2 1478.62 60.3768   4
   3  -2   2 1386.80 60.7433   2
  -4   2  -2 2145.64 90.9781   4
   4  -2   2 2106.50 91.4109   2
   4  -2   2 2173.96 91.7852  11
   4  -2   2 2228.32 93.2128   5
   5  -2   2 288.993 13.7499   2
   5  -2   2 284.223 14.3571  11
   5  -2   2 309.386 15.9275   5
   6  -2   2 3.83263 3.95069   5
   7  -2   2 20.2717 4.24773  11
   8  -2   2 1.98633 1.93593  11
   8  -2   2 0.25379 1.22189   2
   8   1  -2 754.614 32.9126   2
   8   1  -2 776.558 33.1174  11
   7   1  -2 676.371 30.7218   1
   7   1  -2 713.137 31.0296   2
   7   1  -2 724.301 31.7274  11
   6   1  -2 665.362 29.2830  11
   6   1  -2 644.096 28.6569   1
   6   1  -2 647.580 28.9716   2
   5   1  -2 261.359 12.0705   3
   5   1  -2 258.806 12.8504  11
   5   1  -2 260.919 12.4099   1
   5   1  -2 257.427 12.7653   9
   4   1  -2 17.2428 3.76957   9
   4   1  -2 19.3884 3.55221   1
   4   1  -2 21.2242 2.84891   3
   4   1  -2 24.1272 3.81582  11
  -4  -1   2 18.6027 2.98435   4
  -3  -1   2 3645.24 154.320   4
  -3  -1   2 3672.22 154.833   7
  -3  -1   2 3735.98 154.357   4
   2   1  -2 2047.90 83.0543   4
   2   1  -2 2008.32 83.2216   4
  -2  -1   2 1993.52 83.3381   7
  -2  -1   2 1917.20 83.1042   4
  -2  -1   2 1935.23 83.0724   4
   1   1  -2 867.657 36.9303   4
   1   1  -2 883.294 37.0534   4
   1   1  -2 889.234 37.0498   7
  -1  -1   2 893.762 37.0210   7
  -1  -1   2 868.748 36.9823   4
  -1  -1   2 854.568 36.9183   4
   0   1  -2 901.870 36.4600   4
   0   1  -2 841.498 36.4554   7
   0  -1   2 857.555 36.6409   4
   0  -1   2 873.776 36.4613   4
   0  -1   2 855.942 36.4369   7
  -2   1  -2 7.36905 0.98570   4
  -3   1  -2 717.278 31.7719   4
  -3   1  -2 781.699 31.6639   4
  -4   1  -2 1443.64 65.2074   7
   4  -1   2 1636.16 66.2939   5
   4  -1   2 1524.63 64.5693   2
   4  -1   2 1477.97 64.8287  11
   5  -1   2 940.403 41.1083   2
   5  -1   2 983.775 42.9904   5
   5  -1   2 935.406 41.4073  11
   6  -1   2 1020.02 44.7876  11
   6  -1   2 1036.55 44.3730   2
   7  -1   2 79.0163 4.78806   2
   7  -1   2 80.1524 6.17600  11
   8  -1   2 25.0699 2.54217   2
   8  -1   2 34.2377 4.26430  11
   7   0  -2 84.9081 5.58139   2
   7   0  -2 89.7627 5.78928  11
   7   0  -2 76.5399 5.76603   1
   6   0  -2 168.947 8.91590   2
   6   0  -2 161.168 8.57568   1
   6   0  -2 162.892 9.10136  11
   5   0  -2 57.9053 4.93208  11
   5   0  -2 57.6705 4.88137   3
   5   0  -2 55.6994 4.64438   1
   5   0  -2 59.1196 4.62928   2
   4   0  -2 239.559 11.5542   1
   4   0  -2 225.307 11.2282   3
   4   0  -2 241.133 11.8154  11
  -4   0   2 248.259 11.0368   4
  -3   0   2 724.647 31.1338   7
  -3   0   2 688.441 30.5618   4
  -3   0   2 740.796 30.5597   4
   2   0  -2 843.521 34.3239   4
   2   0  -2 800.562 34.5203   4
  -2   0   2 822.312 34.5905   7
  -2   0   2 800.510 34.2940   4
  -2   0   2 793.991 34.3106   4
   1   0  -2 597.210 25.9597   4
   1   0  -2 661.752 25.9143   4
  -1   0   2 632.229 26.0011   7
  -1   0   2 583.929 25.9050   4
  -1   0   2 591.026 25.8846   4
   0   0  -2 1346.58 55.2114   4
   0   0  -2 1260.76 55.1569   7
   0   0  -2 1347.42 55.2763   4
   0   0   2 1262.43 55.1549   7
   0   0   2 1342.41 55.2438   4
   0   0   2 1348.67 55.2282   4
  -1   0  -2 355.929 15.2542   4
  -1   0  -2 364.072 15.1968   4
   1   0   2 355.904 15.1802   4
   1   0   2 361.668 15.1777   4
  -4   0  -2 515.833 23.1833   7
   4   0   2 504.281 24.1505   5
   4   0   2 529.037 23.2847  11
   4   0   2 517.686 22.7140   2
   5   0   2 164.828 10.4016   5
   5   0   2 162.627 8.81189   2
   6   0   2 37.4720 3.27913   2
   6   0   2 30.8094 4.27278  11
   7   0   2 241.889 12.3272  11
   7   0   2 246.067 11.5466   2
   8   0   2 466.737 19.4235   2
   8   0   2 420.407 19.8282  11
   8  -1  -2 62.5272 5.12577   2
   8  -1  -2 78.2365 4.65562  11
   7  -1  -2 1.31644 1.68808   2
   7  -1  -2 0.87628 1.90236  11
  -7   1   2 5.65803 3.43059   6
   6  -1  -2 35.6745 4.24887  11
   6  -1  -2 39.1859 4.39635   1
   6  -1  -2 34.3291 3.67016   2
   5  -1  -2 94.6770 6.49085  11
   5  -1  -2 117.295 6.47767   2
   5  -1  -2 97.7510 6.39715   1
   4  -1  -2 877.921 36.8694   3
   4  -1  -2 865.950 37.5610  11
   4  -1  -2 868.151 37.2666   1
  -4   1   2 842.666 36.9446   4
  -3   1   2 3096.36 134.841   4
  -3   1   2 3248.03 134.817   4
  -3   1   2 3306.64 135.525   7
   0  -1  -2 318.698 13.8584   4
   0  -1  -2 339.759 13.8474   4
   0   1   2 326.756 13.8369   4
   0   1   2 317.849 13.8224   4
  -1  -1  -2 1389.99 58.0647   4
   1   1   2 1368.99 58.0156   4
   1   1   2 1403.65 58.0240   4
  -2  -1  -2 177.145 7.72628   7
  -3  -1  -2 1245.02 52.5812   7
  -4  -1  -2 82.2030 6.11482   7
   4   1   2 74.8532 5.04643   2
   4   1   2 80.8732 7.60016  11
   5   1   2 3678.08 154.304   9
   5   1   2 3559.79 154.494  11
   5   1   2 3727.97 155.783   5
   5   1   2 3692.13 154.056   2
   6   1   2 478.410 22.5409   1
   6   1   2 517.386 23.1728  11
   6   1   2 521.403 22.5283   2
   7   1   2 48.5820 4.88044  11
   7   1   2 53.2080 4.14954   2
   8   1   2 282.669 12.4895   2
   8   1   2 269.328 13.1405  11
   8  -2  -2 77.8558 4.65358  11
   8  -2  -2 87.7304 4.47695   2
   7  -2  -2 110.773 6.17743   2
   7  -2  -2 104.421 6.56512  11
   6  -2  -2 500.020 22.9604  11
   6  -2  -2 512.055 23.0504   2
  -6   2   2 509.875 22.9846   6
   5  -2  -2 259.215 13.5981   1
   5  -2  -2 276.956 12.9097   3
   5  -2  -2 293.254 13.8331  11
   5  -2  -2 311.631 13.8693   2
   4  -2  -2 462.133 21.3027   1
   4  -2  -2 480.953 21.3195   2
   4  -2  -2 497.956 20.6923   3
  -4   2   2 453.110 21.0063   4
  -3   2   2 90.6267 4.62480   4
  -3   2   2 80.0954 5.31315   4
   2  -2  -2 42.5662 3.19746   4
   2  -2  -2 46.1656 3.01510   4
  -2   2   2 47.2695 2.58852   4
  -2   2   2 45.1583 2.82870   4
   1  -2  -2 35.2573 2.08754   4
   1  -2  -2 29.7766 2.02913   4
  -1   2   2 31.5153 1.91322   4
  -1   2   2 31.5085 1.85342   4
   0  -2  -2 168.621 7.38648   4
   0  -2  -2 160.894 7.33903   4
   0   2   2 173.463 7.37049   4
  -2  -2  -2 182.820 7.98461   7
  -3  -2  -2 293.630 12.9619   7
   4   2   2 8.12199 3.00814   1
   5   2   2 3533.95 159.618   5
   5   2   2 4065.57 158.976   2
   5   2   2 3718.18 158.226   1
   5   2   2 3727.25 158.625  11
   6   2   2 544.598 25.9670   9
   6   2   2 592.638 25.4966   2
   6   2   2 576.122 25.7114   1
   6   2   2 603.288 26.3539  11
   7   2   2 105.565 6.32438   2
   7   2   2 117.932 7.11597  11
   7   2   2 108.048 7.61577   1
   8   2   2 559.505 24.7996  11
   7  -3  -2 787.867 32.7181   2
   7  -3  -2 718.982 32.7719  11
   6  -3  -2 668.677 30.8721  11
   6  -3  -2 723.304 30.8384   2
   5  -3  -2 106.868 6.60826  11
   5  -3  -2 106.257 6.29057   2
   5  -3  -2 102.319 5.75056   3
  -5   3   2 94.5709 7.04323   6
  -5   3   2 97.5122 8.21279   8
   4  -3  -2 2420.62 94.1051  11
   4  -3  -2 2347.45 94.1347   2
   4  -3  -2 1907.37 93.7131   1
   4  -3  -2 2269.51 93.3157   3
  -4   3   2 2171.35 93.5931   6
  -4   3   2 2187.56 94.2390   8
   3  -3  -2 4.96712 1.99672   3
   3  -3  -2 1.73144 2.37644  11
  -3   3   2 4.75855 1.67521   4
   2  -3  -2 178.318 9.02618   4
   2  -3  -2 172.498 8.30843   4
  -2   3   2 173.111 7.87506   4
  -2   3   2 162.180 8.07961   4
   1  -3  -2 175.738 8.07702   4
  -1   3   2 177.760 8.02442   4
  -1   3   2 172.992 7.84850   4
  -1  -3  -2 1097.44 45.9995   4
  -1  -3  -2 1130.42 45.9056   4
   1   3   2 1060.46 46.0815   7
   1   3   2 1100.22 45.9493   4
   1   3   2 1070.04 45.8934   4
  -2  -3  -2 6538.16 273.161   4
  -3  -3  -2 2533.00 106.345   7
  -4  -3  -2 1026.33 41.8957   7
   4   3   2 975.979 42.0559   9
   4   3   2 909.689 42.2867  11
   4   3   2 974.669 41.9598   1
   5   3   2 1620.96 66.5936   9
   5   3   2 1417.72 66.0527   2
   5   3   2 1619.04 66.5238   1
   5   3   2 1574.52 66.9140  11
   6   3   2 1609.96 69.3125   1
   6   3   2 1661.40 69.4354   9
   6   3   2 1599.05 69.7786  11
   7   3   2 310.497 14.5669   1
   7   3   2 310.858 15.2126  11
   8   3   2 291.772 14.2573  11
   8   3   2 319.366 13.9846   1
   7  -4  -2 245.958 10.9707   2
   7  -4  -2 231.173 11.1566  11
   6  -4  -2 610.381 28.3733  11
   6  -4  -2 667.608 28.2109   2
  -6   4   2 636.214 27.8105   6
   5  -4  -2 35.1539 3.80462   3
   5  -4  -2 43.4610 4.97092  11
   5  -4  -2 36.3907 3.62580   2
  -5   4   2 45.6187 6.06159   8
   4  -4  -2 136.660 7.28902   2
   4  -4  -2 142.175 7.85476  11
   4  -4  -2 140.156 6.91639   3
  -4   4   2 108.699 8.67628   6
  -4   4   2 127.914 8.37231   8
   3  -4  -2 5.74963 1.91500   2
   3  -4  -2 5.91631 1.75444   3
   3  -4  -2 1.73974 2.44388  11
  -3   4   2 4.51321 2.85241   8
  -3   4   2 1.21188 2.64584   4
  -2   4   2 846.348 36.2274   4
  -2   4   2 829.490 36.1711   4
   1  -4  -2 178.016 8.62263   4
   1  -4  -2 165.114 8.63083   4
  -1   4   2 185.448 8.30022   4
  -1   4   2 188.850 8.61533   4
   0  -4  -2 36.3475 2.63102   4
   0  -4  -2 34.6664 2.61605   4
   0   4   2 30.6577 2.93114   7
   0   4   2 32.3814 2.26734   4
  -1  -4  -2 5345.60 221.797   4
  -1  -4  -2 5469.45 221.979   4
   1   4   2 5253.97 221.858   4
   1   4   2 5460.15 222.053   4
   1   4   2 4991.80 222.132   7
  -2  -4  -2 1024.18 43.2614   4
  -2  -4  -2 1027.17 43.4161   4
  -2  -4  -2 1060.22 43.3115   7
   2   4   2 951.547 43.2472   4
   2   4   2 1042.24 43.7295   7
   2   4   2 1041.20 43.2623   4
  -3  -4  -2 2319.39 98.2953   4
   3   4   2 2361.34 98.7828   7
  -4  -4  -2 1604.97 66.1351   7
   4   4   2 1522.50 66.1277   1
   4   4   2 1524.25 66.5443  11
   4   4   2 1550.51 66.1222   9
   5   4   2 352.845 17.2361   9
   5   4   2 354.508 16.5757   1
   6   4   2 221.713 11.2930   9
   6   4   2 221.008 11.6817  11
   6   4   2 216.959 11.1351   1
   7   4   2 2.16308 2.52260  11
   7   4   2 2.42107 2.30269   1
   8   4   2 41.2394 4.30014  11
   8   4   2 47.1166 3.92868   1
   7  -5  -2 62.5741 3.25126   2
   7  -5  -2 58.3666 3.62068  11
  -7   5   2 49.3006 3.41184   6
   6  -5  -2 348.491 15.2471   2
   6  -5  -2 324.205 15.4823  11
  -6   5   2 331.883 15.0039   6
   5  -5  -2 22.1372 2.99042   2
   5  -5  -2 30.3812 4.60151  11
  -5   5   2 27.4732 4.96127   8
  -5   5   2 24.2268 3.37244   6
   4  -5  -2 65.0823 5.84204  11
   4  -5  -2 75.9426 4.98943   2
   4  -5  -2 77.7278 4.79886   3
  -4   5   2 76.6722 5.06240   6
  -4   5   2 67.5558 6.08726   8
   3  -5  -2 2438.13 106.270   2
   3  -5  -2 2547.69 107.384  11
  -3   5   2 2512.01 105.981   6
  -3   5   2 2568.38 106.715   8
   2  -5  -2 1361.43 62.6731   2
   2  -5  -2 1626.88 63.0595  11
   2  -5  -2 1435.87 62.6426   8
   2  -5  -2 1476.14 62.3919   3
  -2   5   2 1497.37 62.7714   4
  -2   5   2 1430.01 62.4027   6
  -2   5   2 1493.27 63.0594   8
   1  -5  -2 159.835 8.35910   4
  -1   5   2 176.798 10.0873   8
  -1   5   2 146.509 8.73239   4
  -1   5   2 127.026 8.04788   7
  -1   5   2 148.873 7.49948   4
   0  -5  -2 1188.66 49.5676   4
   0  -5  -2 1171.41 49.4483   4
   0   5   2 1164.61 49.5719   7
   0   5   2 1125.38 49.4950   4
   0   5   2 1151.39 49.2629   4
  -1  -5  -2 7186.08 288.390   4
  -1  -5  -2 6869.30 288.497   4
   1   5   2 6945.86 289.063   4
   1   5   2 6715.06 288.269   4
   1   5   2 6742.81 288.844   7
  -2  -5  -2 1500.59 60.0317   4
  -2  -5  -2 1492.65 60.2224   4
   2   5   2 1260.61 60.6880   7
  -3  -5  -2 613.100 26.0601   7
  -3  -5  -2 604.913 25.7516   4
  -3  -5  -2 578.871 25.5537   4
   3   5   2 561.607 26.8579   7
   3   5   2 606.144 26.1444   9
   3   5   2 571.445 26.0855   1
  -4  -5  -2 981.613 39.5223   4
  -4  -5  -2 911.243 40.6215   7
   4   5   2 946.040 40.5628  11
   4   5   2 947.621 40.0349   1
   4   5   2 900.821 39.8260   9
   4   5   2 856.656 41.5003   5
   4   5   2 880.234 39.3096   3
   5   5   2 41.6995 4.24496   1
   5   5   2 36.5353 4.20739   9
   5   5   2 36.3898 5.03238  11
   6   5   2 490.385 21.8555   9
   6   5   2 454.193 22.2431  11
   6   5   2 485.278 21.8057   1
   7   5   2 401.204 17.9280   9
   7   5   2 369.660 18.3237  11
   8   5   2 2.02699 1.99930   1
   8   5   2 1.25253 2.14121  11
   8   5   2 -1.6934 2.89983   9
   6  -6  -2 0.79566 1.13144   2
   6  -6  -2 4.49767 1.88633  11
  -6   6   2 3.74499 1.34169   6
  -6   6   2 -2.4340 2.84053   8
   5  -6  -2 77.8413 4.93043   3
   5  -6  -2 83.6927 4.95534   2
   5  -6  -2 91.7109 6.05228  11
  -5   6   2 72.3212 5.93876   8
  -5   6   2 82.2871 4.88517   6
   4  -6  -2 10.7375 1.96662   3
   4  -6  -2 10.8732 2.85116  11
   4  -6  -2 13.6236 2.80263   2
  -4   6   2 12.7164 2.73811   8
  -4   6   2 14.4979 2.69630   6
   3  -6  -2 74.8088 4.87409   3
   3  -6  -2 82.1405 5.23196   2
   3  -6  -2 81.4833 5.92040  11
  -3   6   2 74.2960 5.67410   8
  -3   6   2 74.0760 4.76190   6
   2  -6  -2 1479.15 64.8877   3
   2  -6  -2 1761.86 67.0315   8
   2  -6  -2 1467.11 65.1631  11
  -2   6   2 1581.55 65.6635   8
  -2   6   2 1414.43 65.7539   4
  -2   6   2 1494.88 64.8402   6
   1  -6  -2 88.3606 5.21334   3
   1  -6  -2 64.4463 5.26910  11
   1  -6  -2 82.8646 5.28055   8
   1  -6  -2 69.9210 5.18603   6
  -1   6   2 79.8286 5.50856   8
  -1   6   2 86.7024 5.99117   4
  -1   6   2 75.7995 4.47123   6
  -1   6   2 73.3164 7.24402   3
   0  -6  -2 201.225 10.5273   3
   0  -6  -2 212.254 10.1111   8
   0  -6  -2 213.794 10.9764   4
   0  -6  -2 204.587 9.57868   6
   0   6   2 203.201 10.8131   3
   0   6   2 202.296 9.73984   6
   0   6   2 217.211 10.5968   8
   0   6   2 201.232 10.2942   4
  -1  -6  -2 95.9301 5.17073   6
  -1  -6  -2 96.6930 5.85957   8
  -1  -6  -2 73.7765 7.83053   4
  -1  -6  -2 86.6192 6.22872   4
   1   6   2 95.0452 6.20686   3
   1   6   2 96.0413 7.95485   5
   1   6   2 74.9242 6.79088   8
   1   6   2 93.9954 9.34585   7
  -2  -6  -2 25.2360 3.97193   6
  -2  -6  -2 34.5924 4.68972   8
  -2  -6  -2 38.2836 4.54477   4
   2   6   2 27.0651 4.35936   3
   2   6   2 36.7630 4.68246   1
   2   6   2 29.4768 6.27966   7
  -3  -6  -2 629.404 26.6752   4
  -3  -6  -2 613.839 27.1664   7
  -3  -6  -2 508.192 25.9321   6
   3   6   2 591.296 26.3108   9
   3   6   2 606.052 26.4138   1
   3   6   2 607.253 28.3520   5
   3   6   2 605.902 26.1455   3
   4   6   2 563.090 30.9629   5
   4   6   2 491.610 23.1876   3
   5   6   2 471.324 20.8095   1
   5   6   2 422.661 21.3493  11
   5   6   2 459.595 20.7650   9
   6   6   2 8.90677 2.38571   1
   6   6   2 8.16096 2.22728   9
   6   6   2 4.43228 2.49741  11
   7   6   2 1214.79 54.7210  11
   7   6   2 1256.01 54.2829   9
   7   6   2 1320.69 54.4186   1
   8   6   2 413.225 18.3158   9
   8   6   2 405.214 17.9620   1
   8   6   2 386.972 18.1131  11
  -6   7   2 44.0387 2.77245   6
   5  -7  -2 620.985 28.0091   3
   5  -7  -2 652.544 28.3272   2
   5  -7  -2 638.332 28.6372  11
  -5   7   2 657.472 28.9677   8
  -5   7   2 727.267 28.4143   6
   4  -7  -2 558.722 24.3360   3
   4  -7  -2 525.535 24.7078  11
   4  -7  -2 565.269 25.3032   2
  -4   7   2 559.878 25.2601   8
  -4   7   2 583.041 24.3923   6
   3  -7  -2 1719.34 78.2002   2
   3  -7  -2 1912.16 78.5475  11
   3  -7  -2 1907.69 78.2284   3
  -3   7   2 1851.66 79.0261   8
  -3   7   2 1851.20 78.1350   6
   2  -7  -2 3643.30 149.945   8
   2  -7  -2 3512.43 149.766  11
   2  -7  -2 3661.32 149.618   3
  -2   7   2 3548.94 150.693   3
  -2   7   2 3583.65 150.310   8
  -2   7   2 3406.88 149.397   6
   1  -7  -2 1589.79 66.9590   8
   1  -7  -2 1501.71 65.7174   6
   1  -7  -2 1490.81 67.1169   3
  -1   7   2 1638.37 66.8035   8
  -1   7   2 1609.91 65.9530   6
  -1   7   2 1522.32 67.4322   4
   0  -7  -2 213.942 11.0190   3
   0  -7  -2 176.153 12.7793   4
   0  -7  -2 175.406 9.22828   8
   0   7   2 191.897 9.68060   8
   0   7   2 184.638 9.92648   3
   0   7   2 178.296 8.80276   6
  -1  -7  -2 775.011 33.3410   8
  -1  -7  -2 734.219 33.5805   3
  -1  -7  -2 775.057 32.8749   6
  -1  -7  -2 775.301 34.5745   4
   1   7   2 779.920 33.7357   8
   1   7   2 771.700 33.6356   3
  -2  -7  -2 301.107 12.9066   6
  -2  -7  -2 288.361 15.5140   4
   2   7   2 279.900 13.9163   1
   2   7   2 285.323 13.5426   3
   2   7   2 274.598 13.9571   9
  -3  -7  -2 -1.1352 1.81789   6
  -3  -7  -2 1.60734 2.92947   8
   3   7   2 0.35523 2.41740   1
   3   7   2 8.67345 4.28677   3
   3   7   2 1.86223 2.95591   5
  -4  -7  -2 620.067 28.9804   6
  -4  -7  -2 660.770 29.9991   8
   4   7   2 694.740 29.6839   9
   4   7   2 692.715 29.3763   3
   4   7   2 693.313 31.7609   5
   4   7   2 652.244 29.5933   1
  -5  -7  -2 1533.60 69.9735   6
   5   7   2 1708.65 70.6236   1
   5   7   2 1723.82 70.6518   9
   5   7   2 1633.16 71.5312  11
   6   7   2 449.419 21.4258  11
   6   7   2 453.285 20.5795   1
   6   7   2 443.525 20.4740   9
   7   7   2 222.285 11.0274   9
   7   7   2 234.963 11.1158   1
   7   7   2 220.533 11.6283  11
   8   7   2 224.317 10.7031   1
   8   7   2 228.299 10.7705   9
   8   7   2 238.862 10.9694  11
  -5   8   2 156.675 6.91742   6
  -5   8   2 136.435 7.88336   8
   4  -8  -2 115.220 6.04418   3
  -4   8   2 116.441 6.73518   8
  -4   8   2 117.175 5.92827   6
   3  -8  -2 61.5085 4.19551   3
  -3   8   2 59.2050 3.89028   6
  -3   8   2 59.4265 4.82850   8
   2  -8  -2 11.8939 2.15412   3
  -2   8   2 9.50983 2.33257   8
  -2   8   2 9.84296 1.75026   6
  -2   8   2 24.4608 5.15757   3
   1  -8  -2 31.6890 4.45965   8
   1  -8  -2 27.5374 3.57082   3
  -1   8   2 29.0149 2.72991   6
  -1   8   2 21.0851 3.41252   3
  -1   8   2 28.2012 3.61134   8
   0  -8  -2 1904.74 79.3585   6
   0  -8  -2 1847.93 79.8234   3
   0  -8  -2 1942.81 80.2430   8
   0   8   2 1908.16 79.3971   6
   0   8   2 1810.11 80.3314   3
   0   8   2 1887.43 80.2924   8
  -1  -8  -2 19.8384 2.86322   6
  -1  -8  -2 22.6513 3.85660   8
   1   8   2 27.2297 3.73437   3
   1   8   2 23.8903 3.95174   8
  -2  -8  -2 547.842 23.4323   6
  -2  -8  -2 582.259 24.4030   8
   2   8   2 547.020 24.2024   3
   2   8   2 489.131 24.4265   9
   2   8   2 530.935 24.4601   1
  -3  -8  -2 -0.6040 1.52471   6
  -3  -8  -2 -2.0908 2.52780   8
   3   8   2 1.36331 1.91772   3
   3   8   2 1.76760 2.27932   9
  -4  -8  -2 190.449 9.74125   6
   4   8   2 196.269 10.3048   9
   4   8   2 212.063 10.3750   3
   4   8   2 214.211 10.4903   1
  -5  -8  -2 844.057 36.4857   6
  -5  -8  -2 819.851 37.3785   8
   5   8   2 852.483 37.0184   1
   5   8   2 848.669 36.9990   9
   5   8   2 871.301 38.2620  11
  -6  -8  -2 11.2826 2.93039   6
   6   8   2 7.52140 2.88231  11
   6   8   2 8.86042 2.33668   9
   6   8   2 10.3988 2.28794   1
  -7  -8  -2 16.1306 3.88670   6
   7   8   2 19.0295 3.70421  11
   7   8   2 21.4488 2.82430   1
   7   8   2 18.1778 2.72348   9
   4  -9  -2 10.1472 1.54091   3
   4  -9  -2 16.8441 3.55906   5
  -4   9   2 15.4358 2.48770   8
  -4   9   2 10.9355 1.44614   6
   3  -9  -2 7.59173 1.74538   3
  -3   9   2 4.90753 1.53845   6
  -3   9   2 6.52813 1.91470   8
   2  -9  -2 20.7203 3.06533   3
  -2   9   2 23.3840 3.21115   8
  -2   9   2 17.2237 4.92968   3
  -2   9   2 13.2263 2.50558   6
   1  -9  -2 1289.44 54.1475   3
   1  -9  -2 1264.50 54.3997   8
  -1   9   2 1280.45 53.6690   6
  -1   9   2 1253.78 54.8413   3
  -1   9   2 1245.55 54.6275   8
   0  -9  -2 320.337 15.1697   8
   0  -9  -2 327.080 14.8832   3
   0  -9  -2 304.880 14.1438   6
   0   9   2 315.997 15.3680   3
   0   9   2 320.880 15.0786   8
  -1  -9  -2 631.373 28.3549   3
  -1  -9  -2 636.525 28.4490   8
  -1  -9  -2 636.376 27.5632   6
   1   9   2 648.304 28.5449   3
   1   9   2 641.295 28.3533   8
  -2  -9  -2 3437.56 141.661   6
  -2  -9  -2 3420.40 142.480   8
   2   9   2 3262.27 142.389   3
  -3  -9  -2 2105.26 86.4487   6
  -3  -9  -2 2170.74 87.3234   8
   3   9   2 2108.73 87.1262   3
   3   9   2 1918.52 86.7919   1
   3   9   2 1940.34 86.7931   9
  -4  -9  -2 292.217 12.8638   6
  -4  -9  -2 284.444 13.8503   8
   4   9   2 289.404 13.4020   3
   4   9   2 269.393 13.2801   9
   4   9   2 259.748 13.1739   1
  -5  -9  -2 884.973 39.4092   8
  -5  -9  -2 899.570 38.6474   6
   5   9   2 859.599 39.0770   1
   5   9   2 971.258 41.1531  11
  -6  -9  -2 4.58737 2.03219   6
   6   9   2 5.19810 1.73694   9
   6   9   2 7.41049 2.53789  11
   6   9   2 6.26642 1.87570   1
   7   9   2 160.763 8.01137   9
   7   9   2 170.709 7.99571   1
   7   9   2 171.142 8.42260  11
   3 -10  -2 63.4874 3.61935   3
  -3  10   2 51.3904 3.54449   6
  -3  10   2 63.1201 3.84853   8
   2 -10  -2 202.318 9.54662   3
  -2  10   2 196.652 9.14520   6
  -2  10   2 203.728 9.88602   8
   1 -10  -2 563.781 24.1449   3
   1 -10  -2 527.737 24.2656   8
  -1  10   2 559.763 24.8575   3
  -1  10   2 545.063 24.4667   8
   0 -10  -2 253.417 12.2389   8
   0 -10  -2 253.402 12.0601   3
   0  10   2 244.788 12.0347   8
   0  10   2 249.074 12.5955   3
  -1 -10  -2 2.17674 2.06304   8
  -1 -10  -2 4.16366 1.71137   6
   1  10   2 2.17529 1.92993   3
   1  10   2 6.29515 2.42166   8
  -2 -10  -2 16.1957 2.46564   6
  -2 -10  -2 10.2762 2.38485   8
   2  10   2 15.4674 2.47506   3
  -3 -10  -2 134.079 7.72331   8
  -3 -10  -2 133.102 6.66295   6
   3  10   2 129.403 7.36379   3
  -4 -10  -2 703.244 30.3949   8
  -4 -10  -2 731.515 29.7156   6
   4  10   2 633.243 29.8607   9
   4  10   2 720.731 30.1202   3
   4  10   2 657.327 29.9366   1
  -5 -10  -2 3.56821 2.60950   8
  -5 -10  -2 4.54472 1.67001   6
   5  10   2 7.52837 2.17468   1
   5  10   2 4.57767 1.67780   9
   5  10   2 2.93686 2.16952  11
  -6 -10  -2 19.6975 2.83862   6
   6  10   2 18.7469 2.47290   9
   6  10   2 16.5518 2.96674   1
   6  10   2 17.4909 3.27219  11
   2 -11  -2 656.544 27.9518   3
  -2  11   2 653.581 28.1769   8
   1 -11  -2 162.891 7.90283   3
  -1  11   2 162.882 7.99353   8
  -1  11   2 161.837 8.74146   3
   0 -11  -2 1391.85 57.3838   3
   0 -11  -2 1293.17 57.4182   8
   0  11   2 1355.04 57.4149   8
   0  11   2 1363.10 57.7620   3
  -2 -11  -2 66.7514 3.95064   6
  -2 -11  -2 64.7823 4.65261   8
   2  11   2 58.3323 4.52923   3
  -3 -11  -2 253.854 11.3320   6
  -3 -11  -2 250.713 12.0653   8
   3  11   2 251.920 11.8720   3
  -4 -11  -2 -0.0635 1.24830   6
  -4 -11  -2 1.19441 1.96289   8
   4  11   2 1.10589 1.82422  11
   4  11   2 0.04224 1.53984   3
  -5 -11  -2 189.425 7.96223   6
   5  11   2 146.654 8.02552   9
   5  11   2 178.278 8.58694  11
  -6 -11  -2 984.351 41.5269  10
   1 -12  -2 6.49390 1.35223   3
   0 -12  -2 32.7277 2.91373   3
   0  12   2 32.6964 3.30791   3
  -1 -12  -2 27.1013 2.94396   8
  -1 -12  -2 31.7711 3.80089   3
   1  12   2 34.7442 3.12126   3
  -2 -12  -2 337.109 15.1208   8
  -2 -12  -2 319.404 14.9475  10
   2  12   2 360.232 15.1293   3
  -3 -12  -2 78.4687 4.35186  10
  -3 -12  -2 75.3092 4.43818   8
  -3 -12  -2 69.0032 4.07097   6
   3  12   2 81.8067 4.32907   3
  -4 -12  -2 8.25329 1.30502   6
  -4 -12  -2 7.60896 1.99983   8
  -4 -12  -2 11.9822 2.92876  10
   4  12   2 10.3466 1.78829  11
   2  11  -3 80.6116 4.74062  11
   2  11  -3 82.6911 4.36357   3
   1  11  -3 134.357 6.42780   3
  -1 -11   3 121.348 6.22551   3
   4  10  -3 2.85484 1.65293  11
   4  10  -3 4.29561 1.29210   3
  -4 -10   3 2.63973 1.32896   8
  -4 -10   3 4.41919 1.51198  10
   3  10  -3 507.085 21.8710   3
  -3 -10   3 503.672 21.7535  10
  -3 -10   3 495.208 21.9102   8
   2  10  -3 1227.08 50.7524   3
  -2 -10   3 1207.14 50.5153  10
  -2 -10   3 1199.66 50.6212   3
  -2 -10   3 1130.75 50.5832   8
   1  10  -3 17.7037 3.01941   3
   1  10  -3 13.5264 2.13741   8
  -1 -10   3 16.2783 3.01899   8
  -1 -10   3 18.1134 3.17482   3
  -1 -10   3 17.8274 2.37955  10
   0  10  -3 143.145 7.07969   8
   0  10  -3 144.999 7.62823   3
   0 -10   3 134.139 9.92106   5
   0 -10   3 150.551 7.01155   3
  -1  10  -3 1204.44 49.8493   8
   1 -10   3 1115.02 51.0968   5
   1 -10   3 1203.98 49.6471   3
  -2  10  -3 1.56394 1.18321   8
   2 -10   3 -0.9776 1.47799   5
   2 -10   3 0.05944 1.05605   3
   6   9  -3 74.8585 4.48658  11
  -6  -9   3 73.4890 3.79851   6
   5   9  -3 561.581 24.0807  11
  -5  -9   3 543.195 23.3279  10
  -5  -9   3 486.750 23.4587   8
  -5  -9   3 574.067 23.1308   6
   4   9  -3 494.200 22.4135  11
   4   9  -3 492.664 21.5559   3
  -4  -9   3 471.600 21.4227  10
  -4  -9   3 529.558 21.2040   6
  -4  -9   3 468.724 21.6590   8
   3   9  -3 210.848 10.1733   3
  -3  -9   3 212.316 10.2284   8
  -3  -9   3 211.744 9.54686   6
  -3  -9   3 201.300 9.96059  10
   2   9  -3 554.891 25.0826   8
   2   9  -3 589.784 25.3302   3
  -2  -9   3 560.703 25.1366   3
  -2  -9   3 592.752 25.0285  10
  -2  -9   3 559.076 25.2145   8
   1   9  -3 98.8851 5.87466   8
   1   9  -3 100.161 6.18094   3
  -1  -9   3 97.3759 5.90516  10
  -1  -9   3 96.5805 5.75303   3
  -1  -9   3 96.6966 5.88950   8
   0   9  -3 645.200 27.5178   8
   0   9  -3 627.145 27.6382   3
   0  -9   3 655.606 27.2512   3
   0  -9   3 570.554 27.1064   8
  -1   9  -3 105.018 5.90169   8
  -1   9  -3 110.796 6.04266   6
   1  -9   3 103.015 5.64310   3
   1  -9   3 101.026 6.85900   5
  -2   9  -3 59.9034 4.25866   6
  -2   9  -3 62.5717 4.00095   8
   2  -9   3 59.7605 4.77790   5
   2  -9   3 58.7284 3.61340   3
  -3   9  -3 108.228 5.51342   8
   3  -9   3 95.5909 4.91948   3
   3  -9   3 102.848 6.07465   5
   6   8  -3 -0.0681 1.87100  11
  -6  -8   3 2.32456 2.35133  10
  -6  -8   3 0.53278 1.15924   6
   5   8  -3 518.944 21.2937   3
   5   8  -3 494.687 22.2935  11
  -5  -8   3 510.624 21.0442   6
  -5  -8   3 463.176 21.1417  10
  -5  -8   3 435.735 21.4223   8
   4   8  -3 830.213 36.4191  11
   4   8  -3 804.938 35.2181   3
  -4  -8   3 784.078 35.0687  10
  -4  -8   3 780.458 35.3423   8
  -4  -8   3 865.828 35.0447   6
   3   8  -3 74.4706 5.01188   3
  -3  -8   3 75.2233 4.27653   6
  -3  -8   3 66.0551 4.90550   8
  -3  -8   3 69.5697 4.71465  10
   2   8  -3 560.859 25.5393   3
   2   8  -3 578.508 25.5708   8
  -2  -8   3 561.922 24.7450   6
  -2  -8   3 580.949 25.5460   8
  -2  -8   3 575.275 26.4383   3
  -2  -8   3 587.238 25.2795  10
   1   8  -3 226.338 11.2323   8
   1   8  -3 217.424 11.3639   3
  -1  -8   3 237.551 10.9777  10
  -1  -8   3 230.969 11.0944   3
  -1  -8   3 224.894 11.1297   8
   0   8  -3 68.4739 4.97615   8
   0   8  -3 70.7610 5.17993   6
   0   8  -3 75.2839 5.96698   3
   0  -8   3 74.4515 5.27422   8
   0  -8   3 74.8061 5.55484  10
   0  -8   3 78.7505 4.83790   3
  -1   8  -3 104.552 6.10275   8
  -1   8  -3 97.3895 5.81763   6
  -1   8  -3 89.1749 9.98574   3
   1  -8   3 103.538 5.67981   3
  -2   8  -3 1053.90 46.3037   8
  -2   8  -3 1061.21 45.7849   6
   2  -8   3 1104.43 45.8037   3
  -3   8  -3 129.571 6.79508   8
  -3   8  -3 130.544 6.47301   6
   3  -8   3 122.943 7.84151   5
   3  -8   3 118.223 6.14462   3
  -4   8  -3 924.656 40.6126   8
  -4   8  -3 1002.90 40.4089   6
   4  -8   3 929.860 41.5716   5
   7   7  -3 1315.94 55.3613   1
   7   7  -3 1361.76 56.1506  11
  -7  -7   3 1260.74 55.2141   6
   6   7  -3 47.0288 3.69452   1
   6   7  -3 48.1071 4.39449  11
  -6  -7   3 36.1314 4.69911  10
  -6  -7   3 37.9265 4.01480   8
  -6  -7   3 41.3532 3.30602   6
   5   7  -3 322.105 15.7416   1
   5   7  -3 355.567 17.2751  11
   5   7  -3 337.094 16.2754   9
   5   7  -3 377.109 15.8599   3
  -5  -7   3 359.356 15.5771   6
  -5  -7   3 352.952 15.7615  10
  -5  -7   3 331.781 16.1108   8
   4   7  -3 136.991 7.39810   9
   4   7  -3 143.453 7.45617   3
   4   7  -3 122.086 8.00008   1
  -4  -7   3 144.604 6.92302   6
  -4  -7   3 127.348 7.51544   8
  -4  -7   3 136.127 7.22380  10
   3   7  -3 98.5112 6.02697   3
   3   7  -3 106.027 6.10481   9
  -3  -7   3 93.3747 5.71342  10
  -3  -7   3 101.001 5.36138   6
  -3  -7   3 94.1488 6.07021   8
   2   7  -3 319.545 15.0582   3
   2   7  -3 323.574 15.1791   8
  -2  -7   3 316.873 14.2520   6
  -2  -7   3 304.174 14.6525  10
  -2  -7   3 345.036 15.1842   8
  -2  -7   3 308.405 14.9808   3
   1   7  -3 77.2474 5.92455   3
   1   7  -3 89.1290 5.68383   8
   1   7  -3 89.9423 5.96063   6
  -1  -7   3 95.3725 5.60671  10
  -1  -7   3 82.4847 4.86264   6
  -1  -7   3 86.0999 5.56343   3
  -1  -7   3 85.7522 5.75811   8
   0   7  -3 6.05436 1.79645   8
   0   7  -3 5.55090 3.01845   3
   0   7  -3 6.22426 2.12148   6
   0  -7   3 8.32503 2.58667  10
   0  -7   3 9.71063 2.31586   8
   0  -7   3 9.71857 1.89676   3
  -1   7  -3 41.5758 5.21087   3
  -1   7  -3 46.1074 3.59072   6
  -1   7  -3 43.5961 4.04929   8
   1  -7   3 41.7079 3.53151   3
  -2   7  -3 1578.56 67.7670   8
  -2   7  -3 1622.26 67.1436   6
   2  -7   3 1545.40 67.0159   3
  -3   7  -3 0.91432 1.85702   8
   3  -7   3 4.54962 2.65466   5
   3  -7   3 3.79044 3.02475   3
   3  -7   3 7.10609 2.32083   2
  -4   7  -3 1.13086 1.91574   8
  -4   7  -3 0.31080 1.43674   6
   4  -7   3 3.84374 1.96242   5
   4  -7   3 0.72021 1.56368   3
  -5   7  -3 53.6523 3.97626   6
   5  -7   3 61.3084 5.08733   5
   7   6  -3 133.032 6.62785   1
   7   6  -3 128.446 7.18337  11
  -7  -6   3 131.043 6.47218   6
   6   6  -3 54.0870 4.01251   1
   6   6  -3 58.2027 4.23019   9
   6   6  -3 58.5875 5.14151  11
  -6  -6   3 51.0128 4.76714   8
  -6  -6   3 59.1247 5.72408  10
  -6  -6   3 53.3144 4.07089   6
   5   6  -3 2197.62 98.7918   1
   5   6  -3 2452.85 98.7793   3
   5   6  -3 2311.66 99.0078   9
   5   6  -3 2455.37 100.144  11
  -5  -6   3 2329.96 98.6869  10
  -5  -6   3 2254.64 99.0855   8
  -5  -6   3 2377.92 98.5874   6
   4   6  -3 0.91478 1.86274   9
   4   6  -3 2.34885 2.25353   1
   4   6  -3 2.06740 1.76033   3
  -4  -6   3 2.07569 2.27770   8
  -4  -6   3 3.41197 1.75274   6
  -4  -6   3 0.11170 1.96239  10
   3   6  -3 177.841 9.14828   3
   3   6  -3 178.502 9.17101   9
  -3  -6   3 172.870 8.50847   6
  -3  -6   3 180.553 9.32067   8
   2   6  -3 719.976 31.5624   3
   2   6  -3 741.606 31.6986   8
   2   6  -3 720.128 31.4248   9
  -2  -6   3 709.299 30.8410   6
  -2  -6   3 764.543 31.6164   8
  -2  -6   3 661.232 32.3628   3
   1   6  -3 1282.78 60.7833   3
   1   6  -3 1450.13 60.5098   8
  -1  -6   3 1476.88 60.3601   8
  -1  -6   3 1430.46 59.6742   6
  -1  -6   3 1421.38 60.0757  10
   0   6  -3 3443.18 146.544   3
   0   6  -3 3132.48 143.704   6
   0   6  -3 3471.68 144.329   8
   0  -6   3 3264.46 143.774   3
   0  -6   3 3597.67 144.631  10
   0  -6   3 3626.12 144.128   8
  -1   6  -3 1377.59 58.1366   6
  -1   6  -3 1422.99 58.7803   8
   1  -6   3 1398.70 58.1659   3
   1  -6   3 1294.71 58.3032   8
   1  -6   3 1346.56 58.3502  10
  -2   6  -3 2964.43 120.466   8
  -2   6  -3 2708.30 119.743   6
   2  -6   3 3017.12 119.793   3
   2  -6   3 2695.36 119.813   2
  -3   6  -3 410.537 18.3877   8
  -3   6  -3 404.577 17.6850   6
   3  -6   3 400.312 17.5272   3
   3  -6   3 367.651 17.8643   2
  -4   6  -3 2.13723 1.58169   6
  -4   6  -3 0.95017 2.28692   8
   4  -6   3 1.66344 1.62991   3
   4  -6   3 4.16097 1.85808   2
  -5   6  -3 156.265 7.00001   6
   5  -6   3 126.888 8.36200   5
   5  -6   3 134.658 7.03482   2
  -6   6  -3 99.3616 5.13210   6
   8   5  -3 49.4903 3.70125  11
   7   5  -3 155.890 8.31798  11
   7   5  -3 154.193 7.66996   1
  -7  -5   3 149.335 7.54216   6
   6   5  -3 685.188 30.4945  11
   6   5  -3 691.635 29.7679   9
  -6  -5   3 614.986 29.1400   8
  -6  -5   3 654.555 28.6213   6
   5   5  -3 3.19158 1.96771   1
   5   5  -3 4.58157 1.87966   3
   5   5  -3 1.28197 2.10753  11
   5   5  -3 1.97187 1.86918   9
  -5  -5   3 4.20893 2.14595   6
  -5  -5   3 3.43437 2.81489  10
  -5  -5   3 1.70824 2.71284   8
   4   5  -3 90.5332 5.80971   1
   4   5  -3 100.599 5.69311   3
   4   5  -3 94.7239 6.97893  11
   4   5  -3 95.1050 5.82046   9
  -4  -5   3 94.6526 6.22738   8
  -4  -5   3 94.1145 5.78768  10
  -4  -5   3 91.9378 5.54722   6
   3   5  -3 2159.42 92.1821   3
   3   5  -3 2137.20 92.0831   1
   3   5  -3 2241.24 92.4879   9
   2   5  -3 16.7886 2.60033   3
   2   5  -3 22.8570 3.50248   8
   2   5  -3 8.50862 2.36228   9
  -2  -5   3 13.5901 1.81925   6
  -2  -5   3 19.3692 4.58467   4
  -2  -5   3 16.7338 3.44745   3
  -2  -5   3 9.03885 2.13694   8
   1   5  -3 921.451 44.5328   4
   1   5  -3 981.095 43.8662   6
   1   5  -3 1055.50 44.2381   8
   1   5  -3 1031.02 44.2547   3
  -1  -5   3 1056.32 43.9060   3
  -1  -5   3 1024.83 43.5056   6
  -1  -5   3 1020.75 44.8455   4
  -1  -5   3 1114.06 44.3539   8
   0   5  -3 899.665 39.0841   3
   0   5  -3 904.167 38.7694   4
   0  -5   3 816.246 37.6972   6
   0  -5   3 847.207 38.1384   3
   0  -5   3 911.086 38.2022  10
   0  -5   3 955.853 38.4121   8
  -1   5  -3 159.450 9.91050   4
  -1   5  -3 163.337 8.12466   6
  -1   5  -3 178.818 8.84282   8
   1  -5   3 171.315 9.04929   8
   1  -5   3 159.705 9.24453  10
   1  -5   3 169.821 8.17988   3
  -2   5  -3 324.156 14.8329   6
  -2   5  -3 337.295 15.5242   8
   2  -5   3 333.037 14.7413   3
   2  -5   3 316.521 16.3268   2
  -3   5  -3 16.4148 3.02097   8
  -3   5  -3 24.8216 3.07848   6
   3  -5   3 19.6970 2.95779   3
   3  -5   3 17.8177 2.79325   2
   3  -5   3 25.5073 4.70108  11
  -4   5  -3 485.989 22.3999   8
  -4   5  -3 502.384 21.7743   6
   4  -5   3 471.389 21.7802   2
   4  -5   3 491.135 21.3874   3
   4  -5   3 509.986 24.2578   5
   4  -5   3 494.904 22.2468  11
  -5   5  -3 105.762 5.95173   6
   5  -5   3 113.084 6.81482  11
   5  -5   3 103.051 5.82728   2
   5  -5   3 98.7984 7.61367   5
   6  -5   3 115.652 5.65510   2
   6  -5   3 99.1944 7.19318   5
   8   4  -3 387.424 16.8230  11
   8   4  -3 402.220 16.7300   1
  -8  -4   3 346.163 16.6902   6
   7   4  -3 111.657 6.10578   1
   7   4  -3 111.938 6.74180  11
  -7  -4   3 108.839 6.17712   6
   6   4  -3 69.2162 4.64038   1
   6   4  -3 64.5554 4.94029   9
   6   4  -3 62.0607 5.40685  11
  -6  -4   3 67.8628 5.13550   6
   5   4  -3 783.001 32.5786   9
   5   4  -3 772.585 33.3024  11
   5   4  -3 716.158 32.3670   1
  -5  -4   3 730.073 32.0682   6
  -5  -4   3 754.973 32.2736  10
  -5  -4   3 696.102 32.5342   8
   4   4  -3 357.194 17.0949  11
   4   4  -3 356.756 16.2509   1
   4   4  -3 348.444 16.2891   9
   4   4  -3 355.892 16.0156   3
   3   4  -3 3296.96 141.814   8
   3   4  -3 3551.12 141.641   3
   3   4  -3 3132.05 141.503   1
  -3  -4   3 3537.43 141.798   8
  -3  -4   3 3541.50 142.174   4
  -3  -4   3 3146.37 141.156   6
   2   4  -3 818.908 35.4432   8
   2   4  -3 855.846 35.3706   9
   2   4  -3 784.568 35.3066   3
  -2  -4   3 846.899 35.3705   8
  -2  -4   3 752.438 35.7016   7
  -2  -4   3 853.964 35.6787   4
  -2  -4   3 803.985 34.7664   6
   1   4  -3 245.191 13.1971   3
   1   4  -3 255.997 12.6818   6
   1   4  -3 267.486 13.7057   7
   1   4  -3 274.353 12.9395   8
   1   4  -3 274.500 12.7384   4
  -1  -4   3 267.160 12.1190   6
  -1  -4   3 298.948 12.8963   8
  -1  -4   3 271.891 12.9426   4
  -1  -4   3 282.566 13.0283   7
   0   4  -3 178.625 8.97106   6
   0   4  -3 192.898 9.62398   8
   0   4  -3 193.916 9.20703   4
   0   4  -3 176.372 11.4108   4
   0   4  -3 187.098 10.2859   7
   0  -4   3 189.239 9.55992  10
   0  -4   3 187.487 9.15508   3
   0  -4   3 183.089 9.61904   4
   0  -4   3 194.328 9.59372   8
  -1   4  -3 126.457 6.91018   6
  -1   4  -3 131.060 7.16070   4
  -1   4  -3 123.821 9.04686   7
  -1   4  -3 154.457 7.74181   8
   1  -4   3 127.899 6.71828   3
  -2   4  -3 69.2180 4.53050   6
  -2   4  -3 62.8594 5.51194   8
  -2   4  -3 49.7320 5.49956   4
   2  -4   3 65.1130 5.37093  11
   2  -4   3 58.3941 4.20739   2
  -3   4  -3 1216.51 53.0029   6
  -3   4  -3 1259.03 53.6094   8
   3  -4   3 1230.80 52.7258   3
   3  -4   3 1288.57 53.5124  11
   3  -4   3 1229.18 53.0794   2
  -4   4  -3 1210.21 52.4804   8
  -4   4  -3 1190.45 51.8600   6
   4  -4   3 1218.08 51.9856   2
   4  -4   3 1199.01 51.3729   3
   4  -4   3 1194.78 52.2070  11
   4  -4   3 1276.48 54.4299   5
  -5   4  -3 930.494 40.9281   6
   5  -4   3 975.891 41.0735   2
   5  -4   3 936.577 41.1874  11
   5  -4   3 963.328 43.4536   5
  -6   4  -3 1725.02 83.0845   6
   6  -4   3 2120.95 82.8622   2
   6  -4   3 1877.85 84.8253   5
   6  -4   3 2109.03 82.8697  11
   7  -4   3 286.489 12.6788   2
   8   3  -3 95.3521 5.20653   1
   8   3  -3 87.2245 5.25827  11
  -8  -3   3 88.7148 6.13409   6
   7   3  -3 1.66138 1.98467  11
   7   3  -3 2.05106 1.88210   1
  -7  -3   3 0.27067 2.36284   6
   6   3  -3 1573.87 64.9052   1
   6   3  -3 1506.16 64.7270   9
   6   3  -3 1627.03 65.5999  11
  -6  -3   3 1454.88 64.9486   8
  -6  -3   3 1437.95 64.3427   6
   5   3  -3 1580.42 68.0994  11
   5   3  -3 1589.20 67.0406   3
   5   3  -3 1590.25 67.4867   1
   5   3  -3 1595.75 67.4922   9
  -5  -3   3 1586.22 67.5523   8
  -5  -3   3 1556.78 67.0435   6
   4   3  -3 688.783 29.2367   3
   4   3  -3 673.113 29.5700   9
   4   3  -3 688.142 30.1551  11
   4   3  -3 651.878 29.4981   1
  -4  -3   3 678.083 29.4170  10
   3   3  -3 1155.01 49.5925   1
   3   3  -3 1162.54 49.6347   9
   3   3  -3 1173.68 49.4889   3
  -3  -3   3 1264.44 51.5077   7
  -3  -3   3 1197.17 49.7885   4
  -3  -3   3 1053.96 49.1836   6
  -3  -3   3 1126.73 49.6726   8
   2   3  -3 1939.94 87.2998   7
  -2  -3   3 2321.92 87.5817   4
  -2  -3   3 1893.22 87.0203   7
  -2  -3   3 2087.46 87.0687   4
   1   3  -3 2497.55 105.092   4
   1   3  -3 2438.04 105.365   7
   1   3  -3 2445.46 105.500   4
  -1  -3   3 2495.08 105.235   4
  -1  -3   3 2583.64 105.189   7
  -1  -3   3 2537.49 105.296   4
   0   3  -3 13.7357 2.03806   7
   0   3  -3 11.5032 1.56334   4
   0  -3   3 12.8229 2.47481   4
   0  -3   3 7.26300 1.56799   4
  -1   3  -3 2627.56 108.384   7
  -1   3  -3 2543.07 108.565   4
  -1   3  -3 2550.47 108.179   4
  -2   3  -3 1493.36 60.6706   4
  -2   3  -3 1423.23 60.9160   7
   2  -3   3 1392.88 60.4165   3
   2  -3   3 1417.64 60.6891   2
  -3   3  -3 10.7312 2.83523   4
   3  -3   3 3.86866 1.29840   2
   3  -3   3 1.13681 2.92653  11
   3  -3   3 2.36786 1.72359   3
   4  -3   3 108.862 7.25629  11
   4  -3   3 107.848 7.61061   5
   4  -3   3 97.3785 5.57475   2
   4  -3   3 92.1381 5.82790   3
   5  -3   3 271.771 12.8891   2
   5  -3   3 286.504 15.2187   5
   5  -3   3 264.875 13.6289  11
   6  -3   3 2.76544 1.34867   2
   6  -3   3 8.28425 2.90103  11
   6  -3   3 2.00736 3.05434   5
   7  -3   3 65.7791 4.03292   2
   7  -3   3 66.0127 4.73695  11
   8   2  -3 151.784 7.83243  11
   8   2  -3 167.664 8.15677   1
   7   2  -3 30.1511 4.17058   2
   7   2  -3 35.6193 3.73363   1
   7   2  -3 37.2245 4.02286  11
  -7  -2   3 29.3646 4.72014   6
   6   2  -3 119.209 7.26945   2
   6   2  -3 123.961 7.22207   9
   6   2  -3 125.733 7.44816  11
   6   2  -3 129.584 6.93138   1
  -6  -2   3 106.617 7.49536   6
   5   2  -3 277.446 12.9890   9
   5   2  -3 272.021 12.8029   1
   5   2  -3 265.856 13.2470  11
   5   2  -3 276.114 12.4257   3
  -5  -2   3 254.528 12.9327   6
  -5  -2   3 256.942 13.3403   8
   4   2  -3 157.666 9.37196   9
   4   2  -3 140.561 7.55620   1
  -4  -2   3 135.802 8.27140   6
  -4  -2   3 152.150 8.58211   8
  -4  -2   3 134.300 8.30185   4
   3   2  -3 6.72136 2.50535   9
   3   2  -3 3.70623 2.08971   3
  -3  -2   3 1.91172 2.81199   4
  -3  -2   3 5.83053 2.47134   7
  -3  -2   3 2.53364 1.82804   4
   2   2  -3 2541.17 107.430   7
   2   2  -3 2463.76 107.416   4
   2   2  -3 2651.07 107.065   4
  -2  -2   3 2560.69 107.304   7
  -2  -2   3 2561.78 107.178   4
  -2  -2   3 2514.81 107.501   4
   1   2  -3 79.0567 4.82142   4
   1   2  -3 81.5769 4.18505   4
  -1  -2   3 79.8523 4.34657   7
  -1  -2   3 79.2637 4.29737   4
  -1  -2   3 77.7202 4.35674   4
   0   2  -3 830.572 36.9180   7
   0   2  -3 899.430 36.8993   4
   0   2  -3 854.349 37.1497   4
   0  -2   3 885.188 36.8712   7
   0  -2   3 883.934 36.9400   4
   0  -2   3 862.547 36.9806   4
  -1   2  -3 6151.58 252.249   4
  -1   2  -3 6100.16 252.279   7
  -1   2  -3 6161.96 252.483   4
   1  -2   3 5860.09 252.233   4
   1  -2   3 5886.50 252.293   4
  -2   2  -3 1788.16 75.6565   4
  -2   2  -3 1884.22 75.4293   4
  -2   2  -3 1701.33 75.4139   7
  -3   2  -3 1932.47 75.5082   4
  -3   2  -3 1595.28 75.7512   7
   3  -2   3 1803.85 75.7448   2
   3  -2   3 1832.72 76.3090  11
   3  -2   3 1899.23 77.4250   5
   3  -2   3 1684.63 75.3084   3
   4  -2   3 2521.63 103.700   5
   4  -2   3 2288.91 101.899  11
   5  -2   3 440.894 21.5545  11
   5  -2   3 500.947 23.2429   5
   5  -2   3 469.522 21.0018   2
   6  -2   3 303.003 15.1112  11
   6  -2   3 312.454 16.9293   5
   6  -2   3 312.074 14.3411   2
   7  -2   3 507.432 21.7787   2
   7  -2   3 483.941 22.0076  11
   8   1  -3 1248.15 49.2279  11
   8   1  -3 1062.29 48.9594   2
   7   1  -3 554.395 25.6163   2
   7   1  -3 555.997 25.3052   1
   7   1  -3 584.666 25.6393  11
  -7  -1   3 602.251 25.2907   6
   6   1  -3 242.320 11.7019   1
   6   1  -3 258.632 12.3071  11
   6   1  -3 234.250 12.0634   2
  -6  -1   3 226.294 12.0088   6
   5   1  -3 346.211 15.4643   3
   5   1  -3 327.292 16.0905   9
   5   1  -3 344.189 16.3427  11
   5   1  -3 357.987 15.9416   1
   4   1  -3 -0.7779 2.90563   9
   4   1  -3 5.62970 2.30362  11
  -4  -1   3 1.87143 2.32489   4
  -4  -1   3 4.59695 5.16160   6
  -4  -1   3 -1.8986 3.43411   8
  -3  -1   3 2804.34 116.338   7
  -3  -1   3 2803.01 115.854   4
  -3  -1   3 2660.92 115.849   4
   2   1  -3 1403.03 59.7102   4
   2   1  -3 1427.65 59.4126   4
  -2  -1   3 1451.47 59.5147   4
  -2  -1   3 1355.11 59.4541   4
   1   1  -3 2133.36 88.6324   4
   1   1  -3 2074.86 88.7521   7
  -1  -1   3 2126.19 88.7283   4
  -1  -1   3 2108.74 88.7273   7
  -1  -1   3 2121.05 88.6941   4
   0   1  -3 603.738 26.7724   7
   0   1  -3 639.143 26.7995   4
   0   1  -3 638.879 26.9896   4
   0  -1   3 630.787 26.8287   4
   0  -1   3 634.836 26.8651   4
   0  -1   3 639.713 26.7674   7
  -1   1  -3 2544.45 109.765   4
  -1   1  -3 2672.35 109.956   4
  -1   1  -3 2652.05 109.753   7
   1  -1   3 2627.53 109.776   4
   1  -1   3 2608.91 109.806   4
  -2   1  -3 9999.99 407.591   4
   2  -1   3 9509.50 407.284   4
  -3   1  -3 1013.10 40.2804   4
  -3   1  -3 953.503 40.4985   4
   3  -1   3 907.210 40.7004   2
   3  -1   3 938.741 42.1204   5
   4  -1   3 27.4855 5.95113   5
   4  -1   3 30.7940 2.81879   2
   4  -1   3 26.8804 5.01605  11
   5  -1   3 368.044 18.4279   5
   5  -1   3 351.074 17.0696  11
   5  -1   3 365.408 16.4813   2
   6  -1   3 316.622 16.5933   5
   6  -1   3 290.517 14.8694  11
   6  -1   3 306.831 14.1076   2
   7  -1   3 178.151 8.82790   2
   7  -1   3 184.800 9.78889  11
   8  -1   3 52.9299 3.37787   2
   8   0  -3 23.6159 3.19904   2
   7   0  -3 2.12311 1.98071   2
   7   0  -3 4.21104 2.43147   1
   7   0  -3 1.40487 1.94716  11
  -7   0   3 8.57655 2.82395   6
   6   0  -3 120.145 7.15738  11
   6   0  -3 110.941 6.96070   2
   6   0  -3 116.195 6.73380   1
  -6   0   3 110.370 7.60624   6
   5   0  -3 383.314 16.0704   3
   5   0  -3 367.430 16.4472   1
   5   0  -3 376.730 16.9791  11
  -5   0   3 297.488 18.9959   8
   4   0  -3 22.8710 4.60280   9
   4   0  -3 20.4810 3.48714   3
   4   0  -3 20.7329 4.00237  11
   4   0  -3 27.2305 3.54629   1
  -4   0   3 23.8973 3.91848   4
  -4   0   3 28.0592 4.21478   8
  -3   0   3 64.5133 3.86745   4
  -3   0   3 59.2454 4.65889   7
  -3   0   3 64.0082 4.49096   4
   2   0  -3 4436.25 207.177   4
   2   0  -3 5253.93 207.201   4
  -2   0   3 5024.50 207.234   7
  -2   0   3 4976.73 206.997   4
  -2   0   3 5046.52 207.008   4
   1   0  -3 7938.10 331.723   4
   0   0  -3 574.591 24.5057   7
   0   0  -3 579.831 24.7151   4
   0   0  -3 591.259 24.5807   4
   0   0   3 542.263 24.7203   4
   0   0   3 586.521 24.5161   7
   0   0   3 607.611 24.7170   4
  -1   0  -3 2834.67 113.974   4
  -1   0  -3 2670.17 114.067   4
   1   0   3 2667.40 113.944   4
  -2   0  -3 6018.70 251.495   4
  -4   0  -3 65.6139 6.67999   7
   4   0   3 67.8092 4.21799   2
   4   0   3 51.6308 6.13203  11
   4   0   3 71.9012 5.95266   5
   5   0   3 2616.79 107.459   5
   5   0   3 2530.13 105.502   2
   5   0   3 2350.46 105.767  11
   6   0   3 34.9325 4.36321  11
   6   0   3 31.9349 5.68151   5
   6   0   3 36.3683 3.16734   2
   7   0   3 406.786 19.1012  11
   7   0   3 415.396 18.3965   2
   8   0   3 414.934 17.1997   2
   8   0   3 368.200 17.4481  11
   8  -1  -3 8.56450 1.70951   2
   7  -1  -3 897.008 41.4272   2
   7  -1  -3 977.537 41.3602  11
  -7   1   3 992.870 40.9687   6
   6  -1  -3 133.605 7.73161   2
   6  -1  -3 140.802 7.83921  11
   6  -1  -3 133.562 7.65527   1
  -6   1   3 134.660 8.32957   6
   5  -1  -3 379.112 17.4270  11
   5  -1  -3 377.388 17.3956   2
   5  -1  -3 375.975 16.4766   3
   5  -1  -3 376.445 17.0285   1
  -5   1   3 344.082 17.7259   8
  -5   1   3 363.135 17.0829   6
   4  -1  -3 3185.46 136.971   1
   4  -1  -3 3263.32 136.535   3
   4  -1  -3 3499.01 137.585  11
  -4   1   3 3246.15 136.871   4
  -4   1   3 3185.28 137.120   8
  -4   1   3 3147.60 137.150   6
  -3   1   3 2213.66 100.091   4
  -3   1   3 2441.74 100.063   4
  -3   1   3 2483.86 100.727   7
   2  -1  -3 7.23812 1.64721   4
   2  -1  -3 6.82888 1.82168   4
  -2   1   3 7.74600 1.05002   4
  -2   1   3 8.41153 1.50483   7
  -2   1   3 7.01826 1.35104   4
   1  -1  -3 1087.96 46.0894   4
   1  -1  -3 1079.92 46.1840   4
  -1   1   3 1129.63 46.1610   7
  -1   1   3 1117.53 46.1066   4
  -1   1   3 1053.52 46.0533   4
   0  -1  -3 1251.62 53.1674   4
   0   1   3 1276.94 53.1080   4
  -1  -1  -3 2134.63 91.3937   4
  -1  -1  -3 2277.74 91.3495   4
   1   1   3 2149.30 91.3246   4
   1   1   3 2169.08 91.3132   4
  -2  -1  -3 431.495 18.2407   4
  -4  -1  -3 628.482 31.0335   7
   4   1   3 758.572 30.0343   2
   4   1   3 605.522 30.8895  11
   4   1   3 771.646 31.7326   5
   5   1   3 940.753 44.3576   2
   5   1   3 1094.11 45.0476   9
   5   1   3 1023.75 44.4658   1
   5   1   3 1021.05 44.5388  11
   5   1   3 1051.00 45.8674   5
   6   1   3 635.825 29.1755  11
   6   1   3 657.096 30.8235   5
   6   1   3 674.554 28.6931   2
   7   1   3 40.0018 3.42547   2
   7   1   3 40.0683 4.73852  11
   8   1   3 42.7667 3.45529   2
   8   1   3 47.5145 4.78040  11
   8  -2  -3 383.023 15.7023   2
   8  -2  -3 334.788 15.6337  11
   7  -2  -3 37.8727 4.09271  11
   7  -2  -3 39.4817 3.51304   2
  -7   2   3 37.2374 4.10583   6
   6  -2  -3 347.017 16.5998  11
   6  -2  -3 351.430 16.7208   2
  -6   2   3 366.669 16.5001   6
   5  -2  -3 18.1833 2.46965   3
   5  -2  -3 19.6676 3.39565   1
   5  -2  -3 21.1553 3.34489   2
   5  -2  -3 20.0421 3.94405  11
  -5   2   3 16.9306 3.72915   8
  -5   2   3 21.1137 3.35488   6
   4  -2  -3 162.235 7.76471   3
   4  -2  -3 164.731 8.57674  11
  -4   2   3 145.528 8.84517   6
  -4   2   3 147.524 8.85341   4
  -4   2   3 149.669 9.20910   8
   3  -2  -3 1024.11 43.2956   3
  -3   2   3 1063.75 43.3530   4
  -3   2   3 964.128 43.7151   4
   2  -2  -3 566.435 23.1494   4
   2  -2  -3 517.483 23.2809   4
  -2   2   3 486.002 23.8862   4
  -2   2   3 563.297 22.9603   4
   1  -2  -3 31.1673 2.14070   4
   1  -2  -3 29.0158 2.34219   4
  -1   2   3 28.7194 1.91560   4
  -1   2   3 31.4446 2.19266   4
   0  -2  -3 0.76701 0.55868   4
   0  -2  -3 0.08185 0.71842   4
   0   2   3 0.87779 0.58833   4
  -1  -2  -3 2525.04 104.684   4
  -1  -2  -3 2490.17 104.703   4
   1   2   3 2487.87 104.657   4
  -4  -2  -3 1537.15 60.2781   7
   4   2   3 1416.92 60.8060   9
   4   2   3 1376.45 61.6726   5
   4   2   3 1345.85 60.5889   1
   5   2   3 995.543 42.2078   2
   5   2   3 937.873 43.8708   5
   5   2   3 1007.20 42.8908  11
   5   2   3 1031.14 42.8804   9
   5   2   3 947.134 42.4654   1
   6   2   3 5790.21 239.017   2
   6   2   3 5628.16 239.671  11
   6   2   3 5686.99 239.219   1
   8   2   3 22.4428 4.27095  11
   7  -3  -3 131.360 6.57792   2
   7  -3  -3 127.366 6.95827  11
  -7   3   3 116.101 6.51245   6
   6  -3  -3 2523.66 110.777  11
   6  -3  -3 2698.11 110.932   2
  -6   3   3 2625.83 110.366   6
   5  -3  -3 1272.11 54.4553   3
   5  -3  -3 1335.49 55.3990  11
   5  -3  -3 1343.08 55.5182   2
  -5   3   3 1187.28 55.3058   6
  -5   3   3 1286.29 55.6062   8
   4  -3  -3 6.12236 3.68166   1
   4  -3  -3 7.48980 2.05564   2
  -4   3   3 2.29845 2.48538   6
  -4   3   3 8.43967 2.88726   8
   3  -3  -3 2474.20 100.698  11
   3  -3  -3 2300.62 100.578   1
   3  -3  -3 2372.50 100.135   3
  -3   3   3 2425.34 100.772   8
  -3   3   3 2333.04 100.363   4
   2  -3  -3 95.1675 5.55853   4
   1  -3  -3 12.4671 2.05581   4
   1  -3  -3 14.3365 1.82383   4
  -1   3   3 21.5221 2.13182   4
  -1   3   3 16.9035 1.63549   4
   0  -3  -3 1255.96 51.5636   4
   0  -3  -3 1244.60 51.5926   4
   0   3   3 1163.72 51.4597   4
   0   3   3 1225.33 51.5440   4
  -1  -3  -3 426.603 17.7303   4
  -1  -3  -3 397.857 17.6477   4
   1   3   3 411.938 17.6175   4
  -2  -3  -3 102.013 4.83532   4
  -2  -3  -3 102.746 4.77941   4
  -4  -3  -3 14.9382 5.12475   7
   4   3   3 11.4702 3.05189   1
   4   3   3 22.4331 3.84560   9
   4   3   3 15.3342 3.50010   5
   5   3   3 14.3702 3.04264  11
   5   3   3 11.2482 2.81871   2
   5   3   3 11.6827 3.12421   1
   5   3   3 9.33616 3.62078   5
   6   3   3 121.030 7.19134   1
   6   3   3 125.985 7.71478   9
   6   3   3 113.008 7.57634  11
   7   3   3 -0.7258 2.06454   2
   7   3   3 -4.1148 3.18218   9
   7  -4  -3 7.73633 1.88575  11
   6  -4  -3 57.2849 4.97277  11
   6  -4  -3 47.6860 3.87064   2
  -6   4   3 47.8220 4.15063   6
   5  -4  -3 182.203 9.49813   2
   5  -4  -3 182.908 8.86279   3
   5  -4  -3 186.492 10.0546  11
  -5   4   3 182.219 9.24145   6
  -5   4   3 184.142 10.3303   8
   4  -4  -3 589.572 25.5333   3
   4  -4  -3 580.808 26.1540   2
   4  -4  -3 606.412 26.3888  11
  -4   4   3 586.775 26.4779   8
  -4   4   3 570.913 25.6785   6
   3  -4  -3 167.155 8.21689   3
   3  -4  -3 168.238 9.36205  11
  -3   4   3 180.550 9.27123   8
  -3   4   3 169.289 8.50579   6
  -3   4   3 154.636 9.16684   4
   2  -4  -3 264.093 12.4201   3
  -2   4   3 264.469 12.3962   4
  -2   4   3 255.093 12.8018   6
  -2   4   3 309.521 16.1903   4
  -2   4   3 273.759 13.2889   8
   1  -4  -3 934.754 40.5718   4
   1  -4  -3 988.261 40.5734   4
  -1   4   3 930.059 40.2663   4
  -1   4   3 936.790 40.4784   4
   0  -4  -3 3460.87 143.142   4
   0  -4  -3 3557.70 143.043   4
   0   4   3 3377.49 142.964   7
   0   4   3 3306.56 143.033   4
   0   4   3 3355.17 142.950   4
  -1  -4  -3 2865.57 117.522   4
  -1  -4  -3 2812.87 117.397   4
   1   4   3 2881.63 117.383   4
   1   4   3 2639.32 117.390   4
  -2  -4  -3 2887.62 125.537   4
  -2  -4  -3 2933.28 125.660   4
   2   4   3 3102.23 125.766   7
   2   4   3 3063.85 125.550   4
  -3  -4  -3 3093.47 136.910   4
  -3  -4  -3 3447.26 137.034   7
  -4  -4  -3 2964.68 119.153   7
   4   4   3 2909.49 119.548   1
   4   4   3 2666.10 120.627   5
   4   4   3 2778.68 119.382   9
   4   4   3 2814.92 119.727  11
   5   4   3 30.5875 6.35023   5
   5   4   3 42.8458 4.73624   9
   5   4   3 37.9801 5.20947  11
   6   4   3 377.731 18.8057  11
   6   4   3 404.466 18.7967   9
   6   4   3 420.727 18.7254   1
   7   4   3 506.388 25.5738   1
   7   4   3 533.700 24.2900   9
   8   4   3 114.406 6.42337   1
   8   4   3 112.670 6.68959  11
   7  -5  -3 35.7147 2.35579   2
   7  -5  -3 33.9392 2.87938  11
  -7   5   3 34.7214 2.64380   6
   6  -5  -3 3.90396 2.21396  11
   6  -5  -3 4.53038 1.38805   2
  -6   5   3 3.91256 2.77830   8
  -6   5   3 5.73912 1.63359   6
   5  -5  -3 470.646 22.2760  11
   5  -5  -3 521.554 22.1252   2
   5  -5  -3 474.144 21.3478   3
  -5   5   3 477.634 22.5145   8
  -5   5   3 504.993 21.7012   6
   4  -5  -3 -0.9066 2.60966  11
   4  -5  -3 1.16825 1.60665   2
   4  -5  -3 -1.5323 1.58313   3
  -4   5   3 2.79885 1.84567   6
  -4   5   3 -0.8041 2.21389   8
   3  -5  -3 23.6556 3.36736   2
   3  -5  -3 23.3834 3.16052   3
   2  -5  -3 1670.77 70.6207   8
   2  -5  -3 1620.80 70.6650   2
   2  -5  -3 1663.23 70.8435  11
   2  -5  -3 1677.23 70.3356   3
  -2   5   3 1665.75 70.7336   4
  -2   5   3 1628.86 70.2825   6
  -2   5   3 1721.12 70.9741   8
   1  -5  -3 1497.95 63.2988   8
   1  -5  -3 1534.91 63.2082   3
   1  -5  -3 1537.98 63.6191   4
  -1   5   3 1572.89 63.6472   8
  -1   5   3 1433.11 63.3770   7
  -1   5   3 1397.40 62.9288   6
  -1   5   3 1542.20 63.2484   4
  -1   5   3 1408.93 63.6107   4
   0  -5  -3 456.893 20.2261   4
   0  -5  -3 485.282 20.6104   4
   0   5   3 421.916 20.2907   4
   0   5   3 454.443 19.9226   4
   0   5   3 457.113 20.2016   7
  -1  -5  -3 7423.94 293.535   4
   1   5   3 7038.89 293.285   4
   1   5   3 6570.16 293.655   7
  -2  -5  -3 258.128 12.3151   4
  -2  -5  -3 256.067 11.8596   4
   2   5   3 260.529 12.9359   7
  -3  -5  -3 30.9886 4.56828   7
  -3  -5  -3 35.5586 4.84035   4
  -3  -5  -3 39.7538 3.91592   4
   3   5   3 35.1918 4.58825   1
   3   5   3 36.8934 4.37276   7
   3   5   3 25.3412 5.86367   5
   3   5   3 31.0924 4.52374   9
  -4  -5  -3 383.080 16.7261   4
   4   5   3 368.952 16.9145   9
   4   5   3 361.543 17.6758  11
   4   5   3 338.542 18.4969   5
   5   5   3 529.793 26.7388   5
   5   5   3 547.962 24.9463   9
   5   5   3 557.246 25.3500  11
   5   5   3 575.950 25.0700   1
   6   5   3 125.603 7.33930   1
   6   5   3 121.693 7.44243   9
   6   5   3 103.923 7.42989  11
   7   5   3 7.40650 2.73762   1
   7   5   3 8.44351 2.82851  11
   7   5   3 6.65500 2.82167   9
   8   5   3 12.9835 2.64261   1
   8   5   3 19.1170 4.06882  11
   6  -6  -3 193.322 9.63275  11
   6  -6  -3 205.574 9.44004   2
  -6   6   3 218.139 9.40421   6
   5  -6  -3 82.3492 4.95863   3
   5  -6  -3 85.1578 4.96826   2
   5  -6  -3 79.4271 5.71340  11
  -5   6   3 75.4175 5.82083   8
  -5   6   3 86.3042 4.84413   6
   4  -6  -3 0.82132 2.45892  11
   4  -6  -3 3.89027 1.67369   3
   4  -6  -3 2.57172 1.72405   2
  -4   6   3 3.13812 1.57258   6
  -4   6   3 3.94599 2.30264   8
   3  -6  -3 458.412 20.7945  11
   3  -6  -3 435.776 20.4512   2
   3  -6  -3 456.895 20.1911   3
  -3   6   3 471.096 21.0792   8
  -3   6   3 458.460 20.1787   6
   2  -6  -3 1511.89 69.1604   2
   2  -6  -3 1635.71 69.2015   8
   2  -6  -3 1657.25 69.2732  11
  -2   6   3 1738.41 70.5186   4
  -2   6   3 1692.04 69.9376   8
  -2   6   3 1540.69 70.0999   3
   1  -6  -3 2801.69 112.122   8
   1  -6  -3 2672.23 111.851   3
   1  -6  -3 2547.24 111.918  11
   1  -6  -3 2643.24 111.515   6
  -1   6   3 2527.06 111.625   6
  -1   6   3 2838.57 112.476   8
  -1   6   3 2608.02 112.265   4
  -1   6   3 2625.56 112.572   3
   0  -6  -3 3867.31 161.927   6
   0  -6  -3 3861.65 162.302   3
   0  -6  -3 3659.75 163.787   4
   0  -6  -3 4071.59 162.453   8
   0   6   3 3831.88 162.707   3
   0   6   3 3781.87 162.008   6
   0   6   3 3992.82 162.734   8
   0   6   3 3862.18 162.521   4
  -1  -6  -3 2468.23 98.1923   4
  -1  -6  -3 2246.95 97.3063   6
  -1  -6  -3 2320.17 97.7848   8
   1   6   3 2218.33 97.8895   3
   1   6   3 2381.21 98.9503   8
   1   6   3 2323.70 100.032   5
   1   6   3 2260.40 98.6322   7
  -2  -6  -3 554.071 24.3898   4
  -2  -6  -3 532.007 24.2908   8
   2   6   3 580.753 26.3153   5
   2   6   3 546.664 24.2288   3
   2   6   3 528.268 24.4584   1
   2   6   3 537.523 24.5917   9
  -3  -6  -3 169.551 9.36183   4
  -3  -6  -3 149.364 9.79158   8
   3   6   3 154.261 8.61614   1
   3   6   3 167.559 10.2879   5
   3   6   3 166.125 8.74524   9
   3   6   3 131.735 16.6498   7
   3   6   3 158.204 8.71612   3
   4   6   3 55.6529 6.37444  11
   4   6   3 65.7920 5.88143   3
   4   6   3 59.0366 6.58230   5
   5   6   3 811.570 36.7446  11
   5   6   3 794.755 38.0117   5
   5   6   3 842.406 36.3571   9
   5   6   3 853.382 36.5203   1
   6   6   3 276.233 13.8377  11
   6   6   3 271.807 13.4262   9
   6   6   3 271.819 13.5683   1
   7   6   3 1571.79 70.3100  11
   7   6   3 1730.39 70.4792   1
   7   6   3 1634.48 70.2723   9
   8   6   3 892.318 39.2292  11
   8   6   3 937.894 40.2554   9
   8   6   3 923.079 39.4601   1
  -6   7   3 165.387 7.47105   6
   5  -7  -3 427.888 19.1795   2
   5  -7  -3 414.074 19.4120  11
   5  -7  -3 437.310 18.9501   3
  -5   7   3 449.499 19.8511   8
  -5   7   3 467.338 19.2142   6
   4  -7  -3 2275.09 96.3400   2
   4  -7  -3 2353.32 96.1259   3
   4  -7  -3 2176.19 96.3376  11
  -4   7   3 2291.93 96.1065   6
  -4   7   3 2305.02 96.9678   8
   3  -7  -3 214.225 10.5726  11
   3  -7  -3 199.578 10.3608   2
   3  -7  -3 214.232 10.1961   3
  -3   7   3 215.013 10.0074   6
  -3   7   3 216.207 10.9908   8
   2  -7  -3 943.526 40.9057   3
   2  -7  -3 975.389 41.3764   8
   2  -7  -3 939.111 41.0934  11
  -2   7   3 927.129 40.7091   6
  -2   7   3 952.762 42.2568   3
  -2   7   3 979.139 41.6653   8
   1  -7  -3 695.762 28.6647   3
   1  -7  -3 605.573 28.2221   8
   1  -7  -3 604.585 27.2018   6
  -1   7   3 605.896 29.7665   4
  -1   7   3 652.850 28.2357   8
  -1   7   3 637.534 28.5213   3
  -1   7   3 629.907 27.3189   6
   0  -7  -3 156.416 11.8150   4
   0  -7  -3 142.376 7.46150   8
   0  -7  -3 137.617 6.86231   6
   0   7   3 129.810 7.99545   3
   0   7   3 141.836 7.80429   8
   0   7   3 137.435 7.05946   6
  -1  -7  -3 2034.98 87.1006   4
  -1  -7  -3 2126.03 86.2186   8
  -1  -7  -3 2109.84 85.6877   6
  -1  -7  -3 1924.31 86.2230   3
   1   7   3 2043.08 86.3951   3
   1   7   3 1932.02 86.3723   1
   1   7   3 2075.86 86.5109   8
  -2  -7  -3 342.413 18.3743   4
  -2  -7  -3 398.372 16.8220   6
  -2  -7  -3 366.551 16.7311   8
   2   7   3 342.985 17.0634   9
   2   7   3 346.555 16.7403   3
   2   7   3 367.191 17.2657   1
   2   7   3 381.331 19.0121   5
  -3  -7  -3 145.749 7.54344   6
   3   7   3 136.311 8.06892   3
   3   7   3 147.757 8.15043   9
   3   7   3 145.251 8.17636   1
   3   7   3 149.899 9.85647   5
  -4  -7  -3 579.450 26.8961   8
  -4  -7  -3 543.806 25.8448   6
   4   7   3 587.247 26.3974   1
   4   7   3 597.521 26.2487   9
   4   7   3 596.529 28.2514   5
   4   7   3 613.845 26.0645   3
   5   7   3 801.776 36.7273  11
   5   7   3 830.293 36.2770   9
   5   7   3 840.086 36.4741   1
   6   7   3 59.2312 4.88260   1
   6   7   3 52.4783 5.56275  11
   6   7   3 56.8884 4.86966   9
   7   7   3 40.7471 4.13577   1
   7   7   3 39.0161 3.97667   9
   7   7   3 41.9243 4.53965  11
   8   7   3 20.5758 2.69648   9
   8   7   3 19.2671 2.97878   1
  -5   8   3 1.39989 1.73361   8
  -5   8   3 0.94681 1.04901   6
   4  -8  -3 394.659 17.5568   3
  -4   8   3 416.103 17.5570   6
  -4   8   3 385.998 18.2225   8
   3  -8  -3 75.7020 4.66274   3
  -3   8   3 73.2050 5.19718   8
  -3   8   3 68.0953 4.27449   6
   2  -8  -3 25.1086 3.21747   3
   2  -8  -3 24.9830 3.91851   8
  -2   8   3 24.2565 2.63582   6
  -2   8   3 35.1208 5.17401   3
  -2   8   3 30.2319 3.69894   8
   1  -8  -3 388.678 17.5342   3
   1  -8  -3 381.833 17.9462   8
  -1   8   3 387.626 17.0774   6
  -1   8   3 392.204 18.0507   8
  -1   8   3 380.984 18.4170   3
   0  -8  -3 8.76372 1.83185   6
   0  -8  -3 4.38132 2.34375   3
   0   8   3 9.90114 2.71817   3
   0   8   3 8.48821 2.14857   8
  -1  -8  -3 427.261 20.6694   3
  -1  -8  -3 433.642 19.2038   8
  -1  -8  -3 428.110 18.6108   6
   1   8   3 416.493 19.5149   8
   1   8   3 411.974 19.4488   3
  -2  -8  -3 2064.52 84.3334   6
  -2  -8  -3 2126.17 84.9118   8
   2   8   3 1925.27 84.9336   9
   2   8   3 1837.73 85.9264   1
   2   8   3 2045.41 85.0511   3
  -3  -8  -3 2391.51 100.083   8
  -3  -8  -3 2350.29 99.2818   6
   3   8   3 2426.74 100.173   1
   3   8   3 2282.24 99.8900   9
   3   8   3 2342.00 99.9126   3
  -4  -8  -3 301.000 15.1963   6
  -4  -8  -3 314.431 15.8023   8
   4   8   3 329.989 15.3524   1
   4   8   3 340.577 15.3516   9
   4   8   3 318.029 15.1484   3
   4   8   3 324.590 17.2669   5
   5   8   3 1658.61 70.8466   9
   5   8   3 1679.83 71.4740  11
   5   8   3 1633.20 70.9313   1
  -6  -8  -3 506.317 22.8351   6
   6   8   3 532.651 23.5571  11
   6   8   3 491.368 23.0811   1
   6   8   3 520.300 23.0609   9
   7   8   3 16.3080 2.78428   1
   7   8   3 10.6545 2.48066  11
   7   8   3 12.8621 2.24605   9
   8   8   3 61.5075 4.08332   9
   8   8   3 64.1148 3.88939   1
   4  -9  -3 115.984 5.73476   3
   4  -9  -3 121.472 7.24914   5
  -4   9   3 120.680 5.65995   6
  -4   9   3 110.992 6.21371   8
   3  -9  -3 230.008 10.4774   3
  -3   9   3 219.216 10.9789   8
  -3   9   3 222.617 10.2258   6
   2  -9  -3 -6.6434 3.82899   8
   2  -9  -3 1.18980 1.70826   3
  -2   9   3 0.87335 1.37628   6
  -2   9   3 6.49459 4.19345   3
  -2   9   3 6.01222 2.00530   8
   1  -9  -3 509.196 22.9639   8
   1  -9  -3 513.136 22.6088   3
  -1   9   3 511.489 23.4287   3
  -1   9   3 493.867 22.0104   6
  -1   9   3 518.605 23.0772   8
   0  -9  -3 746.564 32.6732   6
   0  -9  -3 796.997 33.7527   8
   0  -9  -3 773.547 33.3322   3
   0   9   3 737.090 33.8012   3
   0   9   3 770.524 33.6661   8
  -1  -9  -3 98.2809 5.34360   6
  -1  -9  -3 97.0450 6.29477   8
  -1  -9  -3 99.2688 7.01721   3
   1   9   3 91.5127 6.17895   3
   1   9   3 98.6163 6.36177   8
  -2  -9  -3 136.159 7.94956   8
   2   9   3 137.540 7.63557   3
   2   9   3 132.765 8.24528   1
  -3  -9  -3 547.659 24.0912   8
   3   9   3 527.864 23.7391   1
   3   9   3 538.865 23.8315   3
   3   9   3 504.953 23.6577   9
  -4  -9  -3 266.441 12.1622   6
  -4  -9  -3 266.287 13.1885   8
   4   9   3 262.747 12.8529   1
   4   9   3 270.162 12.7712   3
   4   9   3 249.642 12.6311   9
  -5  -9  -3 3.94219 3.99400   8
  -5  -9  -3 8.28648 2.26274   6
   5   9   3 7.99896 2.80196  11
   5   9   3 7.21171 2.99372   9
  -6  -9  -3 21.1176 3.82163   6
   6   9   3 23.7889 2.91103   9
   6   9   3 20.5307 2.95489   1
   6   9   3 19.6051 3.89703  11
   7   9   3 494.688 21.5669   1
   7   9   3 496.095 21.5606   9
   7   9   3 490.975 21.6238  11
   3 -10  -3 28.4325 2.57082   3
  -3  10   3 26.9127 2.73040   8
   2 -10  -3 0.46751 1.46570   3
  -2  10   3 4.10150 1.60064   8
  -2  10   3 4.41235 3.86498   3
   1 -10  -3 10.6335 2.93932   8
   1 -10  -3 12.8980 2.22619   3
  -1  10   3 11.2938 3.09668   3
  -1  10   3 17.8585 3.02137   8
   0 -10  -3 1769.23 75.6953   8
   0 -10  -3 1813.14 75.3984   3
   0  10   3 1741.70 75.8690   3
   0  10   3 1782.93 75.6359   8
  -1 -10  -3 256.553 12.1086   8
  -1 -10  -3 237.571 11.0698   6
  -1 -10  -3 245.008 12.1995   3
   1  10   3 244.507 12.1255   3
   1  10   3 235.282 11.8154   8
  -2 -10  -3 447.299 20.8776   8
  -2 -10  -3 468.551 20.0599   6
   2  10   3 457.213 20.8584   3
  -3 -10  -3 1080.61 47.3537   8
  -3 -10  -3 1130.82 46.6185   6
   3  10   3 1070.08 47.1537   3
  -4 -10  -3 63.9532 5.53984   8
  -4 -10  -3 64.9019 4.27053   6
   4  10   3 62.0617 4.65040   9
   4  10   3 72.9096 5.02778   3
   4  10   3 57.4354 4.66572   1
  -5 -10  -3 65.7835 5.74638   8
  -5 -10  -3 70.4275 4.36293   6
   5  10   3 69.8678 4.55884   9
   5  10   3 73.5049 5.38974  11
   5  10   3 71.9152 4.64116   1
  -6 -10  -3 287.247 12.1507   6
   6  10   3 256.512 12.1839   1
   6  10   3 266.745 12.2450   9
   7  10   3 358.753 15.4688   1
   7  10   3 356.522 15.5211   9
   2 -11  -3 596.871 25.1770   3
  -2  11   3 578.092 25.3536   8
   1 -11  -3 393.648 17.4396   3
  -1  11   3 389.955 17.5679   8
  -1  11   3 402.263 18.0540   3
   0 -11  -3 1026.91 43.1345   3
   0 -11  -3 975.216 43.2411   8
   0  11   3 1006.25 43.4872   3
   0  11   3 1023.70 43.1724   8
  -2 -11  -3 206.040 9.60965   6
  -2 -11  -3 207.199 10.4131   8
   2  11   3 216.047 10.3930   3
  -3 -11  -3 2.83255 1.45691   6
  -3 -11  -3 2.10765 2.13406   8
   3  11   3 4.07510 1.76923   3
  -4 -11  -3 1.81684 2.14485   8
  -4 -11  -3 6.20537 1.48407   6
   4  11   3 6.19812 2.22200  11
   4  11   3 8.48978 1.83562   3
  -5 -11  -3 222.003 9.29531   6
   5  11   3 185.147 9.56352   9
  -6 -11  -3 22.7987 2.36647   6
   6  11   3 18.3202 2.61734   9
   1 -12  -3 50.1615 3.14466   3
  -1  12   3 49.1580 6.52832   3
   0 -12  -3 26.3180 3.53845   8
   0 -12  -3 18.1486 3.58232   3
   0  12   3 21.7449 3.13900   3
  -1 -12  -3 72.2297 5.08845   3
  -1 -12  -3 64.8933 4.32455   8
   1  12   3 73.7293 4.40409   3
  -2 -12  -3 27.6085 3.97488  10
  -2 -12  -3 25.8735 2.97055   8
   2  12   3 30.5602 2.87473   3
  -3 -12  -3 3.30172 1.26013   6
  -3 -12  -3 6.27663 1.82375   8
   3  12   3 4.81057 1.37896   3
   3  12   3 3.64384 2.58410  11
   4  12   3 441.415 19.3662  11
  -5 -12  -3 156.124 7.17121  10
  -4 -10   4 377.294 16.2888  10
   3  10  -4 87.5260 4.89323  11
   3  10  -4 87.4794 4.64677   3
  -3 -10   4 79.7408 4.27841   8
  -3 -10   4 63.7082 5.69299  10
   2  10  -4 1503.48 59.3991   3
  -2 -10   4 1464.79 59.3083  10
  -2 -10   4 1425.40 59.2954   3
  -2 -10   4 1224.02 59.1951   8
   1  10  -4 202.553 9.62429   8
   1  10  -4 199.641 10.9445   3
  -1 -10   4 219.316 9.62800   3
  -1 -10   4 209.149 9.80211  10
   0  10  -4 583.509 25.7968   3
   0  10  -4 603.075 25.4427   8
   0 -10   4 594.089 25.3987   3
  -1  10  -4 142.899 6.72162   8
   1 -10   4 144.195 6.59403   3
   5   9  -4 294.037 12.6644  11
  -5  -9   4 295.883 12.3547  10
  -5  -9   4 288.158 12.0249   6
  -5  -9   4 238.720 12.2868   8
   4   9  -4 565.501 24.7196  11
   4   9  -4 567.542 24.2082   3
  -4  -9   4 525.948 24.3224   8
  -4  -9   4 582.042 23.8357   6
  -4  -9   4 564.763 24.2026  10
   3   9  -4 1.09169 1.46089   3
   3   9  -4 2.22834 2.03624  11
  -3  -9   4 1.64938 1.45154  10
  -3  -9   4 2.39676 1.53526   8
   2   9  -4 78.6691 4.88306   3
  -2  -9   4 77.2329 5.02107   3
  -2  -9   4 72.5155 4.70501   8
  -2  -9   4 79.0963 4.69672  10
   1   9  -4 16.2040 2.80432   8
   1   9  -4 12.9176 2.21390   3
  -1  -9   4 16.4942 2.40309  10
  -1  -9   4 12.8480 2.19247   8
  -1  -9   4 8.98678 1.88564   3
   0   9  -4 586.748 25.7572   3
   0   9  -4 609.012 25.6072   8
   0  -9   4 544.899 25.4809  10
   0  -9   4 600.516 25.3809   3
   0  -9   4 581.593 26.4163   5
  -1   9  -4 48.4894 3.44749   8
   1  -9   4 48.6461 3.19207   3
   1  -9   4 42.2973 4.23107   5
  -2   9  -4 296.788 12.4651   6
  -2   9  -4 281.618 12.7411   8
   2  -9   4 271.411 13.3925   5
   2  -9   4 278.174 12.3625   3
   6   8  -4 490.295 21.9087  11
  -6  -8   4 518.160 21.4562   6
   5   8  -4 426.782 19.0882  11
  -5  -8   4 393.834 18.5555   8
  -5  -8   4 418.990 18.3851  10
  -5  -8   4 442.812 18.1797   6
   4   8  -4 675.785 28.6265   3
   4   8  -4 649.101 29.3097  11
  -4  -8   4 629.646 28.4223  10
  -4  -8   4 710.405 28.1851   6
  -4  -8   4 625.863 28.6943   8
   3   8  -4 767.034 33.6662   3
  -3  -8   4 761.534 33.3916  10
  -3  -8   4 822.374 33.0189   6
  -3  -8   4 746.630 33.8001   3
  -3  -8   4 769.988 33.6457   8
   2   8  -4 5.07759 2.53752   8
   2   8  -4 6.19622 2.12643   3
  -2  -8   4 5.37450 1.98224  10
  -2  -8   4 6.29601 1.93329   8
  -2  -8   4 5.77872 2.42333   3
  -2  -8   4 5.54968 1.68688   6
   1   8  -4 214.129 10.6601   8
   1   8  -4 216.065 10.9811   3
  -1  -8   4 211.510 10.5745   8
  -1  -8   4 217.471 10.5178   3
  -1  -8   4 227.261 10.5484  10
   0   8  -4 456.125 20.2484   8
   0   8  -4 454.706 20.4596   3
   0   8  -4 458.717 19.9803   6
   0  -8   4 422.396 21.1372   5
   0  -8   4 447.095 19.9033   3
   0  -8   4 417.615 19.9235   8
   0  -8   4 470.751 20.3596  10
  -1   8  -4 301.910 13.8731   8
  -1   8  -4 295.865 13.6071   6
   1  -8   4 296.321 13.4053   3
   1  -8   4 281.444 14.8952   5
  -2   8  -4 839.965 34.9794   6
  -2   8  -4 785.485 35.2813   8
   2  -8   4 826.590 34.8384   3
   2  -8   4 806.580 36.5660   5
  -3   8  -4 693.964 29.8931   8
  -3   8  -4 721.926 29.6273   6
   3  -8   4 668.327 29.2892   3
   3  -8   4 677.040 30.9139   5
  -4   8  -4 25.0929 3.14397   8
  -4   8  -4 33.2419 2.91469   6
   4  -8   4 27.4491 2.99113   5
   6   7  -4 88.2181 5.56461   1
   6   7  -4 84.9100 5.36072  11
  -6  -7   4 73.8465 4.92344   8
  -6  -7   4 91.3640 4.50070   6
   5   7  -4 382.250 16.0076   3
   5   7  -4 369.194 16.2571   1
   5   7  -4 361.074 16.8624  11
  -5  -7   4 353.318 15.6911   6
  -5  -7   4 329.742 16.1661   8
  -5  -7   4 342.288 15.8963  10
   4   7  -4 11.0554 3.25348  11
   4   7  -4 6.85513 1.98390   3
  -4  -7   4 11.5966 2.45838   8
  -4  -7   4 6.70606 1.65153   6
  -4  -7   4 8.71973 2.18806  10
   3   7  -4 8.87386 2.03974   3
  -3  -7   4 4.77538 1.98787   8
  -3  -7   4 7.30539 3.63376   3
  -3  -7   4 12.0395 2.23769  10
  -3  -7   4 8.26283 1.59096   6
   2   7  -4 184.389 9.53695   3
   2   7  -4 178.313 9.50115   8
  -2  -7   4 189.924 8.64540   6
  -2  -7   4 191.785 9.42678   8
  -2  -7   4 176.601 9.07075  10
  -2  -7   4 181.745 9.44419   3
   1   7  -4 117.397 7.15311   6
   1   7  -4 113.870 7.09721   3
   1   7  -4 115.401 6.81682   8
  -1  -7   4 119.586 6.82165   8
  -1  -7   4 113.650 6.60916   3
  -1  -7   4 126.562 6.64925  10
   0   7  -4 75.2719 8.70390   3
   0   7  -4 94.7365 6.00423   6
   0   7  -4 97.6382 5.93336   8
   0  -7   4 97.1054 5.65271   3
   0  -7   4 105.358 6.12446  10
   0  -7   4 97.5346 5.97749   8
  -1   7  -4 21.7305 3.15204   6
  -2   7  -4 648.051 28.6148   6
  -2   7  -4 656.738 29.1096   8
   2  -7   4 675.675 28.5520   3
   2  -7   4 653.383 30.6067   5
  -3   7  -4 1447.77 59.5276   6
  -3   7  -4 1374.35 59.8769   8
   3  -7   4 1398.10 61.5104   5
   3  -7   4 1387.27 59.2263   3
  -4   7  -4 145.411 7.02018   6
  -4   7  -4 137.271 7.34102   8
   4  -7   4 142.606 8.22668   5
  -5   7  -4 -1.0066 1.40666   6
   5  -7   4 -0.0781 1.53390   5
   7   6  -4 265.963 12.2970  11
   7   6  -4 278.600 12.0922   1
  -7  -6   4 261.676 11.8506   6
   6   6  -4 423.008 18.9829  11
   6   6  -4 430.699 18.3586   1
  -6  -6   4 414.020 18.0213   6
  -6  -6   4 382.916 18.4677   8
   5   6  -4 17.8870 2.92392   1
  -5  -6   4 20.4936 3.60667   8
  -5  -6   4 24.0736 3.71877  10
   4   6  -4 2.80973 1.75099   3
   4   6  -4 6.47400 2.59507  11
   4   6  -4 5.30984 1.98862   9
   4   6  -4 4.67343 2.89296   1
  -4  -6   4 4.01534 1.58180   6
  -4  -6   4 7.43327 2.21222   8
  -4  -6   4 1.56457 1.75462  10
   3   6  -4 1467.61 63.7950   3
  -3  -6   4 1561.64 63.2832   6
  -3  -6   4 1603.15 64.0511   8
  -3  -6   4 1446.85 63.5086  10
  -3  -6   4 1392.85 63.9373   3
   2   6  -4 1062.92 47.6830   8
   2   6  -4 1066.82 47.6559   3
  -2  -6   4 1152.91 47.6959   8
  -2  -6   4 1161.76 47.0305   6
  -2  -6   4 1086.55 47.3384  10
   1   6  -4 2420.29 101.354   8
   1   6  -4 2312.38 101.282   3
   1   6  -4 2268.73 100.864   6
  -1  -6   4 2368.70 100.961   3
  -1  -6   4 2459.03 100.933  10
  -1  -6   4 2451.34 101.153   8
  -1  -6   4 2457.86 100.456   6
   0   6  -4 2429.20 102.733   8
   0   6  -4 2302.14 102.195   6
   0   6  -4 2368.01 102.846   3
   0  -6   4 2445.06 102.258   3
   0  -6   4 2498.97 102.463   8
   0  -6   4 2499.49 102.322  10
  -1   6  -4 395.430 17.7755   8
  -1   6  -4 373.019 17.1768   6
   1  -6   4 375.053 17.5851  10
   1  -6   4 388.084 17.1705   3
  -2   6  -4 37.5474 3.89482   8
  -2   6  -4 38.2265 3.31864   6
   2  -6   4 38.3034 3.33675   3
   2  -6   4 37.6583 3.85849   2
  -3   6  -4 111.197 6.66230   8
  -3   6  -4 119.334 6.09950   6
   3  -6   4 95.6889 6.60566   2
   3  -6   4 114.198 5.88360   3
   3  -6   4 114.086 7.86974   5
  -4   6  -4 93.3927 5.15775   6
  -4   6  -4 94.7402 5.75437   8
   4  -6   4 83.2453 5.31067   2
   4  -6   4 88.1127 6.66865   5
  -5   6  -4 25.3487 2.85623   6
   5  -6   4 28.5109 3.61165   5
   5  -6   4 30.6408 2.81272   2
   7   5  -4 473.532 21.5097  11
   7   5  -4 489.632 21.2359   1
  -7  -5   4 495.974 20.9902   6
   6   5  -4 93.3587 6.14503  11
   6   5  -4 89.3438 5.42999   1
  -6  -5   4 80.0689 5.78198   8
  -6  -5   4 91.5784 5.14276   6
   5   5  -4 354.117 16.5302  11
   5   5  -4 356.187 15.7723   9
   5   5  -4 327.040 15.5304   1
  -5  -5   4 339.538 15.6378  10
  -5  -5   4 323.233 15.8082   8
  -5  -5   4 335.292 15.2715   6
   4   5  -4 648.390 30.1908   1
   4   5  -4 694.234 31.2692  11
   4   5  -4 719.008 30.3320   3
   4   5  -4 712.809 30.4272   9
  -4  -5   4 690.487 30.5452   8
  -4  -5   4 688.341 29.9363   6
  -4  -5   4 700.779 30.1683  10
   3   5  -4 35.7123 5.56392   8
   3   5  -4 39.5840 3.86641   9
   3   5  -4 26.2495 4.70775   1
   3   5  -4 38.9775 3.91138   3
  -3  -5   4 34.8938 3.30785   6
  -3  -5   4 41.1070 3.94125   8
  -3  -5   4 36.5083 3.64311  10
   2   5  -4 1238.33 53.1982   8
   2   5  -4 1210.66 52.8741   3
  -2  -5   4 1288.71 52.8980   8
  -2  -5   4 1206.57 52.5443  10
  -2  -5   4 1251.54 52.2620   6
  -2  -5   4 1205.65 52.7157   3
   1   5  -4 22.7369 3.76214   6
   1   5  -4 19.1915 2.85081   3
   1   5  -4 22.5586 3.99971   8
  -1  -5   4 20.9034 3.37954   3
  -1  -5   4 25.9302 3.95207  10
  -1  -5   4 24.5209 2.74976   6
  -1  -5   4 28.7352 3.59714   8
   0   5  -4 369.956 18.4370   3
   0   5  -4 363.904 19.8120   4
   0   5  -4 372.982 19.3061   8
   0  -5   4 406.909 17.7074  10
   0  -5   4 448.405 18.0061   8
  -1   5  -4 309.168 13.7841   8
  -1   5  -4 283.895 13.1345   6
   1  -5   4 281.091 13.0547   3
   1  -5   4 279.669 13.5821   8
   1  -5   4 281.502 13.3768   2
  -2   5  -4 68.5203 5.05644   8
  -2   5  -4 70.2513 4.22047   6
   2  -5   4 54.2138 4.80639   2
   2  -5   4 67.0271 4.19849   3
  -3   5  -4 7.92401 2.45656   8
  -3   5  -4 15.2926 2.66739   6
   3  -5   4 9.98193 2.69811   5
   3  -5   4 11.4943 2.16562   2
   3  -5   4 8.95380 1.80336   3
  -4   5  -4 148.190 7.38597   6
  -4   5  -4 135.706 8.33665   8
   4  -5   4 142.007 9.17024   5
   4  -5   4 139.995 7.48673   2
  -5   5  -4 34.0810 3.37054   6
   5  -5   4 33.0320 4.25017   5
   5  -5   4 42.1650 3.57663   2
   6  -5   4 357.675 15.3940   2
   6  -5   4 329.819 16.4748   5
   7   4  -4 20.4054 2.75224   1
   7   4  -4 16.7166 3.21840  11
  -7  -4   4 14.7645 2.04662   6
   6   4  -4 1163.38 55.0076   1
   6   4  -4 1439.72 54.6482  11
  -6  -4   4 1279.86 53.2509   6
  -6  -4   4 1131.96 53.5443   8
   5   4  -4 499.205 21.7682   1
   5   4  -4 489.598 21.4928   3
   5   4  -4 478.072 21.7453   9
   5   4  -4 490.138 22.5079  11
  -5  -4   4 473.324 21.9327   8
  -5  -4   4 470.799 21.7128  10
  -5  -4   4 501.730 21.4409   6
   4   4  -4 742.571 31.8371   9
   4   4  -4 715.672 32.4557  11
   4   4  -4 763.271 31.6692   3
   4   4  -4 705.018 31.6905   1
  -4  -4   4 714.087 31.9460   8
  -4  -4   4 721.031 31.3477   6
  -4  -4   4 732.611 31.5357  10
   3   4  -4 1421.27 61.8805   3
   3   4  -4 1394.04 62.1044   1
   3   4  -4 1562.77 61.9085   9
   3   4  -4 1413.03 61.8461   8
   2   4  -4 6809.63 247.076   9
   2   4  -4 4986.16 246.475   6
   2   4  -4 5769.08 246.843   3
   2   4  -4 5974.48 246.904   8
  -2  -4   4 5911.17 247.433   4
  -2  -4   4 5779.72 246.281   6
  -2  -4   4 5633.98 246.504  10
  -2  -4   4 6283.00 246.881   8
  -2  -4   4 5847.80 246.735   3
   1   4  -4 1210.62 52.6682   4
   1   4  -4 1137.63 51.6234   6
   1   4  -4 1177.31 51.9555   3
   1   4  -4 1216.74 51.9314   8
  -1  -4   4 1225.26 51.6567   3
  -1  -4   4 1201.15 51.5369  10
  -1  -4   4 1217.03 52.5049   4
  -1  -4   4 1211.47 51.2477   6
  -1  -4   4 1313.51 51.8617   8
   0   4  -4 1057.11 49.9728   3
   0   4  -4 1170.60 49.7614   8
   0   4  -4 1107.38 49.2998   6
   0   4  -4 1223.07 49.8977   4
   0  -4   4 1132.17 49.3293  10
   0  -4   4 1214.05 49.5620   8
   0  -4   4 1213.15 49.6826   2
   0  -4   4 1177.40 49.3217   3
   0  -4   4 1139.33 48.9581   6
  -1   4  -4 1291.62 56.2335   4
   1  -4   4 1285.32 55.8319  10
   1  -4   4 1289.61 55.5744   3
   1  -4   4 1319.87 55.9201   8
   1  -4   4 1372.52 56.0658   2
  -2   4  -4 45.3689 4.50237   8
  -2   4  -4 41.3694 3.73349   6
   2  -4   4 48.1460 3.77524   2
   2  -4   4 59.6685 6.37732  10
  -3   4  -4 1.78947 2.42052   8
   3  -4   4 0.15876 1.56045   3
   3  -4   4 -0.1101 1.92834   5
   3  -4   4 5.41243 2.66090  11
   3  -4   4 -1.0423 1.38806   2
  -4   4  -4 174.304 10.0199   8
  -4   4  -4 185.689 9.16102   6
   4  -4   4 177.358 8.90951   2
   4  -4   4 176.122 10.8757   5
   4  -4   4 184.486 9.71713  11
  -5   4  -4 296.659 12.8913   6
   5  -4   4 237.807 13.7403   2
   5  -4   4 268.179 16.6623   5
   5  -4   4 290.868 13.3434  11
  -6   4  -4 71.0373 5.21356   6
   6  -4   4 77.7945 6.27075   5
   6  -4   4 90.2348 4.85320   2
   8   3  -4 8.54272 1.94417  11
  -8  -3   4 6.80112 2.06493   6
   7   3  -4 2.60665 1.88496  11
   7   3  -4 3.82548 2.01819   1
  -7  -3   4 2.30865 1.81011   6
   6   3  -4 43.5804 4.60130  11
   6   3  -4 52.4788 4.06854   1
  -6  -3   4 43.4801 4.33432   6
   5   3  -4 4892.28 208.511  11
   5   3  -4 5021.09 207.644   3
   5   3  -4 4978.73 207.985   1
   5   3  -4 5023.52 207.936   9
  -5  -3   4 4797.16 207.937   8
  -5  -3   4 5002.72 207.536   6
   4   3  -4 -0.4049 1.99247   9
   4   3  -4 0.54208 1.50979   3
   4   3  -4 2.86673 2.16439   1
   4   3  -4 -0.1259 2.30202  11
  -4  -3   4 1.65881 1.87161   6
  -4  -3   4 -0.6138 2.22612   8
   3   3  -4 632.884 28.9402   1
   3   3  -4 672.912 28.9377   3
   3   3  -4 680.225 29.0866   9
   3   3  -4 641.354 29.6345  11
   3   3  -4 633.440 29.4005   8
  -3  -3   4 678.272 29.8435   4
  -3  -3   4 703.658 31.1803   8
  -3  -3   4 681.734 28.8517  10
   2   3  -4 341.330 16.4052   3
   2   3  -4 354.277 16.5306   8
   2   3  -4 374.706 16.4854   9
  -2  -3   4 398.641 16.5687   8
  -2  -3   4 372.068 16.2272  10
  -2  -3   4 370.929 16.8443   4
  -2  -3   4 352.826 15.9366   6
  -2  -3   4 328.575 17.2345   7
   1   3  -4 19.1758 3.27847   7
   1   3  -4 19.0996 2.76196   8
   1   3  -4 18.7504 2.54678   4
   1   3  -4 17.7821 2.87989   6
  -1  -3   4 19.5291 3.51021   8
  -1  -3   4 22.7228 3.41499  10
  -1  -3   4 17.7868 2.88461   6
  -1  -3   4 14.0816 2.59279   7
  -1  -3   4 22.5845 2.91095   4
   0   3  -4 2913.92 125.009   4
   0   3  -4 3017.00 124.552   8
   0   3  -4 3011.88 124.597   7
   0   3  -4 3054.49 124.359   4
   0   3  -4 2773.33 124.111   6
   0  -3   4 2986.87 124.132   3
   0  -3   4 2933.62 124.225  10
  -1   3  -4 108.069 6.20101   6
  -1   3  -4 119.983 7.02616   8
  -1   3  -4 107.771 6.23149   4
  -1   3  -4 107.741 7.50224   7
   1  -3   4 117.800 5.97291   3
   1  -3   4 111.443 6.89319  10
  -2   3  -4 423.611 18.6674   8
  -2   3  -4 410.758 18.2938   4
  -2   3  -4 412.226 18.1663   6
   2  -3   4 373.793 19.1267  10
   2  -3   4 386.882 17.6565   3
   2  -3   4 412.051 18.6523  11
  -3   3  -4 436.201 19.7864   8
   3  -3   4 363.977 17.9686   2
   3  -3   4 383.118 18.9020   5
   3  -3   4 359.627 17.4582  11
   3  -3   4 363.440 16.7267   3
   4  -3   4 1005.30 42.6722   2
   4  -3   4 1022.73 44.8691   5
   4  -3   4 946.157 42.7822  11
   5  -3   4 1211.08 52.1544   5
   5  -3   4 1177.82 49.8384   2
   5  -3   4 1098.56 49.8521  11
   6  -3   4 267.583 12.4519  11
   6  -3   4 255.573 14.3261   5
   6  -3   4 262.221 12.2328   2
   7  -3   4 384.611 19.9545   5
   7  -3   4 454.166 18.3936   2
   8   2  -4 159.951 7.96651  11
  -8  -2   4 173.096 8.11464   6
   7   2  -4 901.378 37.5053   1
   7   2  -4 842.523 37.5834  11
  -7  -2   4 858.517 37.0228   6
   6   2  -4 289.578 13.7298  11
   6   2  -4 292.562 13.3534   1
   6   2  -4 271.432 13.7582   2
  -6  -2   4 275.356 12.9922   6
  -6  -2   4 266.041 13.7502   8
   5   2  -4 2039.92 84.5526  11
   5   2  -4 1983.16 83.5851   3
   5   2  -4 1929.09 83.9687   1
   5   2  -4 2024.01 83.9099   9
  -5  -2   4 1996.89 84.0611   8
  -5  -2   4 1904.77 83.5005   6
   4   2  -4 792.098 36.7505   1
   4   2  -4 818.254 36.0333   9
   4   2  -4 859.664 36.4181  11
  -4  -2   4 803.831 35.8031   8
  -4  -2   4 853.425 35.4461   6
   3   2  -4 98.0053 6.05698   9
   3   2  -4 102.080 5.65195   3
   3   2  -4 107.237 7.53341  11
   3   2  -4 97.2756 5.92844   1
  -3  -2   4 89.6442 6.04359   8
  -3  -2   4 101.635 6.56684   4
  -3  -2   4 96.6949 6.44977  10
  -3  -2   4 89.3685 5.63621   6
   2   2  -4 1468.90 68.4691   9
   2   2  -4 1590.20 68.6035   3
   2   2  -4 1631.20 68.9924   7
  -2  -2   4 1609.32 68.7607   7
  -2  -2   4 1625.99 68.5861   4
  -2  -2   4 1581.74 68.7394   4
  -2  -2   4 1817.38 69.5246   8
   1   2  -4 78.2661 4.37890   4
   1   2  -4 65.8546 6.42119   4
   1   2  -4 70.4936 4.83704   7
  -1  -2   4 71.7740 4.60982   7
  -1  -2   4 73.2447 4.51729   4
  -1  -2   4 83.6968 5.28844   4
   0   2  -4 761.056 31.2676   4
   0   2  -4 725.365 31.8716   4
   0   2  -4 710.946 31.3164   7
   0  -2   4 710.746 31.3436   4
   0  -2   4 703.721 31.4753   4
   0  -2   4 763.125 31.2535   7
  -1   2  -4 2797.21 118.624   7
  -2   2  -4 7238.02 287.725   4
  -2   2  -4 7109.21 287.774   7
   2  -2   4 6863.27 287.705   2
   2  -2   4 6778.43 289.138   5
   2  -2   4 6391.42 287.385   3
  -3   2  -4 233.708 11.2985   4
   3  -2   4 230.182 10.9070   3
   3  -2   4 220.594 12.5783  11
   3  -2   4 247.061 12.6739   5
   3  -2   4 249.807 11.1284   2
   4  -2   4 199.701 11.1453   5
   4  -2   4 179.107 9.17805   2
   4  -2   4 191.079 12.3917  11
   5  -2   4 993.234 42.6931   5
   5  -2   4 863.359 40.6251  11
   5  -2   4 948.519 40.3700   2
   6  -2   4 23.6247 4.87641   5
   6  -2   4 25.2361 4.85758  11
   6  -2   4 25.3199 3.18614   2
   7  -2   4 201.112 9.45433   2
   8   1  -4 6.91011 1.96989  11
  -8  -1   4 9.53010 2.11823   6
   7   1  -4 27.6069 3.56311   1
   7   1  -4 27.6529 3.48035  11
  -7  -1   4 26.1150 4.02813   6
   6   1  -4 192.682 9.72469   1
   6   1  -4 172.450 10.1884   2
   6   1  -4 190.046 10.0940  11
  -6  -1   4 224.273 11.6900   6
  -6  -1   4 182.693 10.5862   8
   5   1  -4 420.831 18.8490   3
   5   1  -4 425.982 19.7560  11
   5   1  -4 435.571 19.3496   1
  -5  -1   4 419.761 19.4975   8
   4   1  -4 775.270 32.1601   3
   4   1  -4 758.065 32.4031   1
   4   1  -4 740.964 32.8587  11
   4   1  -4 749.242 32.3920   9
  -4  -1   4 701.275 32.4001   8
   3   1  -4 577.943 25.0872   1
   3   1  -4 564.533 25.1935   9
   3   1  -4 578.637 27.5677  11
   3   1  -4 588.640 24.9022   3
  -3  -1   4 612.609 25.1649   4
  -3  -1   4 531.720 25.0487   8
  -3  -1   4 583.297 25.9402   7
  -3  -1   4 538.641 24.7671   6
   2   1  -4 95.0813 5.39006   4
  -2  -1   4 98.9967 5.59548   7
  -2  -1   4 89.4947 5.77433   4
  -2  -1   4 97.3711 5.24583   4
   1   1  -4 451.547 20.5143   4
   1   1  -4 459.570 20.0595   4
  -1  -1   4 462.456 20.1898   4
  -1  -1   4 467.424 20.1376   7
  -1  -1   4 472.463 20.1460   4
   0   1  -4 853.383 41.1525   4
   0   1  -4 939.542 40.4791   7
   0   1  -4 989.948 40.5362   4
   0  -1   4 1003.47 40.4670   7
   0  -1   4 956.883 40.6242   4
   0  -1   4 992.199 40.6329   4
  -1   1  -4 1319.85 53.1880   4
  -1   1  -4 1202.42 54.5352   4
   1  -1   4 1210.84 53.2134   4
   1  -1   4 1303.59 53.2214   4
  -3   1  -4 307.143 13.6615   4
   3  -1   4 302.967 13.9435   2
   3  -1   4 315.892 15.5640   5
   4  -1   4 767.267 34.1385   5
   4  -1   4 728.546 32.4310   2
   5  -1   4 71.8068 4.44305   2
   5  -1   4 58.5012 6.17475  11
   5  -1   4 73.8417 6.28347   5
   6  -1   4 31.1282 2.96319   2
   6  -1   4 30.9991 5.14669   5
   6  -1   4 31.0330 5.28726  11
   7  -1   4 136.847 6.51048   2
   7  -1   4 126.766 7.39914  11
   7  -1   4 102.706 9.54040   5
   8  -1   4 574.744 24.5716   2
   8   0  -4 3.76257 3.40597   2
   8   0  -4 7.73141 2.05232  11
  -8   0   4 4.97763 2.03870   6
   7   0  -4 290.817 13.9167   1
   7   0  -4 299.553 13.9276  11
  -7   0   4 308.188 13.6715   6
   6   0  -4 -4.0599 2.46891   3
   6   0  -4 1.69042 2.26546   1
   6   0  -4 3.60902 2.24902  11
   6   0  -4 -0.8620 2.05407   2
  -6   0   4 0.91093 3.34946   8
   5   0  -4 5.14734 1.91906   3
   5   0  -4 5.65716 2.33439  11
  -5   0   4 3.52437 2.80240   6
  -5   0   4 5.38332 2.96325   8
   4   0  -4 825.398 35.6861   3
   4   0  -4 856.434 36.0571   1
   4   0  -4 814.518 36.3852  11
   3   0  -4 3726.00 158.049   3
   3   0  -4 3784.31 158.246   1
  -3   0   4 3851.39 158.836   7
  -3   0   4 3906.65 158.229   4
  -3   0   4 3573.38 158.231   8
   2   0  -4 2847.64 117.644   4
  -2   0   4 2874.48 117.881   7
  -2   0   4 2770.62 117.706   4
  -2   0   4 2709.87 117.608   4
   1   0  -4 9152.15 389.955   4
   1   0  -4 9211.70 389.415   4
  -1   0   4 9596.42 389.508   4
   0   0  -4 1124.01 46.8755   4
   0   0  -4 1060.86 47.0448   4
   0   0   4 1153.91 46.9164   4
   0   0   4 1102.36 46.9142   4
  -1   0  -4 386.556 17.1378   4
  -1   0  -4 438.013 16.9435   4
   1   0   4 342.455 16.8656   4
   1   0   4 405.449 16.9871   4
  -2   0  -4 6393.63 265.966   4
  -2   0  -4 6334.91 266.168   4
  -3   0  -4 561.447 22.9730   4
   3   0   4 545.133 24.9300   5
   3   0   4 511.480 23.4755   2
   4   0   4 52.2610 5.11274   5
   4   0   4 53.6540 6.54016   9
   4   0   4 50.4185 3.55637   2
   5   0   4 716.266 33.1052  11
   5   0   4 779.262 34.6872   5
   5   0   4 761.444 32.6513   2
   6   0   4 1718.43 71.8788   5
   6   0   4 1669.89 69.4793   2
   6   0   4 1514.23 69.7944  11
   7   0   4 17.8674 3.53970  11
   7   0   4 24.6605 2.72761   2
   8   0   4 132.118 6.52470   2
   8  -1  -4 95.9495 5.16355   2
   7  -1  -4 208.444 10.2766  11
   7  -1  -4 195.160 10.3816   2
  -7   1   4 222.490 9.93951   6
   6  -1  -4 73.2191 5.34692   2
   6  -1  -4 67.0132 5.49428   1
   6  -1  -4 72.2518 5.44354  11
  -6   1   4 78.2379 5.35467   6
  -6   1   4 65.2557 6.86668   8
   5  -1  -4 26.0296 4.32543  11
   5  -1  -4 28.0837 4.01171   1
   5  -1  -4 21.1018 3.45073   3
  -5   1   4 30.6854 4.15748   8
   4  -1  -4 164.979 8.88650  11
   4  -1  -4 146.290 8.28341   1
   4  -1  -4 146.190 7.75313   3
  -4   1   4 163.395 9.53577   8
   3  -1  -4 607.220 26.1437   1
   3  -1  -4 602.388 25.8249   3
  -3   1   4 562.638 26.0867   6
  -3   1   4 610.276 25.9045   4
  -3   1   4 589.475 26.2233   8
  -3   1   4 597.602 26.7715   7
   2  -1  -4 4.85330 1.73105   4
  -2   1   4 9.69406 1.63295   7
  -2   1   4 7.66550 1.99187   4
  -2   1   4 6.33078 1.26416   4
   1  -1  -4 609.040 26.4447   4
  -1   1   4 614.373 26.4278   4
  -1   1   4 608.746 26.4907   4
  -1   1   4 642.348 26.4805   7
   0  -1  -4 9.35467 1.48506   4
   0  -1  -4 5.61738 1.18690   4
   0   1   4 8.15922 1.30319   4
  -1  -1  -4 1257.72 51.7964   4
  -1  -1  -4 1205.75 51.9220   4
   1   1   4 1228.48 51.8051   4
  -2  -1  -4 251.770 10.5678   4
  -2  -1  -4 233.006 10.7411   4
   4   1   4 269.845 13.9535   9
   4   1   4 251.273 14.0013  11
   4   1   4 251.572 12.0336   2
   4   1   4 274.385 13.7317   5
   5   1   4 49.0774 5.41385   5
   5   1   4 51.0874 3.75609   2
   6   1   4 390.192 16.9809   2
   6   1   4 343.267 17.4605  11
   6   1   4 390.809 19.3044   5
   7   1   4 412.962 17.2875   2
   7   1   4 357.045 17.9012  11
   8   1   4 168.566 8.08864   2
   7  -2  -4 89.8824 5.24336   2
   7  -2  -4 80.9856 5.48394  11
  -7   2   4 89.0485 5.09195   6
   6  -2  -4 882.386 37.1963   2
   6  -2  -4 884.383 36.8941  11
  -6   2   4 764.772 37.0242   8
  -6   2   4 840.879 37.2855   6
   5  -2  -4 1161.27 50.5371   2
   5  -2  -4 1122.94 50.0506   1
   5  -2  -4 1171.87 49.4640   3
   5  -2  -4 1199.94 50.3100  11
  -5   2   4 1165.46 49.6965   6
  -5   2   4 1162.96 50.4251   8
   4  -2  -4 585.801 29.0421   1
   4  -2  -4 673.710 28.2489  11
  -4   2   4 640.058 28.1344   8
  -4   2   4 635.786 27.5626   6
   3  -2  -4 7067.86 291.464   1
   3  -2  -4 6690.83 291.055   3
   3  -2  -4 7400.31 291.798  11
  -3   2   4 6480.34 290.953   6
  -3   2   4 6816.06 292.100   7
  -3   2   4 7039.71 291.362   4
  -3   2   4 7216.68 291.499   8
   2  -2  -4 2159.08 91.4769   4
  -2   2   4 2231.49 91.7140   7
  -2   2   4 2190.30 91.3477   4
  -2   2   4 2101.79 91.5160   4
   1  -2  -4 941.627 42.6754   4
   1  -2  -4 1035.69 42.5766   4
  -1   2   4 1010.89 42.5915   4
  -1   2   4 1025.08 42.5655   7
  -1   2   4 999.806 42.4559   4
   0  -2  -4 9.15882 1.24465   4
   0  -2  -4 7.11883 1.45735   4
   0   2   4 7.52968 1.12460   4
   0   2   4 6.51348 1.22403   4
  -1  -2  -4 300.853 12.7921   4
  -1  -2  -4 285.929 12.8696   4
   1   2   4 296.183 12.8124   4
  -2  -2  -4 1486.32 62.2520   4
  -2  -2  -4 1478.59 62.3523   4
   4   2   4 1523.56 65.0779   2
   4   2   4 1535.41 65.6802   1
   4   2   4 1582.38 65.9546   9
   4   2   4 1503.95 66.6734   5
   5   2   4 1206.69 51.9250   2
   5   2   4 1158.65 51.7955   1
   5   2   4 1177.13 51.8428  11
   5   2   4 1262.31 53.3344   5
   6   2   4 15.0256 3.81084   9
   7   2   4 263.512 12.1894   2
   7  -3  -4 31.5953 3.48815  11
   7  -3  -4 24.2260 2.59074   2
  -7   3   4 27.6156 2.98902   6
   6  -3  -4 460.141 20.0631   2
   6  -3  -4 435.777 20.0768  11
  -6   3   4 473.173 19.5325   6
  -6   3   4 377.372 20.1511   8
   5  -3  -4 1167.38 49.1641   2
   5  -3  -4 1133.20 48.9016  11
   5  -3  -4 1107.17 48.0657   3
  -5   3   4 1145.01 48.3388   6
  -5   3   4 1099.55 49.3274   8
   4  -3  -4 167.746 8.31637   3
   4  -3  -4 165.434 9.17857  11
  -4   3   4 168.536 9.26218   8
  -4   3   4 167.920 8.55346   6
   3  -3  -4 616.210 28.3662   1
   3  -3  -4 658.945 28.0072   3
  -3   3   4 647.879 28.2547   4
  -3   3   4 642.472 27.8597   6
  -3   3   4 654.738 28.3766   8
  -2   3   4 253.312 12.4896   4
  -2   3   4 254.978 11.6688   4
   1  -3  -4 762.192 33.1154   4
   1  -3  -4 791.775 32.9214   4
  -1   3   4 759.117 32.9337   4
  -1   3   4 757.070 32.7137   4
   0  -3  -4 597.275 23.4165   4
   0   3   4 549.127 23.2470   4
   0   3   4 480.201 24.3147   4
  -1  -3  -4 244.986 10.9721   4
  -1  -3  -4 253.348 11.1115   4
   1   3   4 255.739 11.0445   4
   1   3   4 239.426 10.8949   4
  -2  -3  -4 16.7523 1.82107   4
   2   3   4 16.4806 2.04527   4
   2   3   4 15.3172 2.34890   4
   4   3   4 2984.44 123.927   1
   4   3   4 2860.90 123.314   2
   4   3   4 3000.16 124.064   9
   4   3   4 2884.30 125.006   5
   5   3   4 115.187 7.09833   1
   5   3   4 120.591 7.69719   9
   5   3   4 107.191 8.28574   5
   5   3   4 96.3327 7.66105  11
   5   3   4 120.303 6.44992   2
   6   3   4 712.402 30.2985   9
   6   3   4 658.425 29.8197   1
   6   3   4 674.343 31.8061   5
   6   3   4 654.536 30.0664  11
   7  -4  -4 4.36862 1.80588  11
   7  -4  -4 3.72153 1.19098   2
   6  -4  -4 355.834 17.4538  11
   6  -4  -4 402.490 17.4604   2
  -6   4   4 383.709 16.9853   6
   5  -4  -4 432.992 19.3137   2
   5  -4  -4 412.350 18.4706   3
   5  -4  -4 431.786 19.5744  11
  -5   4   4 400.601 19.4981   8
  -5   4   4 414.435 18.7174   6
   4  -4  -4 94.7060 5.96381   2
   4  -4  -4 89.6421 6.78530  11
   4  -4  -4 101.767 5.61594   3
  -4   4   4 94.5131 5.71451   6
  -4   4   4 103.136 6.65681   8
   3  -4  -4 26.6107 3.08815   3
  -3   4   4 20.1375 4.14725   4
  -3   4   4 20.3474 3.89355   8
  -3   4   4 20.3011 3.21902   6
   2  -4  -4 4557.28 190.462   3
   2  -4  -4 4720.08 190.737   8
  -2   4   4 4431.09 190.369   6
  -2   4   4 4765.12 190.972   8
  -2   4   4 4254.69 190.617   4
   1  -4  -4 4391.59 183.988   4
   1  -4  -4 4442.85 183.793   4
  -1   4   4 4302.92 183.527   4
   0  -4  -4 796.213 33.4156   4
   0  -4  -4 785.644 33.4971   4
   0   4   4 789.240 33.1698   7
   0   4   4 741.022 33.1381   4
  -1  -4  -4 4731.42 196.404   4
  -1  -4  -4 4722.07 196.347   4
   1   4   4 4687.02 196.247   4
   1   4   4 4615.24 196.373   4
  -2  -4  -4 3374.04 146.487   4
  -2  -4  -4 3618.24 146.601   4
  -3  -4  -4 916.643 39.2082   4
  -3  -4  -4 957.372 39.2345   4
   3   4   4 900.881 40.0262   9
   3   4   4 945.839 40.3072   1
   3   4   4 888.635 41.1813   5
   4   4   4 451.081 21.9750   5
   5   4   4 162.722 10.2524  11
   5   4   4 174.408 9.62667   9
   5   4   4 171.487 9.39889   1
   5   4   4 172.135 10.9136   5
   6   4   4 88.6824 6.13959   1
   6   4   4 91.9615 6.56934   9
   6   4   4 75.0943 8.28038   5
   7   4   4 12.7071 3.37501   9
   7   4   4 4.28574 2.78238   1
   8   4   4 6.06448 3.16920   1
   6  -5  -4 167.009 8.71386  11
   6  -5  -4 187.074 8.56944   2
  -6   5   4 195.568 8.37747   6
  -6   5   4 149.167 8.97730   8
   5  -5  -4 39.7566 3.51755   3
   5  -5  -4 28.3054 4.62636  11
   5  -5  -4 37.9437 3.51167   2
  -5   5   4 36.0654 3.50058   6
  -5   5   4 28.1138 4.69234   8
   4  -5  -4 2.84264 2.81663  11
   4  -5  -4 1.96661 1.70253   3
   4  -5  -4 4.45390 1.70400   2
  -4   5   4 4.15271 1.67035   6
  -4   5   4 4.48312 2.35745   8
   3  -5  -4 1062.18 48.0962  11
   3  -5  -4 1106.39 47.3463   3
   3  -5  -4 1139.83 47.8404   2
  -3   5   4 1134.28 48.0976   8
  -3   5   4 1106.44 47.3370   6
   2  -5  -4 231.685 10.7444   3
   2  -5  -4 210.256 11.9121  11
   2  -5  -4 237.140 11.1184   8
  -2   5   4 219.361 13.1780   3
  -2   5   4 218.464 11.6015   4
  -2   5   4 228.141 10.5367   6
  -2   5   4 234.683 11.3235   8
   1  -5  -4 2378.13 99.7405   3
   1  -5  -4 2427.33 99.9205   8
   1  -5  -4 2354.22 100.304   4
   1  -5  -4 2280.22 99.3904   6
  -1   5   4 2294.33 100.314   3
  -1   5   4 2363.83 99.9270   4
  -1   5   4 2314.19 99.5553   6
  -1   5   4 2534.94 100.250   8
   0  -5  -4 1435.49 59.2620   4
   0  -5  -4 1386.47 59.3478   4
   0   5   4 1396.15 59.0254   7
   0   5   4 1342.32 58.9181   4
  -1  -5  -4 217.092 11.5757   4
  -1  -5  -4 247.239 11.2271   4
   1   5   4 242.116 11.8644   7
  -2  -5  -4 245.397 10.9604   4
  -2  -5  -4 231.536 11.0648   4
   2   5   4 215.056 12.8311   5
  -3  -5  -4 947.286 39.3556   4
   3   5   4 918.854 40.0012   1
   3   5   4 887.566 39.4685   3
   3   5   4 915.860 41.2082   5
   3   5   4 906.642 39.7245   9
   4   5   4 453.722 21.0465   9
   4   5   4 473.034 22.6443   5
   4   5   4 457.088 21.8034  11
   5   5   4 119.663 9.20166   5
   5   5   4 118.877 8.13840  11
   5   5   4 123.597 7.50382   9
   7   5   4 772.407 34.2952   1
   7   5   4 785.340 34.4720   9
   8   5   4 1088.25 46.0633   9
   8   5   4 1063.69 45.9371   1
   6  -6  -4 73.8152 4.47451  11
   6  -6  -4 71.6670 4.08329   2
  -6   6   4 82.6385 4.07707   6
   5  -6  -4 155.866 7.30074   3
   5  -6  -4 134.499 7.82881  11
   5  -6  -4 148.479 7.57157   2
  -5   6   4 147.447 8.18035   8
  -5   6   4 154.537 7.37372   6
   4  -6  -4 2673.44 111.290   3
   4  -6  -4 2618.19 111.713  11
   4  -6  -4 2600.11 111.666   2
  -4   6   4 2684.42 112.209   8
  -4   6   4 2640.58 111.336   6
   3  -6  -4 48.9920 3.76549   3
   3  -6  -4 38.4222 5.09364  11
  -3   6   4 50.2463 3.70789   6
  -3   6   4 50.4448 4.70540   8
   2  -6  -4 1336.13 56.8858   3
   2  -6  -4 1396.85 57.1695   8
   2  -6  -4 1357.48 57.2492  11
   2  -6  -4 1287.61 57.1076   2
  -2   6   4 1296.55 57.9013   3
  -2   6   4 1363.06 57.5208   8
  -2   6   4 1323.21 56.7362   6
   1  -6  -4 3304.93 126.776   8
   1  -6  -4 3039.86 125.869   6
   1  -6  -4 2606.58 126.162  11
  -1   6   4 2963.07 126.023   6
  -1   6   4 2950.46 126.726   4
  -1   6   4 3184.72 126.802   8
  -1   6   4 2963.71 126.830   3
   0  -6  -4 1804.66 76.7281   4
   0  -6  -4 1808.18 75.6792   6
   0  -6  -4 1810.77 77.4852   3
   0  -6  -4 1787.88 76.1343   8
   0   6   4 1845.59 76.4959   8
   0   6   4 1704.08 76.3737   3
   0   6   4 1785.75 75.7367   6
   0   6   4 1836.60 77.0876   7
  -1  -6  -4 95.9220 5.79750   8
  -1  -6  -4 88.4605 5.06451   6
  -1  -6  -4 81.6327 6.58515   4
   1   6   4 95.4922 6.07587   3
   1   6   4 90.3764 7.20033   8
   1   6   4 101.082 9.78154   7
  -2  -6  -4 1618.45 66.0428   4
  -2  -6  -4 1575.72 65.7582   8
  -2  -6  -4 1455.54 65.2430   6
   2   6   4 1601.36 67.8406   5
   2   6   4 1581.29 65.7455   3
   2   6   4 1480.49 65.8933   9
   2   6   4 1505.77 66.6151   7
  -3  -6  -4 273.250 14.4796   8
  -3  -6  -4 294.160 14.5222   4
   3   6   4 284.642 14.0475   1
   3   6   4 280.443 13.8222   3
   3   6   4 314.676 16.8511   5
   4   6   4 6.76644 3.44250  11
   4   6   4 0.56579 2.22239   9
   4   6   4 -0.4008 3.37206   3
   5   6   4 459.291 23.2919  11
   5   6   4 515.317 23.2462   9
   5   6   4 523.233 25.1769   5
   5   6   4 536.931 23.6165   1
   7   6   4 208.770 10.5992   1
   7   6   4 194.537 10.5185   9
   8   6   4 43.5355 4.90313   9
   8   6   4 47.8573 4.12076   1
  -6   7   4 39.7708 2.53059   6
   5  -7  -4 29.8365 2.78180   3
   5  -7  -4 24.7473 2.64669   2
   5  -7  -4 20.5410 3.12749  11
  -5   7   4 25.8073 2.41504   6
  -5   7   4 22.7795 3.30730   8
   4  -7  -4 632.554 26.5125   3
   4  -7  -4 578.311 25.8965   2
   4  -7  -4 573.213 26.8104  11
  -4   7   4 588.682 25.9569   6
   3  -7  -4 93.6816 5.97581   2
   3  -7  -4 85.1016 6.08791  11
   3  -7  -4 95.1759 5.49500   3
  -3   7   4 99.1221 5.23286   6
  -3   7   4 93.9921 6.16245   8
   2  -7  -4 648.861 30.2256  11
   2  -7  -4 702.367 30.1621   3
   2  -7  -4 701.398 30.3464   8
  -2   7   4 725.799 30.9018   8
  -2   7   4 673.435 31.3057   3
  -2   7   4 709.374 29.9347   6
   1  -7  -4 226.394 10.8057   3
   1  -7  -4 222.223 10.9158   8
  -1   7   4 232.661 11.2952   8
  -1   7   4 212.548 10.2428   6
   0  -7  -4 503.226 24.9943   4
   0  -7  -4 503.165 21.4850   6
   0  -7  -4 502.356 22.0735   8
   0  -7  -4 477.617 22.0137   3
   0   7   4 503.891 22.3760   8
   0   7   4 499.513 21.4808   6
   0   7   4 475.319 22.3514   3
  -1  -7  -4 15.9039 2.59874   6
  -1  -7  -4 25.0573 3.48218   8
  -1  -7  -4 16.2152 5.01754   4
  -1  -7  -4 24.7474 4.77889   3
   1   7   4 24.5016 3.79925   3
   1   7   4 22.3188 3.32412   8
   1   7   4 28.8632 4.91988   5
  -2  -7  -4 6.43710 5.02396   4
  -2  -7  -4 7.68690 2.40917   8
   2   7   4 14.2955 3.28264   9
   2   7   4 17.8675 4.26147   5
   2   7   4 12.1875 2.72419   1
  -3  -7  -4 694.104 30.6486   8
  -3  -7  -4 687.324 30.0402   6
   3   7   4 709.860 32.9366   5
   4   7   4 132.736 8.23638   1
   4   7   4 133.710 9.65715   5
   4   7   4 139.444 8.40588   3
   4   7   4 153.336 9.25815  11
   4   7   4 143.965 7.95691   9
   5   7   4 318.016 15.2381   9
   5   7   4 322.598 15.5541   1
   5   7   4 311.585 17.1702   5
   6   7   4 832.092 36.9847   9
   6   7   4 850.666 37.2772   1
   7   7   4 205.856 10.5515   1
   7   7   4 206.757 10.4246   9
   8   7   4 8.59088 2.24279   1
   8   7   4 7.06448 2.35277   9
  -5   8   4 241.095 10.4151   6
  -5   8   4 230.860 11.1192   8
   4  -8  -4 759.859 32.7498   3
  -4   8   4 769.612 33.4429   8
  -4   8   4 765.189 32.6739   6
   3  -8  -4 1449.30 61.7171   3
  -3   8   4 1491.11 61.5779   6
  -3   8   4 1420.29 62.3926   8
   2  -8  -4 25.5634 3.73347   8
   2  -8  -4 31.5390 3.34055   3
  -2   8   4 26.4417 2.59337   6
  -2   8   4 23.6539 3.43456   8
  -2   8   4 22.2835 4.38441   3
   1  -8  -4 2.01510 1.93757   3
   1  -8  -4 -0.9991 1.89154   8
   1  -8  -4 0.11671 2.35869   6
  -1   8   4 3.28144 1.92635   8
  -1   8   4 4.97252 2.56117   3
   0  -8  -4 470.597 20.8258   6
   0  -8  -4 473.187 21.4498   8
   0  -8  -4 485.632 21.4975   3
   0   8   4 483.202 21.7717   8
   0   8   4 488.732 21.9603   3
   0   8   4 472.618 20.7424   6
  -1  -8  -4 31.5445 2.81093   6
  -1  -8  -4 31.8737 3.65190   8
   1   8   4 29.6159 4.49845   8
   1   8   4 33.5763 4.08111   3
   1   8   4 28.7521 4.30054   1
  -2  -8  -4 1565.80 67.0832   6
  -2  -8  -4 1607.86 67.6685   8
   2   8   4 1538.52 67.7845   3
   2   8   4 1536.78 67.8862   1
   2   8   4 1689.47 70.5046   5
  -3  -8  -4 2674.79 113.535   6
  -3  -8  -4 2685.95 114.056   8
   3   8   4 2579.87 114.148   9
   3   8   4 2722.29 114.448   1
   3   8   4 2654.76 114.161   3
   3   8   4 2886.38 116.908   5
  -4  -8  -4 1605.63 68.1681   6
  -4  -8  -4 1576.52 68.9335   8
   4   8   4 1516.57 68.5618   3
   4   8   4 1597.32 68.8481   9
   4   8   4 1682.48 69.4128  11
   4   8   4 1617.34 69.1657   1
   4   8   4 1674.57 71.1278   5
  -5  -8  -4 16.4368 3.02963   6
   5   8   4 18.5710 2.88539   9
   5   8   4 14.8417 4.25388   5
   5   8   4 19.5524 3.33154   1
   6   8   4 356.788 17.0181   1
   6   8   4 363.518 16.7912   9
   7   8   4 70.7431 4.86487   1
   7   8   4 75.9043 4.74137   9
   4  -9  -4 62.6043 3.54304   3
  -4   9   4 61.8075 3.97448   8
  -4   9   4 57.6170 3.38317   6
   3  -9  -4 98.5738 5.50868   3
  -3   9   4 105.012 5.99171   8
  -3   9   4 99.0671 5.15727   6
   2  -9  -4 139.705 7.36390   3
  -2   9   4 136.455 7.03369   6
  -2   9   4 141.355 7.83146   8
  -2   9   4 157.409 9.61878   3
   1  -9  -4 477.358 21.5809   8
   1  -9  -4 460.734 21.1484   3
  -1   9   4 470.612 20.5962   6
  -1   9   4 493.715 21.6983   8
  -1   9   4 479.025 22.0235   3
   0  -9  -4 1052.76 43.6336   6
   0  -9  -4 1034.53 44.1790   3
   0   9   4 1002.26 44.7149   3
   0   9   4 1016.08 44.4877   8
  -1  -9  -4 142.502 9.07483   3
  -1  -9  -4 156.252 7.38004   6
   1   9   4 157.041 8.47199   8
   1   9   4 146.010 8.35781   3
  -2  -9  -4 101.408 5.29151   6
   2   9   4 89.5703 6.08244   3
   2   9   4 91.4841 6.46131   1
  -3  -9  -4 407.023 19.1216   8
  -3  -9  -4 428.589 18.2675   6
   3   9   4 410.229 18.9108   3
   3   9   4 416.112 19.1102   1
   3   9   4 395.801 18.8452   9
  -4  -9  -4 626.223 26.7248   6
  -4  -9  -4 614.816 27.6626   8
   4   9   4 616.250 27.4583   1
   4   9   4 620.437 27.3301   9
   4   9   4 602.541 27.2408   3
  -5  -9  -4 266.117 14.2787   8
  -5  -9  -4 279.612 12.6303   6
  -6  -9  -4 3.37152 2.57016   6
   6   9   4 2.72220 1.70532   9
   6   9   4 -1.0050 2.54750  11
   6   9   4 6.07845 2.09452   1
   7   9   4 51.8721 3.70782   9
   7   9   4 48.3235 3.51525   1
   3 -10  -4 443.858 19.0464   3
  -3  10   4 435.679 19.4021   8
   2 -10  -4 898.574 39.0461   3
  -2  10   4 962.620 40.0243   3
  -2  10   4 879.543 39.4069   8
   1 -10  -4 921.859 40.7912   8
   1 -10  -4 951.966 40.5944   3
  -1  10   4 964.554 40.9724   8
  -1  10   4 941.138 41.1792   3
   0 -10  -4 921.869 38.6258   3
   0 -10  -4 877.856 38.8304   8
   0  10   4 869.310 38.6824   8
   0  10   4 902.341 39.0895   3
  -1 -10  -4 2502.48 105.006   8
  -1 -10  -4 2437.89 104.607   3
  -1 -10  -4 2512.61 104.095   6
   1  10   4 2452.81 105.001   3
  -2 -10  -4 164.872 8.76926   8
  -2 -10  -4 159.415 7.70744   6
   2  10   4 151.200 8.41442   3
  -3 -10  -4 551.119 23.3709   6
  -3 -10  -4 544.199 24.2062   8
   3  10   4 514.088 23.8701   3
  -4 -10  -4 73.1076 5.78520   8
  -4 -10  -4 77.5862 4.62826   6
   4  10   4 70.3063 5.23751   3
   4  10   4 74.8383 5.01247   9
   4  10   4 70.3662 5.05456   1
  -5 -10  -4 50.5657 3.75745   6
  -5 -10  -4 45.4413 5.63336   8
   5  10   4 47.5159 3.78573   9
   5  10   4 49.3758 3.81060   1
  -6 -10  -4 24.7231 3.24565   6
   6  10   4 19.8476 2.63781   9
   6  10   4 23.5429 2.60604   1
   7  10   4 40.1647 2.83626   9
   7  10   4 40.2037 2.88501   1
   2 -11  -4 342.293 14.6373   3
  -2  11   4 323.569 14.7402   8
   1 -11  -4 191.721 9.11954   3
  -1  11   4 192.182 9.20852   8
  -1  11   4 194.606 9.82382   3
   0 -11  -4 2.44211 2.02551   3
   0 -11  -4 2.34701 2.05916   8
   0  11   4 3.07281 2.06066   3
   0  11   4 3.82709 1.89027   8
  -1 -11  -4 35.6697 5.28241   3
  -1 -11  -4 37.8608 3.28015   6
  -1 -11  -4 38.8891 3.90074   8
   1  11   4 42.3254 3.89458   3
  -2 -11  -4 380.911 16.8220   6
  -2 -11  -4 377.214 17.6479   8
   2  11   4 397.801 17.5727   3
  -3 -11  -4 452.917 20.7831   8
  -3 -11  -4 463.305 20.1024   6
   3  11   4 471.487 20.5785   3
  -4 -11  -4 2.70058 1.30164   6
  -4 -11  -4 2.53867 2.27329   8
   4  11   4 0.25804 2.33062  11
   4  11   4 1.75532 2.54859   1
   4  11   4 5.00727 1.81963   3
  -5 -11  -4 1.75418 1.38688   6
  -5 -11  -4 -1.9083 4.95843   8
   5  11   4 1.57726 2.15353   1
   5  11   4 3.11399 2.59739   9
  -6 -11  -4 3.29312 1.42981   6
   6  11   4 8.01999 1.74622   9
   1 -12  -4 544.577 23.2420   3
  -1  12   4 542.187 23.5631   3
   0 -12  -4 1.84514 1.98703   8
   0 -12  -4 0.99823 1.89911   3
   0  12   4 -0.4677 1.63368   3
  -1 -12  -4 29.4392 2.99360   8
  -1 -12  -4 25.0303 4.45233   3
   1  12   4 27.8426 3.08092   3
  -2 -12  -4 263.521 12.3932   8
   2  12   4 275.776 12.3242   3
  -3 -12  -4 213.903 10.4854   8
  -3 -12  -4 219.788 9.93895   6
   3  12   4 240.629 10.2855   3
  -4 -12  -4 577.498 23.4554   6
  -4 -12  -4 523.656 23.8878   8
   4   9  -5 330.979 15.1844  11
  -4  -9   5 311.019 14.5212   8
  -4  -9   5 355.785 14.5771  10
   3   9  -5 279.940 12.1222   3
   3   9  -5 265.833 12.4593  11
  -3  -9   5 275.545 12.0925  10
  -3  -9   5 257.490 12.0416   8
   2   9  -5 68.2135 5.03628  11
   2   9  -5 68.7207 4.32156   3
  -2  -9   5 74.5915 4.30637  10
  -2  -9   5 70.4947 4.18672   8
  -2  -9   5 72.1171 4.69758   3
   1   9  -5 375.504 17.6807   3
   1   9  -5 403.271 17.5694   8
  -1  -9   5 401.964 17.5752   3
  -1  -9   5 417.551 17.6474  10
   0   9  -5 393.822 17.9906   3
   0   9  -5 396.969 17.5987   8
   0  -9   5 412.050 18.0552  10
   0  -9   5 398.359 17.4714   3
  -1   9  -5 78.8905 4.31575   8
   1  -9   5 75.7586 4.10274   3
  -2   9  -5 266.726 10.3366   8
   2  -9   5 192.227 10.0219   3
   5   8  -5 135.272 6.88377  11
   5   8  -5 133.897 6.38140   3
  -5  -8   5 143.956 6.61964  10
  -5  -8   5 118.388 6.41211   8
  -5  -8   5 132.814 6.09805   6
   4   8  -5 343.885 14.8452   3
   4   8  -5 323.978 15.2498  11
  -4  -8   5 320.184 14.9112   8
  -4  -8   5 347.636 14.4268   6
  -4  -8   5 328.866 14.7843  10
   3   8  -5 48.3061 4.61464  11
   3   8  -5 49.4989 3.69975   3
  -3  -8   5 47.5458 3.62613   8
  -3  -8   5 38.4205 5.42400   3
  -3  -8   5 47.1964 3.57682  10
   2   8  -5 186.824 8.98939   8
   2   8  -5 172.038 8.92439   3
  -2  -8   5 180.420 8.77298  10
  -2  -8   5 173.127 8.97130   3
  -2  -8   5 182.335 8.82959   8
   1   8  -5 533.338 23.6067   8
   1   8  -5 533.110 23.7797   3
  -1  -8   5 521.087 23.4791   8
  -1  -8   5 563.584 23.5565  10
  -1  -8   5 526.132 23.4370   3
   0   8  -5 385.893 17.6582   3
   0   8  -5 370.607 17.2067   8
   0  -8   5 399.304 17.2618  10
   0  -8   5 366.378 16.9014   3
  -1   8  -5 11.0845 2.45990   6
  -1   8  -5 6.67987 1.74123   8
   1  -8   5 4.95852 2.23660   5
   1  -8   5 7.64648 1.42811   3
  -2   8  -5 82.6743 4.98395   6
  -2   8  -5 74.4079 4.57722   8
   2  -8   5 74.7044 4.21999   3
   2  -8   5 78.8412 5.30418   5
  -3   8  -5 402.012 17.2557   8
   3  -8   5 383.958 17.9103   5
   6   7  -5 333.478 15.2016  11
  -6  -7   5 300.247 15.0057   8
  -6  -7   5 394.434 14.8392   6
   5   7  -5 132.474 6.57628   3
   5   7  -5 120.649 6.97829  11
  -5  -7   5 131.176 6.63250  10
  -5  -7   5 137.105 6.15459   6
  -5  -7   5 116.923 6.53961   8
   4   7  -5 83.1989 4.90063   3
   4   7  -5 77.4592 5.65986  11
  -4  -7   5 81.4221 4.34037   6
  -4  -7   5 78.6167 4.86104  10
  -4  -7   5 76.9415 4.97325   8
   3   7  -5 333.605 16.5021   3
  -3  -7   5 298.998 14.4555  10
  -3  -7   5 279.599 14.6174   3
  -3  -7   5 315.235 14.7551   8
   2   7  -5 108.246 6.62333   8
   2   7  -5 111.893 6.67086   3
  -2  -7   5 122.916 6.51245   8
  -2  -7   5 115.118 6.28205  10
  -2  -7   5 116.166 6.68913   3
  -2  -7   5 112.788 5.83194   6
   1   7  -5 113.879 7.16538   3
   1   7  -5 126.090 6.92276   8
  -1  -7   5 117.152 6.68405   3
  -1  -7   5 127.527 6.90210   8
  -1  -7   5 132.036 6.82223  10
   0   7  -5 63.3014 5.18385   6
   0   7  -5 62.4858 4.53646   8
   0   7  -5 64.6797 6.00382   3
   0  -7   5 64.3806 6.39097   5
   0  -7   5 59.7483 4.97597   8
   0  -7   5 66.4293 4.98630  10
   0  -7   5 68.3217 4.32241   3
  -1   7  -5 2118.19 91.3260   6
  -1   7  -5 2204.01 91.7671   8
   1  -7   5 2106.43 93.0656   5
   1  -7   5 2219.94 91.2459   3
  -2   7  -5 311.156 14.3161   8
  -2   7  -5 301.937 14.0505   6
   2  -7   5 305.787 13.7504   3
   2  -7   5 306.520 15.4594   5
  -3   7  -5 2190.96 87.8751   6
  -3   7  -5 2119.61 88.1272   8
   3  -7   5 1984.27 87.4529   3
   3  -7   5 2041.56 89.2515   5
  -4   7  -5 228.933 9.78798   6
  -4   7  -5 187.497 9.79170   8
   4  -7   5 216.464 10.7084   5
   6   6  -5 144.684 7.54429  11
  -6  -6   5 156.014 6.88559   6
  -6  -6   5 134.562 7.27485   8
   5   6  -5 0.40872 1.76027   3
   5   6  -5 1.38734 2.13129  11
   5   6  -5 3.20720 2.96191   1
  -5  -6   5 0.37840 1.26996   6
  -5  -6   5 -0.3508 2.08712  10
  -5  -6   5 1.16498 1.66548   8
   4   6  -5 120.354 10.1395  11
   4   6  -5 111.489 6.23440   3
  -4  -6   5 109.042 5.75334   6
  -4  -6   5 115.321 6.25649  10
  -4  -6   5 103.761 6.36831   8
   3   6  -5 3.16702 3.36262   8
   3   6  -5 4.30668 1.93110   3
  -3  -6   5 6.08547 2.00328  10
  -3  -6   5 9.08643 3.02535   3
  -3  -6   5 3.63573 1.43996   6
   2   6  -5 270.042 13.4416   8
   2   6  -5 279.321 13.5363   3
  -2  -6   5 292.587 13.4235   8
  -2  -6   5 292.326 13.2000  10
  -2  -6   5 279.844 12.6313   6
  -2  -6   5 284.551 13.4439   3
   1   6  -5 7.15415 2.45175   3
   1   6  -5 8.61091 2.85908   6
   1   6  -5 6.23282 2.05767   8
  -1  -6   5 3.97634 1.75714   3
  -1  -6   5 9.81536 1.96210  10
  -1  -6   5 4.50062 1.80316   8
  -1  -6   5 0.79600 1.94776   6
   0   6  -5 195.148 10.9010   3
   0   6  -5 196.846 10.1454   6
   0   6  -5 211.446 10.3527   8
   0  -6   5 213.647 10.1094  10
   0  -6   5 191.450 11.4852   5
   0  -6   5 208.330 9.83522   3
   0  -6   5 207.285 10.1450   8
  -1   6  -5 658.669 28.6409   8
  -1   6  -5 633.686 28.1868   6
   1  -6   5 629.506 29.8488   5
   1  -6   5 653.913 28.5015  10
   1  -6   5 680.522 28.1051   3
   1  -6   5 618.919 28.1779   2
  -2   6  -5 8.37519 1.92128   6
  -2   6  -5 11.3981 2.30964   8
   2  -6   5 16.9635 3.17841   2
   2  -6   5 12.7933 3.36186   5
   2  -6   5 10.4994 1.68887   3
  -3   6  -5 42.5627 3.83955   8
  -3   6  -5 40.0495 3.45600   6
   3  -6   5 36.9823 3.50444   2
   3  -6   5 36.7355 4.39744   5
   3  -6   5 41.6662 3.18582   3
  -4   6  -5 25.3750 2.86635   6
  -4   6  -5 21.2871 3.47195   8
   4  -6   5 29.8933 2.84194   2
   4  -6   5 23.4621 3.40273   5
  -5   6  -5 440.794 16.8498   6
   5  -6   5 352.317 16.5507   2
   5  -6   5 359.018 18.1005   5
   7   5  -5 550.554 25.0382  11
  -7  -5   5 614.599 24.8133   6
   6   5  -5 228.032 10.8693   3
   6   5  -5 230.391 11.0086   1
   6   5  -5 237.981 11.3900  11
  -6  -5   5 246.899 10.6720   6
  -6  -5   5 230.786 11.1532   8
   5   5  -5 262.817 13.0586  11
   5   5  -5 280.464 13.1832   3
   5   5  -5 273.286 12.4724   1
  -5  -5   5 255.618 12.3853  10
  -5  -5   5 239.959 12.3889   8
   4   5  -5 293.529 14.7793  11
   4   5  -5 305.679 13.9883   3
   4   5  -5 296.438 14.2049   1
  -4  -5   5 297.627 13.5804   6
  -4  -5   5 311.722 14.3407   8
  -4  -5   5 301.935 13.9230  10
   3   5  -5 144.622 7.95205   3
   3   5  -5 150.703 8.74282   8
  -3  -5   5 139.148 8.95578   3
  -3  -5   5 147.287 7.70976  10
  -3  -5   5 151.483 7.35560   6
  -3  -5   5 161.417 8.19035   8
   2   5  -5 5297.61 225.448   3
   2   5  -5 5186.57 225.410   8
  -2  -5   5 5426.54 224.751   6
  -2  -5   5 5328.93 225.252   3
  -2  -5   5 5263.27 225.076  10
  -2  -5   5 5716.85 225.468   8
   1   5  -5 2932.83 127.162   3
   1   5  -5 3028.72 127.218   8
   1   5  -5 2811.66 126.776   6
  -1  -5   5 3053.05 126.320   6
  -1  -5   5 2967.56 126.825   3
  -1  -5   5 3223.59 127.081   8
  -1  -5   5 3071.94 126.820  10
   0   5  -5 1027.81 43.4002   8
   0   5  -5 946.577 42.8942   6
   0   5  -5 929.669 43.4185   3
   0  -5   5 953.527 44.3782   5
   0  -5   5 1043.01 43.1567   2
   0  -5   5 1003.89 42.8480   3
   0  -5   5 1075.96 43.1112   8
   0  -5   5 1021.33 42.9800  10
  -1   5  -5 47.7351 3.77686   6
  -1   5  -5 47.6090 4.29775   8
   1  -5   5 48.0034 4.83249  10
   1  -5   5 49.9347 3.74010   3
   1  -5   5 49.0407 5.16567   5
   1  -5   5 59.2187 4.28867   2
  -2   5  -5 425.497 19.7505   8
  -2   5  -5 431.132 19.2691   6
   2  -5   5 437.538 19.0884   3
   2  -5   5 428.210 21.1496   5
   2  -5   5 439.153 19.4134   2
  -3   5  -5 2.61618 2.10551   8
  -3   5  -5 1.24918 1.60137   6
   3  -5   5 0.68648 1.85386   2
   3  -5   5 1.49176 1.85359   5
   3  -5   5 0.65641 1.39940   3
  -4   5  -5 487.785 22.0777   8
  -4   5  -5 527.420 21.7480   6
   4  -5   5 485.578 23.5761   5
   4  -5   5 470.547 21.7792   2
  -5   5  -5 120.677 5.98291   6
   5  -5   5 111.182 7.26802   5
   5  -5   5 108.192 6.00522   2
   6  -5   5 22.1638 2.14751   2
   7   4  -5 99.9957 5.26956   1
   7   4  -5 89.1112 5.39101  11
  -7  -4   5 77.0451 6.27906   8
  -7  -4   5 96.8040 4.78615   6
   6   4  -5 1.56931 2.42910   3
   6   4  -5 1.63762 2.08769  11
   6   4  -5 3.46905 2.04147   1
  -6  -4   5 2.87178 2.17605   8
  -6  -4   5 4.43393 1.63939   6
   5   4  -5 1393.88 56.7036   1
   5   4  -5 1317.92 57.1117  11
   5   4  -5 1380.88 56.4567   3
  -5  -4   5 1303.18 56.1924   6
  -5  -4   5 1296.65 56.3571  10
  -5  -4   5 1254.43 56.6497   8
   4   4  -5 768.563 32.8111   3
   4   4  -5 735.965 32.8930   1
   4   4  -5 738.845 33.5498  11
  -4  -4   5 758.159 32.7251  10
  -4  -4   5 775.707 33.1587   8
  -4  -4   5 756.003 32.4958   6
   3   4  -5 96.8997 7.29890  11
   3   4  -5 97.4272 6.05278   3
   3   4  -5 90.6273 6.55427   1
   3   4  -5 101.653 6.89504   8
  -3  -4   5 98.6166 5.40334   6
  -3  -4   5 111.496 6.25106   8
  -3  -4   5 100.999 7.63830   3
  -3  -4   5 107.480 5.84911  10
   2   4  -5 501.895 22.8493   3
   2   4  -5 498.112 22.7939   8
   2   4  -5 463.072 22.6381   6
  -2  -4   5 515.603 22.4862  10
  -2  -4   5 542.340 22.2174   6
  -2  -4   5 516.277 23.2143   3
  -2  -4   5 542.870 22.8094   8
   1   4  -5 209.406 10.6814   6
   1   4  -5 204.712 11.1341   3
   1   4  -5 249.140 13.9001   4
   1   4  -5 212.448 10.8624   8
  -1  -4   5 214.405 10.8417  10
  -1  -4   5 238.625 10.7537   8
  -1  -4   5 221.799 10.5551   3
  -1  -4   5 217.531 9.97789   6
   0   4  -5 583.127 28.9193   6
   0   4  -5 674.895 29.2303   8
   0   4  -5 643.329 30.2852   4
   0  -4   5 633.882 30.2894   5
   0  -4   5 672.254 28.6910   3
   0  -4   5 713.495 28.9543   8
   0  -4   5 658.593 28.7669  10
   0  -4   5 717.177 29.0791   2
  -1   4  -5 186.537 9.23592   6
  -1   4  -5 188.699 9.79019   8
   1  -4   5 194.752 9.16451   3
   1  -4   5 205.412 9.50740   2
   1  -4   5 183.005 10.8637   5
   1  -4   5 188.031 9.90277   8
  -2   4  -5 8.38018 1.88094   6
  -2   4  -5 14.5538 2.63600   8
   2  -4   5 7.09819 1.66290   3
   2  -4   5 12.4128 2.93351   5
   2  -4   5 6.38244 3.79483  10
  -3   4  -5 902.181 39.2991   6
   3  -4   5 921.708 39.0296   3
   3  -4   5 879.797 39.4150   2
   3  -4   5 956.601 41.6826   5
  -4   4  -5 3.64218 2.95425   8
   4  -4   5 2.92253 1.94252   5
   4  -4   5 1.49124 1.78154   3
  -5   4  -5 642.071 27.2242   6
   5  -4   5 622.757 27.3515   2
   5  -4   5 613.470 29.1735   5
   6  -4   5 154.670 7.36520   2
   6  -4   5 145.152 8.58254   5
   7   3  -5 86.4574 4.97257   1
   7   3  -5 77.9549 5.08683  11
  -7  -3   5 84.1677 4.61070   6
   6   3  -5 197.514 9.68651  11
   6   3  -5 181.412 9.29617   1
   6   3  -5 179.942 8.99878   3
  -6  -3   5 184.044 8.82031   6
  -6  -3   5 166.388 9.23382   8
   5   3  -5 43.3146 4.96967  11
   5   3  -5 41.8154 3.97189   1
   5   3  -5 39.9026 3.81704   3
  -5  -3   5 42.0605 4.30835   8
  -5  -3   5 43.8831 3.68632   6
   4   3  -5 1025.11 43.3406  11
   4   3  -5 974.052 42.6549   1
   4   3  -5 1027.09 42.5466   3
  -4  -3   5 984.060 42.7941   8
  -4  -3   5 951.832 42.1946   6
  -4  -3   5 977.656 42.4431  10
   3   3  -5 16.3093 3.32840   1
   3   3  -5 18.5388 3.86419  11
   3   3  -5 23.9809 3.39414   8
   3   3  -5 27.8375 3.43160   3
  -3  -3   5 20.0242 2.72842   6
  -3  -3   5 18.7403 2.71307   8
   2   3  -5 70.5478 4.96502   3
   2   3  -5 50.8757 6.21638   1
   2   3  -5 70.3501 4.74665   8
   2   3  -5 60.7110 5.90392   6
  -2  -3   5 72.3972 5.82380   3
  -2  -3   5 71.9884 4.49767  10
  -2  -3   5 69.7260 4.09830   6
  -2  -3   5 73.5772 4.65727   8
  -2  -3   5 52.1858 7.88445   4
   1   3  -5 655.604 28.8527   8
   1   3  -5 640.865 29.0078   3
   1   3  -5 638.579 29.2187   4
   1   3  -5 616.593 28.5784   6
  -1  -3   5 647.478 28.4619  10
  -1  -3   5 676.515 29.6055   7
  -1  -3   5 658.595 28.1397   6
  -1  -3   5 664.409 31.1462   4
  -1  -3   5 703.721 28.7274   8
  -1  -3   5 686.516 28.6267   3
   0   3  -5 207.854 10.0307   6
   0   3  -5 174.693 12.0718   3
   0   3  -5 197.098 12.6167   7
   0   3  -5 209.668 10.9035   4
   0   3  -5 209.048 10.4273   8
   0  -3   5 228.803 10.3564   8
   0  -3   5 215.449 9.91947   3
   0  -3   5 217.787 10.0595  10
   0  -3   5 193.211 13.0986   5
   0  -3   5 236.008 10.3705   2
  -1   3  -5 118.025 7.97165   4
  -1   3  -5 145.885 7.44016   8
  -1   3  -5 124.858 6.72738   6
   1  -3   5 119.502 7.78906   8
   1  -3   5 125.466 7.01944  10
   1  -3   5 116.584 6.43155   3
   1  -3   5 138.924 6.90597   2
   1  -3   5 122.870 8.17266   5
  -2   3  -5 4508.22 194.362   6
  -2   3  -5 4836.65 194.897   8
   2  -3   5 4703.64 194.196   3
   2  -3   5 4759.77 194.522   2
   2  -3   5 4332.49 194.764  10
   2  -3   5 4677.50 196.206   5
  -3   3  -5 2898.81 120.573   6
  -3   3  -5 2894.74 121.062   8
   3  -3   5 2749.98 120.633   2
   3  -3   5 2993.40 122.880   5
   3  -3   5 2788.30 120.234   3
  -5   3  -5 1264.13 52.2281   6
   5  -3   5 1170.45 52.2131   2
   5  -3   5 1234.70 54.4552   5
   6  -3   5 238.315 11.0197   2
   6  -3   5 228.937 12.6780   5
   7  -3   5 6.36643 1.40088   2
   7   2  -5 1431.52 60.0519   1
   7   2  -5 1343.26 59.9255  11
  -7  -2   5 1463.76 59.6846   6
   6   2  -5 258.167 12.2129   3
   6   2  -5 289.877 13.0783  11
   6   2  -5 249.969 13.2239   2
  -6  -2   5 263.223 12.2028   6
  -6  -2   5 258.886 12.7541   8
   5   2  -5 597.987 27.2038   1
   5   2  -5 616.230 26.8022   3
   5   2  -5 643.669 27.7088  11
  -5  -2   5 605.269 27.2049   8
  -5  -2   5 611.175 26.7071   6
   4   2  -5 90.6323 6.65148  11
   4   2  -5 97.3857 5.82789   1
   4   2  -5 95.8617 5.52358   3
  -4  -2   5 98.6068 5.92739   8
  -4  -2   5 88.4096 5.28249   6
  -4  -2   5 89.7592 7.20084  10
   3   2  -5 11.4480 1.97539   3
   3   2  -5 12.3336 3.42177  11
   3   2  -5 8.18636 2.33148   1
  -3  -2   5 8.56087 1.70966   6
  -3  -2   5 6.48170 2.04635   8
  -3  -2   5 9.41930 4.12623   4
   2   2  -5 1934.74 83.4486   8
   2   2  -5 2002.46 83.4419   3
   2   2  -5 1856.22 83.1353   6
  -2  -2   5 2221.87 83.5888   8
  -2  -2   5 1987.49 83.4380   3
  -2  -2   5 1792.07 82.9108   6
  -2  -2   5 2038.68 83.2247  10
  -2  -2   5 1890.11 83.9668   7
  -2  -2   5 2032.32 83.8049   4
   1   2  -5 1761.14 79.3114   6
   1   2  -5 1886.64 79.5578   8
   1   2  -5 1830.54 79.6302   3
   1   2  -5 1813.81 79.7791   7
   1   2  -5 1895.28 79.5337   4
  -1  -2   5 1877.69 79.2622  10
  -1  -2   5 2122.99 79.6007   8
  -1  -2   5 1852.57 79.6592   4
  -1  -2   5 1879.09 79.3255   3
  -1  -2   5 1959.14 79.6060   7
  -1  -2   5 1788.90 78.9434   6
   0   2  -5 414.805 18.4093   8
   0   2  -5 380.767 18.0197   6
   0   2  -5 396.347 18.0876   4
   0   2  -5 402.283 18.4081   7
   0   2  -5 382.299 20.2244   4
   0  -2   5 399.361 17.9033   3
   0  -2   5 397.986 17.9836  10
   0  -2   5 440.991 18.3131   8
   0  -2   5 430.903 18.2353   2
  -1   2  -5 84.0188 6.07611   8
  -1   2  -5 82.2043 5.14060   4
  -1   2  -5 82.0613 5.49863   6
  -1   2  -5 75.1266 6.08495   7
   1  -2   5 77.7381 5.04555   2
   1  -2   5 81.5277 4.70916   3
   1  -2   5 75.9158 5.46692  10
   1  -2   5 72.5894 6.76207   5
  -2   2  -5 499.370 23.3595   6
  -2   2  -5 533.911 23.8982   8
  -2   2  -5 540.445 23.4537   4
   2  -2   5 548.701 24.8381   5
   2  -2   5 520.458 22.8796   3
   2  -2   5 556.475 23.2067   2
   2  -2   5 504.959 23.8134  10
   3  -2   5 1193.02 50.1670   2
   3  -2   5 1120.61 49.4847   3
   3  -2   5 1196.72 52.0238   5
   4  -2   5 433.970 19.4240   2
   4  -2   5 435.463 21.3215   5
   5  -2   5 37.1806 3.25685   2
   5  -2   5 28.9400 4.32845   5
   7  -2   5 116.776 5.54645   2
   7  -2   5 84.1073 7.38820   5
   7   1  -5 28.9946 4.00353   2
   7   1  -5 37.8099 3.63931  11
  -7  -1   5 28.3287 4.04864   6
   6   1  -5 2.32060 4.97419   2
   6   1  -5 0.55927 2.30306   3
   6   1  -5 0.82663 4.06579  11
   6   1  -5 -1.2766 2.26588   1
  -6  -1   5 5.38930 2.83746   8
   5   1  -5 392.812 18.1504   1
   5   1  -5 411.558 18.4968  11
   5   1  -5 384.741 17.5846   3
  -5  -1   5 393.612 17.5840   6
  -5  -1   5 387.169 18.1267   8
   4   1  -5 80.9092 5.37900   1
   4   1  -5 89.9743 5.11704   3
  -4  -1   5 75.2762 4.83907   6
  -4  -1   5 73.8376 5.46178   8
   3   1  -5 207.438 10.5119   1
   3   1  -5 196.756 11.3194  11
   3   1  -5 204.018 9.58310   3
   3   1  -5 190.223 10.2464   8
  -3  -1   5 180.102 10.3055  10
  -3  -1   5 207.637 11.9326   8
  -3  -1   5 213.226 11.0006   4
   2   1  -5 43.8743 4.21509   3
   2   1  -5 35.0236 4.25033   8
   2   1  -5 43.0697 4.99712   1
  -2  -1   5 41.8792 3.91171   8
  -2  -1   5 42.1580 3.41453   6
  -2  -1   5 36.1326 5.30029   4
  -2  -1   5 36.9297 5.02156   7
  -2  -1   5 32.5486 4.44411  10
  -2  -1   5 46.2104 4.37151   4
   1   1  -5 1825.94 82.9964   4
   1   1  -5 2022.51 82.3226   4
  -1  -1   5 1957.51 82.3588   4
  -1  -1   5 1989.83 82.3078   7
   0   1  -5 2345.47 98.0737   7
   0   1  -5 2055.83 100.358   4
   0   1  -5 2403.02 98.1609   4
   0  -1   5 2447.90 98.0138   7
   0  -1   5 2402.08 98.2617   4
  -1   1  -5 374.991 18.1876   4
  -1   1  -5 409.752 17.3332   4
  -2   1  -5 1666.91 67.8115   4
   2  -1   5 1597.97 69.3383   5
   2  -1   5 1499.16 68.2703  10
   2  -1   5 1594.28 67.6167   3
   2  -1   5 1664.89 67.9183   2
  -3   1  -5 4157.57 167.639   4
   3  -1   5 3679.37 168.725  10
   3  -1   5 4159.09 169.571   5
   3  -1   5 3714.56 167.326   3
   3  -1   5 4277.46 169.163   9
   3  -1   5 4004.11 167.803   2
   4  -1   5 396.446 18.0273   2
   4  -1   5 410.015 19.9035   5
   5  -1   5 38.0651 3.24821   2
   5  -1   5 35.7764 4.70159   5
   6  -1   5 1027.85 44.1915   2
   7  -1   5 32.0879 3.12798   2
   7   0  -5 10.5112 2.26145  11
   7   0  -5 10.7447 2.23506   2
  -7   0   5 12.8146 2.13529   6
   6   0  -5 173.649 8.53964   3
   6   0  -5 152.627 9.66016   2
   6   0  -5 197.517 9.34588   1
  -6   0   5 168.150 9.37623   8
   5   0  -5 456.430 20.8850  11
   5   0  -5 460.331 20.6562   1
   5   0  -5 442.034 19.9624   3
  -5   0   5 456.109 20.0482   6
  -5   0   5 447.188 20.6442   8
   4   0  -5 437.179 19.5342   1
   4   0  -5 434.982 19.0939   3
  -4   0   5 412.363 18.9019   6
  -4   0   5 434.521 19.4760   8
   3   0  -5 895.545 40.0399  11
   3   0  -5 918.379 39.3613   8
   3   0  -5 887.746 40.3004   1
  -3   0   5 941.999 39.3557   8
  -3   0   5 868.688 38.8313   6
  -3   0   5 963.678 39.6183   4
   2   0  -5 1644.10 71.8070   1
   2   0  -5 1682.46 71.7305   8
  -2   0   5 1643.97 72.0574   4
  -2   0   5 1750.75 71.7460   8
  -2   0   5 1654.23 71.3232   6
  -2   0   5 1787.27 72.0180   7
   1   0  -5 2.98522 1.70325   4
   1   0  -5 3.58545 2.66178   4
  -1   0   5 2.75771 2.22144   4
  -1   0   5 5.17574 1.51528   7
  -1   0   5 4.71748 1.47654   4
   0   0  -5 4271.52 176.986   4
   0   0   5 4324.04 177.043   4
   0   0   5 4077.66 177.086   4
  -1   0  -5 970.958 44.1802   4
  -1   0  -5 1095.51 43.8850   4
  -2   0  -5 2779.66 120.971   4
  -2   0  -5 2969.44 120.647   4
  -3   0  -5 27.0305 3.18366   4
   3   0   5 34.3901 6.27358   9
   3   0   5 31.7386 2.92891   2
   3   0   5 29.8968 4.11958   5
   3   0   5 33.7349 5.60515  10
   4   0   5 250.846 12.4187   2
   4   0   5 281.795 15.2485   9
   4   0   5 264.617 14.0568   5
   5   0   5 360.549 16.4194   2
   5   0   5 363.242 18.4729   5
   6   0   5 154.380 7.87364   2
   6   0   5 155.097 9.98675   5
   7   0   5 274.643 12.3787   2
   7   0   5 264.144 14.9352   5
   8   0   5 15.5619 2.42946   2
   7  -1  -5 698.094 30.7882  11
   7  -1  -5 674.069 31.0522   2
  -7   1   5 761.194 30.5134   6
   6  -1  -5 4.40026 2.96511   2
   6  -1  -5 3.32588 2.24750  11
  -6   1   5 5.37052 2.68873   8
  -6   1   5 3.98012 2.04638   6
   5  -1  -5 192.952 9.80486   1
   5  -1  -5 194.589 9.04061   3
   5  -1  -5 174.640 9.86793  11
  -5   1   5 183.154 9.95086   8
  -5   1   5 178.136 9.09476   6
   4  -1  -5 648.545 30.0943   1
   4  -1  -5 699.953 29.7142   3
  -4   1   5 680.458 29.6046   6
  -4   1   5 714.841 30.2155   8
   3  -1  -5 1599.15 68.9358   8
   3  -1  -5 1561.91 69.4363  11
  -3   1   5 1717.53 69.1686   4
  -3   1   5 1691.47 69.0109   8
  -3   1   5 1552.98 68.5150   6
   2  -1  -5 2520.07 107.237   3
   2  -1  -5 2564.99 107.438   1
  -2   1   5 2448.90 107.306   8
  -2   1   5 2722.31 107.630   7
  -2   1   5 2501.57 106.956   6
  -2   1   5 2446.78 107.608   4
  -2   1   5 2632.24 107.520   4
   1  -1  -5 2938.41 130.003   4
   1  -1  -5 3089.54 129.689   4
  -1   1   5 3217.88 129.677   7
  -1   1   5 3155.05 129.664   4
  -1   1   5 3041.07 129.813   4
   0  -1  -5 361.162 16.5320   4
   0   1   5 372.018 16.4005   4
   0   1   5 372.486 16.1341   4
  -1  -1  -5 284.201 12.1853   4
  -1  -1  -5 253.789 12.5329   4
   1   1   5 276.178 12.6960   4
   1   1   5 279.957 12.1196   4
  -2  -1  -5 42.5485 3.88607   4
  -3  -1  -5 1430.84 60.7740   4
  -3  -1  -5 1541.62 61.2013   4
   3   1   5 1320.34 62.0696  10
   3   1   5 1529.72 62.8967   5
   3   1   5 1346.24 62.4096   9
   3   1   5 1495.40 61.2404   2
   4   1   5 2186.37 86.5856   9
   4   1   5 1674.94 83.4412  10
   4   1   5 1973.20 84.0276   5
   4   1   5 1946.98 82.1097   2
   5   1   5 6.36541 1.52006   2
   5   1   5 3.92324 4.29369   9
   5   1   5 5.19607 2.42886   5
   6   1   5 998.938 43.6339   2
   6   1   5 1036.82 45.9412   5
   7   1   5 2597.79 109.844   5
   7   1   5 2507.40 107.412   2
   8   1   5 194.406 8.92561   2
   7  -2  -5 161.899 7.79937   2
   7  -2  -5 131.308 8.13975  11
  -7   2   5 166.658 7.41608   6
   6  -2  -5 653.740 29.5318  11
   6  -2  -5 677.577 29.8945   2
  -6   2   5 646.272 29.7160   8
  -6   2   5 706.769 29.1410   6
   5  -2  -5 1998.56 82.1155   3
   5  -2  -5 1960.73 82.7182  11
  -5   2   5 1877.83 82.8472   8
  -5   2   5 1943.08 82.2007   6
   4  -2  -5 133.693 7.80538   1
   4  -2  -5 130.548 7.03440   3
   4  -2  -5 142.976 8.31773  11
  -4   2   5 133.948 7.09633   6
  -4   2   5 138.062 7.95266   8
   3  -2  -5 25.0779 3.68701   8
   3  -2  -5 21.4612 3.07525   3
   3  -2  -5 30.1410 4.08531   1
   3  -2  -5 22.6340 4.49003  11
  -3   2   5 32.9275 5.18572   4
  -3   2   5 20.6829 4.71154   8
   2  -2  -5 732.641 31.0360   8
   2  -2  -5 735.021 30.9145   3
   2  -2  -5 646.838 31.1084   1
  -2   2   5 643.144 31.4702   4
  -2   2   5 736.552 31.1114   4
  -2   2   5 705.066 30.6372   6
  -2   2   5 762.735 31.1259   8
  -2   2   5 764.212 31.4065   7
   1  -2  -5 16.1329 3.53781   4
   1  -2  -5 8.86449 1.83024   4
  -1   2   5 6.95186 1.51892   4
  -1   2   5 6.59641 1.47444   7
  -1   2   5 8.88168 2.30580   4
   0  -2  -5 1318.25 54.9573   4
   0  -2  -5 1292.90 55.2125   4
   0   2   5 1304.05 54.8722   4
   0   2   5 1280.37 55.0341   4
  -1  -2  -5 313.265 13.3350   4
  -1  -2  -5 292.975 13.6464   4
   1   2   5 302.677 13.2650   4
   1   2   5 300.248 13.5547   4
  -2  -2  -5 206.150 9.85943   4
  -2  -2  -5 211.949 9.41522   4
  -3  -2  -5 96.5736 4.89989   4
  -3  -2  -5 94.8215 5.70135   4
   3   2   5 97.2043 7.95113  10
   3   2   5 84.7432 5.73195   2
   3   2   5 102.915 7.97555   9
   3   2   5 104.093 7.01121   5
   4   2   5 1846.39 82.2120   9
   4   2   5 1923.51 80.7509   2
   4   2   5 1897.92 81.3557   1
   4   2   5 1974.26 82.6456   5
   5   2   5 331.472 15.9687   9
   5   2   5 306.504 14.2784   2
   5   2   5 304.255 16.2907   5
   6   2   5 5.21788 1.74286   2
   6   2   5 5.08742 3.86441   9
   6   2   5 5.59087 2.89201   5
   7   2   5 121.102 9.83568   5
   7   2   5 122.630 6.53479   2
   7  -3  -5 27.4989 2.52110   2
  -7   3   5 28.6571 2.69857   6
   6  -3  -5 41.6002 4.75049  11
   6  -3  -5 48.3561 3.85699   2
  -6   3   5 47.6754 3.80927   6
  -6   3   5 40.9204 4.71817   8
   5  -3  -5 350.231 15.8018   3
   5  -3  -5 353.767 16.6928  11
   5  -3  -5 365.956 16.7542   2
  -5   3   5 352.610 15.9991   6
  -5   3   5 343.268 16.7237   8
   4  -3  -5 122.899 6.57173   3
   4  -3  -5 134.225 8.19946  11
  -4   3   5 115.267 6.55666   6
  -4   3   5 124.239 7.44572   8
   3  -3  -5 972.510 41.9955  11
   3  -3  -5 967.152 41.6510   8
   3  -3  -5 966.000 41.3088   3
  -3   3   5 973.299 41.2398   6
  -3   3   5 909.073 41.9422   4
  -3   3   5 1006.70 41.8223   8
   2  -3  -5 -0.8746 1.81616   3
   2  -3  -5 -3.7991 2.25682   8
   2  -3  -5 -0.4189 3.05963   4
  -2   3   5 -0.1432 2.49510   7
  -2   3   5 4.76502 2.19978   4
  -2   3   5 -1.5735 2.04332   8
  -2   3   5 1.97885 1.67102   6
   1  -3  -5 642.929 30.8503   4
   1  -3  -5 695.157 29.7156   4
  -1   3   5 718.165 29.5946   4
   0  -3  -5 786.029 31.7720   4
   0  -3  -5 721.415 31.9921   4
   0   3   5 696.988 31.8603   4
   0   3   5 752.713 31.6255   4
  -1  -3  -5 4027.11 170.060   4
  -1  -3  -5 4084.21 169.941   4
  -3  -3  -5 4359.22 194.467   4
  -3  -3  -5 4590.21 194.350   4
   3   3   5 4475.88 195.283  10
   3   3   5 4993.68 195.655   1
   3   3   5 4732.61 195.400   9
   3   3   5 4715.37 196.339   5
   4   3   5 2516.95 106.692   9
   4   3   5 2504.31 105.707   2
   5   3   5 3315.39 142.466   1
   5   3   5 3332.50 144.145   5
   5   3   5 3514.80 143.072   9
   5   3   5 3338.22 141.849   2
   6   3   5 959.475 42.3245   1
   6   3   5 962.860 44.2259   5
   6   3   5 1002.20 42.9317   9
   7   3   5 1.06662 3.72805   9
   7   3   5 2.11141 3.37155   1
   7  -4  -5 1098.24 46.8784   2
  -7   4   5 1119.11 46.7006   6
   6  -4  -5 2.68415 2.35528  11
   6  -4  -5 5.46840 1.56493   2
  -6   4   5 7.07007 2.46746   8
  -6   4   5 2.91455 1.52617   6
   5  -4  -5 194.049 8.98240   3
   5  -4  -5 173.658 9.95778  11
   5  -4  -5 187.634 9.54478   2
  -5   4   5 185.468 9.07729   6
  -5   4   5 183.250 9.93074   8
   4  -4  -5 990.223 43.9702  11
   4  -4  -5 931.889 40.5704   3
  -4   4   5 922.232 40.5912   6
  -4   4   5 945.390 41.4139   8
   3  -4  -5 80.5312 7.47019  11
   3  -4  -5 77.7970 5.03628   3
   3  -4  -5 85.1545 6.31540   8
  -3   4   5 80.4353 5.65063   8
  -3   4   5 85.2619 4.89536   6
   2  -4  -5 15.2062 2.46781   8
   2  -4  -5 11.3293 1.88576   3
   2  -4  -5 14.6835 2.69011   6
  -2   4   5 9.57997 2.28697   8
  -2   4   5 12.9724 1.98958   6
   1  -4  -5 1457.21 61.8928   8
   1  -4  -5 1451.22 62.1850   4
   1  -4  -5 1380.91 61.4040   6
  -1   4   5 1438.66 61.8691   4
  -1   4   5 1354.71 61.5309   6
  -1   4   5 1519.60 62.1743   8
  -1   4   5 1607.82 62.7852   3
   0  -4  -5 1501.20 63.4580   4
   0  -4  -5 1501.25 63.7331   4
   0   4   5 1480.10 63.2716   4
   0   4   5 1499.27 63.0662   7
  -1  -4  -5 4.82914 2.71583   4
  -1  -4  -5 3.58798 1.50438   4
   1   4   5 3.78793 1.53262   4
  -2  -4  -5 212.721 9.71445   4
  -2  -4  -5 203.044 10.1140   4
   2   4   5 198.664 10.7650  10
   2   4   5 232.249 12.3587   9
   2   4   5 190.013 11.6711   5
  -3  -4  -5 97.1399 5.51489   4
   3   4   5 89.8241 7.04282   5
   3   4   5 84.0832 6.40003   9
   3   4   5 89.6750 7.22879   1
   4   4   5 340.971 17.6921   5
   4   4   5 365.868 16.9132   1
   4   4   5 335.087 16.6413   9
   5   4   5 5.06534 2.84372   9
   5   4   5 7.46623 3.26520   5
   5   4   5 3.73531 3.04151   1
   6   4   5 23.3642 3.70099   1
   6   4   5 25.4338 6.21670   5
   6   4   5 16.7460 3.72507   9
   7   4   5 210.271 11.1403   9
   7   4   5 197.688 10.3641   1
   6  -5  -5 29.2146 3.52923  11
   6  -5  -5 37.7564 2.85890   2
  -6   5   5 37.2050 2.73575   6
  -6   5   5 36.8124 3.87038   8
   5  -5  -5 60.6549 5.49898  11
   5  -5  -5 77.9487 4.62792   3
   5  -5  -5 75.3482 4.91013   2
  -5   5   5 78.7326 4.69337   6
  -5   5   5 77.7430 5.54186   8
   4  -5  -5 182.414 9.05774   2
   4  -5  -5 177.120 8.53687   3
   4  -5  -5 155.378 11.5185  11
  -4   5   5 173.069 8.49959   6
  -4   5   5 165.249 9.34247   8
   3  -5  -5 21.9900 3.21473   3
  -3   5   5 25.1778 2.98461   6
  -3   5   5 27.2247 4.01010   8
   2  -5  -5 125.231 6.90300   8
   2  -5  -5 117.871 6.56096   3
  -2   5   5 145.334 9.28162   3
  -2   5   5 115.120 6.27664   6
  -2   5   5 108.525 9.11684   4
  -2   5   5 121.607 7.12210   8
   1  -5  -5 1612.82 79.6583   4
   1  -5  -5 1818.25 77.9816   6
   1  -5  -5 1923.63 78.5432   8
   1  -5  -5 1853.90 78.3692   3
  -1   5   5 2016.36 78.9014   8
  -1   5   5 1840.54 78.6719   4
  -1   5   5 1816.59 78.1317   6
  -1   5   5 1951.46 78.9805   3
   0  -5  -5 2993.46 130.613   6
   0  -5  -5 3089.86 131.832   4
   0  -5  -5 3116.23 131.378   4
   0  -5  -5 3135.45 131.076   8
   0   5   5 3130.40 131.298   3
   0   5   5 3096.61 131.002   7
   0   5   5 3255.87 131.395   8
  -1  -5  -5 34.0764 3.86953   4
  -1  -5  -5 26.6504 4.35279   8
   1   5   5 27.2442 4.30032   3
   1   5   5 38.4407 5.30719   5
  -2  -5  -5 3618.50 150.466   4
   2   5   5 3672.69 152.337   5
   2   5   5 3553.57 150.716   9
   2   5   5 3473.82 150.358   3
  -3  -5  -5 454.951 19.9518   4
   3   5   5 432.803 21.5192   5
   3   5   5 440.454 21.8070   1
   3   5   5 456.489 20.2624   9
   3   5   5 418.987 19.9573   3
   4   5   5 108.297 6.79266   9
   4   5   5 93.9075 7.69840   1
   5   5   5 85.1700 8.08968   5
   5   5   5 88.3041 6.88607   1
   5   5   5 84.4620 6.39207   9
   6   5   5 2227.09 96.6708   9
   6   5   5 2397.89 96.8394   1
   6   5   5 2173.03 97.9485   5
   7   5   5 214.160 10.8346   1
   7   5   5 204.031 11.1797   9
   8   5   5 1136.83 51.9834   9
   8   5   5 1304.06 51.8165   1
   6  -6  -5 30.6649 2.42141   2
  -6   6   5 34.0720 2.35813   6
  -6   6   5 30.3195 3.39660   8
   5  -6  -5 10.8041 2.30740   2
   5  -6  -5 11.8703 1.88355   3
   5  -6  -5 8.15366 2.28341  11
  -5   6   5 11.4917 1.74397   6
  -5   6   5 6.86077 2.18683   8
   4  -6  -5 623.142 27.3787   2
   4  -6  -5 621.750 26.9810   3
   4  -6  -5 593.736 27.9363  11
  -4   6   5 653.513 27.0540   6
  -4   6   5 612.311 27.7995   8
   3  -6  -5 1784.68 80.9523  11
   3  -6  -5 1914.13 81.1261   2
   3  -6  -5 1928.91 80.8082   3
  -3   6   5 1958.74 80.7273   6
  -3   6   5 1961.33 81.5518   8
   2  -6  -5 348.044 15.7548   8
   2  -6  -5 328.413 15.4440   3
  -2   6   5 353.040 16.1350   8
  -2   6   5 331.428 15.2215   6
  -2   6   5 342.346 17.2243   3
   1  -6  -5 801.876 34.5797   6
   1  -6  -5 813.293 35.0346   3
   1  -6  -5 835.164 35.1796   8
  -1   6   5 805.963 35.6193   3
  -1   6   5 866.806 35.5710   8
  -1   6   5 788.990 34.6668   6
  -1   6   5 768.936 36.0462   4
   0  -6  -5 2366.49 99.6278   4
   0  -6  -5 2246.56 98.8863   3
   0   6   5 2427.66 99.1861   8
   0   6   5 2326.49 98.3652   6
  -1  -6  -5 60.1784 4.02099   6
  -1  -6  -5 72.7887 6.62936   4
  -1  -6  -5 66.0224 4.82972   8
   1   6   5 77.7712 6.42640   5
   1   6   5 71.4368 7.33606   9
   1   6   5 67.2936 6.56418   8
   1   6   5 56.6573 4.90110   3
  -2  -6  -5 1020.29 44.3213   6
  -2  -6  -5 1012.21 44.7503   4
  -2  -6  -5 1025.84 44.3837   8
   2   6   5 1175.47 50.1243   5
   2   6   5 1015.30 44.5923   9
   2   6   5 947.533 44.4758   3
  -3  -6  -5 7.90021 3.68014   8
   3   6   5 2.23423 2.38300   3
   3   6   5 3.77253 2.38108   9
   3   6   5 1.42375 2.46188   5
   4   6   5 471.348 22.8727   5
   4   6   5 453.610 20.8329   9
   4   6   5 433.004 21.2640   1
   5   6   5 10.9711 3.52852   1
   5   6   5 11.7432 2.85517   9
   5   6   5 21.2310 6.18216   5
   6   6   5 154.330 9.46349   9
   6   6   5 177.787 11.7766   5
   6   6   5 180.905 9.96907   1
   7   6   5 83.2962 6.39656   9
   7   6   5 98.4083 6.38421   1
   8   6   5 13.1010 2.68526   1
   8   6   5 13.1488 3.10505   9
   5  -7  -5 270.578 12.7787   2
   5  -7  -5 287.341 12.6273   3
  -5   7   5 304.162 12.7249   6
  -5   7   5 286.689 13.3311   8
   4  -7  -5 456.604 19.4325   3
   4  -7  -5 422.262 19.5016   2
   4  -7  -5 416.499 19.5727  11
  -4   7   5 459.522 19.3387   6
  -4   7   5 444.936 20.1632   8
   3  -7  -5 475.881 21.8138   2
   3  -7  -5 486.078 21.9467  11
   3  -7  -5 492.616 21.6445   3
  -3   7   5 499.799 21.4714   6
  -3   7   5 494.871 22.3819   8
   2  -7  -5 20.0710 3.13222   3
  -2   7   5 14.8018 2.40015   6
  -2   7   5 18.3098 3.46002   8
  -2   7   5 20.1206 4.17275   3
   1  -7  -5 103.653 5.57385   6
   1  -7  -5 110.873 6.21600   8
   1  -7  -5 102.867 6.19990   3
  -1   7   5 97.1689 5.37487   6
  -1   7   5 107.095 6.53729   8
  -1   7   5 108.184 7.16700   3
   0  -7  -5 1237.14 52.4552   8
   0  -7  -5 1190.19 54.8675   4
   0  -7  -5 1229.29 51.8507   6
   0   7   5 1220.59 51.7720   6
   0   7   5 1244.82 53.1949   3
  -1  -7  -5 21.9356 3.34626   8
  -1  -7  -5 13.6241 6.57279   4
  -1  -7  -5 18.8322 2.59525   6
   1   7   5 16.2669 3.21434   3
   1   7   5 18.0275 3.27540   8
   1   7   5 24.4558 4.62615   5
  -2  -7  -5 3.95240 2.27953   8
  -2  -7  -5 0.58342 1.56941   6
   2   7   5 4.14499 2.76737   9
   2   7   5 7.64545 2.76883   5
  -3  -7  -5 1816.02 82.7634   8
   3   7   5 2025.03 84.7317   5
   3   7   5 1971.26 82.4469   9
   3   7   5 1885.74 82.7528   1
   3   7   5 1986.51 82.2653   3
   4   7   5 1730.25 77.1846   3
   4   7   5 1794.25 78.1329   1
   4   7   5 1907.16 79.8685   5
   4   7   5 1844.68 77.6869   9
   5   7   5 83.7485 8.14833   5
   5   7   5 79.1727 5.82863   9
   5   7   5 82.5137 6.40045   1
   6   7   5 1527.98 63.9240   9
   6   7   5 1458.44 64.2543   1
   6   7   5 1469.53 65.3671   5
   7   7   5 833.249 39.9057   1
   7   7   5 1001.62 39.9805   9
   8   7   5 149.475 7.44218   9
   8   7   5 135.277 7.18926   1
  -5   8   5 441.674 19.5756   8
  -5   8   5 454.411 19.1027   6
   4  -8  -5 96.0747 5.15906   3
  -4   8   5 97.2339 4.96432   6
  -4   8   5 97.4899 5.72993   8
   3  -8  -5 454.343 19.9961   3
  -3   8   5 454.027 20.6402   8
  -3   8   5 440.192 20.2578   6
   2  -8  -5 19.0418 3.01822   3
  -2   8   5 18.8926 3.16069   8
  -2   8   5 11.4383 3.56670   3
  -2   8   5 17.0932 2.33920   6
   1  -8  -5 282.517 13.2129   8
   1  -8  -5 269.615 13.0890   3
  -1   8   5 287.752 12.5247   6
  -1   8   5 279.810 13.5597   8
  -1   8   5 272.952 13.8229   3
   0  -8  -5 136.657 6.88933   6
   0  -8  -5 147.203 7.69526   8
   0  -8  -5 140.424 8.03224   3
   0   8   5 140.992 7.91018   8
   0   8   5 142.973 8.03322   3
  -1  -8  -5 1122.96 46.2882   6
  -1  -8  -5 1040.49 47.0211   3
  -1  -8  -5 1119.62 46.9168   8
   1   8   5 1060.40 47.0673   3
   1   8   5 1097.93 47.0438   8
  -2  -8  -5 22.5392 3.52822   8
  -2  -8  -5 16.0321 2.64705   6
   2   8   5 13.5868 3.55909   9
   2   8   5 24.1652 4.61691   5
   2   8   5 22.3221 3.52139   1
   2   8   5 25.3827 3.67177   3
  -3  -8  -5 836.895 36.6311   8
  -3  -8  -5 842.257 36.0503   6
   3   8   5 852.523 37.1600   1
   3   8   5 821.922 36.6765   3
   3   8   5 877.961 39.2351   5
   3   8   5 816.846 36.6975   9
  -4  -8  -5 818.227 35.2416   6
   4   8   5 835.799 36.4709   1
   4   8   5 869.709 38.4297   5
   4   8   5 763.693 35.7019   3
   4   8   5 818.361 35.9604   9
  -5  -8  -5 43.5789 5.17539   6
   5   8   5 58.8301 4.63677   9
   5   8   5 43.7879 6.41279   5
   5   8   5 58.9896 5.03754   1
   6   8   5 5.64250 2.63931   1
   6   8   5 2.03925 2.03390   9
   7   8   5 29.0305 3.39523   1
   7   8   5 33.2663 3.35035   9
   4  -9  -5 215.300 9.68209   3
  -4   9   5 218.726 10.1351   8
   3  -9  -5 3.39430 1.48345   3
  -3   9   5 4.35448 1.59487   8
  -3   9   5 2.71359 1.28490   6
   2  -9  -5 -1.5004 2.25284   3
   2  -9  -5 0.93300 3.10350   8
  -2   9   5 2.03084 3.08024   3
  -2   9   5 -0.8073 1.92371   8
   1  -9  -5 86.5197 5.58598   3
   1  -9  -5 90.0409 6.05129   8
  -1   9   5 87.6146 5.67312   8
  -1   9   5 87.6452 6.45270   3
   0  -9  -5 7.35069 2.07646   8
   0  -9  -5 4.73721 2.44932   3
   0   9   5 1.26827 1.89665   8
   0   9   5 2.89786 2.18921   3
  -1  -9  -5 2479.83 101.617   6
  -1  -9  -5 2438.80 102.222   8
  -1  -9  -5 2363.69 102.077   3
   1   9   5 2404.71 102.478   3
   1   9   5 2332.83 102.207   1
   1   9   5 2467.82 102.251   8
  -2  -9  -5 875.480 38.0961   6
  -2  -9  -5 924.865 38.8102   8
   2   9   5 894.875 38.9740   1
   2   9   5 872.595 38.8775   3
  -3  -9  -5 991.228 42.2763   8
  -3  -9  -5 981.438 41.6989   6
   3   9   5 974.978 42.3255   3
   3   9   5 986.601 42.3530   9
   3   9   5 951.406 42.5219   1
  -4  -9  -5 1608.31 68.0289   8
  -4  -9  -5 1602.06 67.2163   6
   4   9   5 1606.43 70.1261   5
   4   9   5 1613.00 67.8967   9
   4   9   5 1544.67 68.1170   1
   4   9   5 1562.85 67.6322   3
  -5  -9  -5 17.5715 3.27036   6
   5   9   5 19.2603 3.39657   1
   5   9   5 21.4212 3.26989   9
  -6  -9  -5 206.489 10.2048   6
   6   9   5 205.273 10.1981   1
   6   9   5 205.806 10.0284   9
   7   9   5 360.657 15.9352   9
   7   9   5 357.374 16.0367   1
   3 -10  -5 6.97952 1.36716   3
  -3  10   5 10.8806 1.71878   8
   2 -10  -5 1024.64 45.0103   3
  -2  10   5 1044.56 45.3740   8
  -2  10   5 1104.09 45.8100   3
   1 -10  -5 413.898 19.0684   8
   1 -10  -5 423.936 18.8383   3
  -1  10   5 419.782 19.1004   8
  -1  10   5 430.316 19.4614   3
   0 -10  -5 281.354 13.8826   8
   0  10   5 304.701 14.1725   3
  -1 -10  -5 24.0282 3.66354   8
  -1 -10  -5 25.3458 4.43611   3
  -1 -10  -5 24.1219 2.75492   6
   1  10   5 29.1393 3.60614   3
  -2 -10  -5 57.2533 3.66985   6
  -2 -10  -5 62.2261 4.82083   8
   2  10   5 52.6947 5.22644   1
   2  10   5 61.1583 4.62865   3
  -3 -10  -5 474.700 20.8937   6
  -3 -10  -5 476.458 21.7835   8
   3  10   5 480.974 21.5260   3
   3  10   5 485.258 23.7269   9
  -4 -10  -5 78.0262 5.87778   8
   4  10   5 79.0117 5.36341   3
   4  10   5 73.9920 5.12015   9
   4  10   5 71.7332 5.06098   1
  -5 -10  -5 15.7431 2.89530   6
  -5 -10  -5 7.54572 4.00404   8
   5  10   5 13.0499 2.20724   9
   5  10   5 14.7877 2.67869   1
  -6 -10  -5 431.275 18.8835   6
   6  10   5 435.308 19.1408   1
   6  10   5 434.932 19.0398   9
   2 -11  -5 130.318 6.37108   3
  -2  11   5 132.834 8.47445   3
  -2  11   5 135.380 6.56106   8
   1 -11  -5 971.054 45.9550   8
   1 -11  -5 1117.52 46.0483   3
  -1  11   5 1153.56 46.5196   3
  -1  11   5 1090.88 46.1169   8
   0 -11  -5 173.663 8.70261   8
   0 -11  -5 173.569 8.67549   3
   0  11   5 165.684 8.47864   8
   0  11   5 176.810 8.87231   3
  -1 -11  -5 31.3853 3.61409   8
  -1 -11  -5 39.0577 5.33873   3
  -1 -11  -5 30.6511 3.06353   6
   1  11   5 31.5370 3.41894   3
  -2 -11  -5 6.84190 1.49892   6
  -2 -11  -5 2.22181 2.06239   8
   2  11   5 6.03628 1.93830   3
  -3 -11  -5 6.03998 2.15274   8
  -3 -11  -5 6.29670 1.52185   6
   3  11   5 2.71326 2.83506   1
   3  11   5 7.94806 1.84962   3
  -4 -11  -5 11.3936 2.48206   8
  -4 -11  -5 13.2886 2.26172   6
   4  11   5 9.17282 1.90847   3
   4  11   5 10.2733 2.22429   1
  -5 -11  -5 1200.36 51.4198   8
  -5 -11  -5 1310.52 51.0479   6
   5  11   5 1155.94 51.1090   9
   5  11   5 1168.74 51.2971   1
   6  11   5 144.823 7.31321   9
   6  11   5 165.930 7.21934   1
   1 -12  -5 409.778 17.9060   3
  -1  12   5 420.922 18.2850   3
   0 -12  -5 3.49217 1.94522   8
   0 -12  -5 5.09554 2.31429   3
   0  12   5 3.80492 1.63198   3
  -1 -12  -5 25.1179 3.84459   3
  -1 -12  -5 25.7096 2.94388   8
   1  12   5 28.9472 2.95179   3
  -2 -12  -5 73.8724 4.65281   8
  -2 -12  -5 85.4090 5.19532   6
   2  12   5 73.1897 4.53283   3
  -3 -12  -5 1.79274 1.18749   6
  -3 -12  -5 2.61919 1.78760   8
   3  12   5 -1.3872 1.34003   3
  -4 -12  -5 116.418 6.38806   8
  -4 -12  -5 114.966 5.53749   6
  -5 -12  -5 372.827 15.9553   6
  -3  -9   6 900.416 38.1008  10
   2   9  -6 339.785 14.0376   3
  -2  -9   6 327.588 14.0433  10
  -2  -9   6 288.605 14.0479   3
   1   9  -6 38.5478 3.58458   3
  -1  -9   6 41.7212 3.83767  10
  -1  -9   6 36.5554 2.91619   3
   0   9  -6 176.482 7.88802   8
   0  -9   6 164.765 7.73168   3
   4   8  -6 40.1017 2.94159   3
  -4  -8   6 37.4503 2.74293   8
   3   8  -6 -3.2839 3.67897  11
   3   8  -6 0.38904 1.24367   3
  -3  -8   6 3.18145 1.38445   8
  -3  -8   6 1.70285 2.75464   3
  -3  -8   6 -0.7039 1.38983  10
   2   8  -6 155.853 8.18419   3
  -2  -8   6 155.478 7.49930   8
  -2  -8   6 156.083 7.57251  10
  -2  -8   6 148.483 7.68349   3
   1   8  -6 454.390 19.6308   8
   1   8  -6 430.615 19.7041   3
  -1  -8   6 448.967 19.6401  10
  -1  -8   6 447.581 19.5320   3
   0   8  -6 134.559 6.85329   8
   0  -8   6 139.136 7.47078  10
   0  -8   6 133.489 6.63582   3
  -1   8  -6 268.614 11.8768   8
   1  -8   6 251.509 11.5504   3
  -2   8  -6 17.7390 2.63886   8
  -2   8  -6 22.8510 3.13867   6
   2  -8   6 20.3812 3.88204   5
   2  -8   6 22.0766 2.07507   3
  -5  -7   6 465.824 19.7136  10
  -5  -7   6 407.285 19.6059   8
  -5  -7   6 484.467 19.2596   6
   4   7  -6 43.7807 3.20168   3
   4   7  -6 47.8561 4.62139  11
  -4  -7   6 42.6216 3.48139  10
  -4  -7   6 42.1816 3.23816   8
  -4  -7   6 41.9508 2.90708   6
   3   7  -6 196.535 9.58018   3
   3   7  -6 200.688 10.3472  11
  -3  -7   6 201.783 9.62617   8
  -3  -7   6 195.389 10.2616   3
  -3  -7   6 200.789 9.47884  10
   2   7  -6 719.349 31.9601   3
   2   7  -6 741.371 31.9082   8
  -2  -7   6 720.029 31.8088   3
  -2  -7   6 742.902 31.7905  10
  -2  -7   6 751.597 31.8723   8
   1   7  -6 13.5574 2.26087   8
   1   7  -6 9.87489 2.33917   3
  -1  -7   6 9.73411 2.15813  10
  -1  -7   6 9.18469 1.83344   3
  -1  -7   6 10.6857 2.17393   8
   0   7  -6 1378.16 59.3883   8
   0   7  -6 1362.69 59.4713   3
   0   7  -6 1359.95 58.9109   6
   0  -7   6 1426.25 59.0745   3
   0  -7   6 1428.75 59.2696  10
  -1   7  -6 998.695 42.5180   8
  -1   7  -6 974.897 42.1860   6
   1  -7   6 1034.81 42.1225   3
   1  -7   6 931.138 43.1882   5
   1  -7   6 995.590 42.5329  10
  -2   7  -6 736.300 31.6336   8
  -2   7  -6 762.670 31.4600   6
   2  -7   6 716.036 31.1391   3
   2  -7   6 704.113 32.3895   5
  -3   7  -6 85.8140 5.00128   6
  -3   7  -6 81.6612 4.72392   8
   3  -7   6 84.0648 5.43191   5
  -6  -6   6 716.289 33.6237   8
  -6  -6   6 865.397 33.3954   6
   5   6  -6 19.7294 4.24766  11
   5   6  -6 21.7927 2.83274   3
  -5  -6   6 27.9614 4.01912  10
  -5  -6   6 22.7097 2.69359   8
  -5  -6   6 25.0513 2.36897   6
   4   6  -6 3.23695 1.56524   3
   4   6  -6 4.35555 2.62459  11
  -4  -6   6 2.40344 1.71216  10
  -4  -6   6 2.37654 1.64485   8
  -4  -6   6 0.93940 1.31132   6
   3   6  -6 140.381 8.84674  11
   3   6  -6 153.983 7.92944   3
  -3  -6   6 152.166 7.90835  10
  -3  -6   6 153.310 8.76817   3
  -3  -6   6 148.053 7.86331   8
   2   6  -6 205.375 10.2039   3
   2   6  -6 199.689 10.1884   8
  -2  -6   6 212.520 9.91967  10
  -2  -6   6 201.451 10.0863   3
  -2  -6   6 222.701 10.1335   8
  -2  -6   6 180.759 9.32043   6
   1   6  -6 397.257 19.1056   3
   1   6  -6 412.013 19.0354   8
   1   6  -6 402.626 18.7298   6
  -1  -6   6 438.500 18.8826  10
  -1  -6   6 414.340 18.7861   3
  -1  -6   6 451.733 18.9745   8
   0   6  -6 26.5256 4.17443   6
   0   6  -6 18.1226 2.92231   8
   0  -6   6 24.7150 3.45316  10
   0  -6   6 20.6798 2.62152   3
   0  -6   6 17.8486 2.81375   8
  -1   6  -6 1499.29 64.9503   6
  -1   6  -6 1534.08 65.2858   8
   1  -6   6 1595.22 65.2661  10
   1  -6   6 1532.52 64.7710   3
   1  -6   6 1572.04 65.0287   2
   1  -6   6 1433.22 67.0405   5
  -2   6  -6 371.102 16.9758   8
  -2   6  -6 372.355 16.7644   6
   2  -6   6 349.062 17.8863   5
   2  -6   6 386.041 16.4198   3
   2  -6   6 370.800 16.6274   2
  -3   6  -6 0.44294 1.76675   6
  -3   6  -6 2.79347 1.78227   8
   3  -6   6 2.06963 1.72642   5
   3  -6   6 1.94403 1.26928   3
   3  -6   6 2.55780 1.71883   2
  -4   6  -6 11.9632 2.10061   6
  -4   6  -6 15.3379 2.27736   8
   4  -6   6 14.5852 2.73779   5
   6   5  -6 3.89704 2.68204  11
  -6  -5   6 5.64690 1.29314   6
  -6  -5   6 5.12140 1.72951   8
   5   5  -6 261.199 12.8425  11
   5   5  -6 277.729 12.3266   3
  -5  -5   6 246.606 12.4449   8
  -5  -5   6 288.394 12.7365  10
  -5  -5   6 265.317 11.9960   6
   4   5  -6 1016.64 41.8511   3
   4   5  -6 973.207 42.3442  11
  -4  -5   6 915.310 41.8742   8
  -4  -5   6 982.833 41.3786   6
   3   5  -6 1964.49 83.1203   3
   3   5  -6 1850.72 83.4743  11
  -3  -5   6 2054.64 83.2631   8
  -3  -5   6 1954.70 82.4902   6
  -3  -5   6 1956.01 83.1294   3
  -3  -5   6 1972.60 82.8781  10
   2   5  -6 1399.13 61.2316   8
   2   5  -6 1398.60 61.2454   3
  -2  -5   6 1526.24 61.2747   8
  -2  -5   6 1462.81 60.4676   6
  -2  -5   6 1366.30 60.8936  10
  -2  -5   6 1439.36 61.0739   3
   1   5  -6 3247.85 139.077   8
   1   5  -6 3201.45 138.684   6
   1   5  -6 3170.05 139.060   3
  -1  -5   6 3324.59 138.772   3
  -1  -5   6 3616.90 139.006   8
  -1  -5   6 3224.45 138.727  10
   0   5  -6 476.500 22.8466   6
   0   5  -6 493.393 23.4353   3
   0   5  -6 515.118 23.2042   8
   0  -5   6 512.814 22.9053  10
   0  -5   6 572.891 22.9744   8
   0  -5   6 524.161 22.7579   3
  -1   5  -6 2.52802 1.70052   8
  -1   5  -6 2.34267 1.98476   6
   1  -5   6 6.09991 2.51322  10
   1  -5   6 1.95168 1.79486   2
   1  -5   6 -1.0538 2.30004   5
   1  -5   6 0.40410 1.29610   3
  -2   5  -6 26.2204 3.49563   8
  -2   5  -6 28.7872 3.13875   6
   2  -5   6 26.3464 4.04164   5
   2  -5   6 25.3328 2.67546   3
   2  -5   6 28.3416 3.16479   2
  -3   5  -6 26.2870 3.54014   8
   3  -5   6 17.4398 2.42355   2
   3  -5   6 19.6976 2.73183   3
  -4   5  -6 38.5321 3.35362   6
  -4   5  -6 39.2213 4.09439   8
   4  -5   6 33.4552 3.27821   2
   4  -5   6 42.3841 4.22744   5
   5  -5   6 122.243 6.84043   5
   5  -5   6 103.360 5.90799   2
  -7  -4   6 5.93014 1.21605   6
   6   4  -6 69.1118 5.27539  11
   6   4  -6 72.4370 4.50180   3
  -6  -4   6 65.6510 3.94758   6
  -6  -4   6 61.7742 4.37652   8
   5   4  -6 28.6402 4.58286  11
   5   4  -6 24.0951 3.69261   1
   5   4  -6 25.1139 3.36590   3
  -5  -4   6 25.3883 2.84495   6
  -5  -4   6 29.2398 3.47376   8
  -5  -4   6 35.0294 5.96025  10
   4   4  -6 1175.20 49.8876   1
   4   4  -6 1151.45 50.3490  11
   4   4  -6 1147.89 49.7342   3
  -4  -4   6 1149.98 49.6222  10
  -4  -4   6 1152.17 49.9394   8
  -4  -4   6 1197.84 49.4234   6
   3   4  -6 14.4612 4.08001   1
   3   4  -6 14.0895 2.98982   8
   3   4  -6 6.75111 2.03883   3
   3   4  -6 10.9576 3.51417  11
  -3  -4   6 8.84220 3.14970   3
  -3  -4   6 8.82565 2.00500  10
  -3  -4   6 9.24025 2.03162   8
  -3  -4   6 6.25351 1.60059   6
   2   4  -6 103.962 6.53152   3
   2   4  -6 103.994 6.39782   8
  -2  -4   6 114.945 6.42561   8
  -2  -4   6 104.206 6.02607  10
  -2  -4   6 108.570 6.56015   3
  -2  -4   6 114.216 5.67519   6
   1   4  -6 528.370 23.8345   8
   1   4  -6 497.893 23.8557   3
   1   4  -6 503.791 23.6103   6
  -1  -4   6 523.880 23.4775  10
  -1  -4   6 552.328 22.9758   6
  -1  -4   6 542.594 23.5290   3
  -1  -4   6 584.325 23.7698   8
   0   4  -6 99.9852 7.83417   3
   0   4  -6 105.555 6.56742   6
   0   4  -6 118.600 6.81306   8
   0  -4   6 118.204 6.27349   3
   0  -4   6 129.681 6.80369   8
   0  -4   6 125.519 6.78945   2
   0  -4   6 120.055 6.52813  10
  -1   4  -6 2204.15 96.5027   6
  -1   4  -6 2294.08 96.9472   8
   1  -4   6 2246.74 96.6449  10
   1  -4   6 2323.50 96.3826   3
   1  -4   6 2442.92 96.6803   2
   1  -4   6 2201.91 98.0271   5
  -2   4  -6 372.374 16.9836   6
  -2   4  -6 378.298 17.4667   8
   2  -4   6 374.128 17.0901   2
   2  -4   6 378.200 18.7279   5
   2  -4   6 385.087 17.9445  10
   2  -4   6 369.817 16.7229   3
  -3   4  -6 379.093 17.9433   8
  -3   4  -6 404.742 17.5332   6
   3  -4   6 384.361 17.0833   3
   3  -4   6 379.172 17.6414   2
   3  -4   6 396.749 19.3364   5
  -4   4  -6 722.854 30.5672   6
  -4   4  -6 684.754 30.8987   8
   4  -4   6 725.390 34.9631   5
   4  -4   6 687.256 30.6837   2
  -5   4  -6 790.293 32.2969   6
   5  -4   6 742.406 33.9449   5
   5  -4   6 719.787 32.3213   2
   6  -4   6 251.417 10.9726   2
   6  -4   6 240.546 12.0153   5
  -7  -3   6 358.576 16.4865   8
   6   3  -6 822.414 36.6803  11
   6   3  -6 858.603 36.1716   3
   6   3  -6 874.329 36.7119   1
  -6  -3   6 908.497 36.2820   6
  -6  -3   6 784.806 36.5572   8
   5   3  -6 556.892 24.2666   3
   5   3  -6 557.039 24.6031   1
  -5  -3   6 547.829 24.0390   6
  -5  -3   6 551.419 24.6397   8
   4   3  -6 985.999 44.6380   1
   4   3  -6 1023.27 45.0637  11
  -4  -3   6 1078.43 44.4880  10
  -4  -3   6 1051.34 44.7821   8
  -4  -3   6 1041.15 44.1673   6
   3   3  -6 1674.25 69.3519   1
   3   3  -6 1549.50 69.5379  11
   3   3  -6 1654.82 69.0682   3
   3   3  -6 1618.45 69.1313   8
  -3  -3   6 1612.50 69.2322   3
  -3  -3   6 1588.38 68.5616   6
  -3  -3   6 1669.67 69.2493   8
   2   3  -6 146.228 8.04024   3
   2   3  -6 133.954 8.35729   6
   2   3  -6 148.713 7.95209   8
  -2  -3   6 151.480 8.05480   3
  -2  -3   6 143.608 7.17309   6
  -2  -3   6 150.363 7.65044  10
  -2  -3   6 168.698 8.01226   8
   1   3  -6 2333.25 97.7767   3
   1   3  -6 2392.20 97.7779   8
   1   3  -6 1969.26 101.047   4
  -1  -3   6 2468.96 97.0026   6
  -1  -3   6 2424.45 98.1084   3
  -1  -3   6 2314.61 97.4572  10
  -1  -3   6 2245.26 98.7747   8
   0   3  -6 844.692 39.9738   4
   0  -3   6 920.010 38.7929   2
   0  -3   6 924.218 38.6568   8
  -1   3  -6 195.190 10.0287   6
  -1   3  -6 217.608 10.5599   8
   1  -3   6 200.466 11.7071   5
   1  -3   6 208.749 9.83756   3
   1  -3   6 200.537 10.2904  10
   1  -3   6 228.902 10.2187   2
  -2   3  -6 141.115 7.43782   6
  -2   3  -6 137.819 7.99950   8
   2  -3   6 132.955 8.53726  10
   2  -3   6 146.977 7.58501   2
   2  -3   6 153.043 7.16239   3
   2  -3   6 141.472 8.89189   5
  -3   3  -6 1275.24 54.3432   8
  -3   3  -6 1271.59 53.9830   6
   3  -3   6 1244.83 55.8126   5
   3  -3   6 1284.28 53.5035   3
   3  -3   6 1241.60 54.0233   2
  -4   3  -6 26.6433 3.82058   6
  -4   3  -6 16.2919 3.66279   8
   4  -3   6 17.8887 3.50833   5
  -5   3  -6 371.178 16.0490   6
   5  -3   6 339.160 16.0256   2
   5  -3   6 345.402 17.6612   5
   6  -3   6 140.917 7.04425   2
   6  -3   6 139.186 8.23547   5
  -7  -2   6 79.4102 5.99291   8
  -7  -2   6 99.2344 4.76045   6
   6   2  -6 615.116 27.7927   1
   6   2  -6 643.072 27.2418   3
   6   2  -6 576.617 28.0320   2
   6   2  -6 649.303 27.8668  11
  -6  -2   6 639.249 27.7832   8
  -6  -2   6 678.022 27.3464   6
   5   2  -6 296.517 13.5988   1
   5   2  -6 278.822 13.0328   3
   5   2  -6 276.714 13.9262  11
  -5  -2   6 277.706 13.4489   8
  -5  -2   6 286.576 12.9505   6
   4   2  -6 276.858 13.1506   1
   4   2  -6 280.962 12.8637   3
   4   2  -6 263.873 13.8371  11
  -4  -2   6 279.629 12.4664   6
  -4  -2   6 247.602 13.3117  10
  -4  -2   6 285.431 13.1315   8
   3   2  -6 55.0846 4.93159   1
   3   2  -6 64.2592 4.48717   3
   3   2  -6 58.6894 9.56304  11
   3   2  -6 64.5276 5.09704   8
  -3  -2   6 66.6670 4.50140   8
  -3  -2   6 64.8021 4.01261   6
  -3  -2   6 59.3590 4.85672  10
  -3  -2   6 61.9470 7.39351   3
   2   2  -6 1894.66 85.3631   6
   2   2  -6 2006.52 85.8766   8
   2   2  -6 2031.00 85.8372   3
   2   2  -6 1946.89 86.3593   1
  -2  -2   6 2042.20 85.6052  10
  -2  -2   6 2281.57 85.9805   8
  -2  -2   6 1912.99 85.2738   6
  -2  -2   6 2101.06 85.7747   3
  -2  -2   6 2031.38 86.8641   4
   1   2  -6 330.207 15.4267   8
   1   2  -6 325.140 15.3044   6
   1   2  -6 338.017 16.7606   4
   1   2  -6 344.743 15.7704   3
  -1  -2   6 306.629 17.1603   7
  -1  -2   6 380.945 15.4251   8
  -1  -2   6 340.022 15.1785  10
  -1  -2   6 320.101 15.2207   6
   0   2  -6 2333.09 97.2615   8
   0   2  -6 2013.90 96.2928   3
   0   2  -6 2195.84 96.2868   4
   0  -2   6 2440.64 96.0099   8
   0  -2   6 2382.72 96.1112   2
  -1   2  -6 1092.93 50.4792   4
  -1   2  -6 1222.75 50.7182   8
  -1   2  -6 1177.25 50.7994   6
   1  -2   6 1282.93 50.2842   2
   1  -2   6 1154.81 49.8803   3
   1  -2   6 1117.97 50.1505  10
  -2   2  -6 8.23686 2.92048   8
   2  -2   6 6.49678 2.88531  10
   2  -2   6 7.17143 2.19238   2
  -3   2  -6 1692.21 72.3172   6
  -3   2  -6 1747.14 72.7919   8
   3  -2   6 1674.81 71.8475   3
   3  -2   6 1612.67 73.4422  10
   3  -2   6 1743.91 74.2665   5
   3  -2   6 1761.79 72.4384   2
  -4   2  -6 452.638 22.0495   6
   4  -2   6 431.660 19.8221   2
   4  -2   6 445.732 21.8204   5
   5  -2   6 88.9985 6.90836   5
   5  -2   6 97.2502 5.71807   2
   6  -2   6 337.056 14.9524   2
   6  -2   6 318.360 16.4518   5
   7  -2   6 -3.3707 2.88690   5
   7  -2   6 2.83169 1.29168   2
   7   1  -6 52.2687 4.40342   2
  -7  -1   6 58.2925 3.50927   6
  -7  -1   6 46.0566 5.06997   8
   6   1  -6 747.675 30.9325   1
   6   1  -6 696.182 30.1221   3
   6   1  -6 698.385 30.7060  11
  -6  -1   6 707.074 30.2879   6
  -6  -1   6 667.804 30.7271   8
   5   1  -6 50.2926 3.83342   3
   5   1  -6 47.7405 5.70592  11
   5   1  -6 55.1409 4.67795   1
  -5  -1   6 45.1347 4.28295   8
  -5  -1   6 47.5450 3.83400   6
   4   1  -6 0.14629 1.82845   3
   4   1  -6 1.99358 3.27936  11
   4   1  -6 4.96186 2.48728   1
  -4  -1   6 1.56968 1.93538   8
  -4  -1   6 0.68670 1.48357   6
   3   1  -6 298.272 13.9546   1
   3   1  -6 286.255 13.7498   8
  -3  -1   6 282.230 14.4420   3
  -3  -1   6 281.444 13.1131   6
  -3  -1   6 289.697 13.7723  10
  -3  -1   6 316.154 13.8265   8
   2   1  -6 990.314 41.0384   3
   2   1  -6 905.889 41.1108   1
   2   1  -6 916.404 40.6122   6
   2   1  -6 973.708 41.1515   8
  -2  -1   6 1036.79 41.8092   3
  -2  -1   6 1011.13 41.7794   4
  -2  -1   6 985.398 41.0046   8
  -2  -1   6 860.980 40.7576  10
  -2  -1   6 905.538 40.4754   6
   1   1  -6 1552.02 67.1431   4
   1   1  -6 1536.95 66.9832   3
   1   1  -6 1517.80 66.7471   6
   1   1  -6 1574.05 66.9785   8
  -1  -1   6 1462.82 66.9436   7
  -1  -1   6 1514.26 66.3804   6
  -1  -1   6 1620.96 67.3280   4
  -1  -1   6 1778.39 66.9460   8
  -1  -1   6 1545.63 66.7138  10
  -1  -1   6 1660.28 66.7844   3
   0   1  -6 7645.69 320.167   8
   0   1  -6 7052.47 319.906   6
   0   1  -6 7933.86 320.274   4
   0  -1   6 7935.32 320.152   2
   0  -1   6 7240.97 319.906  10
   0  -1   6 7181.36 319.745   3
   0  -1   6 8545.82 320.119   8
  -1   1  -6 3561.19 139.249   4
  -1   1  -6 3386.49 139.281   8
  -1   1  -6 3204.76 138.986   6
   1  -1   6 3115.30 139.000  10
   1  -1   6 3281.69 138.746   3
   1  -1   6 3533.25 139.102   2
   1  -1   6 3071.68 140.169   5
  -2   1  -6 14.4731 3.36741   8
   2  -1   6 21.2360 3.66897  10
   2  -1   6 11.6178 2.07735   2
   3  -1   6 1630.07 71.8193  10
   3  -1   6 1716.48 72.6879   5
   3  -1   6 1682.52 70.8276   2
   3  -1   6 1651.02 70.3179   3
   4  -1   6 40.1758 4.89385   5
   4  -1   6 51.7536 3.83434   2
   5  -1   6 501.128 22.6917   2
   5  -1   6 525.209 24.8910   5
   6  -1   6 94.7526 5.42703   2
   6  -1   6 75.1862 6.52379   5
   7  -1   6 260.509 11.0799   2
   7  -1   6 220.162 14.3764   5
   7   0  -6 204.967 10.2474   2
  -7   0   6 237.906 9.68632   6
  -7   0   6 191.732 10.4694   8
   6   0  -6 375.785 16.2865   3
   6   0  -6 320.848 17.4097   2
   6   0  -6 380.293 16.9149  11
  -6   0   6 400.308 16.5019   6
  -6   0   6 367.504 16.9747   8
   5   0  -6 1084.76 46.6115   3
   5   0  -6 1093.03 47.2591  11
   5   0  -6 1144.52 47.3260   1
  -5   0   6 1067.44 47.1298   8
  -5   0   6 1072.37 46.5320   6
   4   0  -6 114.347 8.28683  11
   4   0  -6 109.073 6.88280   1
   4   0  -6 121.090 6.38643   3
  -4   0   6 116.068 6.22745   6
  -4   0   6 114.075 6.76681   8
   3   0  -6 18.0355 2.84484   8
   3   0  -6 15.6122 2.49362   3
  -3   0   6 15.6494 3.60964   8
   2   0  -6 186.420 9.48947   6
   2   0  -6 200.777 9.80024   8
   2   0  -6 190.204 10.1685   1
  -2   0   6 206.419 11.9069   7
  -2   0   6 201.126 9.39654   6
  -2   0   6 205.656 9.78561   8
  -2   0   6 209.622 10.6899   4
   1   0  -6 195.351 10.6784   3
   1   0  -6 203.053 10.1840   6
   1   0  -6 219.573 10.4041   8
  -1   0   6 240.306 10.4264   8
  -1   0   6 213.599 10.4277  10
  -1   0   6 220.592 10.6358   7
  -1   0   6 193.882 9.85104   6
  -1   0   6 220.583 10.7486   4
   0   0  -6 550.038 24.6559   8
   0   0  -6 517.721 25.9867   4
   0   0  -6 549.142 24.5851   6
   0   0  -6 589.376 24.6029   4
   0   0   6 589.310 24.5766   2
   0   0   6 565.531 24.2955   3
  -1   0  -6 1067.32 46.3182   4
  -1   0  -6 1049.35 46.7022   8
   1   0   6 1075.03 46.0668   3
   1   0   6 1155.67 46.4178   2
   1   0   6 1082.06 46.4982  10
  -2   0  -6 756.424 32.7905   8
  -2   0  -6 756.746 31.9198   4
   2   0   6 727.232 31.5536   3
   2   0   6 733.849 31.8990   2
   2   0   6 757.415 33.4326   5
   2   0   6 700.032 32.2628  10
  -3   0  -6 379.051 17.7666   4
   3   0   6 328.619 16.5280   3
   3   0   6 389.406 17.0077   2
   3   0   6 397.645 18.7896   5
   3   0   6 401.609 20.0183  10
   4   0   6 81.1673 4.92664   2
   4   0   6 82.9810 9.01378   9
   4   0   6 80.9717 6.46658   5
   5   0   6 41.8080 5.04641   5
   5   0   6 53.1431 3.90404   2
   6   0   6 379.788 17.0970   2
   6   0   6 366.673 19.1028   5
   7   0   6 1744.05 73.6338   2
   7   0   6 1745.28 75.5507   5
   7  -1  -6 2.68700 1.60069   2
  -7   1   6 1.98000 3.11057   8
  -7   1   6 2.55309 1.30870   6
   6  -1  -6 78.4685 4.74143   3
   6  -1  -6 77.3656 5.52536   2
   6  -1  -6 68.6344 5.84664  11
  -6   1   6 69.9631 5.28671   8
  -6   1   6 79.2111 4.65365   6
   5  -1  -6 1495.84 63.2713   3
   5  -1  -6 1487.20 63.8185  11
  -5   1   6 1495.48 63.9399   8
  -5   1   6 1493.53 63.3265   6
   4  -1  -6 4015.78 170.069   3
   4  -1  -6 4029.01 170.568   1
   4  -1  -6 4190.84 170.578  11
  -4   1   6 4191.95 170.539   8
  -4   1   6 3828.00 169.833   6
   3  -1  -6 678.385 28.8497   8
  -3   1   6 641.367 29.5659   8
   2  -1  -6 4377.54 195.211   1
   2  -1  -6 4511.52 194.588   6
   2  -1  -6 4605.05 195.038   3
   2  -1  -6 4679.05 195.079   8
  -2   1   6 4871.17 195.178   8
  -2   1   6 4690.56 195.305   3
  -2   1   6 4763.87 195.659   7
  -2   1   6 4533.97 195.133  10
  -2   1   6 4906.85 195.419   4
  -2   1   6 4570.63 194.682   6
   1  -1  -6 71.9896 4.87206   6
   1  -1  -6 79.2192 6.75681   3
   1  -1  -6 78.6330 5.20498   8
   1  -1  -6 78.0046 5.27821   4
  -1   1   6 70.5669 6.06082   7
  -1   1   6 81.1097 5.29439   4
  -1   1   6 74.8528 5.19468   3
  -1   1   6 69.5337 4.65771   6
  -1   1   6 90.3205 5.21797   8
   0  -1  -6 43.8803 6.90783   4
   0  -1  -6 47.1685 5.50475   8
   0  -1  -6 40.5224 4.09288   4
   0   1   6 38.9883 3.70525   2
   0   1   6 43.9437 3.74488   3
  -1  -1  -6 574.593 26.7353   4
   1   1   6 574.382 25.8261   3
   1   1   6 604.991 26.3599  10
   1   1   6 643.383 26.1396   2
   2   1   6 124.786 6.61288   2
   2   1   6 118.711 7.51854  10
   2   1   6 120.834 7.80640   5
   2   1   6 116.611 6.28158   3
  -3  -1  -6 147.770 7.64373   4
   3   1   6 150.118 10.7549   9
   3   1   6 132.614 7.53481   3
   3   1   6 150.941 7.94930   2
   3   1   6 146.079 9.28757  10
   3   1   6 157.605 9.07204   5
   4   1   6 1940.67 82.2165   9
   4   1   6 1646.28 82.6255  10
   4   1   6 2055.21 82.9407   5
   4   1   6 1976.99 80.6570   2
   5   1   6 635.221 28.7542   2
   5   1   6 701.818 30.3189   9
   5   1   6 647.564 30.9244   5
   6   1   6 109.265 6.21797   2
   6   1   6 109.572 8.07968   5
   7   1   6 404.779 18.2277   2
   7   1   6 421.001 20.5514   5
   7  -2  -6 8.41604 1.58889   2
   6  -2  -6 156.511 8.01369   2
   6  -2  -6 139.075 7.18438   3
   6  -2  -6 138.635 8.50184  11
  -6   2   6 136.419 7.93253   8
  -6   2   6 157.567 7.31386   6
   5  -2  -6 24.0572 3.07530   3
   5  -2  -6 21.5326 3.73831  11
  -5   2   6 28.3848 3.95904   8
  -5   2   6 26.7126 3.15081   6
   4  -2  -6 2156.04 89.4526  11
   4  -2  -6 2084.05 88.9821   3
  -4   2   6 2131.86 89.5424   8
  -4   2   6 2056.72 88.8557   6
   3  -2  -6 202.709 9.85876   8
   3  -2  -6 191.300 9.38027   3
  -3   2   6 184.693 9.23176   6
  -3   2   6 192.765 9.75619   8
   2  -2  -6 169.572 8.78343   6
   2  -2  -6 185.057 9.10639   8
  -2   2   6 191.895 9.17328   8
  -2   2   6 179.025 10.8022   7
  -2   2   6 180.342 8.66600   6
  -2   2   6 184.215 9.83666   3
  -2   2   6 191.508 9.92700   4
   1  -2  -6 63.2203 4.39672   8
   1  -2  -6 51.7760 3.88051   6
   1  -2  -6 62.8065 5.89320   3
  -1   2   6 54.1842 5.04788   7
  -1   2   6 46.6725 4.68204   3
  -1   2   6 56.7017 4.47694   4
  -1   2   6 54.2896 3.94591   6
  -1   2   6 61.0519 4.52077   8
   0  -2  -6 92.9852 5.36990   4
   0  -2  -6 92.7782 7.79131   4
   0   2   6 96.1214 5.81960   3
  -1  -2  -6 231.540 12.1522   4
  -1  -2  -6 246.650 11.1454   4
   1   2   6 236.049 11.9150  10
   1   2   6 250.168 11.3985   3
  -2  -2  -6 1264.29 52.3630   4
   2   2   6 1272.35 52.5413   2
   2   2   6 1279.90 54.0749   5
   2   2   6 1210.33 52.9457  10
   2   2   6 1145.08 52.2232   3
  -3  -2  -6 57.7609 4.53325   4
   3   2   6 61.8343 4.63595   2
   3   2   6 72.3473 7.54437   5
   3   2   6 62.7752 6.16406  10
   3   2   6 48.2839 5.65382   3
   3   2   6 62.4084 6.47347   9
   3   2   6 69.1142 7.42101   1
   4   2   6 822.417 37.5198  10
   4   2   6 707.335 38.1150   9
   4   2   6 772.858 37.3178   2
   4   2   6 919.691 36.9654   1
   4   2   6 952.405 38.3981   5
   5   2   6 738.605 32.4081   9
   5   2   6 706.353 32.9745   5
   5   2   6 685.480 30.7448   2
   6   2   6 64.4186 6.45776   5
   6   2   6 59.8035 4.55075   2
   7   2   6 521.577 22.9240   2
   7   2   6 530.537 25.3738   5
   7  -3  -6 1120.79 48.8228   2
  -7   3   6 1187.80 48.6123   6
   6  -3  -6 64.7212 4.30642   2
   6  -3  -6 57.3197 4.20425   3
  -6   3   6 68.4966 4.04180   6
  -6   3   6 61.5586 4.82569   8
   5  -3  -6 666.904 28.0872   2
   5  -3  -6 643.666 27.1301   3
   5  -3  -6 530.868 28.6258  11
  -5   3   6 639.723 27.9895   8
  -5   3   6 647.176 27.2160   6
   4  -3  -6 925.282 39.8058   3
   4  -3  -6 937.952 40.5581  11
  -4   3   6 921.286 40.4765   8
  -4   3   6 924.820 39.7716   6
   3  -3  -6 871.896 38.4356   8
   3  -3  -6 880.160 38.2686   3
  -3   3   6 930.552 38.7701   8
  -3   3   6 878.975 38.0925   6
   2  -3  -6 14.5580 2.34281   6
   2  -3  -6 17.5401 3.06052   8
   2  -3  -6 15.1922 2.35180   3
  -2   3   6 21.3424 3.64076   3
  -2   3   6 14.1308 2.44409   8
  -2   3   6 18.0077 2.72991   6
  -2   3   6 9.19547 3.09117   4
  -2   3   6 12.8453 4.60931   7
   1  -3  -6 3266.79 141.061   6
   1  -3  -6 3278.74 141.796   4
   1  -3  -6 3316.12 141.497   3
   1  -3  -6 3430.83 141.513   8
  -1   3   6 3361.17 141.649   3
  -1   3   6 3643.91 141.745   8
  -1   3   6 3416.05 141.630   4
  -1   3   6 3381.63 141.576   7
  -1   3   6 3209.99 141.114   6
   0  -3  -6 54.5468 4.47306   8
   0  -3  -6 61.3853 7.83767   4
   0  -3  -6 51.0638 4.25090   6
   0  -3  -6 53.6400 4.87284   4
   0   3   6 56.0087 4.27061   3
  -1  -3  -6 4.16949 1.65757   4
   1   3   6 6.47075 1.84576   3
   1   3   6 7.82722 3.03939  10
  -2  -3  -6 7148.94 305.075   4
   2   3   6 7141.09 305.579  10
   2   3   6 7164.59 305.007   3
   2   3   6 7716.52 307.011   5
  -3  -3  -6 1576.73 67.2353   4
   3   3   6 1649.64 68.1748  10
   3   3   6 1542.72 67.3708   2
   3   3   6 1632.83 72.3977   5
   3   3   6 1537.23 67.3418   3
   3   3   6 1609.60 68.6198   1
   4   3   6 558.386 25.3184   1
   4   3   6 531.902 25.5483   9
   4   3   6 585.156 26.4839   5
   4   3   6 536.661 24.2526   2
   5   3   6 7.11775 3.54486   9
   5   3   6 14.1262 2.46137   2
   5   3   6 13.6974 3.71244   1
   6   3   6 73.7476 7.35290   5
   6   3   6 77.2971 7.01388   9
   6  -4  -6 0.36174 1.17605   2
  -6   4   6 3.53580 1.97558   8
  -6   4   6 1.31266 1.25256   6
   5  -4  -6 570.037 25.4732   3
   5  -4  -6 539.476 25.4664  11
  -5   4   6 603.893 25.7651   8
   4  -4  -6 237.285 11.6033   3
   4  -4  -6 231.442 13.2652  11
  -4   4   6 264.272 11.7074   6
  -4   4   6 265.293 12.5691   8
   3  -4  -6 25.8930 3.13208   3
   3  -4  -6 25.6187 4.39648   8
  -3   4   6 21.0585 3.70718   8
  -3   4   6 23.0922 2.88841   6
   2  -4  -6 1417.52 61.3485   3
   2  -4  -6 1387.33 60.9079   6
   2  -4  -6 1469.58 61.5138   8
  -2   4   6 1564.29 61.9086   8
  -2   4   6 1475.45 61.1973   6
  -2   4   6 1356.55 62.1065   4
   1  -4  -6 4.73372 3.42334   4
   1  -4  -6 12.9300 2.36811   6
   1  -4  -6 11.2978 2.38277   3
   1  -4  -6 13.3462 2.18353   8
  -1   4   6 12.4770 1.91489   6
  -1   4   6 7.09151 3.09629   7
  -1   4   6 11.8612 2.58529   3
  -1   4   6 11.5179 2.35751   8
   0  -4  -6 1821.57 79.0583   4
   0  -4  -6 1872.15 78.4725   6
   0  -4  -6 1909.81 78.8392   8
   0   4   6 1789.74 79.1805  10
   0   4   6 1852.09 78.9105   3
   0   4   6 1939.20 79.0844   8
  -1  -4  -6 61.3555 4.96498   8
  -1  -4  -6 57.8532 4.31219   4
  -1  -4  -6 47.5372 4.67106   6
   1   4   6 45.3930 6.24665   5
   1   4   6 58.5878 4.25862   3
   1   4   6 53.0439 5.30224  10
  -2  -4  -6 537.197 23.4316   4
   2   4   6 530.452 23.9464  10
   2   4   6 533.737 23.9157   9
   2   4   6 543.882 25.2243   5
   2   4   6 518.446 23.3736   3
  -3  -4  -6 1151.00 51.3147   4
   3   4   6 1227.35 52.0924   9
   3   4   6 1268.78 53.4325   5
   3   4   6 1263.37 52.1002  10
   3   4   6 1111.09 51.3123   3
   4   4   6 61.4963 6.03565   9
   4   4   6 70.6039 6.64361   5
   4   4   6 67.5384 6.53317   1
   5   4   6 577.002 26.1209   1
   5   4   6 586.628 27.5790   5
   5   4   6 536.617 26.1960   9
   6   4   6 44.8790 6.76963   5
   6   4   6 39.4948 5.03904   1
   6   4   6 30.6603 4.63344   9
   7   4   6 26.4607 4.30600   9
   7   4   6 39.1228 7.22932   5
   6  -5  -6 50.0601 3.18830   2
  -6   5   6 47.7485 3.96231   8
  -6   5   6 49.3482 3.06564   6
   5  -5  -6 23.8323 2.77852   3
   5  -5  -6 24.4377 2.91446   2
  -5   5   6 26.7949 2.81367   6
  -5   5   6 24.0952 3.58046   8
   4  -5  -6 257.641 11.6825   3
   4  -5  -6 249.275 12.1423   2
  -4   5   6 246.872 12.4424   8
  -4   5   6 245.801 11.5835   6
   3  -5  -6 3050.42 128.509   3
  -3   5   6 3109.31 129.228   8
  -3   5   6 3083.12 128.444   6
  -3   5   6 2973.72 129.624   3
   2  -5  -6 671.213 29.5997   8
   2  -5  -6 664.214 29.4441   3
  -2   5   6 711.152 30.0741   8
  -2   5   6 664.038 29.2322   6
   1  -5  -6 1969.48 85.7786   6
   1  -5  -6 2068.26 86.3518   8
   1  -5  -6 2069.59 86.5137   3
   1  -5  -6 2002.30 87.3737   4
  -1   5   6 1976.77 85.9145   6
  -1   5   6 2123.27 86.6764   8
  -1   5   6 2079.49 86.7101   3
   0  -5  -6 5132.69 214.874   3
   0  -5  -6 5316.23 215.434   4
   0  -5  -6 5135.16 214.847   8
   0  -5  -6 5062.58 214.386   6
   0   5   6 5003.99 214.342   6
   0   5   6 5428.19 215.156   8
   0   5   6 4986.08 217.059   5
   0   5   6 4929.17 214.975   3
  -1  -5  -6 743.356 30.6984   6
  -1  -5  -6 720.079 31.5084   4
  -1  -5  -6 729.248 31.1261   8
   1   5   6 742.202 33.2074   5
   1   5   6 733.413 31.5127   9
   1   5   6 708.503 31.1205   3
   1   5   6 633.413 31.5998   8
  -2  -5  -6 228.954 11.6259   6
  -2  -5  -6 248.638 12.1114   4
  -2  -5  -6 242.061 12.0159   8
   2   5   6 239.740 13.3885   5
   2   5   6 249.032 12.1229   9
   2   5   6 250.991 11.6597   3
   3   5   6 2244.92 91.1841   5
   3   5   6 1821.53 89.8345   1
   3   5   6 2242.51 89.5377   9
   4   5   6 4.59491 2.64118   9
   4   5   6 2.00182 2.90806   5
   4   5   6 4.13251 2.96559   1
   5   5   6 9.31433 3.47027   1
   5   5   6 4.35925 2.88492   9
   6   5   6 5.19355 2.91938   9
   6   5   6 23.6762 6.82909   5
   6   5   6 12.7109 3.56230   1
   7   5   6 3.67966 3.21399   9
   7   5   6 5.98557 4.35717   5
   7   5   6 2.85510 2.80298   1
   6  -6  -6 13.8357 1.95199   2
  -6   6   6 13.3347 2.04265   8
  -6   6   6 13.0002 1.71586   6
   5  -6  -6 7.70569 1.60436   3
   5  -6  -6 4.41168 1.44609   2
  -5   6   6 1.61636 1.22165   6
  -5   6   6 1.80489 1.79735   8
   4  -6  -6 1.54936 3.24838  11
   4  -6  -6 5.93344 1.75792   3
  -4   6   6 8.43570 2.31430   8
  -4   6   6 7.86906 1.71909   6
   3  -6  -6 905.734 39.2212   3
   3  -6  -6 917.963 39.5466   2
  -3   6   6 933.844 39.9742   8
  -3   6   6 868.080 40.5096   3
  -3   6   6 931.219 39.0922   6
   2  -6  -6 184.492 9.28593   8
   2  -6  -6 176.353 9.05627   3
  -2   6   6 181.507 8.72977   6
  -2   6   6 186.450 9.68461   8
   1  -6  -6 112.256 6.44150   8
   1  -6  -6 114.872 5.85786   6
   1  -6  -6 116.413 6.72748   3
  -1   6   6 123.326 6.94510   8
  -1   6   6 112.888 7.22677   3
  -1   6   6 110.562 5.89917   6
   0  -6  -6 196.846 13.1693   4
   0  -6  -6 203.363 9.97954   8
   0  -6  -6 199.721 9.36603   6
   0  -6  -6 212.090 11.0450   3
   0   6   6 189.169 10.5740   6
   0   6   6 212.120 10.5234   8
   0   6   6 202.544 10.3687   3
   0   6   6 213.354 12.3600   5
  -1  -6  -6 394.967 17.4656   6
  -1  -6  -6 388.519 19.4881   4
  -1  -6  -6 412.692 18.0610   8
   1   6   6 391.762 18.5736   9
   1   6   6 402.689 18.1719   3
   1   6   6 384.594 18.7368   8
   1   6   6 417.255 20.2582   5
  -2  -6  -6 1836.37 78.1227   8
   2   6   6 1900.87 80.4439   5
   2   6   6 1851.27 78.3831   9
   2   6   6 1780.92 78.0805   3
  -3  -6  -6 308.709 14.4030   6
  -3  -6  -6 312.235 14.8836   8
   3   6   6 320.786 14.9315   9
   3   6   6 286.478 15.3329   1
   3   6   6 316.972 16.6654   5
   4   6   6 557.014 28.8718   1
   4   6   6 674.751 28.5168   9
   4   6   6 664.316 30.4683   5
   5   6   6 35.6919 6.94426   5
   5   6   6 28.4329 4.29416   9
   5   6   6 23.1813 4.45093   1
   6   6   6 3208.10 135.158   9
   6   6   6 3325.06 137.149   5
   6   6   6 3035.60 135.401   1
   7   6   6 377.373 18.2659   1
   7   6   6 413.470 18.5080   9
   8   6   6 285.216 14.6602   9
   5  -7  -6 850.071 38.2486   2
   5  -7  -6 879.599 38.0826   3
  -5   7   6 963.935 38.2099   6
  -5   7   6 916.706 38.7597   8
   4  -7  -6 195.928 9.68859   2
   4  -7  -6 204.800 9.55233   3
  -4   7   6 200.162 10.1803   8
  -4   7   6 211.300 9.41378   6
   3  -7  -6 832.193 36.9068   3
   3  -7  -6 827.693 37.0620   2
  -3   7   6 873.857 38.5901   3
  -3   7   6 880.205 37.6876   8
  -3   7   6 877.347 36.7361   6
   2  -7  -6 1599.63 68.6285   8
   2  -7  -6 1566.34 68.4624   3
  -2   7   6 1737.18 70.4532   3
  -2   7   6 1580.96 68.1369   6
  -2   7   6 1583.47 69.0716   8
   1  -7  -6 18.0247 3.07231   8
   1  -7  -6 14.7220 2.44726   3
   1  -7  -6 18.1345 2.63380   6
  -1   7   6 17.8583 2.78499   8
  -1   7   6 17.6319 3.01653   3
  -1   7   6 18.6957 2.45276   6
   0  -7  -6 36.6731 3.56155   8
   0  -7  -6 31.6078 4.80346   3
   0  -7  -6 39.3071 2.94593   6
   0   7   6 34.6890 4.06611   3
   0   7   6 38.2452 4.36285   8
  -1  -7  -6 1169.33 50.0148   8
  -1  -7  -6 1133.14 49.4058   6
   1   7   6 1117.49 50.2010   8
   1   7   6 1255.45 52.7839   5
   1   7   6 1154.88 50.1702   3
  -2  -7  -6 6.53295 2.17686   8
   2   7   6 9.57365 3.17328   9
   2   7   6 5.87811 2.08236   3
  -3  -7  -6 648.752 28.5684   8
  -3  -7  -6 635.678 27.9159   6
   3   7   6 650.564 28.7579   9
   3   7   6 670.988 30.9356   5
   3   7   6 640.992 28.5076   3
   3   7   6 633.291 29.1942   1
  -4  -7  -6 2077.47 90.7740   6
   4   7   6 2265.86 93.9483   5
   4   7   6 2066.17 92.2450   1
   4   7   6 2206.69 91.7131   9
   5   7   6 497.507 23.9320   1
   5   7   6 494.813 23.1014   9
   5   7   6 529.765 25.3665   5
   6   7   6 31.8572 5.34999   1
   6   7   6 41.6008 6.92527   5
   6   7   6 54.0264 4.71724   9
   7   7   6 211.303 10.6725   1
  -5   8   6 175.581 8.18752   8
   4  -8  -6 -0.2590 1.20103   3
  -4   8   6 4.44304 1.57204   8
  -4   8   6 0.36294 1.08199   6
   3  -8  -6 461.045 20.6064   3
  -3   8   6 477.098 20.3343   6
  -3   8   6 466.320 21.2201   8
   2  -8  -6 52.2618 3.97792   3
   2  -8  -6 43.7163 4.10595   8
  -2   8   6 50.9751 4.27220   8
  -2   8   6 44.2582 3.24924   6
  -2   8   6 48.0397 6.13076   3
   1  -8  -6 101.080 6.17834   3
   1  -8  -6 103.449 6.07459   8
  -1   8   6 100.456 5.33854   6
  -1   8   6 103.621 6.76246   3
  -1   8   6 103.659 6.35094   8
   0  -8  -6 4.82172 1.92411   8
   0  -8  -6 4.07526 1.46531   6
   0   8   6 2.44997 2.07495   3
   0   8   6 7.15118 2.16188   8
  -1  -8  -6 1408.22 60.7397   6
  -1  -8  -6 1469.75 61.4159   8
   1   8   6 1410.42 61.5660   3
   1   8   6 1455.62 64.1369   5
  -2  -8  -6 75.9289 5.12585   8
  -2  -8  -6 64.8709 4.23633   6
   2   8   6 63.2053 4.95223   3
   2   8   6 67.4689 5.37172   1
   2   8   6 73.0238 5.88172   9
   2   8   6 79.0613 6.87503   5
  -3  -8  -6 0.72367 1.59910   6
  -3  -8  -6 0.76644 2.41669   8
   3   8   6 1.27889 2.38330   1
   3   8   6 4.00167 2.18002   3
   3   8   6 2.27440 2.21795   9
   3   8   6 4.51932 2.99738   5
  -4  -8  -6 542.100 24.0422   6
  -4  -8  -6 540.717 24.8039   8
   4   8   6 560.211 25.3734   1
   4   8   6 553.698 24.7914   9
   4   8   6 563.622 27.1700   5
  -5  -8  -6 540.737 24.4262   6
   5   8   6 534.502 25.4269   1
   5   8   6 577.751 24.9820   9
   5   8   6 565.661 27.0902   5
   6   8   6 204.366 10.1045   9
   6   8   6 203.145 10.6097   1
   6   8   6 186.311 11.5702   5
   7   8   6 183.125 9.67601   1
   7   8   6 210.552 9.64376   9
  -4   9   6 470.951 20.5310   8
   3  -9  -6 79.0115 4.50205   3
  -3   9   6 76.4411 4.20119   6
  -3   9   6 84.6865 4.98747   8
   2  -9  -6 110.989 5.93779   3
   2  -9  -6 85.5878 6.69287   8
  -2   9   6 115.292 7.40236   3
  -2   9   6 110.627 6.30152   8
   1  -9  -6 609.656 27.1680   8
   1  -9  -6 624.730 27.1710   3
  -1   9   6 613.500 27.4888   8
  -1   9   6 630.046 27.7991   3
   0  -9  -6 284.570 13.4722   8
   0  -9  -6 299.841 13.7292   3
   0  -9  -6 280.788 12.7583   6
   0   9   6 278.141 13.8468   3
   0   9   6 289.554 13.8090   1
   0   9   6 287.032 13.6522   8
  -1  -9  -6 2359.00 98.0835   8
  -1  -9  -6 2230.68 97.9402   3
  -1  -9  -6 2334.81 97.3962   6
   1   9   6 2337.41 98.3011   3
   1   9   6 2313.27 98.1652   1
  -2  -9  -6 2571.91 106.813   8
  -2  -9  -6 2539.07 106.196   6
   2   9   6 2520.23 106.908   3
   2   9   6 2467.30 106.981   1
  -3  -9  -6 108.866 6.51903   8
  -3  -9  -6 107.112 5.71495   6
   3   9   6 103.571 6.66894   1
   3   9   6 108.370 6.77310   9
   3   9   6 103.756 6.33525   3
   3   9   6 109.099 8.31037   5
  -4  -9  -6 153.075 7.73605   6
   4   9   6 156.432 10.4623   5
   4   9   6 154.896 8.67958   3
   4   9   6 162.218 8.79891   1
   4   9   6 153.055 8.38229   9
  -5  -9  -6 54.5623 3.94910   6
   5   9   6 35.9387 5.58254   5
   5   9   6 53.6402 4.19244   9
   5   9   6 40.5176 4.22426   1
  -6  -9  -6 121.605 6.97006   6
   6   9   6 113.814 6.58873   1
   6   9   6 114.438 6.33042   9
   3 -10  -6 6.39825 1.34201   3
  -3  10   6 5.90669 1.45583   8
   2 -10  -6 100.575 5.49512   3
  -2  10   6 105.587 5.68886   8
  -2  10   6 98.7526 6.77208   3
   1 -10  -6 276.404 12.8798   3
   1 -10  -6 275.906 13.1449   8
  -1  10   6 285.463 13.4798   3
  -1  10   6 275.869 13.0405   8
   0 -10  -6 4.63683 2.36297   3
   0 -10  -6 -1.8076 2.49811   8
   0 -10  -6 0.95929 1.89392   6
   0  10   6 1.45046 2.12013   8
   0  10   6 2.78521 1.86930   3
  -1 -10  -6 154.775 9.62961   3
  -1 -10  -6 156.896 8.09075   8
   1  10   6 153.818 8.31768   3
   1  10   6 154.960 8.53762   1
  -2 -10  -6 345.603 15.1653   6
   2  10   6 336.030 15.8272   3
  -3 -10  -6 95.7118 6.76312   8
   3  10   6 110.992 6.45861   1
  -4 -10  -6 218.320 9.91250   6
  -4 -10  -6 211.443 10.9351   8
   4  10   6 209.638 10.5027   1
   4  10   6 202.020 10.3176   9
   4  10   6 224.036 10.2345   3
  -5 -10  -6 164.770 10.8560   8
   5  10   6 191.901 8.96767   1
   5  10   6 173.054 8.64768   9
  -6 -10  -6 2.72896 1.89191   6
   6  10   6 -0.1770 1.44890   1
   6  10   6 3.54952 1.48449   9
  -2  11   6 415.126 18.0637   8
  -2  11   6 418.806 18.8925   3
   1 -11  -6 554.677 23.0905   3
   1 -11  -6 479.573 23.2899   8
  -1  11   6 536.664 23.0887   8
  -1  11   6 559.180 23.4888   3
   0 -11  -6 1049.10 47.0077   8
   0 -11  -6 1111.33 46.9021   3
   0  11   6 1141.81 47.2509   3
  -1 -11  -6 153.778 8.09374   8
  -1 -11  -6 154.234 9.15722   3
  -1 -11  -6 152.524 7.24001   6
   1  11   6 157.297 8.00567   3
  -2 -11  -6 474.078 20.0914   6
  -2 -11  -6 456.752 20.8192   8
   2  11   6 460.762 20.6482   3
  -3 -11  -6 55.0800 4.30328   8
  -3 -11  -6 57.7046 3.50533   6
   3  11   6 50.9704 4.23639   1
   3  11   6 54.1008 4.00054   3
  -4 -11  -6 11.7222 2.50152   8
  -4 -11  -6 8.58527 1.52245   6
   4  11   6 11.1217 2.20530   1
  -5 -11  -6 56.8124 5.78167   8
  -5 -11  -6 65.6776 3.70015   6
   5  11   6 59.6207 4.22613   9
   5  11   6 61.2061 3.80440   1
  -6 -11  -6 123.115 5.94247   6
   6  11   6 118.893 5.77117   1
   1 -12  -6 205.761 9.28324   3
  -1  12   6 205.860 9.79754   3
   0 -12  -6 40.4736 3.46632   8
   0 -12  -6 45.2458 3.96409   3
   0  12   6 42.6233 3.70014   3
  -1 -12  -6 791.529 35.6155   8
   1  12   6 875.346 35.7142   3
  -2 -12  -6 260.266 12.1193   8
   2  12   6 268.381 11.9806   3
  -3 -12  -6 13.8746 2.11842   6
   3  12   6 16.5563 2.49754   3
  -4 -12  -6 64.7269 4.37315   8
  -4 -12  -6 77.1581 3.88687   6
   3   8  -7 1.16492 1.45356   3
  -3  -8   7 4.42078 1.62100   8
  -3  -8   7 1.26403 1.40480  10
   2   8  -7 279.171 12.2170   3
  -2  -8   7 276.881 12.2666   3
  -2  -8   7 265.125 12.6971  10
   1   8  -7 29.6186 3.41722   3
   1   8  -7 24.2466 2.89968   8
  -1  -8   7 30.1184 5.36264  10
  -1  -8   7 25.2470 2.57231   3
   0   8  -7 96.1924 5.30183   8
   0  -8   7 101.304 5.04826   3
   0  -8   7 107.444 6.48481  10
  -1   8  -7 508.918 20.6909   8
   1  -8   7 451.106 20.4136   3
   4   7  -7 94.7521 4.91817   3
  -4  -7   7 103.701 5.28118  10
  -4  -7   7 84.6973 4.79185   8
   3   7  -7 105.853 5.35561   3
  -3  -7   7 101.470 5.31371   8
  -3  -7   7 103.038 5.44965  10
  -3  -7   7 96.6429 6.30852   3
   2   7  -7 -1.8189 1.45722   3
   2   7  -7 0.52116 2.07625   8
  -2  -7   7 1.33380 1.53774   3
  -2  -7   7 -1.6394 1.46018   8
  -2  -7   7 3.03038 1.64695  10
   1   7  -7 323.200 15.4545   3
   1   7  -7 344.546 15.4309   8
  -1  -7   7 354.152 15.3255   3
  -1  -7   7 350.029 15.5018  10
   0   7  -7 6.22888 2.90031   3
   0   7  -7 8.20584 1.72440   8
   0  -7   7 7.66895 2.30682  10
   0  -7   7 6.74021 1.40342   3
  -1   7  -7 493.794 21.5405   6
  -1   7  -7 497.585 21.8316   8
   1  -7   7 504.319 21.5175   3
   1  -7   7 497.775 23.0646  10
  -2   7  -7 92.6237 5.06331   6
  -2   7  -7 86.7158 4.73418   8
   2  -7   7 81.5239 6.67603   5
   5   6  -7 14.5683 2.05932   3
  -5  -6   7 10.2104 1.95594   8
   4   6  -7 583.080 25.1671   3
  -4  -6   7 601.114 24.6664   6
  -4  -6   7 586.153 25.1854  10
  -4  -6   7 553.654 25.2109   8
   3   6  -7 6.62330 1.65403   3
  -3  -6   7 3.48786 1.55525  10
  -3  -6   7 1.63897 1.54330   8
  -3  -6   7 3.59931 2.44436   3
   2   6  -7 184.223 9.22072   3
   2   6  -7 185.241 9.24585   8
  -2  -6   7 195.326 9.09233   8
  -2  -6   7 181.772 9.19219   3
  -2  -6   7 178.347 9.04898  10
   1   6  -7 1889.44 84.7195   3
   1   6  -7 1990.01 84.8069   8
  -1  -6   7 2032.52 84.5732   3
  -1  -6   7 2141.38 84.5939   8
  -1  -6   7 1951.52 84.6541  10
   0   6  -7 1754.49 73.1780   8
   0   6  -7 1661.33 72.6987   6
   0   6  -7 1669.10 73.1768   3
   0  -6   7 1750.61 73.0663  10
   0  -6   7 1766.52 72.7979   3
  -1   6  -7 259.182 12.4268   8
  -1   6  -7 266.159 12.5046   6
   1  -6   7 277.523 12.8776  10
   1  -6   7 272.029 12.0278   3
   1  -6   7 246.433 13.3683   5
  -2   6  -7 490.475 21.0414   6
  -2   6  -7 487.214 21.0989   8
   2  -6   7 462.401 21.9019   5
   2  -6   7 463.576 20.5762   3
  -3   6  -7 162.542 8.07058   8
  -3   6  -7 172.388 8.21452   6
   3  -6   7 164.472 8.86201   5
  -4   6  -7 51.6088 3.42680   6
   4  -6   7 37.3215 3.48958   5
  -6  -5   7 27.1894 2.74163   8
  -6  -5   7 36.9117 2.40781   6
   5   5  -7 127.601 6.16757   3
  -5  -5   7 124.125 5.80190   6
  -5  -5   7 113.780 6.20034   8
   4   5  -7 661.927 28.8610   3
  -4  -5   7 647.546 29.0006   8
  -4  -5   7 690.136 28.4387   6
  -4  -5   7 662.800 28.8411  10
   3   5  -7 16.1671 2.97869   3
   2   5  -7 3.11276 1.91364   3
   2   5  -7 3.50653 1.98851   8
  -2  -5   7 4.28244 1.97286   3
  -2  -5   7 3.04842 1.60211   8
  -2  -5   7 -0.2907 1.63214  10
   1   5  -7 218.325 10.8489   6
   1   5  -7 217.381 11.2815   3
   1   5  -7 229.901 11.0989   8
  -1  -5   7 221.696 10.7920   3
  -1  -5   7 216.913 10.8353  10
  -1  -5   7 250.726 10.8944   8
   0   5  -7 104.506 6.74645   6
   0   5  -7 111.328 6.29977   8
   0   5  -7 103.222 7.55687   3
   0  -5   7 110.118 5.95988   3
   0  -5   7 111.328 6.41434  10
  -1   5  -7 55.0535 5.02571   6
  -1   5  -7 65.4418 4.59796   8
   1  -5   7 61.4960 6.26476   5
   1  -5   7 69.8168 4.20068   3
   1  -5   7 62.1784 5.36709  10
  -2   5  -7 13.1196 2.37150   8
  -2   5  -7 13.8995 3.19415   6
   2  -5   7 15.8116 2.52646   3
   2  -5   7 19.1205 2.80870   2
   2  -5   7 13.0110 3.49780   5
   2  -5   7 5.05470 3.77245  10
  -3   5  -7 5.67489 2.10158   6
  -3   5  -7 10.0128 2.08211   8
   3  -5   7 7.62859 1.46116   3
   3  -5   7 6.81317 2.24511   5
   3  -5   7 5.24605 1.64297   2
  -4   5  -7 347.252 14.0750   6
  -4   5  -7 283.298 14.0488   8
   4  -5   7 306.275 14.9663   5
   4  -5   7 305.796 13.7944   2
  -6  -4   7 298.285 12.6019   6
  -6  -4   7 277.680 13.8397   8
   5   4  -7 119.123 6.26341   3
  -5  -4   7 129.597 6.01188   6
  -5  -4   7 113.504 6.44010   8
   4   4  -7 1088.14 47.9911   3
  -4  -4   7 1166.20 47.6382  10
  -4  -4   7 1178.53 47.6980   6
  -4  -4   7 1020.39 48.0790   8
   3   4  -7 3345.59 144.007   8
   3   4  -7 3464.65 144.148   3
  -3  -4   7 3453.29 144.215   8
  -3  -4   7 3341.31 144.121   3
  -3  -4   7 3554.20 143.549   6
  -3  -4   7 3376.96 143.922  10
   2   4  -7 2.49869 1.94601   3
   2   4  -7 1.62515 2.04391   8
  -2  -4   7 4.37564 1.66464  10
  -2  -4   7 6.84636 2.24218   3
  -2  -4   7 5.77806 1.62319   6
  -2  -4   7 5.44290 1.85006   8
   1   4  -7 659.599 29.5966   6
   1   4  -7 655.467 29.9508   3
   1   4  -7 686.908 29.9585   8
  -1  -4   7 690.550 29.6222   3
  -1  -4   7 720.382 29.7179   8
  -1  -4   7 662.203 29.6330  10
   0   4  -7 3.16516 1.80087   8
   0   4  -7 1.82821 3.26908   3
   0  -4   7 2.56217 1.99206  10
   0  -4   7 7.55146 1.75003   3
  -1   4  -7 306.192 14.6989   8
  -1   4  -7 289.369 14.4628   6
   1  -4   7 343.881 14.5396   2
   1  -4   7 310.737 14.7254  10
   1  -4   7 325.966 14.1812   3
   1  -4   7 290.896 15.7061   5
  -2   4  -7 10.0406 2.19242   8
  -2   4  -7 6.14014 2.02547   6
   2  -4   7 6.16481 1.75154   2
   2  -4   7 5.07508 3.27050  10
   2  -4   7 7.44337 2.59551   5
   2  -4   7 8.81339 1.58169   3
  -3   4  -7 1781.88 75.6057   8
   3  -4   7 1707.65 74.9340   3
   3  -4   7 1847.13 79.5920   5
  -4   4  -7 497.979 21.0489   6
  -4   4  -7 458.331 21.1813   8
   4  -4   7 460.235 20.9935   2
   4  -4   7 492.423 22.6213   5
   5  -4   7 478.953 21.4445   2
   5  -4   7 513.035 22.7895   5
  -6  -3   7 1354.68 60.6205   8
  -6  -3   7 1506.57 60.3152   6
   5   3  -7 11.8512 2.00859   3
  -5  -3   7 14.9698 2.38778   8
  -5  -3   7 14.9173 2.39096   6
   4   3  -7 114.496 6.40109   3
  -4  -3   7 110.128 6.40272   8
  -4  -3   7 112.495 5.86278   6
  -4  -3   7 112.685 7.25537  10
   3   3  -7 202.890 10.4329   8
   3   3  -7 209.847 10.2138   3
  -3  -3   7 217.594 10.3542   8
  -3  -3   7 202.343 9.61033   6
  -3  -3   7 215.804 10.2531  10
  -3  -3   7 193.659 10.8050   3
   2   3  -7 165.894 8.93943   8
   2   3  -7 168.980 8.95226   3
  -2  -3   7 174.905 8.72203  10
  -2  -3   7 168.401 8.11750   6
  -2  -3   7 175.180 8.73752   8
  -2  -3   7 182.074 8.97403   3
   1   3  -7 1302.82 58.4995   6
   1   3  -7 1324.22 58.8231   3
   1   3  -7 1366.32 58.8677   8
  -1  -3   7 1496.74 58.7184   8
  -1  -3   7 1412.95 58.5713   3
  -1  -3   7 1343.54 58.5611  10
   0   3  -7 152.671 9.83698   3
   0   3  -7 168.456 8.78396   6
   0   3  -7 182.442 9.02658   8
   0  -3   7 171.760 8.47914   3
   0  -3   7 160.372 8.68196  10
   0  -3   7 174.084 8.85594   2
   0  -3   7 183.311 8.83733   8
  -1   3  -7 429.922 19.3199   8
  -1   3  -7 399.055 18.9804   6
   1  -3   7 390.189 20.2916   5
   1  -3   7 423.993 19.2073  10
   1  -3   7 434.507 18.7442   3
   1  -3   7 450.844 19.0713   2
  -2   3  -7 67.0510 4.64704   6
  -2   3  -7 67.5924 5.03706   8
   2  -3   7 57.4572 5.83215  10
   2  -3   7 75.3687 4.21585   3
   2  -3   7 61.2139 4.43301   2
   2  -3   7 62.3976 5.67572   5
  -3   3  -7 281.516 12.9750   6
   3  -3   7 282.932 14.6519   5
   3  -3   7 270.562 13.0434   2
   3  -3   7 273.228 12.4390   3
  -4   3  -7 842.693 35.2576   6
  -4   3  -7 796.480 35.4775   8
   4  -3   7 847.327 38.8746   5
   4  -3   7 779.097 35.4838   2
  -5   3  -7 -0.1691 1.98388   6
   5  -3   7 0.47034 1.81961   5
   6  -3   7 44.5279 2.97088   2
   6  -3   7 46.9298 4.06796   5
   6   2  -7 101.922 6.46890   2
   6   2  -7 108.570 5.67790   3
  -6  -2   7 107.027 5.97972   8
  -6  -2   7 113.712 5.51948   6
   5   2  -7 156.016 7.87516   3
  -5  -2   7 164.054 7.74532   6
  -5  -2   7 153.684 8.21934   8
   4   2  -7 0.68004 2.62935   1
   4   2  -7 4.21882 1.92508   3
  -4  -2   7 3.17793 1.50740   6
  -4  -2   7 4.21196 3.59303  10
  -4  -2   7 3.25980 1.82314   8
   3   2  -7 31.5219 4.01306   8
  -3  -2   7 30.1067 3.47059   8
  -3  -2   7 30.5782 3.86582   3
  -3  -2   7 27.1402 4.20341  10
  -3  -2   7 27.0890 2.93767   6
   2   2  -7 505.204 23.2633   6
   2   2  -7 527.036 23.8204   3
   2   2  -7 530.879 23.8771   8
  -2  -2   7 519.379 23.1404   6
  -2  -2   7 589.216 23.8968   8
  -2  -2   7 551.937 23.7754   3
  -2  -2   7 525.532 23.5956  10
   1   2  -7 94.3380 6.64580   3
   1   2  -7 110.649 6.34817   6
   1   2  -7 100.200 6.22920   8
  -1  -2   7 104.699 6.06431  10
  -1  -2   7 110.860 6.10029   3
  -1  -2   7 119.163 6.26837   8
   0   2  -7 4937.25 218.764   3
   0   2  -7 4850.73 218.458   6
   0   2  -7 5347.06 218.852   8
   0  -2   7 5295.68 218.374   3
   0  -2   7 5168.96 218.554  10
   0  -2   7 5664.76 218.853   2
  -1   2  -7 2400.12 97.5736   8
  -1   2  -7 2189.69 97.2188   6
   1  -2   7 2197.17 101.572   5
   1  -2   7 2351.15 96.9671   3
   1  -2   7 2216.74 97.3189  10
   1  -2   7 2452.74 97.3692   2
  -2   2  -7 1728.27 73.8801   8
  -2   2  -7 1688.98 73.5506   6
   2  -2   7 1683.08 73.9337  10
   2  -2   7 1684.50 75.1864   5
   2  -2   7 1777.11 73.2439   3
   2  -2   7 1840.97 73.7222   2
  -3   2  -7 1456.08 60.9300   8
   3  -2   7 1449.27 62.6123   5
   3  -2   7 1414.73 61.6080  10
   3  -2   7 1462.85 60.7182   2
   3  -2   7 1327.18 60.0165   3
  -4   2  -7 1527.08 63.9945   6
   4  -2   7 1520.10 66.0931   5
   4  -2   7 1466.22 64.0534   2
   5  -2   7 16.1036 3.56583   5
   5  -2   7 22.5770 3.52361   2
   6  -2   7 96.1011 6.26758   5
   6  -2   7 85.1437 5.03199   2
  -7  -1   7 108.648 5.22059   6
   6   1  -7 4.61577 2.31448   2
   6   1  -7 8.09775 1.93594   3
  -6  -1   7 11.6527 2.13339   8
  -6  -1   7 6.77464 1.52533   6
  -5  -1   7 32.7846 4.19792   6
   4   1  -7 270.708 13.7761   1
   4   1  -7 287.870 13.3947   3
  -4  -1   7 283.810 13.0270   6
  -4  -1   7 306.569 13.7407   8
   3   1  -7 196.691 9.86216   3
   3   1  -7 217.075 9.90616   8
  -3  -1   7 184.195 10.3736   3
  -3  -1   7 193.604 9.77972   8
  -3  -1   7 199.673 10.2722  10
  -3  -1   7 183.701 9.18622   6
   2   1  -7 947.125 41.4606   8
  -2  -1   7 932.870 41.3764   3
  -2  -1   7 1068.12 41.5874   8
  -2  -1   7 907.262 40.8252   6
  -2  -1   7 949.809 41.2762  10
   1   1  -7 132.375 12.1899   4
   1   1  -7 145.944 9.09836   8
   1   1  -7 124.172 7.40221   6
   1   1  -7 131.142 7.72089   3
  -1  -1   7 131.985 6.69468   6
  -1  -1   7 147.996 7.21173   3
  -1  -1   7 133.682 7.43113  10
   0   1  -7 184.232 9.83625   6
   0   1  -7 199.416 10.0324   8
   0   1  -7 213.351 12.1099   4
   0   1  -7 175.017 11.2071   3
   0  -1   7 209.923 9.93678   2
   0  -1   7 224.534 9.99186   8
   0  -1   7 202.290 9.96209  10
  -1   1  -7 2687.69 112.150   8
  -1   1  -7 2594.64 111.935   6
   1  -1   7 2596.64 112.133  10
   1  -1   7 2759.96 114.450   5
   1  -1   7 2452.65 111.796   3
   1  -1   7 2839.29 112.096   2
   2  -1   7 233.025 12.7695   5
   2  -1   7 238.414 10.8185   3
   2  -1   7 236.819 11.2570   2
   2  -1   7 230.749 11.7956  10
  -3   1  -7 1383.95 58.0612   6
  -3   1  -7 1387.56 58.3609   8
   3  -1   7 1318.42 58.8664  10
   3  -1   7 1401.83 60.0351   5
   3  -1   7 1401.22 58.0904   2
   3  -1   7 1266.53 57.4154   3
   4  -1   7 97.4234 5.89980   2
   4  -1   7 84.7120 6.84375   5
   5  -1   7 20.6713 3.91075   5
   6  -1   7 81.6269 5.09427   2
   6  -1   7 85.7801 6.32522   5
   7  -1   7 3.17830 2.73678   5
   7  -1   7 2.22474 1.16485   2
   7   0  -7 0.91785 1.85477   2
  -7   0   7 0.99384 1.11943   6
   6   0  -7 188.265 10.0454   2
   6   0  -7 200.697 9.02510   3
  -6   0   7 185.034 9.57416   8
  -6   0   7 206.490 9.12330   6
   5   0  -7 45.3433 3.70810   3
  -5   0   7 48.3835 4.40072   8
  -5   0   7 42.8200 3.53733   6
   4   0  -7 580.650 25.3603   3
  -4   0   7 583.530 25.7047   8
  -4   0   7 569.928 25.0840   6
   3   0  -7 90.0535 5.65030   3
   3   0  -7 92.0492 5.73802   8
  -3   0   7 85.5213 6.99495   3
  -3   0   7 85.4368 4.98701   6
  -3   0   7 87.8062 5.51797   8
  -3   0   7 103.814 7.42141  10
   2   0  -7 932.932 40.3042   6
   2   0  -7 972.863 41.0627   8
   2   0  -7 939.647 41.9993   3
  -2   0   7 898.891 42.2607   4
  -2   0   7 1004.60 40.9710   8
  -2   0   7 927.503 40.3548   6
  -2   0   7 963.460 40.8483  10
  -2   0   7 944.134 40.8605   3
   1   0  -7 919.093 40.9676   6
   1   0  -7 941.706 42.2506   4
   1   0  -7 948.577 41.3950   8
  -1   0   7 1054.68 41.3841   8
  -1   0   7 953.895 41.2685  10
  -1   0   7 941.582 41.1311   3
   0   0  -7 1491.46 63.6737   8
   0   0  -7 1372.49 63.6022   6
   0   0  -7 1426.90 63.9648   4
   0   0   7 1521.24 63.5573   2
   0   0   7 1501.30 63.5731  10
   0   0   7 1639.57 63.5093   8
   0   0   7 1495.25 63.2188   3
  -1   0  -7 1997.31 85.2437   6
  -1   0  -7 1972.71 84.8861   4
  -1   0  -7 2019.45 84.9664   8
   1   0   7 2046.50 84.2381   3
   1   0   7 1915.77 85.9167   5
   1   0   7 2085.73 84.5702   2
   1   0   7 1952.31 84.6450  10
  -2   0  -7 943.583 40.1155   8
   2   0   7 873.306 39.9000  10
   2   0   7 897.786 41.0688   5
   2   0   7 922.948 39.1939   3
   2   0   7 957.916 39.6727   2
   3   0   7 72.6136 6.08827   5
   3   0   7 75.3501 6.73166  10
   3   0   7 73.2023 4.98723   2
   4   0   7 1251.39 56.7791   9
   4   0   7 1300.48 55.3984   2
   4   0   7 1336.04 57.5792   5
   5   0   7 597.195 28.2079   5
   5   0   7 592.340 26.1926   2
   6   0   7 86.4126 5.33078   2
   6   0   7 82.0112 6.58104   5
   7   0   7 613.698 29.4948   5
   7   0   7 624.236 26.6177   2
   7  -1  -7 472.276 20.9830   2
  -7   1   7 500.008 20.7438   6
   6  -1  -7 89.1421 4.97871   3
   6  -1  -7 94.4644 5.71366   2
  -6   1   7 83.2749 5.39647   8
  -6   1   7 93.8257 4.90987   6
   5  -1  -7 798.178 34.0887   3
  -5   1   7 779.881 34.6871   8
  -5   1   7 800.596 34.1169   6
   4  -1  -7 654.164 28.7888   3
  -4   1   7 677.638 29.2645   8
  -4   1   7 648.951 28.5553   6
   3  -1  -7 385.742 17.6028   3
   3  -1  -7 401.339 17.6703   8
  -3   1   7 385.618 18.4237   3
  -3   1   7 383.949 17.2333   6
  -3   1   7 389.923 17.7455   8
   2  -1  -7 59.0146 4.00700   6
   2  -1  -7 51.1707 4.59668   3
   2  -1  -7 53.4246 4.12252   8
  -2   1   7 55.0009 4.88291   3
  -2   1   7 39.3009 5.45381   8
  -2   1   7 53.7927 6.71170   4
  -2   1   7 64.1125 5.76002  10
   1  -1  -7 724.690 31.1507   6
   1  -1  -7 708.937 32.2820   4
   1  -1  -7 732.864 31.7780   3
   1  -1  -7 750.456 31.5997   8
  -1   1   7 750.443 31.6804  10
  -1   1   7 696.692 31.0141   6
  -1   1   7 721.280 31.5100   8
   0  -1  -7 549.119 24.5710   6
   0  -1  -7 571.753 24.7922   8
   0  -1  -7 559.779 25.1114   4
   0  -1  -7 529.763 26.1492   3
   0   1   7 572.096 24.7103   8
   0   1   7 573.131 24.7247   2
   0   1   7 568.071 24.7740  10
   0   1   7 564.929 24.4282   3
  -1  -1  -7 475.866 21.8806   6
  -1  -1  -7 503.484 22.1457   4
  -1  -1  -7 492.494 21.9891   8
   1   1   7 516.560 22.2630  10
   1   1   7 511.214 21.7140   2
   1   1   7 454.861 23.1993   5
   1   1   7 486.937 21.4205   3
  -2  -1  -7 12.8877 3.56614   6
  -2  -1  -7 19.2423 3.59691   8
  -2  -1  -7 8.52608 3.12646   4
   2   1   7 15.5961 3.31789  10
   2   1   7 11.9940 1.83510   3
   2   1   7 10.2951 1.77828   2
   2   1   7 17.6955 3.85040   5
   3   1   7 37.1725 4.63117   5
   3   1   7 40.4111 3.61761   3
   3   1   7 39.3159 3.70814   2
   3   1   7 30.7399 5.38065  10
   3   1   7 35.7582 6.43580   9
   4   1   7 20.3605 3.51592   2
   4   1   7 27.0024 5.64690  10
   5   1   7 509.941 22.6773   2
   5   1   7 509.333 24.1619   9
   5   1   7 510.305 24.7733   5
   6   1   7 122.735 6.88190   2
   6   1   7 125.919 8.63500   5
   7   1   7 10.7061 2.36727   2
   7   1   7 18.5840 4.88114   5
   6  -2  -7 32.9100 3.24749   3
   6  -2  -7 35.3008 3.23971   2
  -6   2   7 29.5520 3.43660   8
  -6   2   7 34.2356 2.81532   6
  -5   2   7 519.429 22.1791   6
  -5   2   7 461.198 23.9615   8
   4  -2  -7 1761.72 74.2326   3
  -4   2   7 1737.54 74.0535   6
  -4   2   7 1755.92 74.7426   8
   3  -2  -7 797.996 35.1744   8
   3  -2  -7 813.993 35.1599   3
  -3   2   7 817.393 34.8728   6
  -3   2   7 834.943 35.5429   8
  -3   2   7 797.056 35.9375   3
   2  -2  -7 63.4905 4.26932   6
   2  -2  -7 60.1619 4.51358   8
   2  -2  -7 60.6923 5.03139   3
  -2   2   7 62.6792 9.28202   4
  -2   2   7 58.3681 5.70723   8
  -2   2   7 73.1897 5.31579   3
  -2   2   7 79.9678 7.61266  10
   1  -2  -7 39.1862 3.56215   8
   1  -2  -7 39.0019 5.01752   4
   1  -2  -7 37.9906 3.18983   6
   1  -2  -7 38.4430 5.20017   3
  -1   2   7 47.6439 3.83290   8
  -1   2   7 46.4593 5.31546  10
  -1   2   7 35.4085 3.45582   6
   0  -2  -7 147.142 7.50168   8
   0  -2  -7 138.360 7.26257   6
   0  -2  -7 141.594 8.17793   4
   0  -2  -7 122.012 11.0441   3
   0   2   7 140.474 7.93016   8
   0   2   7 146.893 7.25407   3
   0   2   7 142.812 7.96637  10
  -1  -2  -7 192.208 10.2157   4
  -1  -2  -7 211.813 10.3644   8
  -1  -2  -7 199.305 10.3547   6
   1   2   7 200.408 9.76885   2
   1   2   7 221.978 14.0841   5
   1   2   7 199.511 9.63439   3
   1   2   7 205.330 10.3779  10
  -2  -2  -7 1286.68 56.2780   6
  -2  -2  -7 1317.08 56.0584   4
  -2  -2  -7 1344.53 56.3372   8
   2   2   7 1356.04 55.9664   2
   2   2   7 1305.38 58.2345   5
   2   2   7 1263.60 55.8109   3
   2   2   7 1320.55 56.3918  10
   3   2   7 1053.66 48.7283  10
   3   2   7 1058.97 45.3125   2
   3   2   7 1015.92 44.9849   3
   3   2   7 1104.40 48.2116   5
   4   2   7 1527.65 73.9485   9
   4   2   7 1692.28 73.8779  10
   4   2   7 1780.11 72.6629   2
   4   2   7 1844.01 75.0512   5
   5   2   7 1712.74 83.4861   9
   5   2   7 2031.22 82.3294   2
   5   2   7 2082.94 84.9513   5
   6   2   7 1092.58 48.6880   5
   6   2   7 1045.73 45.7001   2
   7   2   7 47.1016 3.60082   2
   7   2   7 56.2992 6.48738   5
   6  -3  -7 919.215 39.0466   2
  -6   3   7 866.327 39.0052   8
  -6   3   7 938.358 38.5988   6
   5  -3  -7 677.809 30.0398   2
   5  -3  -7 672.716 29.2600   3
  -5   3   7 668.892 30.0204   8
  -5   3   7 697.314 29.3720   6
   4  -3  -7 558.210 24.1694   3
  -4   3   7 531.735 24.0230   6
  -4   3   7 562.772 24.8316   8
   3  -3  -7 232.263 11.2691   3
   3  -3  -7 235.672 11.4359   8
  -3   3   7 234.281 11.6598   8
  -3   3   7 240.035 11.0030   6
  -3   3   7 235.006 12.7333   3
   2  -3  -7 232.283 10.8668   8
   2  -3  -7 219.526 10.3054   6
   2  -3  -7 234.145 10.9976   3
  -2   3   7 222.746 11.4756   3
  -2   3   7 210.054 14.4693   4
  -2   3   7 231.854 11.1571   8
  -2   3   7 222.185 10.4432   6
   1  -3  -7 573.460 25.2138   6
   1  -3  -7 589.545 25.7269   8
   1  -3  -7 595.699 25.9973   3
   1  -3  -7 569.881 26.9635   4
  -1   3   7 620.741 25.9663   8
  -1   3   7 572.507 26.3576  10
   0  -3  -7 271.326 12.5109   8
   0  -3  -7 280.728 14.4896   3
   0  -3  -7 277.290 12.2312   6
   0  -3  -7 275.913 13.3565   4
   0   3   7 273.895 12.4828   3
   0   3   7 265.939 12.8264   8
   0   3   7 274.748 13.1705  10
   0   3   7 229.429 15.5732   5
  -1  -3  -7 34.6880 4.32289   6
  -1  -3  -7 43.9698 4.89331   4
   1   3   7 39.5399 3.40028   3
   1   3   7 38.1337 4.52756  10
   1   3   7 36.0338 3.82833   2
  -2  -3  -7 42.5694 5.69808   8
  -2  -3  -7 32.3532 4.95286   4
  -2  -3  -7 40.4026 4.88548   6
   2   3   7 52.0969 4.80721  10
   2   3   7 48.7754 4.14088   3
   2   3   7 49.7089 3.92687   2
   3   3   7 770.926 36.8078   1
   3   3   7 874.205 35.6472   2
   3   3   7 828.994 35.4699   3
   3   3   7 826.604 39.0837  10
   4   3   7 68.0520 4.70166   2
   4   3   7 74.8343 6.59587   5
   4   3   7 66.4081 6.74023   9
   4   3   7 59.2124 6.50928   1
   5   3   7 2.30864 1.88643   2
   5   3   7 -4.6077 3.77720   1
   5   3   7 -1.0201 3.56083   9
   6   3   7 15.6221 2.91044   2
   6   3   7 12.0068 4.04107   9
   6   3   7 23.4265 6.31401   5
   7   3   7 173.313 10.9748   5
   6  -4  -7 11.0500 1.92884   2
  -6   4   7 7.75169 1.96332   8
  -6   4   7 8.71107 1.37469   6
   5  -4  -7 259.488 12.0270   3
   5  -4  -7 266.933 12.6447   2
  -5   4   7 260.533 12.8115   8
  -5   4   7 275.649 12.1414   6
   4  -4  -7 405.740 18.5824   3
  -4   4   7 422.263 18.5858   6
  -4   4   7 429.059 19.4130   8
   3  -4  -7 840.243 37.5280   3
   3  -4  -7 881.400 37.6877   8
  -3   4   7 851.582 37.3694   6
  -3   4   7 888.246 38.7361   3
  -3   4   7 896.398 38.1839   8
   2  -4  -7 11.5737 2.20019   8
   2  -4  -7 12.4232 2.34617   3
  -2   4   7 7.89956 1.72554   6
  -2   4   7 10.4324 2.32264   8
   1  -4  -7 2302.66 97.1986   8
   1  -4  -7 2380.57 97.2263   3
   1  -4  -7 2295.85 96.6728   6
   1  -4  -7 2215.90 98.2876   4
  -1   4   7 2204.11 97.5447  10
  -1   4   7 2272.73 97.3840   3
  -1   4   7 2227.49 96.7359   6
  -1   4   7 2510.57 97.5694   8
   0  -4  -7 3522.34 149.930   3
   0  -4  -7 3655.91 149.429   6
   0  -4  -7 3510.69 150.368   4
   0  -4  -7 3621.16 149.822   8
   0   4   7 3396.59 150.073  10
   0   4   7 3590.20 151.912   5
   0   4   7 3548.83 149.886   3
   0   4   7 3664.20 149.999   8
  -1  -4  -7 3442.61 148.433   4
  -1  -4  -7 3541.03 148.119   8
  -1  -4  -7 3602.29 147.826   6
   1   4   7 3467.75 149.993   5
   1   4   7 3562.03 148.384   3
  -2  -4  -7 1028.97 43.7329   8
  -2  -4  -7 1013.13 43.5544   6
  -2  -4  -7 951.446 43.8892   4
   2   4   7 1037.76 44.1327  10
   2   4   7 1037.77 45.5631   5
   2   4   7 1043.97 44.1587   9
   2   4   7 1021.53 43.6121   2
   2   4   7 996.148 43.4529   3
   3   4   7 1791.13 77.5051   9
   3   4   7 1809.37 78.9237   5
   3   4   7 1783.57 77.4737  10
   3   4   7 1758.90 76.6447   3
   3   4   7 1917.28 77.1362   2
   4   4   7 177.975 10.9854   5
   4   4   7 171.083 9.89244   9
   4   4   7 151.029 10.1507   1
   5   4   7 62.3216 6.58090   9
   5   4   7 74.9329 7.42147   5
   5   4   7 69.4125 6.52579   1
   7   4   7 235.431 13.0409   9
   7   4   7 285.638 14.6141   5
   6  -5  -7 206.777 9.42684   2
  -6   5   7 219.531 9.24842   6
  -6   5   7 201.416 9.68515   8
   5  -5  -7 42.2208 3.10176   3
   5  -5  -7 43.9083 3.32619   2
  -5   5   7 45.2413 3.14460   6
  -5   5   7 37.1114 3.74894   8
   4  -5  -7 402.074 18.2025   3
   4  -5  -7 413.036 18.6838   2
  -4   5   7 411.527 18.1181   6
  -4   5   7 411.174 18.9253   8
   3  -5  -7 1158.15 49.4306   3
  -3   5   7 1182.61 50.1352   8
  -3   5   7 1148.07 50.4957   3
  -3   5   7 1139.17 49.2632   6
   2  -5  -7 1537.45 65.7628   3
   2  -5  -7 1534.37 65.8969   8
  -2   5   7 1599.17 66.3735   8
  -2   5   7 1566.81 66.4683   3
  -2   5   7 1500.85 65.4572   6
   1  -5  -7 140.874 7.36975   8
   1  -5  -7 134.974 6.70756   6
   1  -5  -7 130.197 8.66962   3
  -1   5   7 141.614 7.88097   3
  -1   5   7 142.963 7.72989   8
   0  -5  -7 191.875 10.5269   3
   0  -5  -7 174.709 12.8043   4
   0  -5  -7 185.216 8.84126   6
   0  -5  -7 187.449 9.48444   8
   0   5   7 188.580 10.2882  10
   0   5   7 193.986 10.4529   9
   0   5   7 209.679 12.1002   5
   0   5   7 185.020 9.64454   3
   0   5   7 198.916 9.95129   8
  -1  -5  -7 79.7484 8.14309   4
  -1  -5  -7 75.1503 4.98467   8
  -1  -5  -7 70.8475 4.46620   6
   1   5   7 91.4175 8.15528   8
   1   5   7 73.2330 5.71792  10
   1   5   7 70.1355 4.95687   3
   1   5   7 79.4793 5.85621   9
   1   5   7 76.2932 6.72176   5
  -2  -5  -7 929.074 40.2063   8
  -2  -5  -7 883.426 38.3133   6
   2   5   7 871.125 40.2464   5
   2   5   7 902.068 38.2417   3
   2   5   7 844.936 38.5921   9
   3   5   7 405.022 20.8975   5
   3   5   7 428.722 19.4197   9
   4   5   7 1.66341 2.62780   9
   4   5   7 0.05828 3.24214   1
   4   5   7 7.04380 3.53026   5
   5   5   7 11.9142 3.07979   9
   5   5   7 15.1149 4.04426   1
   6   5   7 80.8409 8.77743   5
   6   5   7 72.8968 6.58514   1
   7   5   7 146.397 9.85173   5
   7   5   7 135.775 7.94009   1
   5  -6  -7 106.589 5.30888   3
   5  -6  -7 108.861 5.53435   2
  -5   6   7 98.7095 5.82845   8
  -5   6   7 110.199 5.24694   6
   4  -6  -7 139.305 6.90214   3
   4  -6  -7 127.932 7.04422   2
  -4   6   7 134.645 7.50787   8
  -4   6   7 136.684 6.68832   6
   3  -6  -7 38.8331 3.55811   3
   3  -6  -7 36.7228 3.75818   2
  -3   6   7 38.6532 4.06343   8
  -3   6   7 36.2030 5.00828   3
  -3   6   7 38.2309 3.14404   6
   2  -6  -7 941.979 41.4635   3
   2  -6  -7 959.891 41.6081   8
  -2   6   7 1042.75 42.2030   8
  -2   6   7 976.266 41.1502   6
  -2   6   7 901.282 42.0842   3
   1  -6  -7 6.39531 1.47157   6
   1  -6  -7 1.30531 2.11196   3
   1  -6  -7 3.02771 1.73017   8
  -1   6   7 3.82941 1.98552   8
  -1   6   7 0.27388 2.20408   3
  -1   6   7 4.41694 1.60312   6
   0  -6  -7 749.320 33.0708   6
   0  -6  -7 774.150 33.6908   8
   0  -6  -7 756.075 33.8815   3
   0   6   7 785.678 36.1084   5
   0   6   7 799.793 33.9686   8
   0   6   7 782.906 33.9480   3
  -1  -6  -7 2113.80 89.2388   8
  -1  -6  -7 2073.74 88.7026   6
   1   6   7 2068.15 89.3280   3
   1   6   7 2069.57 89.4754   9
   1   6   7 2214.99 91.7675   5
  -2  -6  -7 154.413 7.63718   6
  -2  -6  -7 161.172 8.27874   8
   2   6   7 153.015 9.94182   5
   2   6   7 151.175 8.09439   3
   2   6   7 146.655 8.48883   9
  -3  -6  -7 290.485 13.5402   6
  -3  -6  -7 296.348 14.2383   8
   3   6   7 295.502 16.2345   5
   3   6   7 299.744 14.2949   9
   3   6   7 279.468 14.9104   1
   3   6   7 307.850 14.0039   3
   4   6   7 1302.42 65.1979   1
   4   6   7 1593.32 64.7760   9
   4   6   7 1610.22 66.9209   5
   5   6   7 3275.40 141.345   5
   5   6   7 3315.47 139.559   9
   6   6   7 105.369 8.05014   1
   6   6   7 138.251 10.2557   5
   6   6   7 127.110 7.81212   9
   7   6   7 1061.34 45.1852   5
   7   6   7 1036.43 43.9322   1
   7   6   7 964.357 44.1391   9
   5  -7  -7 709.238 30.4377   3
  -5   7   7 765.196 30.4672   6
  -5   7   7 690.239 31.2814   8
   4  -7  -7 774.573 33.6773   3
   4  -7  -7 789.001 33.8432   2
  -4   7   7 804.459 33.5187   6
  -4   7   7 783.256 34.2734   8
   3  -7  -7 47.5476 4.25301   2
   3  -7  -7 48.1056 3.80456   3
  -3   7   7 44.1037 4.14635   8
  -3   7   7 56.9207 7.11856   3
   2  -7  -7 517.196 23.4761   2
   2  -7  -7 526.553 23.2148   3
   2  -7  -7 517.281 23.2779   8
  -2   7   7 534.340 23.7701   8
  -2   7   7 521.522 24.0168   3
  -2   7   7 531.980 22.7280   6
   1  -7  -7 43.9389 3.88748   8
   1  -7  -7 46.7955 4.41994   3
   1  -7  -7 48.3664 3.34363   6
  -1   7   7 34.3115 4.41797   3
  -1   7   7 44.1931 4.33836   8
   0  -7  -7 408.089 17.8472   6
   0  -7  -7 391.725 18.6375   3
   0  -7  -7 418.008 18.5449   8
   0   7   7 406.924 18.7306   8
   0   7   7 410.712 18.8034   3
  -1  -7  -7 1.36784 1.28501   6
  -1  -7  -7 1.02823 1.87951   8
   1   7   7 4.72071 3.41710   9
   1   7   7 -0.4286 3.47170   8
   1   7   7 0.67213 1.84058   3
   1   7   7 4.51681 2.48591   5
  -2  -7  -7 18.4926 3.49863   8
  -2  -7  -7 15.7438 2.57484   6
   2   7   7 21.1382 3.50838   3
   2   7   7 15.6455 3.18744   9
   2   7   7 22.5326 4.31200   5
  -3  -7  -7 387.372 17.7528   8
   3   7   7 403.890 18.0418   9
   3   7   7 374.386 18.5010   1
   3   7   7 373.289 17.5894   3
   3   7   7 387.298 20.0529   5
  -4  -7  -7 212.859 10.3842   6
   4   7   7 224.256 12.0452   1
   4   7   7 218.264 11.1255   9
   4   7   7 214.346 13.3432   5
   5   7   7 250.747 13.8576   1
   5   7   7 261.507 15.2563   5
   5   7   7 269.424 12.9513   9
   6   7   7 172.812 9.23086   9
   6   7   7 170.929 11.2875   5
   7   7   7 56.7197 4.25602   9
   7   7   7 48.2724 5.79717   5
   7   7   7 47.9996 4.21327   1
   4  -8  -7 183.505 8.36861   3
  -4   8   7 182.357 8.82300   8
   3  -8  -7 158.451 7.66027   3
  -3   8   7 150.306 10.1965   3
  -3   8   7 158.403 8.14086   8
  -3   8   7 153.442 7.24272   6
   2  -8  -7 0.16800 2.95906   8
   2  -8  -7 2.48843 1.70189   3
  -2   8   7 2.72115 1.85058   8
  -2   8   7 0.56110 1.81324   6
   1  -8  -7 15.8914 2.87805   8
   1  -8  -7 15.9227 2.53353   3
  -1   8   7 15.8233 2.74263   3
  -1   8   7 14.8535 2.40283   8
   0  -8  -7 54.9623 5.52043   3
   0  -8  -7 58.4044 3.64681   6
   0  -8  -7 53.6376 4.20225   8
   0   8   7 57.2598 4.70322   3
   0   8   7 51.2434 4.59732   8
  -1  -8  -7 617.573 27.5775   8
  -1  -8  -7 622.218 26.9443   6
   1   8   7 646.902 30.2608   5
   1   8   7 612.040 27.7779   3
  -2  -8  -7 3040.67 127.437   8
  -2  -8  -7 2988.02 126.812   6
   2   8   7 3039.45 127.496   3
   2   8   7 3052.57 130.114   5
   2   8   7 3107.13 127.958   1
   2   8   7 2893.08 127.391   9
  -3  -8  -7 82.6966 5.78844   8
  -3  -8  -7 81.6884 4.81643   6
   3   8   7 85.1034 5.76133   9
   3   8   7 90.1016 6.05028   1
   3   8   7 77.2556 5.62816   3
   3   8   7 82.1681 7.38495   5
  -4  -8  -7 829.231 36.9134   6
  -4  -8  -7 830.966 37.3537   8
   4   8   7 873.929 39.8635   5
   4   8   7 900.250 38.1864   1
   4   8   7 856.407 37.4953   9
  -5  -8  -7 1141.87 48.3279   6
   5   8   7 1131.18 51.1226   5
   6   8   7 589.801 24.6120   9
   6   8   7 524.177 24.8839   1
   6   8   7 543.089 25.9433   5
   7   8   7 20.0741 3.03377   1
   7   8   7 27.2915 2.97418   9
   4  -9  -7 85.0466 4.16313   3
  -4   9   7 81.6196 4.41247   8
   3  -9  -7 3.65040 1.33813   3
  -3   9   7 2.66634 1.51336   8
   2  -9  -7 23.2637 4.22621   8
   2  -9  -7 21.0875 2.91751   3
  -2   9   7 29.6185 3.78560   3
  -2   9   7 25.5600 3.09712   8
   1  -9  -7 204.938 9.96855   3
  -1   9   7 190.542 10.9442   8
  -1   9   7 205.488 11.3046   3
   0  -9  -7 227.608 11.1139   8
   0  -9  -7 227.505 11.5844   3
   0  -9  -7 234.913 10.5048   6
   0   9   7 230.966 11.3312   8
  -1  -9  -7 323.448 14.2009   6
  -1  -9  -7 317.259 14.8383   8
   1   9   7 318.051 15.0628   1
   1   9   7 312.309 15.0248   3
  -2  -9  -7 537.851 24.0495   8
  -2  -9  -7 543.424 23.4188   6
   2   9   7 538.277 24.3036   1
   2   9   7 538.504 24.1093   3
  -3  -9  -7 108.968 5.65404   6
  -3  -9  -7 106.192 6.42067   8
   3   9   7 109.474 6.72834   1
   3   9   7 107.987 6.58276   9
   3   9   7 109.089 6.40047   3
   3   9   7 103.034 8.21741   5
  -4  -9  -7 528.367 22.3526   6
  -4  -9  -7 513.629 22.9579   8
   4   9   7 493.111 24.5982   1
   4   9   7 526.016 26.3635   5
   4   9   7 503.112 23.2709   9
  -5  -9  -7 8.82424 1.88390   6
   5   9   7 5.83296 2.42987   1
   5   9   7 7.80448 2.11571   9
   6   9   7 452.696 20.2116   1
   6   9   7 450.029 19.9694   9
   7   9   7 84.7525 4.62025   1
   7   9   7 85.8326 4.53187   9
   3 -10  -7 179.658 7.91038   3
  -3  10   7 168.558 8.04547   8
   2 -10  -7 -0.3365 1.38185   3
  -2  10   7 -1.7103 1.39452   8
  -2  10   7 -0.9776 2.29864   3
   1 -10  -7 505.915 22.0139   3
   1 -10  -7 483.502 22.1507   8
  -1  10   7 501.069 22.1481   8
  -1  10   7 520.329 22.5464   3
   0 -10  -7 1579.82 67.5644   3
   0 -10  -7 1582.15 67.6481   8
   0  10   7 1611.36 67.6692   1
   0  10   7 1599.65 67.9955   3
  -1 -10  -7 527.940 23.2165   8
  -1 -10  -7 529.405 22.5697   6
   1  10   7 533.567 23.2953   1
   1  10   7 500.078 23.4561   3
  -2 -10  -7 470.849 21.6362   6
  -2 -10  -7 484.794 21.0779   8
   2  10   7 483.815 21.1902   1
   2  10   7 440.652 21.1502   3
  -3 -10  -7 132.072 6.23215   6
   3  10   7 122.820 6.77224   3
   3  10   7 117.092 6.93106   1
  -4 -10  -7 8.78276 1.65172   6
  -4 -10  -7 13.9642 2.90072   8
   4  10   7 11.2170 2.45513   1
   4  10   7 6.75070 2.28428   9
  -5 -10  -7 -1.6246 1.29995   6
   5  10   7 1.13730 1.55157   9
   5  10   7 1.41562 1.77185   1
  -6 -10  -7 482.503 20.1343   6
   6  10   7 419.970 20.8078   9
   6  10   7 497.009 20.4082   1
   2 -11  -7 138.565 6.50851   3
   1 -11  -7 -0.2558 1.62604   3
   1 -11  -7 0.35646 2.47683   8
  -1  11   7 0.36535 1.75243   3
  -1  11   7 -0.9121 2.23315   8
   0 -11  -7 23.7905 3.93875   3
   0 -11  -7 24.0713 3.07195   8
   0  11   7 25.6296 2.99582   3
  -1 -11  -7 18.9649 3.00075   8
  -1 -11  -7 21.3121 2.69918   6
   1  11   7 26.0427 3.00221   3
  -2 -11  -7 50.5428 3.15689   6
  -2 -11  -7 46.0019 3.90821   8
   2  11   7 44.0755 4.23424   1
   2  11   7 47.8022 3.63606   3
  -3 -11  -7 3.72634 2.03982   8
   3  11   7 0.94862 1.82433   1
   3  11   7 1.62137 1.59886   3
  -4 -11  -7 9.95455 1.47345   6
  -4 -11  -7 10.5201 2.47640   8
   4  11   7 10.9436 2.02777   1
  -5 -11  -7 67.0757 4.55638   6
   5  11   7 70.2307 5.14637   9
   5  11   7 83.7755 4.85937   1
   0 -12  -7 3.10355 2.09582   8
   0  12   7 2.14077 1.48067   3
  -1 -12  -7 19.0772 2.68567   8
   1  12   7 28.3952 2.73651   3
  -2 -12  -7 5.53641 1.74092   8
   2  12   7 5.51710 1.39888   3
  -3 -12  -7 416.530 18.8234   8
  -3 -12  -7 470.002 18.5603   6
   3  12   7 403.228 18.3042   3
  -4 -12  -7 1099.32 49.5247   8
  -4 -12  -7 1246.20 49.3056   6
   3   7  -8 145.860 6.72115   3
  -3  -7   8 136.930 6.80413  10
   2   7  -8 238.924 10.8552   3
  -2  -7   8 239.254 10.8102   3
  -2  -7   8 237.819 10.8663  10
   1   7  -8 52.3984 3.44460   8
   1   7  -8 57.6497 4.36745   3
  -1  -7   8 47.7308 3.69307  10
  -1  -7   8 47.8727 3.24229   3
   0   7  -8 641.129 27.1490   8
   0  -7   8 625.984 27.3015  10
   0  -7   8 631.442 26.9940   3
  -1   7  -8 210.138 9.20648   8
   1  -7   8 192.496 8.90300   3
  -4  -6   8 117.806 5.85403   8
  -4  -6   8 120.013 6.41829  10
   3   6  -8 589.486 25.1894   3
  -3  -6   8 590.192 25.2235  10
  -3  -6   8 558.988 25.0791   8
  -3  -6   8 592.764 25.3573   3
   2   6  -8 506.848 22.7956   3
   2   6  -8 512.057 22.6938   8
  -2  -6   8 520.659 22.8589  10
  -2  -6   8 545.537 22.8529   3
  -2  -6   8 532.071 22.6777   8
   1   6  -8 706.957 32.0982   3
   1   6  -8 751.192 32.1296   8
  -1  -6   8 748.983 32.1967  10
  -1  -6   8 771.917 32.0040   3
   0   6  -8 1395.11 59.0229   8
   0  -6   8 1389.03 58.7513   3
   0  -6   8 1382.19 59.0510  10
  -1   6  -8 72.8858 4.60628   6
  -1   6  -8 64.4206 4.12514   8
   1  -6   8 62.7274 3.76235   3
   1  -6   8 67.9048 5.34758  10
  -2   6  -8 40.9019 3.61285   6
  -2   6  -8 32.7132 2.85029   8
   2  -6   8 33.6745 2.53099   3
  -3   6  -8 7.73658 1.74547   6
  -3   6  -8 8.68249 1.76321   8
   5   5  -8 40.0840 2.83299   3
  -5  -5   8 38.8723 2.74255   8
   4   5  -8 82.1405 4.56659   3
  -4  -5   8 82.1518 5.27120  10
  -4  -5   8 73.6247 4.42715   8
   3   5  -8 855.442 37.4410   3
  -3  -5   8 874.511 37.4826   8
  -3  -5   8 874.490 37.5758   3
  -3  -5   8 886.208 37.4664  10
   2   5  -8 18.6646 3.10137   8
   2   5  -8 20.8557 2.98863   3
  -2  -5   8 17.4431 2.42282   3
  -2  -5   8 17.0967 2.38369  10
  -2  -5   8 17.8769 2.73198   8
   1   5  -8 7.48131 2.35602   3
   1   5  -8 4.91469 1.90633   8
  -1  -5   8 7.18573 1.62746   3
  -1  -5   8 7.78950 1.92610  10
  -1  -5   8 11.6925 2.27439   8
   0   5  -8 994.503 43.2923   6
   0   5  -8 1036.97 43.7246   8
   0   5  -8 989.328 43.7791   3
   0  -5   8 1010.18 43.6836  10
   0  -5   8 1039.55 43.3388   3
  -1   5  -8 160.444 8.30519   8
  -1   5  -8 163.880 8.64547   6
   1  -5   8 163.837 7.90074   3
   1  -5   8 167.555 8.77199  10
  -2   5  -8 226.917 10.9130   6
  -2   5  -8 228.288 10.7895   8
   2  -5   8 224.394 11.7433   5
   2  -5   8 231.726 10.2827   3
   2  -5   8 224.141 11.8924  10
  -3   5  -8 65.0677 4.20974   8
  -3   5  -8 66.6697 4.50335   6
   3  -5   8 65.9057 4.81373   5
   3  -5   8 65.5052 4.14757   2
   4  -5   8 12.3995 2.77067   5
   5   4  -8 929.050 37.5942   3
  -5  -4   8 849.441 37.3910   6
  -5  -4   8 878.888 37.8409   8
   4   4  -8 1088.17 46.4873   3
  -4  -4   8 1073.90 45.9891   6
  -4  -4   8 1140.92 46.5951  10
  -4  -4   8 1058.01 46.5851   8
   3   4  -8 627.920 27.7875   3
  -3  -4   8 648.051 27.7882  10
  -3  -4   8 653.685 27.8332   8
  -3  -4   8 642.631 27.1060   6
  -3  -4   8 606.500 27.8917   3
   2   4  -8 708.027 32.2334   8
   2   4  -8 708.841 32.2278   3
  -2  -4   8 802.790 32.3825   3
  -2  -4   8 757.885 32.2015   8
  -2  -4   8 723.837 32.1521  10
   1   4  -8 559.341 24.7282   8
   1   4  -8 532.479 24.6748   3
   1   4  -8 538.505 24.1291   6
  -1  -4   8 567.470 24.4281   3
  -1  -4   8 540.543 24.5570  10
  -1  -4   8 593.604 24.4545   8
   0   4  -8 82.8167 5.75403   6
   0   4  -8 82.5387 5.11785   8
   0   4  -8 68.0463 6.88153   3
   0  -4   8 74.2634 5.14586  10
   0  -4   8 74.1588 4.67489   3
  -1   4  -8 4.80600 1.82684   8
  -1   4  -8 4.75599 2.60598   6
   1  -4   8 6.02883 1.38667   3
   1  -4   8 8.31595 2.02376   2
   1  -4   8 4.29145 2.25727  10
   1  -4   8 1.57438 4.16115   5
  -2   4  -8 5.50054 2.02203   8
  -2   4  -8 0.56047 2.22907   6
   2  -4   8 7.10821 3.42076  10
   2  -4   8 4.08260 1.65902   2
   2  -4   8 3.39052 1.35471   3
   2  -4   8 6.16691 2.50998   5
  -3   4  -8 318.932 14.2084   8
  -3   4  -8 322.214 14.1707   6
   3  -4   8 300.329 15.1705   5
   3  -4   8 297.391 13.4612   3
   3  -4   8 301.184 13.9544   2
  -4   4  -8 652.555 32.0494   8
  -4   4  -8 816.314 32.1385   6
   4  -4   8 764.792 32.0281   2
   4  -4   8 755.235 33.1926   5
  -5   4  -8 -0.1913 1.76041   6
   5  -4   8 2.15306 1.32592   2
   5  -4   8 1.40697 1.65979   5
  -6  -3   8 13.2793 2.03211   6
  -6  -3   8 11.5970 1.77900   8
   5   3  -8 31.2111 2.81141   3
  -5  -3   8 26.1936 2.86850   8
  -5  -3   8 28.3568 2.47089   6
   4   3  -8 144.817 7.32286   3
  -4  -3   8 129.486 7.28838   8
  -4  -3   8 140.790 6.75645   6
  -4  -3   8 143.182 8.25375  10
   3   3  -8 27.9713 4.58527   8
   3   3  -8 27.0506 3.61906   3
  -3  -3   8 23.2230 3.08605   8
  -3  -3   8 24.0520 2.69398   6
  -3  -3   8 26.9455 3.94009  10
   2   3  -8 5.43604 1.99883   3
   2   3  -8 11.5687 2.25171   8
  -2  -3   8 9.60734 2.19386   3
  -2  -3   8 6.94588 2.09917  10
  -2  -3   8 8.51829 1.96906   8
   1   3  -8 590.460 26.3870   8
   1   3  -8 572.610 25.8456   6
   1   3  -8 552.371 26.2778   3
  -1  -3   8 590.641 26.1953  10
  -1  -3   8 643.349 26.1565   8
  -1  -3   8 609.689 26.0750   3
   0   3  -8 468.797 22.6032   3
   0   3  -8 502.686 22.3480   8
   0   3  -8 477.217 22.1490   6
   0  -3   8 505.355 22.2418  10
   0  -3   8 520.571 21.9011   3
  -1   3  -8 2933.71 126.751   6
  -1   3  -8 3057.65 127.062   8
   1  -3   8 3168.28 126.934   2
   1  -3   8 2945.67 126.985  10
   1  -3   8 2829.03 127.959   5
   1  -3   8 3112.93 126.526   3
  -2   3  -8 664.228 29.7245   6
  -2   3  -8 666.085 29.9099   8
   2  -3   8 683.817 30.2521  10
   2  -3   8 691.466 29.7533   2
   2  -3   8 701.234 29.3506   3
   2  -3   8 674.871 31.2094   5
  -3   3  -8 373.725 16.7754   8
  -3   3  -8 380.879 16.6424   6
   3  -3   8 376.518 18.0846   5
   3  -3   8 348.696 15.9503   3
   3  -3   8 341.885 17.1387   2
  -4   3  -8 1250.13 54.3747   8
  -4   3  -8 1316.99 54.3215   6
   4  -3   8 1237.25 54.2591   2
   4  -3   8 1301.18 55.8948   5
  -5   3  -8 370.884 15.6578   6
   5  -3   8 334.209 15.4829   2
   5  -3   8 350.647 16.6838   5
  -6  -2   8 228.870 10.6276   8
  -6  -2   8 226.480 10.6305   6
   5   2  -8 417.018 18.0157   3
  -5  -2   8 407.188 18.3325   8
  -5  -2   8 403.487 17.7935   6
  -4  -2   8 64.9004 7.21246  10
   3   2  -8 555.852 25.3832   8
   3   2  -8 580.580 25.6108   3
  -3  -2   8 557.106 25.7194   3
  -3  -2   8 603.479 25.6463  10
  -3  -2   8 587.430 25.6421   8
  -3  -2   8 582.795 25.3711   6
   2   2  -8 789.522 35.4441   8
  -2  -2   8 799.389 35.3446  10
  -2  -2   8 770.932 34.6701   6
  -2  -2   8 850.647 35.4721   3
  -2  -2   8 863.933 35.4625   8
   1   2  -8 720.238 31.8927   8
   1   2  -8 671.358 31.7526   3
   1   2  -8 692.614 31.3800   6
  -1  -2   8 731.217 31.7263  10
  -1  -2   8 806.237 31.7513   8
  -1  -2   8 734.136 31.5734   3
   0   2  -8 6.92146 3.34278   3
   0   2  -8 11.2213 2.63737   6
   0  -2   8 8.11267 2.18551  10
   0  -2   8 15.8217 2.78071   8
   0  -2   8 9.97138 1.86680   3
  -1   2  -8 614.124 27.3624   8
  -1   2  -8 598.609 27.1281   6
   1  -2   8 602.594 27.3359  10
   1  -2   8 658.621 26.8733   3
   1  -2   8 647.620 27.2212   2
   1  -2   8 577.295 28.5382   5
  -2   2  -8 564.842 25.0361   8
  -2   2  -8 547.666 24.7770   6
   2  -2   8 555.879 25.2804  10
   2  -2   8 566.894 24.3435   3
   2  -2   8 543.365 26.2377   5
   2  -2   8 581.416 24.8408   2
  -3   2  -8 5.69493 2.49757   8
  -3   2  -8 2.20285 2.13734   6
   3  -2   8 5.03790 1.50829   3
   3  -2   8 -1.2629 4.60276   9
   3  -2   8 3.72266 2.06311   5
   3  -2   8 6.21481 3.80230  10
  -4   2  -8 774.506 32.7017   6
   4  -2   8 776.456 34.5298   5
   4  -2   8 707.923 32.6211   2
  -5   2  -8 12.4826 2.61850   6
   5  -2   8 15.4513 3.20384   5
   6  -2   8 659.877 29.2892   5
   6  -2   8 660.180 28.1703   2
   6   1  -8 248.556 11.6899   2
  -6  -1   8 246.057 11.6204   8
  -6  -1   8 265.255 11.2097   6
   5   1  -8 376.816 16.9052   3
  -5  -1   8 392.737 16.8133   6
  -5  -1   8 377.440 17.3581   8
   4   1  -8 25.8873 3.17027   3
  -4  -1   8 27.6186 2.83070   6
  -4  -1   8 29.5044 3.35084   8
   3   1  -8 538.699 23.9479   8
   3   1  -8 536.953 24.0538   3
  -3  -1   8 557.133 24.3035  10
  -3  -1   8 533.924 23.4800   6
  -3  -1   8 535.525 24.3842   3
  -3  -1   8 549.003 24.1462   8
   2   1  -8 289.180 13.9086   3
   2   1  -8 281.917 13.6472   8
  -2  -1   8 306.678 13.7252   8
  -2  -1   8 293.122 13.7637  10
  -2  -1   8 291.726 13.7412   3
  -2  -1   8 282.730 13.0125   6
   1   1  -8 573.925 26.8636   8
   1   1  -8 581.999 26.3921   6
  -1  -1   8 662.655 26.8182   8
  -1  -1   8 620.223 26.6515   3
  -1  -1   8 597.798 26.7763  10
   0   1  -8 1115.46 48.4838   8
   0   1  -8 1047.82 48.1910   6
   0  -1   8 1116.52 48.4229  10
   0  -1   8 1115.05 48.0395   3
   0  -1   8 1230.57 48.2389   8
  -1   1  -8 19.6868 3.24890   6
  -1   1  -8 13.3548 2.43365   8
   1  -1   8 17.6156 3.84987   5
   1  -1   8 19.1276 2.44647   3
   1  -1   8 16.7582 2.68643  10
   1  -1   8 18.3056 2.69185   2
  -2   1  -8 1351.88 57.4532   8
  -2   1  -8 1323.76 57.2152   6
   2  -1   8 1329.59 58.8375   5
   2  -1   8 1368.15 57.2429   2
   2  -1   8 1353.69 56.8065   3
   2  -1   8 1306.43 57.6131  10
  -3   1  -8 194.526 9.96231   8
  -3   1  -8 188.956 10.2461   6
   3  -1   8 188.139 10.9148   5
   3  -1   8 194.604 10.7506  10
   3  -1   8 181.836 11.3351   9
   3  -1   8 176.737 9.33010   2
   3  -1   8 177.487 8.71774   3
   4  -1   8 125.079 8.11601   5
   4  -1   8 107.982 6.53815   2
  -5   1  -8 677.741 28.5998   6
   5  -1   8 664.305 30.1743   5
   5  -1   8 615.339 28.3258   2
   6  -1   8 94.7047 6.27594   5
   6  -1   8 79.5121 4.63681   2
   6   0  -8 1.38853 1.62358   2
  -6   0   8 0.92227 1.16342   6
  -6   0   8 0.83451 1.61017   8
   5   0  -8 126.813 6.30292   3
  -5   0   8 118.746 6.13400   6
  -5   0   8 118.439 6.73080   8
   4   0  -8 505.081 22.3825   3
  -4   0   8 509.974 22.7386   8
  -4   0   8 504.897 22.1138   6
   3   0  -8 1589.24 65.9484   3
   3   0  -8 1576.11 65.8254   8
  -3   0   8 1533.38 66.0587  10
  -3   0   8 1497.48 65.4132   6
  -3   0   8 1571.07 66.2264   3
  -3   0   8 1519.85 66.0229   8
   2   0  -8 1217.68 53.0988   6
   2   0  -8 1259.59 53.8030   8
   2   0  -8 1266.84 53.8712   3
  -2   0   8 1303.79 53.8687  10
  -2   0   8 1263.18 53.8171   8
  -2   0   8 1227.57 53.7894   3
  -2   0   8 1259.78 53.2292   6
   1   0  -8 4743.38 199.249   8
   1   0  -8 4843.79 199.273   3
   1   0  -8 4463.57 198.672   6
  -1   0   8 5081.11 199.156   8
  -1   0   8 4686.59 199.005   3
  -1   0   8 4636.95 199.150  10
   0   0  -8 685.736 29.9394   8
   0   0  -8 641.711 30.5157   3
   0   0  -8 670.357 29.6815   6
   0   0   8 669.906 29.5309   3
   0   0   8 729.554 31.1269   8
   0   0   8 689.279 29.9191  10
  -1   0  -8 341.759 16.0174   6
  -1   0  -8 348.405 16.1458   8
   1   0   8 345.895 15.6058   3
   1   0   8 376.080 16.0046   2
   1   0   8 345.147 16.2059  10
   1   0   8 327.660 17.7667   5
  -2   0  -8 5.09422 2.40822   6
  -2   0  -8 2.92461 2.56038   8
   2   0   8 3.35916 1.55298   2
   2   0   8 4.49036 2.70455  10
   2   0   8 4.55602 1.52661   3
   2   0   8 4.70830 2.29960   5
  -3   0  -8 27.8478 3.91666   8
  -3   0  -8 23.2713 3.41971   6
   3   0   8 23.5878 4.30858   9
   3   0   8 25.0382 4.16194   5
   3   0   8 24.9472 4.15955  10
   3   0   8 22.7757 2.99350   3
  -4   0  -8 454.441 20.1412   6
   4   0   8 435.923 19.6476   2
   4   0   8 442.019 21.5745   5
   4   0   8 410.808 21.4817  10
   4   0   8 436.023 21.3134   9
   5   0   8 564.705 25.3328   2
   5   0   8 588.653 27.2951   5
   6   0   8 24.9761 2.81760   2
   7   0   8 257.828 11.7196   2
   7   0   8 279.381 13.0772   5
   6  -1  -8 103.171 5.47856   2
  -6   1   8 97.7668 4.90759   6
  -6   1   8 90.0815 5.41152   8
   5  -1  -8 172.295 8.34625   3
  -5   1   8 173.971 8.91380   8
  -5   1   8 175.437 8.31346   6
   4  -1  -8 92.4472 5.26117   3
  -4   1   8 82.9875 5.49772   8
  -4   1   8 79.7245 4.75450   6
   3  -1  -8 880.425 37.9666   8
   3  -1  -8 871.993 38.0131   3
  -3   1   8 869.410 38.5019   3
  -3   1   8 889.385 38.2704   8
  -3   1   8 885.184 37.6229   6
   2  -1  -8 156.597 8.18420   3
   2  -1  -8 149.675 7.86397   8
   2  -1  -8 146.779 7.37192   6
  -2   1   8 152.579 8.59571  10
  -2   1   8 150.113 8.13822   3
  -2   1   8 145.497 7.35026   6
  -2   1   8 156.206 7.99623   8
   1  -1  -8 1.49503 1.78276   8
   1  -1  -8 3.49658 3.02747   3
  -1   1   8 2.96942 1.98603   6
  -1   1   8 1.39205 1.63417   3
  -1   1   8 1.85818 1.88147   8
  -1   1   8 4.69551 2.52198  10
   0  -1  -8 23.5262 3.43396   8
   0  -1  -8 30.9518 3.43090   6
   0  -1  -8 21.1919 6.44913   3
   0   1   8 26.3679 3.73803  10
   0   1   8 27.6986 2.91136   3
  -1  -1  -8 20.6110 3.12587   6
  -1  -1  -8 30.0859 5.23366   8
   1   1   8 27.4916 3.80027  10
   1   1   8 22.6645 2.68905   3
   1   1   8 20.9819 4.22534   5
   1   1   8 21.1567 2.88725   2
  -2  -1  -8 240.808 12.6675   6
   2   1   8 261.806 11.8980   2
   2   1   8 249.525 13.4816   5
   2   1   8 251.956 12.5106  10
   2   1   8 247.241 11.5158   3
  -3  -1  -8 105.198 7.12872   6
  -3  -1  -8 104.527 7.52695   8
   3   1   8 93.7477 5.77233   2
   3   1   8 104.798 7.85657   9
   3   1   8 91.7288 7.04970  10
   3   1   8 89.8748 5.44864   3
   3   1   8 98.7425 7.34523   5
   4   1   8 28.7184 5.12762  10
   4   1   8 16.3601 4.51369   9
   4   1   8 18.8084 2.58818   2
   5   1   8 1605.47 70.7797   9
   5   1   8 1689.66 71.5986   5
   5   1   8 1596.65 69.2204   2
   6   1   8 2468.92 103.062   5
   6   1   8 2327.34 100.960   2
   7   1   8 140.283 8.40331   5
   7   1   8 140.891 6.62981   2
   6  -2  -8 1845.74 77.0603   2
  -6   2   8 1691.22 76.9547   8
  -6   2   8 1932.77 76.6259   6
   5  -2  -8 817.120 35.4491   3
  -5   2   8 849.701 35.4839   6
  -5   2   8 822.683 36.0830   8
   4  -2  -8 644.185 27.9602   3
  -4   2   8 645.828 28.4330   8
  -4   2   8 634.931 27.7406   6
   3  -2  -8 452.030 19.9857   3
   3  -2  -8 443.220 19.9259   8
  -3   2   8 436.827 20.7140   3
  -3   2   8 460.196 20.3159   8
  -3   2   8 431.448 19.5367   6
   2  -2  -8 5.97756 1.96991   8
   2  -2  -8 5.49284 1.99881   3
  -2   2   8 5.93992 2.05961   8
  -2   2   8 3.43885 2.12951   3
  -2   2   8 7.71300 1.76742   6
  -2   2   8 7.49713 3.86528  10
   1  -2  -8 56.6821 4.12514   8
   1  -2  -8 52.4748 3.57471   6
  -1   2   8 56.8316 4.49338   8
  -1   2   8 45.0355 5.59032  10
  -1   2   8 49.4474 4.06302   6
  -1   2   8 52.9696 4.15703   3
   0  -2  -8 878.811 37.1694   6
   0  -2  -8 856.061 38.4620   3
   0  -2  -8 870.453 38.8312   8
   0   2   8 799.789 37.4274   3
   0   2   8 843.420 36.8024   8
  -1  -2  -8 173.804 8.95822   6
  -1  -2  -8 184.862 9.08215   8
   1   2   8 161.872 10.6904   5
   1   2   8 167.617 9.06279   2
   1   2   8 178.592 8.90228   3
  -2  -2  -8 545.353 24.7934   6
  -2  -2  -8 518.979 23.6861   8
   2   2   8 516.667 24.9311   5
   2   2   8 525.883 23.0172   2
   2   2   8 515.740 23.5927  10
   2   2   8 504.686 22.7366   3
  -3  -2  -8 3091.19 127.667   6
   3   2   8 3044.57 128.032  10
   3   2   8 2942.74 126.893   3
   3   2   8 2947.14 129.289   5
   3   2   8 2991.31 127.250   2
   3   2   8 3114.60 128.467   9
   4   2   8 420.900 21.7916   9
   4   2   8 450.298 20.1527   2
   4   2   8 459.578 21.6135  10
   4   2   8 470.454 22.5269   5
   5   2   8 32.1643 5.00829   9
   5   2   8 29.9828 3.49571   2
   6   2   8 154.701 9.64527   5
   6   2   8 132.968 7.23521   2
   7   2   8 7.38761 1.85388   2
   7   2   8 9.29101 3.27418   5
   6  -3  -8 142.987 6.89235   2
  -6   3   8 135.829 7.05852   8
  -6   3   8 149.287 6.75767   6
   5  -3  -8 26.7299 2.77279   3
   5  -3  -8 31.2823 3.11903   2
  -5   3   8 29.8919 3.38969   8
  -5   3   8 29.1592 2.67772   6
   4  -3  -8 589.181 25.7698   3
  -4   3   8 604.453 26.3933   8
  -4   3   8 577.717 25.5961   6
   3  -3  -8 12.9847 2.48601   8
   3  -3  -8 9.19733 2.11804   3
  -3   3   8 11.7392 3.42909   3
  -3   3   8 11.3128 2.37235   8
  -3   3   8 8.31828 1.76814   6
   2  -3  -8 24.1361 3.94337   3
   2  -3  -8 34.5310 3.48553   8
   2  -3  -8 34.2355 3.39911   6
  -2   3   8 34.7462 4.35352   3
  -2   3   8 35.7833 3.90717   8
  -2   3   8 32.8995 3.16412   6
   1  -3  -8 586.330 26.0634   8
   1  -3  -8 603.274 26.2946   3
   1  -3  -8 579.607 25.4888   6
  -1   3   8 615.911 26.3018   8
  -1   3   8 577.565 26.1934   3
   0  -3  -8 241.470 10.9631   6
   0  -3  -8 242.893 11.3783   8
   0   3   8 208.294 12.9826  10
   0   3   8 232.990 11.5392   8
   0   3   8 249.613 11.3985   3
  -1  -3  -8 2525.54 103.456   8
  -1  -3  -8 2414.96 103.172   6
   1   3   8 2427.15 105.438   5
   1   3   8 2423.83 103.610   3
  -2  -3  -8 360.758 16.6564   8
  -2  -3  -8 370.306 18.1476   6
   2   3   8 344.063 16.0287   3
   2   3   8 356.431 16.8817  10
   2   3   8 365.044 16.6408   2
   2   3   8 342.837 18.0746   5
   3   3   8 317.437 15.7310   9
   3   3   8 333.412 16.9468   5
   3   3   8 310.996 14.5237   3
   3   3   8 317.884 15.5034  10
   3   3   8 317.377 14.6148   2
   3   3   8 314.149 16.1243   1
   4   3   8 286.581 15.2691   9
   4   3   8 285.029 13.5866   2
   4   3   8 311.992 16.2580   5
   5   3   8 50.1122 4.03730   2
   5   3   8 52.5276 6.28547   9
   6   3   8 233.698 13.8563   9
   6   3   8 311.801 15.3999   5
   7   3   8 110.533 7.97771   5
   6  -4  -8 430.974 18.6196   2
  -6   4   8 408.321 18.7230   8
  -6   4   8 452.038 18.3351   6
   5  -4  -8 68.6618 4.16650   2
   5  -4  -8 63.3079 3.79460   3
  -5   4   8 55.7814 4.37266   8
  -5   4   8 65.0037 3.75427   6
   4  -4  -8 702.762 29.5929   3
  -4   4   8 617.227 30.3117   8
   3  -4  -8 233.233 11.4836   8
   3  -4  -8 242.898 11.3932   3
  -3   4   8 242.161 12.7629   3
  -3   4   8 235.455 11.0414   6
  -3   4   8 242.871 11.8945   8
   2  -4  -8 2436.97 103.661   8
   2  -4  -8 2425.77 103.569   3
  -2   4   8 2402.83 103.181   6
  -2   4   8 2449.67 104.062   3
  -2   4   8 2551.87 104.084   8
   1  -4  -8 7.91033 1.51547   6
   1  -4  -8 3.07684 2.50968   3
   1  -4  -8 6.87413 1.91734   8
  -1   4   8 10.0877 2.22670   3
  -1   4   8 4.34965 2.09787   8
  -1   4   8 5.80982 1.97081   6
   0  -4  -8 1239.35 52.5807   8
   0  -4  -8 1235.00 52.1021   6
   0  -4  -8 1186.05 52.7850   3
   0   4   8 1118.59 53.2023   8
   0   4   8 1246.15 52.6754   3
   0   4   8 1381.52 53.8140  10
   0   4   8 1196.81 54.6227   5
  -1  -4  -8 3289.62 134.333   8
  -1  -4  -8 3216.07 133.888   6
   1   4   8 3111.85 134.008   3
   1   4   8 3171.52 136.053   5
   1   4   8 3128.13 134.448  10
  -2  -4  -8 349.695 16.2984   6
   2   4   8 347.910 16.2699   9
   2   4   8 324.897 15.4868   3
   2   4   8 357.013 16.3149  10
   2   4   8 328.415 17.5569   5
  -3  -4  -8 130.263 7.99523   6
  -3  -4  -8 131.794 8.19820   8
   3   4   8 126.969 7.95256  10
   3   4   8 131.605 7.31518   3
   3   4   8 129.416 7.08642   2
   3   4   8 130.584 9.27787   5
   3   4   8 126.899 7.94381   9
   4   4   8 221.289 12.8546   5
   4   4   8 204.488 11.3709   9
   4   4   8 191.367 11.5505   1
   5   4   8 210.759 12.4799   9
   5   4   8 250.348 14.2306   5
   5   4   8 237.631 12.4712   1
   6   4   8 124.308 9.03501   9
   6   4   8 177.965 10.9718   5
   7   4   8 134.490 8.59396   9
   7   4   8 157.975 9.58738   5
   5  -5  -8 290.711 12.9330   3
   5  -5  -8 285.513 13.2623   2
  -5   5   8 308.991 12.9223   6
  -5   5   8 293.386 13.5374   8
   4  -5  -8 31.4744 3.22197   2
   4  -5  -8 27.5273 2.99500   3
  -4   5   8 31.1882 3.55068   8
   3  -5  -8 -0.0089 1.67981   3
   3  -5  -8 -1.0592 2.16831   8
  -3   5   8 1.85861 1.43472   6
  -3   5   8 1.85620 1.74864   8
  -3   5   8 5.38828 3.21113   3
   2  -5  -8 858.845 37.9078   8
   2  -5  -8 858.529 37.8348   3
  -2   5   8 913.620 38.3925   8
  -2   5   8 867.884 38.4742   3
  -2   5   8 880.780 37.4228   6
   1  -5  -8 146.079 7.88568   3
   1  -5  -8 136.017 6.76875   6
   1  -5  -8 136.618 7.44028   8
  -1   5   8 139.922 7.89740   3
  -1   5   8 141.195 7.86564   8
   0  -5  -8 64.3691 3.79390   6
   0  -5  -8 62.2191 4.50158   8
   0  -5  -8 65.9716 7.13304   3
   0   5   8 59.1599 5.29655   8
   0   5   8 52.3678 5.53901  10
   0   5   8 67.9896 4.74314   3
   0   5   8 55.6728 5.53947   9
  -1  -5  -8 611.590 26.4677   6
  -1  -5  -8 619.745 26.9758   8
   1   5   8 613.299 27.4918  10
   1   5   8 601.678 26.9716   3
   1   5   8 619.911 27.3327   9
   1   5   8 609.453 29.0532   5
  -2  -5  -8 416.159 18.4533   8
  -2  -5  -8 400.328 17.9470   6
   2   5   8 403.605 18.7644   9
   2   5   8 410.182 18.9705  10
   2   5   8 400.660 20.4085   5
   2   5   8 398.998 18.2639   3
  -3  -5  -8 274.485 13.2478   6
  -3  -5  -8 271.544 13.7453   8
   3   5   8 305.002 14.1856   9
   3   5   8 287.464 15.8140   5
   3   5   8 285.851 13.3318   3
   4   5   8 19.9397 4.16553   1
   4   5   8 30.9998 6.45896   5
   4   5   8 20.2836 3.36841   9
   5   5   8 237.422 12.9693   9
   5   5   8 242.658 13.3909   1
   5   5   8 275.953 15.4773   5
   6   5   8 80.9290 6.34706   9
   6   5   8 96.4145 8.66403   5
   6   5   8 78.2624 6.26632   1
   7   5   8 1285.69 58.2636   9
   7   5   8 1446.50 59.3871   5
   5  -6  -8 994.119 44.3958   2
  -5   6   8 1091.64 44.1380   6
  -5   6   8 1064.16 44.7364   8
   4  -6  -8 301.874 13.8632   2
   4  -6  -8 311.682 13.6759   3
  -4   6   8 309.216 13.4242   6
  -4   6   8 296.054 14.1970   8
   3  -6  -8 1219.75 51.2033   3
  -3   6   8 1203.30 52.0955   3
  -3   6   8 1176.79 51.7374   8
   2  -6  -8 1655.74 69.9301   3
   2  -6  -8 1635.50 69.9840   8
  -2   6   8 1718.22 70.5280   8
  -2   6   8 1613.42 70.5364   3
  -2   6   8 1610.65 69.4034   6
   1  -6  -8 2034.78 87.9331   6
   1  -6  -8 2069.93 88.5168   3
   1  -6  -8 2109.64 88.7057   8
  -1   6   8 2080.09 89.0118   3
  -1   6   8 2165.86 89.0085   8
   0  -6  -8 40.6076 3.64687   8
   0  -6  -8 40.1418 3.06322   6
   0  -6  -8 35.8124 5.64329   3
   0   6   8 47.9818 6.38013   5
   0   6   8 31.7669 4.03543   3
   0   6   8 32.1423 5.77399   9
   0   6   8 34.9896 4.38223   8
  -1  -6  -8 7.26915 1.57401   6
  -1  -6  -8 9.63224 2.16799   8
   1   6   8 9.60338 3.00310   9
   1   6   8 12.5072 2.20620   3
  -2  -6  -8 1523.54 63.2625   8
  -2  -6  -8 1437.72 62.6752   6
   2   6   8 1454.70 63.5397   9
   2   6   8 1494.73 65.6275   5
   2   6   8 1500.26 63.2192   3
  -3  -6  -8 15.5218 2.40791   6
  -3  -6  -8 18.5102 3.21000   8
   3   6   8 14.2264 3.98367   5
   3   6   8 16.0871 2.67948   3
   3   6   8 22.5601 3.88612   1
   3   6   8 18.3275 2.84596   9
  -4  -6  -8 35.2660 4.73242   6
   4   6   8 52.7864 4.78606   9
   4   6   8 57.3099 7.33968   5
   4   6   8 45.5850 5.62959   1
   5   6   8 347.366 18.1518   5
   5   6   8 281.165 16.0782   1
   5   6   8 330.861 15.6494   9
   6   6   8 19.4508 3.73222   1
   6   6   8 22.2939 3.77440   9
   6   6   8 23.0795 6.44658   5
   7   6   8 1.84162 3.53521   5
   7   6   8 1.67174 2.98849   1
   7   6   8 -1.4391 2.53533   9
   4  -7  -8 103.286 5.37408   3
   4  -7  -8 103.293 5.69105   2
  -4   7   8 110.802 5.85136   8
  -4   7   8 108.662 5.14735   6
   3  -7  -8 12.4563 2.28348   2
   3  -7  -8 11.8357 1.98694   3
  -3   7   8 7.39635 3.53655   3
  -3   7   8 12.0885 2.21616   6
  -3   7   8 9.89177 2.08975   8
   2  -7  -8 32.0040 5.96427   2
   2  -7  -8 32.2322 3.57374   8
   2  -7  -8 31.7502 3.63965   3
  -2   7   8 35.6047 4.70113   3
  -2   7   8 32.6879 3.72954   8
   1  -7  -8 189.740 9.04302   6
   1  -7  -8 198.986 9.76183   8
   1  -7  -8 202.189 9.98360   3
  -1   7   8 204.861 10.3497   3
  -1   7   8 188.383 10.0297   8
   0  -7  -8 284.859 12.6689   6
   0  -7  -8 281.148 13.3458   8
   0  -7  -8 283.356 13.7273   3
   0   7   8 276.538 13.5860   3
   0   7   8 285.263 13.5816   8
  -1  -7  -8 484.710 20.9856   6
  -1  -7  -8 477.794 21.6317   8
   1   7   8 477.322 21.7444   3
   1   7   8 466.576 21.8552   9
   1   7   8 501.104 24.0372   5
  -2  -7  -8 256.573 11.8302   6
  -2  -7  -8 264.056 12.5639   8
   2   7   8 265.831 14.7310   5
   2   7   8 255.925 12.7802   9
   2   7   8 258.462 12.4622   3
  -3  -7  -8 335.315 14.7586   6
  -3  -7  -8 324.184 15.4063   8
   3   7   8 330.900 15.6259   9
   3   7   8 331.121 15.2480   3
   3   7   8 335.726 16.2618   1
   3   7   8 315.853 17.5791   5
  -4  -7  -8 365.668 16.0636   6
   4   7   8 355.411 16.8968   9
   4   7   8 371.162 17.8021   1
   4   7   8 345.521 19.0875   5
   5   7   8 2966.63 123.539   9
   5   7   8 2799.66 123.137   1
   5   7   8 2857.92 123.945   5
   6   7   8 374.899 17.3024   9
   6   7   8 376.946 17.6979   1
   6   7   8 378.294 19.0116   5
   7   7   8 24.1637 3.29753   1
   7   7   8 17.0899 4.24027   5
   4  -8  -8 353.721 15.4701   3
  -4   8   8 360.210 15.7746   8
   3  -8  -8 87.3948 4.85441   3
  -3   8   8 87.5548 5.19277   8
  -3   8   8 93.1876 7.46993   3
   2  -8  -8 22.1425 3.25418   8
   2  -8  -8 20.8725 3.09030   3
  -2   8   8 19.2094 3.11532   8
  -2   8   8 16.0787 2.84063   3
   1  -8  -8 199.482 9.84847   8
   1  -8  -8 201.133 10.0650   3
  -1   8   8 198.081 10.4469   3
  -1   8   8 202.005 10.1503   8
   0  -8  -8 657.621 29.3295   3
   0  -8  -8 659.862 29.2930   8
   0  -8  -8 672.093 28.6065   6
   0   8   8 657.772 29.3370   8
   0   8   8 687.441 29.6259   3
  -1  -8  -8 265.786 11.8715   6
  -1  -8  -8 265.441 12.5398   8
   1   8   8 262.630 12.7223   3
   1   8   8 251.691 14.6213   5
  -2  -8  -8 1302.07 55.6928   8
  -2  -8  -8 1309.98 55.0940   6
   2   8   8 1255.24 55.7138   9
   2   8   8 1310.51 58.2092   5
   2   8   8 1321.77 55.7404   3
  -3  -8  -8 1948.25 82.4383   8
  -3  -8  -8 1964.84 81.9079   6
   3   8   8 1948.11 85.1180   5
   3   8   8 1860.93 82.5539   9
   3   8   8 1953.02 82.3333   3
   3   8   8 1982.67 83.1288   1
  -4  -8  -8 134.544 8.13958   8
   4   8   8 137.532 8.13226   1
   4   8   8 118.791 9.39807   5
   4   8   8 135.196 7.43312   9
  -5  -8  -8 90.9490 5.37413   6
   5   8   8 94.1471 6.39006   1
   5   8   8 71.6928 7.48167   5
   5   8   8 96.6726 5.63924   9
   6   8   8 143.825 7.59831   1
   6   8   8 144.696 7.24761   9
   6   8   8 123.724 8.59011   5
   7   8   8 721.431 30.8635   1
   7   8   8 724.057 30.9198   9
   3  -9  -8 48.4965 3.08792   3
  -3   9   8 43.5185 3.27334   8
   2  -9  -8 8.61584 1.79280   3
   2  -9  -8 11.7007 2.88335   8
  -2   9   8 8.78076 1.92382   8
  -2   9   8 12.3448 2.61905   3
   1  -9  -8 11.6394 2.27867   3
   1  -9  -8 12.7116 2.15106   8
  -1   9   8 9.93525 2.19555   8
  -1   9   8 14.1108 2.53560   3
   0  -9  -8 202.828 10.5104   3
   0  -9  -8 205.323 9.40878   6
   0  -9  -8 197.308 10.0230   8
  -1  -9  -8 28.1838 3.21551   8
  -1  -9  -8 25.2133 2.59771   6
   1   9   8 25.6719 3.63882   1
   1   9   8 29.3308 3.46068   3
  -2  -9  -8 129.969 6.31051   6
  -2  -9  -8 126.687 6.99540   8
   2   9   8 125.497 7.21161   1
   2   9   8 119.242 6.92103   3
  -3  -9  -8 13.2340 2.53788   8
   3   9   8 16.5224 2.53568   3
   3   9   8 12.2074 3.64285   5
   3   9   8 16.1882 2.77475   9
   3   9   8 18.1561 3.71199   1
  -4  -9  -8 2.99361 2.67252   8
  -4  -9  -8 4.84673 1.48912   6
   4   9   8 2.87809 1.90594   9
   4   9   8 1.09411 2.10299   1
  -5  -9  -8 154.705 7.43800   6
   5   9   8 156.358 7.82364   9
   5   9   8 159.963 8.13949   1
   5   9   8 142.287 9.39137   5
   6   9   8 1022.15 44.5790   9
   6   9   8 1072.70 44.7894   1
   2 -10  -8 734.468 31.9190   3
  -2  10   8 683.627 31.9868   8
  -2  10   8 831.615 33.0411   3
   1 -10  -8 569.997 24.8388   3
   1 -10  -8 552.252 24.9106   8
  -1  10   8 577.894 24.8608   8
  -1  10   8 592.383 25.2628   3
   0 -10  -8 971.389 43.0840   8
   0 -10  -8 1012.19 43.1496   3
   0  10   8 1026.68 43.1735   1
   0  10   8 1019.24 43.4340   3
  -1 -10  -8 952.906 41.1136   8
  -1 -10  -8 961.528 40.5099   6
   1  10   8 940.630 41.1427   1
   1  10   8 968.105 41.2851   3
  -2 -10  -8 39.4498 2.89509   6
  -2 -10  -8 44.6821 3.65289   8
   2  10   8 40.9851 3.61552   3
   2  10   8 41.7819 3.82924   1
  -3 -10  -8 100.182 5.04066   6
  -3 -10  -8 96.8588 5.63932   8
   3  10   8 92.4519 5.49329   3
   3  10   8 97.4016 5.78509   1
  -4 -10  -8 17.9864 2.26512   6
  -4 -10  -8 19.5574 3.05604   8
   4  10   8 16.1480 2.50302   9
   4  10   8 16.6464 2.57508   1
  -5 -10  -8 29.3470 2.55063   6
   5  10   8 25.4437 2.89463   9
   5  10   8 22.3706 2.63968   1
   6  10   8 13.1724 2.26697   9
   6  10   8 8.19549 1.53942   1
   1 -11  -8 5.72894 1.81562   3
  -1  11   8 3.53250 1.67888   3
   0 -11  -8 27.2475 3.10434   8
   0 -11  -8 41.4051 4.60123   3
   0  11   8 32.1513 3.02443   3
  -1 -11  -8 120.258 6.49383   8
   1  11   8 125.528 6.43413   3
  -2 -11  -8 369.269 15.9659   6
  -2 -11  -8 371.893 16.6280   8
   2  11   8 363.895 16.3565   3
   2  11   8 369.417 16.4691   1
  -3 -11  -8 20.9951 3.12662   8
   3  11   8 19.3226 2.64890   1
   3  11   8 20.7039 2.92038   3
  -4 -11  -8 23.9530 3.71266   8
   4  11   8 32.0941 2.71662   1
  -5 -11  -8 136.340 6.33010   6
   5  11   8 135.625 6.46122   1
  -1 -12  -8 334.281 15.7029   8
   1  12   8 384.130 15.7467   3
  -2 -12  -8 386.958 17.3812   8
   2  12   8 379.615 16.5729   3
  -3 -12  -8 0.44697 1.72075   8
  -3 -12  -8 -0.4355 1.16468   6
   3   6  -9 306.541 13.3636   3
  -3  -6   9 304.834 13.5449  10
   2   6  -9 232.498 10.5635   3
  -2  -6   9 231.087 10.4825   3
   1   6  -9 3.27662 1.50107   8
   1   6  -9 2.49815 2.79510   3
  -1  -6   9 1.18544 1.54631  10
  -1  -6   9 5.07898 1.25926   3
   0   6  -9 312.433 13.7440   8
   0  -6   9 305.664 14.1283  10
   0  -6   9 313.191 13.5867   3
  -1   6  -9 1.22835 1.28323   8
   1  -6   9 2.25396 0.98786   3
   4   5  -9 154.351 7.08104   3
  -4  -5   9 152.367 7.12390   8
   3   5  -9 868.792 36.8644   3
  -3  -5   9 868.961 37.0150   3
  -3  -5   9 843.958 36.7687   8
  -3  -5   9 879.139 36.9419  10
   2   5  -9 1795.67 78.3734   8
   2   5  -9 1854.68 78.6003   3
  -2  -5   9 1797.24 78.6178  10
  -2  -5   9 1956.41 78.5907   3
  -2  -5   9 1907.91 78.3858   8
   1   5  -9 6.95166 1.69891   8
   1   5  -9 5.10343 2.52166   3
  -1  -5   9 4.05687 1.67052  10
  -1  -5   9 4.55989 1.36660   3
   0   5  -9 238.205 11.1803   8
   0  -5   9 243.783 10.9694   3
   0  -5   9 240.992 11.3967  10
  -1   5  -9 368.542 16.3743   6
  -1   5  -9 365.246 16.6348   8
   1  -5   9 376.907 16.9597  10
   1  -5   9 385.743 16.3492   3
  -2   5  -9 91.0195 5.10506   6
  -2   5  -9 85.9219 4.82481   8
  -3   5  -9 23.2289 2.93510   8
  -3   5  -9 30.3492 2.83158   6
   4   4  -9 38.0640 2.87009   3
  -4  -4   9 33.4865 2.78441   8
  -4  -4   9 42.2777 5.52444  10
   3   4  -9 59.4590 3.97314   3
  -3  -4   9 53.5486 4.18990  10
  -3  -4   9 55.9777 3.65441   8
  -3  -4   9 49.5529 4.67341   3
   2   4  -9 333.355 15.3697   8
   2   4  -9 329.431 15.5656   3
  -2  -4   9 334.742 15.5334  10
  -2  -4   9 346.278 15.3112   8
  -2  -4   9 365.406 15.5394   3
   1   4  -9 32.4585 3.30020   8
   1   4  -9 37.5392 4.38934   3
  -1  -4   9 30.0949 3.51932  10
  -1  -4   9 36.9789 3.24439   3
   0   4  -9 677.335 29.1786   8
   0   4  -9 642.136 28.6673   6
   0  -4   9 685.261 28.8376   3
   0  -4   9 661.358 29.1985  10
  -1   4  -9 145.304 7.67765   6
  -1   4  -9 137.860 7.32774   8
   1  -4   9 138.043 7.73914  10
   1  -4   9 142.609 6.95289   3
  -2   4  -9 55.9823 3.95904   8
  -2   4  -9 60.7604 4.62564   6
   2  -4   9 51.9327 7.10275   5
   2  -4   9 55.0850 5.30413  10
   2  -4   9 52.5412 3.39615   3
  -3   4  -9 39.3005 3.57436   6
  -3   4  -9 32.6245 3.18473   8
   3  -4   9 27.8964 5.09726   5
  -4   4  -9 348.279 14.2042   6
   4  -4   9 296.425 14.7625   5
   5   3  -9 804.386 34.0286   3
   4   3  -9 635.510 28.8077   3
  -4  -3   9 628.214 28.9607   8
  -4  -3   9 751.179 30.0445  10
   3   3  -9 11.2246 2.13810   3
  -3  -3   9 22.0294 2.86319   3
  -3  -3   9 14.3010 2.56609   8
  -3  -3   9 17.4172 2.67604  10
   2   3  -9 52.9458 4.26290   8
   2   3  -9 54.4202 4.76127   3
  -2  -3   9 56.9124 4.06622   8
  -2  -3   9 60.2900 4.37625   3
  -2  -3   9 58.5986 4.55632  10
   1   3  -9 284.814 13.8757   3
   1   3  -9 271.791 13.1287   6
   1   3  -9 279.559 13.5277   8
  -1  -3   9 300.295 13.3802   3
  -1  -3   9 307.856 13.4951   8
  -1  -3   9 278.975 13.5541  10
   0   3  -9 73.2158 5.12838   6
   0   3  -9 62.1415 4.60343   8
   0   3  -9 56.2327 7.53825   3
   0  -3   9 65.7396 4.15712   3
   0  -3   9 64.2814 4.88442  10
  -1   3  -9 1480.28 63.1964   8
  -1   3  -9 1388.73 62.4805   6
   1  -3   9 1526.20 62.2077   3
  -2   3  -9 1502.64 63.5576   6
  -2   3  -9 1511.33 63.6734   8
   2  -3   9 1546.03 63.1490   3
   2  -3   9 1467.60 63.5312   2
   2  -3   9 1514.79 63.9730  10
   2  -3   9 1421.09 64.6073   5
  -3   3  -9 380.134 16.6749   8
  -3   3  -9 372.580 16.6574   6
   3  -3   9 361.674 16.5046   2
   3  -3   9 361.682 17.6067   5
  -4   3  -9 592.128 24.4992   6
   4  -3   9 551.102 24.3859   2
   4  -3   9 550.268 25.3988   5
   5   2  -9 67.1257 3.76510   3
   5   2  -9 67.7246 4.66648   2
  -5  -2   9 59.0768 3.59005   6
  -5  -2   9 65.6477 4.00097   8
   4   2  -9 10.0425 1.88490   3
  -4  -2   9 6.13225 1.74157   8
  -4  -2   9 7.63402 1.52373   6
   3   2  -9 458.512 20.6662   3
   3   2  -9 443.992 20.4522   8
  -3  -2   9 471.807 20.8072  10
  -3  -2   9 466.899 20.6526   8
  -3  -2   9 469.832 20.8742   3
   2   2  -9 48.2738 3.94124   8
   2   2  -9 42.7169 4.67928   3
  -2  -2   9 48.2404 4.41434  10
  -2  -2   9 43.8429 3.72302   8
  -2  -2   9 48.3998 4.07599   3
   1   2  -9 134.947 7.67273   8
   1   2  -9 141.872 7.23304   6
   1   2  -9 135.071 8.46940   3
  -1  -2   9 141.534 7.82024  10
  -1  -2   9 149.781 7.48846   3
  -1  -2   9 151.919 7.54524   8
   0   2  -9 427.022 19.7505   8
   0   2  -9 437.505 19.5436   6
   0   2  -9 415.223 20.5820   3
   0  -2   9 439.124 19.8169  10
   0  -2   9 451.982 19.3960   3
  -1   2  -9 158.807 8.89083   6
  -1   2  -9 168.850 8.80802   8
   1  -2   9 166.431 8.97167  10
   1  -2   9 175.589 8.26843   3
   1  -2   9 167.857 8.61028   2
  -2   2  -9 1279.94 53.2886   8
  -2   2  -9 1267.94 53.1475   6
   2  -2   9 1250.00 52.6631   3
   2  -2   9 1096.77 55.1839   5
   2  -2   9 1241.74 53.1074   2
   2  -2   9 1307.07 53.6581  10
  -3   2  -9 11.5056 2.36217   6
  -3   2  -9 11.0446 2.63101   8
   3  -2   9 8.79378 1.73527   3
   3  -2   9 9.85032 2.56519   5
   3  -2   9 6.21550 1.69884   2
   3  -2   9 5.31671 4.12857   9
   3  -2   9 10.4374 3.76813  10
  -4   2  -9 78.6053 4.87841   6
   4  -2   9 72.7803 5.49509   5
   4  -2   9 64.8952 4.32859   2
  -5   2  -9 182.961 8.79399   6
   5  -2   9 186.802 9.72611   5
   5  -2   9 179.819 8.50701   2
   5   1  -9 288.203 12.5468   3
  -5  -1   9 275.016 12.3242   6
  -5  -1   9 284.501 12.9043   8
   4   1  -9 69.3518 4.37835   3
  -4  -1   9 66.6458 4.53812   8
  -4  -1   9 65.5154 3.97311   6
   3   1  -9 1293.99 56.1753   8
  -3  -1   9 1352.35 56.9165   3
  -3  -1   9 1281.24 56.3298   8
  -3  -1   9 1341.61 56.6861  10
   2   1  -9 103.758 6.00378   8
   2   1  -9 100.435 6.39842   3
  -2  -1   9 99.6593 6.42039  10
  -2  -1   9 106.038 5.95191   8
  -2  -1   9 104.466 6.18018   3
   1   1  -9 3314.14 139.527   8
   1   1  -9 3269.01 139.494   3
   1   1  -9 3137.11 138.797   6
  -1  -1   9 3326.37 139.276   3
  -1  -1   9 3524.51 139.323   8
  -1  -1   9 3276.70 139.471  10
   0   1  -9 1054.08 45.5066   8
   0   1  -9 1043.16 45.1139   6
   0   1  -9 1003.32 45.7457   3
   0  -1   9 1096.75 45.1225   3
   0  -1   9 1059.39 45.5019  10
  -1   1  -9 1605.94 69.5639   6
  -1   1  -9 1666.06 69.8047   8
   1  -1   9 1629.34 69.6895   2
   1  -1   9 1596.27 69.8529  10
   1  -1   9 1672.71 69.2984   3
  -2   1  -9 982.320 41.4297   8
  -2   1  -9 953.347 41.2527   6
   2  -1   9 935.489 41.1733   2
   2  -1   9 940.549 40.7649   3
   2  -1   9 955.593 41.7148  10
   2  -1   9 957.733 44.2500   5
  -3   1  -9 280.317 13.3129   6
   3  -1   9 275.130 13.1231   2
   3  -1   9 283.048 14.7534   5
   3  -1   9 279.443 15.7881   9
   3  -1   9 289.514 14.2831  10
  -4   1  -9 99.8798 5.95656   6
   4  -1   9 102.803 6.92172   5
   4  -1   9 80.6807 5.29619   2
  -5   1  -9 263.433 12.1553   6
   5  -1   9 244.033 11.6683   2
   5  -1   9 262.831 13.2102   5
   6  -1   9 76.6758 4.06469   2
   6  -1   9 74.8671 5.21892   5
  -6   0   9 291.621 12.9214   8
   5   0  -9 60.2525 3.68285   3
  -5   0   9 61.9428 3.56211   6
  -5   0   9 59.7361 4.07752   8
   4   0  -9 217.149 10.1924   3
  -4   0   9 213.568 10.4845   8
  -4   0   9 207.273 9.75181   6
   3   0  -9 567.104 25.4218   3
   3   0  -9 579.135 25.3493   8
  -3   0   9 568.318 24.8954   6
  -3   0   9 551.640 27.5233  10
  -3   0   9 608.639 25.7011   8
  -3   0   9 590.546 26.0912   3
   2   0  -9 493.894 22.0541   3
   2   0  -9 474.170 21.7968   8
  -2   0   9 490.999 22.1030  10
  -2   0   9 502.602 22.0456   3
  -2   0   9 488.242 21.9427   8
   1   0  -9 38.0524 3.70912   8
   1   0  -9 39.7847 5.40390   3
   1   0  -9 42.4676 3.52313   6
  -1   0   9 36.4138 3.58824   3
  -1   0   9 39.5593 3.79951   8
  -1   0   9 40.6198 4.22236  10
   0   0  -9 452.452 20.5048   8
   0   0  -9 426.845 21.3099   3
   0   0  -9 453.779 20.1522   6
   0   0   9 453.977 20.0840   3
   0   0   9 468.825 20.6535  10
  -1   0  -9 3577.65 145.995   8
  -1   0  -9 3455.94 145.714   6
   1   0   9 3520.27 145.477   3
   1   0   9 3505.54 145.890   2
   1   0   9 3255.36 147.230   5
   1   0   9 3451.83 146.100  10
  -2   0  -9 280.645 13.4468   6
  -2   0  -9 293.025 13.6114   8
   2   0   9 273.708 14.8633   5
   2   0   9 272.484 13.8003  10
   2   0   9 288.149 12.8806   3
   2   0   9 282.031 13.2602   2
  -3   0  -9 29.0925 4.77453   8
  -3   0  -9 27.6784 4.18522   6
   3   0   9 23.4089 3.14316   2
   3   0   9 32.6367 3.25607   3
   3   0   9 33.2536 5.07900  10
   3   0   9 33.4531 4.53358   5
   3   0   9 31.7239 5.44925   9
  -4   0  -9 123.992 7.51384   6
   4   0   9 117.277 8.52152   9
   4   0   9 128.154 10.7509   5
   4   0   9 115.896 9.46059  10
  -5   0  -9 -1.4178 2.98502   6
   5   0   9 -0.2046 1.38331   2
   6   0   9 642.764 28.2270   5
   6   0   9 610.884 26.8768   2
   6  -1  -9 375.450 15.7684   2
  -6   1   9 346.936 15.8068   8
   5  -1  -9 293.492 13.0763   3
  -5   1   9 287.868 13.5545   8
  -5   1   9 303.417 12.9886   6
   4  -1  -9 177.425 8.76378   3
  -4   1   9 173.993 8.34514   6
  -4   1   9 185.785 9.16386   8
   3  -1  -9 626.059 27.3798   8
   3  -1  -9 638.452 27.4888   3
  -3   1   9 634.278 28.0017   3
  -3   1   9 649.619 27.8004   8
  -3   1   9 583.608 26.8901   6
   2  -1  -9 711.468 30.5318   8
   2  -1  -9 686.632 30.5565   3
  -2   1   9 740.268 30.8059   8
  -2   1   9 691.336 30.7054   3
  -2   1   9 662.506 29.8393   6
   1  -1  -9 3.19917 1.60269   6
   1  -1  -9 0.80443 2.64094   3
   1  -1  -9 4.46706 1.82619   8
  -1   1   9 1.55703 2.06967   8
  -1   1   9 1.79468 2.24804  10
  -1   1   9 2.06652 1.64331   3
   0  -1  -9 1522.99 65.1206   6
   0  -1  -9 1539.62 65.5424   8
   0  -1  -9 1493.01 65.7986   3
   0   1   9 1551.22 65.3067   3
   0   1   9 1580.98 65.7974  10
   0   1   9 1523.99 65.3618   8
  -1  -1  -9 437.913 19.7791   6
  -1  -1  -9 461.036 20.0618   8
   1   1   9 406.348 21.6488   5
   1   1   9 449.957 20.3368  10
   1   1   9 434.842 19.5475   3
   1   1   9 447.529 19.9188   2
  -2  -1  -9 226.584 11.0721   8
  -2  -1  -9 217.056 10.8563   6
   2   1   9 217.157 12.4854   5
   2   1   9 220.324 11.2874  10
   2   1   9 207.589 10.5330   2
   2   1   9 216.930 10.2908   3
  -3  -1  -9 1190.78 50.7266   8
   3   1   9 1143.80 50.4805   2
   3   1   9 1207.47 51.2856  10
   3   1   9 1138.25 49.9954   3
   3   1   9 1211.60 51.6113   9
   3   1   9 1178.66 52.5007   5
   4   1   9 452.001 21.2633  10
   4   1   9 420.084 19.6845   2
   4   1   9 449.842 21.9204   5
   4   1   9 446.073 21.1159   9
   5   1   9 1045.74 44.9182   9
   5   1   9 986.939 44.0520   2
   5   1   9 1062.57 46.2763   5
   6   1   9 1204.19 51.4939   2
   6   1   9 1229.13 53.1204   5
   5  -2  -9 465.927 20.5106   3
  -5   2   9 466.189 21.0608   8
  -5   2   9 494.708 20.4821   6
   4  -2  -9 158.062 8.07571   3
  -4   2   9 169.577 8.60959   8
  -4   2   9 161.567 7.78804   6
   3  -2  -9 226.723 11.0361   8
   3  -2  -9 230.622 11.0727   3
  -3   2   9 235.391 11.9622   3
  -3   2   9 232.177 11.3369   8
  -3   2   9 226.382 10.5469   6
   2  -2  -9 30.4806 3.30850   8
   2  -2  -9 33.5765 4.09970   3
  -2   2   9 32.5038 3.10842   6
  -2   2   9 29.5643 3.61985   8
  -2   2   9 35.1541 4.50358  10
  -2   2   9 40.7054 4.20112   3
   1  -2  -9 548.290 24.6321   8
   1  -2  -9 560.844 24.0805   6
   1  -2  -9 561.481 24.9128   3
  -1   2   9 580.671 24.8183   8
  -1   2   9 551.011 24.9920  10
  -1   2   9 533.785 24.6167   3
   0  -2  -9 292.486 13.3123   6
   0  -2  -9 274.095 14.9853   3
   0  -2  -9 298.847 13.7557   8
   0   2   9 276.808 13.5041   3
   0   2   9 296.001 13.8722   8
   0   2   9 307.135 14.2277  10
  -1  -2  -9 1395.25 57.7888   6
  -1  -2  -9 1376.44 58.0871   8
   1   2   9 1379.93 57.8098   3
   1   2   9 1400.90 58.4753  10
   1   2   9 1230.04 59.5692   5
  -2  -2  -9 132.695 7.72552   8
  -2  -2  -9 136.599 7.55442   6
   2   2   9 131.334 6.94228   3
   2   2   9 132.361 7.21830   2
   2   2   9 129.974 9.19101   5
   2   2   9 148.265 8.08193  10
  -3  -2  -9 216.208 10.7930   6
  -3  -2  -9 207.169 10.9233   8
   3   2   9 206.091 10.1748   2
   3   2   9 217.931 12.4123   5
   3   2   9 208.054 11.1028  10
   3   2   9 202.982 11.3547   9
   3   2   9 204.267 10.0095   3
  -4  -2  -9 162.005 9.69377   6
   4   2   9 181.668 10.1213  10
   4   2   9 146.035 8.21736   2
   4   2   9 161.481 10.0243   9
   4   2   9 172.928 10.6884   5
   5   2   9 9.08072 3.73458   9
   5   2   9 16.6011 4.76372   5
   7   2   9 3.74272 2.43112   5
   5  -3  -9 329.169 14.5759   3
   5  -3  -9 344.365 15.0652   2
  -5   3   9 344.038 14.5213   6
  -5   3   9 316.330 15.0803   8
   4  -3  -9 1.59166 1.61259   3
  -4   3   9 -1.7507 1.65662   8
  -4   3   9 -0.1609 1.35572   6
   3  -3  -9 105.279 6.06693   3
   3  -3  -9 108.069 6.24370   8
  -3   3   9 107.092 5.62137   6
  -3   3   9 107.391 7.46087   3
  -3   3   9 110.318 6.43087   8
   2  -3  -9 521.277 23.3071   8
   2  -3  -9 533.302 23.3786   3
  -2   3   9 526.155 23.7264   3
  -2   3   9 544.490 23.7083   8
  -2   3   9 502.563 22.7105   6
   1  -3  -9 6.38109 2.78971   3
   1  -3  -9 5.72450 1.52555   6
   1  -3  -9 4.71237 1.76706   8
  -1   3   9 6.00353 3.19991  10
  -1   3   9 4.81099 1.95128   3
  -1   3   9 5.94119 2.28753   8
   0  -3  -9 601.896 27.2927   3
   0  -3  -9 609.372 26.2304   6
   0  -3  -9 600.406 26.7066   8
   0   3   9 618.013 26.7491   3
   0   3   9 603.955 26.7918   8
   0   3   9 599.569 27.1367  10
  -1  -3  -9 3066.51 129.245   8
  -1  -3  -9 3099.26 128.870   6
   1   3   9 3118.77 129.727  10
   1   3   9 2923.22 130.983   5
   1   3   9 3118.04 129.157   3
  -2  -3  -9 2933.52 120.268   8
  -2  -3  -9 2960.87 120.004   6
   2   3   9 2792.78 119.940   3
   2   3   9 2708.91 122.012   5
   2   3   9 2849.84 120.150   2
   2   3   9 2843.65 120.730  10
  -3  -3  -9 525.753 23.3708   6
  -3  -3  -9 520.819 23.5005   8
   3   3   9 518.803 23.0172   3
   3   3   9 533.866 24.0953  10
   3   3   9 533.780 24.2201   9
   3   3   9 520.999 24.2928   1
   3   3   9 512.326 23.2023   2
   3   3   9 533.575 25.5976   5
  -4  -3  -9 1568.57 64.7163   6
   4   3   9 1428.73 63.9467   2
   4   3   9 1511.23 66.5532   5
   4   3   9 1516.30 65.2251   9
   5   3   9 14.6345 2.23359   2
   5   3   9 12.3427 3.67425   9
   6   3   9 29.7106 4.96417   9
   7   3   9 411.300 19.0698   5
   5  -4  -9 302.971 13.2423   3
   5  -4  -9 307.681 13.5944   2
  -5   4   9 295.547 13.7287   8
  -5   4   9 306.264 13.4369   6
   4  -4  -9 50.4527 3.60442   3
  -4   4   9 52.4113 4.11766   8
  -4   4   9 53.7994 3.45759   6
   3  -4  -9 307.777 14.2309   3
   3  -4  -9 297.953 15.4564   8
  -3   4   9 318.511 13.8608   6
  -3   4   9 298.030 16.3453   3
  -3   4   9 325.705 14.7956   8
   2  -4  -9 464.403 20.9300   8
   2  -4  -9 464.087 20.9634   3
  -2   4   9 464.169 20.3415   6
  -2   4   9 477.103 21.4562   3
  -2   4   9 472.222 21.2649   8
   1  -4  -9 324.933 15.2031   3
   1  -4  -9 323.746 14.9097   8
   1  -4  -9 321.283 14.2301   6
  -1   4   9 327.113 15.1786   8
  -1   4   9 308.422 15.5792  10
  -1   4   9 321.487 15.1556   3
   0  -4  -9 264.124 12.2365   8
   0  -4  -9 253.644 11.6634   6
   0  -4  -9 259.720 13.3042   3
   0   4   9 250.201 12.5222   8
   0   4   9 249.349 12.2773   3
   0   4   9 258.245 12.8178  10
  -1  -4  -9 95.0619 5.42033   6
  -1  -4  -9 94.4136 5.96901   8
   1   4   9 101.598 8.26105   5
   1   4   9 99.6904 6.55343  10
   1   4   9 99.4228 5.84247   3
  -2  -4  -9 1162.33 48.5545   8
  -2  -4  -9 1157.26 48.1841   6
   2   4   9 1148.70 49.1111  10
   2   4   9 1105.60 48.9712   9
   2   4   9 1089.91 50.4598   5
   2   4   9 1106.89 48.2898   3
  -3  -4  -9 116.992 7.41068   8
  -3  -4  -9 119.252 6.91385   6
   3   4   9 113.852 8.95186   5
   3   4   9 124.347 7.57900   9
   3   4   9 121.087 8.17580   1
   3   4   9 125.257 6.77498   3
   3   4   9 122.988 7.61161  10
   3   4   9 113.790 6.72044   2
  -4  -4  -9 11.1158 3.27780   6
   4   4   9 11.2745 2.97938   9
   4   4   9 8.78008 3.79472   1
   6   4   9 226.162 12.4882   5
   6   4   9 186.187 10.6676   9
   7   4   9 6.45224 2.74891   5
   5  -5  -9 5.49951 1.26354   3
  -5   5   9 6.30194 1.84623   8
   4  -5  -9 578.953 25.1591   3
   4  -5  -9 588.372 25.4727   2
  -4   5   9 575.330 25.6594   8
  -4   5   9 588.893 24.8699   6
   3  -5  -9 392.770 17.0712   3
  -3   5   9 372.273 16.5602   6
  -3   5   9 363.177 17.5713   8
  -3   5   9 390.123 17.9690   3
   2  -5  -9 1208.56 51.8610   8
   2  -5  -9 1208.05 51.7892   3
  -2   5   9 1232.28 52.2471   8
  -2   5   9 1194.44 52.3002   3
   1  -5  -9 2250.97 94.8931   3
   1  -5  -9 2159.16 94.1947   6
   1  -5  -9 2276.72 94.9919   8
  -1   5   9 2301.79 95.2839   3
  -1   5   9 2142.98 95.0054   9
  -1   5   9 2325.80 95.2557   8
   0  -5  -9 228.497 10.9353   8
   0  -5  -9 226.722 10.2266   6
   0  -5  -9 205.021 11.7591   3
   0   5   9 238.580 13.4189   5
   0   5   9 216.242 11.4897  10
   0   5   9 221.623 11.0517   3
   0   5   9 216.811 11.2495   8
   0   5   9 219.417 11.5941   9
  -1  -5  -9 517.648 21.9368   6
  -1  -5  -9 493.091 22.4263   8
   1   5   9 501.981 22.5001   3
   1   5   9 499.253 24.5021   5
   1   5   9 486.005 22.7442   9
   1   5   9 515.446 23.0632  10
  -2  -5  -9 995.590 43.4251   8
  -2  -5  -9 1020.02 43.0171   6
   2   5   9 1012.25 43.3602   3
   2   5   9 1021.88 43.8969   9
   2   5   9 981.551 45.6395   5
   2   5   9 1010.59 44.0742  10
  -3  -5  -9 122.202 7.62907   8
   3   5   9 132.436 7.16834   3
   3   5   9 126.574 7.77245   9
   3   5   9 128.615 9.59224   5
   3   5   9 134.973 8.36268   1
  -4  -5  -9 41.7082 4.84941   6
   4   5   9 41.1569 5.60874   1
   4   5   9 54.3337 7.51934   5
   4   5   9 48.5861 4.71020   9
   5   5   9 910.961 40.1888   9
   5   5   9 921.497 41.9800   5
   5   5   9 905.499 40.0113   1
   6   5   9 579.664 27.3680   5
   6   5   9 579.067 25.8787   9
   7   5   9 66.2079 5.39030   9
   7   5   9 77.2988 5.71076   5
   4  -6  -9 973.439 42.1839   2
   4  -6  -9 1009.43 42.0596   3
  -4   6   9 991.212 42.4836   8
   3  -6  -9 516.457 22.7593   3
  -3   6   9 536.940 23.7149   3
  -3   6   9 507.904 23.1855   8
   2  -6  -9 56.3896 4.20011   8
   2  -6  -9 55.9823 4.51257   3
  -2   6   9 60.1526 4.64670   8
  -2   6   9 57.5448 5.39922   3
   1  -6  -9 237.532 11.4495   8
   1  -6  -9 235.421 11.6799   3
   1  -6  -9 237.250 10.6947   6
  -1   6   9 243.542 11.9090   3
  -1   6   9 233.934 11.6992   8
   0  -6  -9 536.632 22.5530   6
   0  -6  -9 522.823 23.1946   8
   0  -6  -9 520.605 23.4940   3
   0   6   9 503.598 23.4505   9
   0   6   9 534.683 23.4725   3
   0   6   9 516.215 25.3545   5
   0   6   9 505.182 23.3020   8
  -1  -6  -9 1917.39 80.9761   6
  -1  -6  -9 1961.08 81.6190   8
   1   6   9 1918.44 83.8293   5
   1   6   9 1934.54 81.6731   3
   1   6   9 1872.10 81.7476   9
  -2  -6  -9 5.89855 1.63991   6
  -2  -6  -9 4.98459 2.22024   8
   2   6   9 5.34851 2.74053   5
   2   6   9 5.98296 1.96137   3
   2   6   9 9.13013 2.52118   9
  -3  -6  -9 14.7061 2.90704   8
  -3  -6  -9 12.5234 2.12986   6
   3   6   9 14.5000 3.18547   1
   3   6   9 16.4858 2.58393   3
   3   6   9 17.8720 2.81843   9
  -4  -6  -9 83.0793 5.54396   6
   4   6   9 92.0753 6.09102   9
   4   6   9 93.6869 6.94556   1
   4   6   9 87.8222 8.76229   5
   5   6   9 235.190 12.1358   1
   5   6   9 231.732 11.6395   9
   5   6   9 223.925 13.9506   5
   6   6   9 300.689 14.0126   1
   6   6   9 296.723 15.6842   5
   6   6   9 304.019 14.1584   9
   7   6   9 47.2178 4.67377   5
   7   6   9 53.5249 4.06496   9
   4  -7  -9 64.2971 3.52469   3
  -4   7   9 60.4552 3.80718   8
   3  -7  -9 637.589 27.8590   3
   3  -7  -9 634.473 27.8928   2
  -3   7   9 647.544 28.2623   8
  -3   7   9 668.187 28.7244   3
   2  -7  -9 69.6980 5.19469   2
   2  -7  -9 68.0256 4.69285   8
   2  -7  -9 67.2300 4.72933   3
  -2   7   9 81.9017 5.68567   3
  -2   7   9 66.4630 4.84366   8
   1  -7  -9 807.156 34.0614   3
   1  -7  -9 713.766 33.3748   6
   1  -7  -9 799.125 34.0589   8
  -1   7   9 807.624 34.2862   8
  -1   7   9 790.310 34.4270   3
   0  -7  -9 187.432 9.37167   8
   0  -7  -9 185.448 10.3440   3
   0  -7  -9 185.323 8.66544   6
   0   7   9 186.488 9.57803   3
  -1  -7  -9 53.0956 3.42394   6
  -1  -7  -9 49.8617 4.13381   8
   1   7   9 46.4072 5.01577   9
   1   7   9 48.0488 5.69688   5
   1   7   9 54.6375 4.29642   3
  -2  -7  -9 1098.40 46.1524   8
  -2  -7  -9 1086.53 45.5119   6
   2   7   9 1064.89 48.4451   5
   2   7   9 1062.15 46.0227   3
   2   7   9 1037.16 46.2502   9
  -3  -7  -9 2811.02 121.891   8
  -3  -7  -9 2858.89 119.442   6
   3   7   9 2831.21 120.276   9
   3   7   9 2736.84 122.311   5
   3   7   9 2925.05 120.814   1
   3   7   9 2894.00 119.728   3
  -4  -7  -9 323.877 18.0388   8
  -4  -7  -9 316.367 14.4236   6
   4   7   9 312.306 17.3715   5
   4   7   9 341.947 16.6275   1
   4   7   9 322.516 15.4610   9
  -5  -7  -9 940.545 41.2930   6
   5   7   9 948.022 42.0698   9
   5   7   9 1047.56 42.6528   1
   5   7   9 953.090 43.9035   5
   6   7   9 890.397 40.7793   5
   6   7   9 918.178 39.5391   9
   6   7   9 947.539 39.5770   1
   3  -8  -9 10.4780 1.60016   3
  -3   8   9 10.0057 1.73163   8
  -3   8   9 12.2219 3.46240   3
   2  -8  -9 11.5087 2.16878   8
   2  -8  -9 11.7818 2.01382   3
  -2   8   9 10.8065 2.49715   3
  -2   8   9 10.7223 2.04294   8
   1  -8  -9 46.6308 4.38717   3
   1  -8  -9 45.6323 3.76667   8
  -1   8   9 41.4769 4.27221   8
  -1   8   9 49.3318 4.42271   3
   0  -8  -9 200.491 9.38753   6
   0  -8  -9 208.477 10.8235   3
   0  -8  -9 200.690 10.0870   8
   0   8   9 211.608 10.4220   3
  -1  -8  -9 0.77438 1.73644   8
  -1  -8  -9 3.77685 1.42481   6
   1   8   9 -0.5078 1.63736   3
  -2  -8  -9 11.8982 2.25612   6
  -2  -8  -9 11.1809 2.28042   8
   2   8   9 9.62037 3.08914   5
   2   8   9 8.07235 2.05609   3
   2   8   9 15.2651 2.67352   1
   2   8   9 11.1122 3.18210   9
  -3  -8  -9 823.783 35.5560   8
   3   8   9 835.645 38.0053   5
   3   8   9 768.356 35.8052   3
   3   8   9 849.277 36.1636   1
  -4  -8  -9 0.64265 1.48674   6
  -4  -8  -9 2.24965 3.00191   8
   4   8   9 0.32967 1.79025   9
   4   8   9 0.74359 2.35022   1
  -5  -8  -9 105.446 5.46549   6
   5   8   9 114.392 6.30833   1
   5   8   9 81.2953 7.37809   5
   5   8   9 96.4257 5.65277   9
   6   8   9 51.9959 3.81994   1
   6   8   9 49.9176 3.57496   9
   3  -9  -9 86.8007 4.26650   3
  -3   9   9 79.2302 4.48584   8
   2  -9  -9 271.160 11.9590   3
  -2   9   9 271.575 12.4803   3
  -2   9   9 249.511 11.9786   8
   1  -9  -9 8.08658 1.82577   8
   1  -9  -9 3.48824 2.18050   3
  -1   9   9 8.68849 2.13718   3
  -1   9   9 2.91084 2.10150   8
   0  -9  -9 1597.33 67.4326   3
   0  -9  -9 1570.68 67.4650   8
   0  -9  -9 1559.45 66.7315   6
   0   9   9 1625.31 67.7181   3
  -1  -9  -9 1885.68 80.2676   6
  -1  -9  -9 1910.14 80.9043   8
   1   9   9 1884.64 80.9692   3
   1   9   9 1950.71 81.1467   1
  -2  -9  -9 29.2107 2.61414   6
  -2  -9  -9 27.3596 3.28799   8
   2   9   9 24.7050 3.23509   3
   2   9   9 28.0071 3.43456   1
  -3  -9  -9 646.306 28.4109   8
  -3  -9  -9 683.862 27.9977   6
   3   9   9 639.420 28.1545   3
   3   9   9 626.449 28.3712   9
   3   9   9 651.049 30.5539   5
   3   9   9 659.565 28.8758   1
  -4  -9  -9 310.803 14.2834   8
  -4  -9  -9 314.779 13.7183   6
   4   9   9 307.544 14.1882   9
   4   9   9 290.471 15.9123   5
   4   9   9 326.520 14.6071   1
  -5  -9  -9 150.347 7.20543   6
   5   9   9 150.009 9.00662   5
   5   9   9 153.491 7.74400   1
   5   9   9 152.617 7.52995   9
   6   9   9 314.899 13.6166   1
   6   9   9 296.411 13.5149   9
   2 -10  -9 595.622 25.1715   3
  -2  10   9 583.374 25.4995   3
   1 -10  -9 72.8523 4.88317   8
   1 -10  -9 90.8291 5.78171   3
  -1  10   9 95.4899 5.21088   3
   0 -10  -9 1.95830 1.54099   8
   0 -10  -9 -0.9128 3.03537   3
   0  10   9 2.50351 1.51515   3
   0  10   9 4.10759 1.95107   1
  -1 -10  -9 193.000 9.26340   8
  -1 -10  -9 186.640 8.68614   6
   1  10   9 195.761 9.37294   1
   1  10   9 196.009 9.42840   3
  -2 -10  -9 14.1704 2.67258   8
  -2 -10  -9 16.3698 2.02899   6
   2  10   9 15.1221 2.66866   3
   2  10   9 16.3579 2.78266   1
  -3 -10  -9 517.161 21.9711   6
  -3 -10  -9 511.864 22.3463   8
   3  10   9 511.318 22.0475   3
   3  10   9 501.908 22.5409   1
  -4 -10  -9 25.7542 2.35954   6
   4  10   9 30.3568 2.86886   1
  -5 -10  -9 412.672 17.5576   6
   5  10   9 398.605 17.7699   9
   5  10   9 415.382 17.9809   1
  -1  11   9 314.218 13.9038   3
   0 -11  -9 1.99294 1.95757   8
   0  11   9 7.62760 1.56658   3
  -1 -11  -9 135.652 6.98020   8
   1  11   9 146.978 6.93266   3
   1  11   9 137.295 7.21403   1
  -2 -11  -9 176.113 8.10709   6
  -2 -11  -9 179.399 8.71565   8
   2  11   9 186.445 8.45367   3
  -3 -11  -9 78.5001 4.67881   8
   3  11   9 72.9557 5.59389   1
  -4 -11  -9 149.152 8.23594   8
  -4 -11  -9 181.577 7.89382   6
   4  11   9 164.327 7.72765   1
   2   5 -10 499.163 21.9292   3
  -2  -5  10 523.016 21.9088   3
  -2  -5  10 505.824 21.9918  10
   1   5 -10 285.093 12.9953   8
  -1  -5  10 309.343 13.1282   3
   0   5 -10 9.30158 1.49367   8
   0  -5  10 9.47218 2.10690  10
  -1   5 -10 57.4140 3.36424   8
   1  -5  10 62.0311 3.22783   3
   1  -5  10 54.4448 4.88715  10
   3   4 -10 50.5742 3.19670   3
  -3  -4  10 36.8908 3.96208  10
  -3  -4  10 41.5228 3.31575   8
  -3  -4  10 40.5052 4.22820   3
   2   4 -10 126.737 6.55046   8
   2   4 -10 124.909 6.84126   3
  -2  -4  10 140.536 6.76374   3
  -2  -4  10 140.604 6.84285  10
   1   4 -10 2.80134 1.49042   8
   1   4 -10 5.61718 3.66591   3
  -1  -4  10 3.82595 1.72102  10
  -1  -4  10 4.18925 1.30928   3
   0   4 -10 224.093 10.2013   8
   0  -4  10 224.310 9.95947   3
   0  -4  10 206.780 10.3597  10
  -1   4 -10 2.69818 1.31729   8
   1  -4  10 3.92710 1.15349   3
   1  -4  10 4.81801 2.03624  10
  -2   4 -10 665.400 28.6074   8
  -2   4 -10 687.622 28.3803   6
   2  -4  10 646.626 28.8506  10
  -3   4 -10 15.1181 2.27033   6
   4   3 -10 483.586 20.6449   3
  -4  -3  10 478.009 20.7090   8
   3   3 -10 5.37515 1.55435   3
  -3  -3  10 1.65418 2.14866   3
  -3  -3  10 4.56995 1.65813   8
  -3  -3  10 4.28618 2.25365  10
   2   3 -10 13.3024 2.38113   3
   2   3 -10 16.7531 2.66503   8
  -2  -3  10 15.7779 2.83060   8
  -2  -3  10 15.7922 2.34865  10
  -2  -3  10 13.6624 2.08696   3
   1   3 -10 53.8121 5.20994   3
   1   3 -10 56.8852 3.92556   8
  -1  -3  10 55.0342 4.21119  10
  -1  -3  10 61.9569 3.86768   3
   0   3 -10 3.39508 1.55161   8
   0   3 -10 5.87437 1.74809   6
   0  -3  10 3.22833 1.33816   3
   0  -3  10 3.38529 1.83963  10
  -1   3 -10 129.637 6.56471   6
  -1   3 -10 123.583 6.53902   8
   1  -3  10 121.532 6.10799   3
   1  -3  10 118.198 6.86103  10
  -2   3 -10 1153.89 48.8386   6
  -2   3 -10 1182.08 49.0896   8
   2  -3  10 1142.31 48.5514   3
   2  -3  10 1122.31 49.2217  10
  -3   3 -10 212.457 9.41798   6
  -3   3 -10 189.691 9.37393   8
   4   2 -10 64.1648 3.90126   3
  -4  -2  10 68.9059 3.96456   8
   3   2 -10 26.2523 2.99063   3
  -3  -2  10 25.1274 3.13893  10
  -3  -2  10 21.4568 2.78495   8
  -3  -2  10 21.1755 3.74940   3
   2   2 -10 119.749 6.34004   8
   2   2 -10 113.564 6.70222   3
  -2  -2  10 115.419 6.71592  10
  -2  -2  10 124.259 6.67094   3
  -2  -2  10 123.505 6.42343   8
   1   2 -10 549.686 23.5986   8
   1   2 -10 514.987 23.7302   3
  -1  -2  10 518.018 23.6733  10
  -1  -2  10 547.942 23.4608   3
   0   2 -10 1015.06 43.9513   8
   0   2 -10 997.526 43.4060   6
   0  -2  10 1027.88 44.1138  10
   0  -2  10 1039.55 43.6353   3
  -1   2 -10 680.396 30.1494   8
  -1   2 -10 691.570 29.9082   6
   1  -2  10 708.985 30.4546  10
   1  -2  10 675.746 29.6905   3
  -2   2 -10 738.208 31.8420   8
  -2   2 -10 713.292 31.6972   6
   2  -2  10 758.893 32.2287   9
   2  -2  10 734.479 31.3378   3
   2  -2  10 716.622 32.1035  10
  -3   2 -10 1132.14 46.9251   6
  -3   2 -10 1100.59 46.9275   8
   3  -2  10 1120.35 47.3211  10
   3  -2  10 1079.70 46.9403   2
   3  -2  10 1072.56 47.8917   5
  -4   2 -10 179.841 8.11944   6
   4  -2  10 159.405 8.89847   5
   4  -2  10 169.921 8.06259   2
   5   1 -10 44.2453 2.73323   3
  -5  -1  10 40.8069 2.97711   8
   4   1 -10 460.192 19.5969   3
  -4  -1  10 438.522 19.7454   8
   3   1 -10 527.845 23.1711   3
  -3  -1  10 523.895 23.2504   8
  -3  -1  10 532.516 23.5846  10
  -3  -1  10 526.878 23.4465   3
   2   1 -10 478.014 21.6072   3
   2   1 -10 474.949 21.4282   8
  -2  -1  10 487.840 21.5853   3
  -2  -1  10 487.544 21.5360   8
  -2  -1  10 493.414 21.7732  10
   1   1 -10 181.274 9.52050   6
   1   1 -10 187.998 10.0610   3
   1   1 -10 190.283 9.47645   8
  -1  -1  10 190.532 9.76670  10
  -1  -1  10 188.328 9.50706   8
  -1  -1  10 193.538 9.39867   3
   0   1 -10 841.327 36.6661   6
   0   1 -10 850.832 37.1712   8
   0  -1  10 843.827 37.3241  10
   0  -1  10 883.190 36.8815   3
  -1   1 -10 3.43118 1.86233   8
  -1   1 -10 7.44904 2.35087   6
   1  -1  10 3.37746 1.45262   3
   1  -1  10 7.36295 2.61848  10
  -2   1 -10 118.297 6.73179   8
  -2   1 -10 118.783 6.89496   6
   2  -1  10 112.064 6.45237   2
   2  -1  10 118.609 7.18152  10
   2  -1  10 113.207 8.26405   5
   2  -1  10 118.451 6.09899   3
  -3   1 -10 69.4974 5.00381   8
  -3   1 -10 67.4619 4.96625   6
   3  -1  10 81.6561 6.03367   9
   3  -1  10 67.4512 4.49878   2
   3  -1  10 67.3314 5.92801   5
   3  -1  10 77.1229 6.01843  10
  -4   1 -10 135.731 6.84775   6
   4  -1  10 131.772 6.70070   2
   4  -1  10 125.956 7.87096   5
  -5   1 -10 313.776 13.7813   6
   5  -1  10 319.061 13.8211   2
   5  -1  10 304.840 14.7373   5
   5   0 -10 110.328 5.72700   2
   5   0 -10 110.977 5.40700   3
  -5   0  10 120.847 5.77846   8
   4   0 -10 256.942 11.8399   3
  -4   0  10 265.135 12.1051   8
   3   0 -10 855.960 36.0596   3
   3   0 -10 756.661 35.7928   8
  -3   0  10 860.612 36.2196   8
  -3   0  10 871.282 36.4130   3
   2   0 -10 531.419 25.8907   8
   2   0 -10 586.710 26.0152   3
  -2   0  10 547.684 25.1585  10
   1   0 -10 0.66432 4.37442   3
   1   0 -10 0.42225 1.63524   8
  -1   0  10 0.21798 1.69815   3
  -1   0  10 -1.5780 2.17054  10
  -1   0  10 -0.4182 2.19505   8
   0   0 -10 69.1278 4.58199   6
   0   0 -10 68.8029 4.66345   8
   0   0  10 61.1193 4.33691   3
   0   0  10 60.9469 5.00206  10
  -1   0 -10 111.733 6.46066   6
  -1   0 -10 102.409 6.35580   8
   1   0  10 114.210 6.01741   3
   1   0  10 109.855 6.81115  10
  -2   0 -10 6.41008 2.39101   6
  -2   0 -10 8.39256 2.43706   8
   2   0  10 10.3757 2.84621  10
   2   0  10 6.17616 1.59578   3
  -3   0 -10 244.843 11.6196   6
  -3   0 -10 241.236 11.6540   8
   3   0  10 257.101 12.4166   9
   3   0  10 229.976 11.4190   2
   3   0  10 236.945 13.0585   5
   3   0  10 235.822 12.2752  10
  -4   0 -10 551.040 23.8381   6
   4   0  10 556.498 24.4205   9
   4   0  10 525.320 23.7539   2
   4   0  10 542.754 25.3474   5
  -5   0 -10 259.677 11.9363   6
   5   0  10 268.499 13.2340   5
   5   0  10 259.016 11.8451   2
   5  -1 -10 1204.59 50.7865   2
   5  -1 -10 1192.04 50.4210   3
   4  -1 -10 328.498 14.4999   3
  -4   1  10 321.412 14.8103   8
   3  -1 -10 1078.12 46.8531   8
   3  -1 -10 1098.67 47.0330   3
  -3   1  10 1104.95 47.2472   8
  -3   1  10 1117.36 47.4185   3
   2  -1 -10 1311.05 56.2315   8
   2  -1 -10 1337.94 56.3570   3
  -2   1  10 1300.92 56.3709   8
  -2   1  10 1322.87 56.5114   3
   1  -1 -10 60.1957 4.19469   8
   1  -1 -10 59.4367 3.84657   6
  -1   1  10 58.7998 5.07324  10
  -1   1  10 52.6848 4.18267   3
  -1   1  10 50.5749 4.47876   8
   0  -1 -10 18.1959 2.94022   8
   0   1  10 17.9250 3.09869  10
   0   1  10 14.7688 2.62850   3
  -1  -1 -10 109.499 6.43149   8
  -1  -1 -10 113.727 6.35906   6
   1   1  10 101.189 5.95564   3
   1   1  10 113.763 6.86073  10
  -2  -1 -10 12.4014 2.59319   8
  -2  -1 -10 10.4695 2.35229   6
   2   1  10 11.9771 2.60984  10
   2   1  10 10.3042 1.74038   3
   2   1  10 6.79818 1.87555   2
   3   1  10 40.7967 4.87704   9
   3   1  10 41.3341 3.69838   2
   3   1  10 44.4300 7.44117   5
  -4  -1 -10 1021.29 42.6594   6
   4   1  10 1007.41 43.3535   9
   4   1  10 941.206 42.5961   2
   4   1  10 1008.52 43.4480  10
   4   1  10 997.249 44.5000   5
   5   1  10 3.20540 1.48125   2
   5   1  10 -3.4336 4.02325   9
   6   1  10 20.4056 3.77321   5
   5  -2 -10 348.995 15.5667   2
   5  -2 -10 368.490 14.9935   3
  -5   2  10 322.647 15.9543   8
   4  -2 -10 59.3803 3.82232   3
  -4   2  10 61.3034 4.13988   8
   3  -2 -10 705.498 32.1381   8
   3  -2 -10 773.900 32.3743   3
  -3   2  10 751.824 32.6358   8
  -3   2  10 756.731 32.7904   3
   2  -2 -10 395.035 18.3944   8
   2  -2 -10 407.668 18.6147   3
  -2   2  10 412.976 18.8564   3
  -2   2  10 423.390 18.7382   8
   1  -2 -10 30.1151 3.27793   8
   1  -2 -10 34.2755 2.89259   6
   1  -2 -10 32.0435 5.30783   3
  -1   2  10 36.7869 4.48007  10
  -1   2  10 26.9328 3.93122   8
  -1   2  10 26.3771 3.39731   3
   0  -2 -10 29.5257 3.28016   8
   0  -2 -10 33.8560 6.41846   3
   0  -2 -10 36.2753 3.18879   6
   0   2  10 28.6876 3.13560   3
   0   2  10 23.1482 4.08607  10
  -1  -2 -10 76.2313 4.75261   6
  -1  -2 -10 72.9234 5.02177   8
   1   2  10 71.8556 5.56115  10
   1   2  10 64.7886 4.53170   3
  -2  -2 -10 735.143 32.3002   8
  -2  -2 -10 749.222 32.0609   6
   2   2  10 735.391 32.8102  10
   2   2  10 732.072 31.9501   3
  -3  -2 -10 188.040 10.0227   8
  -3  -2 -10 200.875 9.73486   6
   3   2  10 187.850 11.6247   5
   3   2  10 190.506 9.57935   2
   3   2  10 192.272 10.3414  10
   3   2  10 196.555 10.4469   9
  -4  -2 -10 1437.52 57.5687   6
   4   2  10 1289.84 57.5104   2
   4   2  10 1351.08 58.4014   9
   4   2  10 1329.51 59.5969   5
  -5  -2 -10 1002.50 42.8621   6
   5   2  10 1026.91 43.5684   9
   5   2  10 1005.99 44.7685   5
   5   2  10 990.346 42.8938   2
   6   2  10 343.410 16.4962   5
   5  -3 -10 619.169 26.1299   2
   5  -3 -10 605.288 25.7955   3
  -5   3  10 602.531 26.1782   8
   4  -3 -10 5.26231 1.50044   3
  -4   3  10 5.34587 1.69242   8
   3  -3 -10 40.9114 3.68100   3
  -3   3  10 36.9709 3.67975   8
  -3   3  10 47.8377 5.00105   3
   2  -3 -10 5.76568 1.93086   8
   2  -3 -10 9.99610 2.50126   3
  -2   3  10 2.22951 2.29823   3
  -2   3  10 3.39185 2.02442   8
   1  -3 -10 1731.16 73.9979   3
   1  -3 -10 1736.57 73.7656   8
   1  -3 -10 1705.67 73.0411   6
  -1   3  10 1767.63 73.8595   8
  -1   3  10 1733.21 74.0454  10
  -1   3  10 1736.70 73.9336   3
   0  -3 -10 52.2461 7.64655   3
   0  -3 -10 60.1081 4.41877   8
   0  -3 -10 65.1608 4.11657   6
   0   3  10 61.8189 4.46576   3
   0   3  10 64.6266 5.35033  10
  -1  -3 -10 3224.51 132.706   8
  -1  -3 -10 3151.61 132.232   6
   1   3  10 3282.87 132.634   3
   1   3  10 2976.21 134.334   5
   1   3  10 3094.86 133.116  10
  -2  -3 -10 658.058 28.0880   6
  -2  -3 -10 656.528 28.4547   8
   2   3  10 598.681 30.1167   5
   2   3  10 657.597 28.1540   3
   2   3  10 676.539 29.0509  10
   2   3  10 625.337 28.8728   9
  -3  -3 -10 150.573 7.90687   6
  -3  -3 -10 152.121 8.29122   8
   3   3  10 143.803 7.80793   3
   3   3  10 152.726 8.68485  10
   3   3  10 152.145 8.62788   9
   3   3  10 145.188 10.1336   5
  -4  -3 -10 38.6377 4.67246   6
   4   3  10 46.5795 4.09037   2
   4   3  10 54.1905 5.15884   9
   4   3  10 56.7816 6.80070   5
   5   3  10 109.448 7.25195   9
   5   3  10 127.183 9.01009   5
   5   3  10 114.834 6.36616   2
   6   3  10 252.231 12.5970   5
   6   3  10 221.189 11.4883   9
   5  -4 -10 259.321 11.6036   2
   5  -4 -10 256.869 11.3800   3
  -5   4  10 276.031 11.7902   8
   4  -4 -10 45.3319 3.15525   3
  -4   4  10 44.7426 3.51160   8
   3  -4 -10 80.2821 4.96989   3
  -3   4  10 83.9669 5.22075   8
  -3   4  10 79.9874 6.01406   3
   2  -4 -10 3.01177 2.52155   3
   2  -4 -10 0.53513 1.78136   8
  -2   4  10 2.59883 2.04968   8
  -2   4  10 6.33419 2.92096   3
   1  -4 -10 1554.45 67.1566   6
   1  -4 -10 1587.71 67.9331   3
   1  -4 -10 1618.50 67.9691   8
  -1   4  10 1583.63 68.2305  10
  -1   4  10 1593.20 68.0302   8
  -1   4  10 1633.06 68.1598   3
   0  -4 -10 211.941 12.0770   3
   0  -4 -10 219.473 9.94872   6
   0  -4 -10 217.161 10.5097   8
   0   4  10 210.682 11.0617  10
   0   4  10 209.285 10.5708   3
  -1  -4 -10 273.271 13.0281   8
  -1  -4 -10 279.746 12.5912   6
   1   4  10 268.474 12.9824   3
   1   4  10 271.147 15.0116   5
   1   4  10 280.992 13.6280  10
  -2  -4 -10 457.198 20.2446   8
  -2  -4 -10 454.943 19.7957   6
   2   4  10 468.644 20.8967  10
   2   4  10 444.939 19.9877   3
   2   4  10 450.892 20.6493   9
   2   4  10 409.622 21.9645   5
  -3  -4 -10 42.4191 3.95098   6
  -3  -4 -10 45.8522 4.74559   8
   3   4  10 48.3473 5.32501   1
   3   4  10 44.4556 4.52582   9
   3   4  10 46.6058 4.81946  10
   3   4  10 40.3181 6.31312   5
   3   4  10 44.8423 4.34611   3
  -4  -4 -10 128.258 7.28612   6
   4   4  10 141.034 10.4001   5
   5   4  10 54.8637 7.05888   5
   5   4  10 38.7719 4.59343   9
   6   4  10 416.861 19.7772   9
   6   4  10 428.013 20.1908   5
   4  -5 -10 1108.43 45.9939   3
   4  -5 -10 1078.89 46.1895   2
  -4   5  10 1074.71 46.3120   8
   3  -5 -10 239.995 10.9210   3
  -3   5  10 233.162 11.6629   3
  -3   5  10 231.809 11.2383   8
   2  -5 -10 192.638 9.48276   8
   2  -5 -10 196.300 9.59487   3
  -2   5  10 190.026 9.98874   3
  -2   5  10 194.571 9.85912   8
   1  -5 -10 1115.30 46.3555   3
   1  -5 -10 1085.96 46.2964   8
   1  -5 -10 1057.02 45.5033   6
  -1   5  10 1110.72 46.6181   3
  -1   5  10 1088.29 46.4328   8
  -1   5  10 1001.94 47.1508   9
   0  -5 -10 821.738 36.3086   3
   0  -5 -10 846.072 35.3764   6
   0  -5 -10 843.727 36.0529   8
   0   5  10 805.615 36.1854   9
   0   5  10 823.958 36.1529   3
  -1  -5 -10 242.959 11.0806   6
  -1  -5 -10 254.402 11.7083   8
   1   5  10 241.217 13.6136   5
   1   5  10 235.564 11.6873   3
   1   5  10 231.505 11.9571   9
   1   5  10 239.603 12.2470  10
  -2  -5 -10 176.878 8.27413   6
  -2  -5 -10 177.486 8.78899   8
   2   5  10 156.164 10.4696   5
   2   5  10 158.788 8.99098   9
   2   5  10 170.529 8.60178   3
  -3  -5 -10 46.8004 4.92669   8
  -3  -5 -10 50.4218 3.92715   6
   3   5  10 44.1600 6.46786   5
   3   5  10 49.8736 5.20576   1
   3   5  10 50.9751 4.52208   3
   3   5  10 54.5652 4.59024   9
  -4  -5 -10 226.237 10.5619   6
   4   5  10 215.784 13.5182   5
   4   5  10 218.690 11.5471   1
   4   5  10 232.063 11.5312   9
  -5  -5 -10 -2.9947 2.28240   6
   5   5  10 5.31461 3.71204   5
   5   5  10 2.06712 2.20837   9
   5   5  10 0.01199 3.23687   1
   6   5  10 394.753 19.2018   5
   6   5  10 407.076 17.9537   9
   4  -6 -10 54.1670 3.26422   2
  -4   6  10 41.4982 3.44044   8
   3  -6 -10 232.551 10.7553   2
   3  -6 -10 237.839 10.7102   3
  -3   6  10 238.045 11.5196   3
  -3   6  10 221.655 10.9139   8
   2  -6 -10 8.72586 2.09810   3
   2  -6 -10 11.4546 2.02887   8
  -2   6  10 11.4402 2.27622   8
  -2   6  10 12.3568 2.54704   3
   1  -6 -10 7.89741 1.66284   6
   1  -6 -10 5.80180 2.61352   3
   1  -6 -10 5.70485 1.92935   8
  -1   6  10 7.61992 2.53365   8
  -1   6  10 3.29229 2.13797   3
   0  -6 -10 8.30593 4.41406   3
   0  -6 -10 5.13600 1.36680   6
   0  -6 -10 5.64171 1.85561   8
   0   6  10 7.49947 1.92377   3
   0   6  10 6.46238 3.28227   9
  -1  -6 -10 99.9496 6.15195   8
  -1  -6 -10 103.054 5.53018   6
   1   6  10 108.049 6.72720   9
   1   6  10 106.120 6.28936   3
   1   6  10 113.867 8.20084   5
  -2  -6 -10 17.6986 3.33640   8
  -2  -6 -10 22.3461 2.54936   6
   2   6  10 17.9834 3.00547   9
   2   6  10 15.4540 2.40505   3
   2   6  10 16.6860 4.43187   5
  -3  -6 -10 686.684 33.0897   8
  -3  -6 -10 761.084 31.6144   6
   3   6  10 696.114 34.0557   5
   3   6  10 792.072 32.8241   1
   3   6  10 732.788 32.3781   9
  -4  -6 -10 187.650 8.82604   6
   4   6  10 188.192 9.69885   9
   4   6  10 177.655 11.7340   5
   4   6  10 188.844 10.0274   1
  -5  -6 -10 509.297 22.6487   6
   5   6  10 543.719 23.4000   1
   5   6  10 538.803 23.4300   9
   5   6  10 507.079 25.0363   5
   6   6  10 1357.15 59.7545   5
   6   6  10 1407.86 58.7193   9
   3  -7 -10 556.018 23.4977   3
  -3   7  10 531.104 23.6805   8
  -3   7  10 550.234 24.1435   3
   2  -7 -10 133.973 6.84979   3
   2  -7 -10 130.392 6.73121   8
  -2   7  10 126.209 6.92740   8
  -2   7  10 132.324 7.27465   3
   1  -7 -10 56.8032 4.79939   3
   1  -7 -10 53.0580 3.98809   8
  -1   7  10 56.2657 4.53747   3
  -1   7  10 56.9540 4.72521   8
   0  -7 -10 411.409 18.4097   8
   0  -7 -10 417.405 18.8328   3
   0   7  10 379.475 19.1086   3
  -1  -7 -10 227.764 11.2079   8
  -1  -7 -10 251.397 10.6277   6
   1   7  10 225.157 11.5595   9
   1   7  10 231.723 11.3038   3
   1   7  10 218.680 16.1672   5
  -2  -7 -10 5.86969 2.21519   8
  -2  -7 -10 4.88516 1.46237   6
   2   7  10 3.37903 3.07626   5
   2   7  10 5.10600 2.06297   3
  -3  -7 -10 503.282 22.8550   8
  -3  -7 -10 531.604 22.4012   6
   3   7  10 517.499 23.1785   9
   3   7  10 532.795 23.5174   1
   3   7  10 491.803 24.8925   5
   3   7  10 516.824 22.5635   3
  -4  -7 -10 230.983 10.7373   6
   4   7  10 249.997 11.8738   1
   4   7  10 224.304 13.3148   5
   4   7  10 241.555 11.5285   9
  -5  -7 -10 21.2533 3.16493   6
   5   7  10 17.9438 3.26876   1
   5   7  10 19.9139 2.82178   9
   6   7  10 6.66747 2.84570   5
   6   7  10 12.0898 2.54554   1
   6   7  10 9.54598 1.95349   9
   3  -8 -10 59.7835 3.41882   3
  -3   8  10 55.9532 3.65227   8
   2  -8 -10 2.61147 1.65276   3
   2  -8 -10 -0.8046 3.57271   8
  -2   8  10 2.77135 1.98871   3
  -2   8  10 -0.0369 1.72715   8
   1  -8 -10 114.052 6.46234   3
   1  -8 -10 111.889 5.98404   8
  -1   8  10 110.819 6.41583   3
   0  -8 -10 17.3736 2.81517   8
   0  -8 -10 19.2081 2.43215   6
   0  -8 -10 24.1715 3.68640   3
   0   8  10 21.3209 3.24137   3
  -1  -8 -10 182.218 8.26185   6
  -1  -8 -10 174.101 8.86986   8
   1   8  10 172.862 8.99234   3
  -2  -8 -10 440.896 19.5808   8
  -2  -8 -10 453.743 19.0342   6
   2   8  10 451.078 19.9452   1
   2   8  10 420.806 21.3821   5
   2   8  10 413.313 19.5627   9
   2   8  10 437.882 19.4783   3
  -3  -8 -10 942.401 38.7308   6
  -3  -8 -10 905.446 39.1324   8
   3   8  10 876.676 39.2253   9
   3   8  10 878.257 41.0450   5
   3   8  10 921.418 38.7832   3
   3   8  10 934.067 39.6470   1
  -4  -8 -10 441.046 18.8856   6
  -4  -8 -10 421.755 19.4164   8
   4   8  10 450.981 19.7769   1
   4   8  10 437.969 19.4629   9
   4   8  10 425.612 21.1557   5
   5   8  10 1.46603 1.50855   9
   5   8  10 2.51116 1.81809   1
   6   8  10 4.71543 1.53096   9
   6   8  10 3.17010 1.99749   5
   6   8  10 3.30764 1.90173   1
   2  -9 -10 606.537 25.7341   3
  -2   9  10 596.735 26.0424   3
   1  -9 -10 745.260 31.4459   3
   1  -9 -10 690.855 31.3018   8
  -1   9  10 761.637 31.7157   3
   0  -9 -10 648.385 28.5072   8
   0  -9 -10 662.566 28.9544   3
   0   9  10 664.011 28.6982   3
  -1  -9 -10 1054.97 44.5790   6
  -1  -9 -10 1069.43 45.1725   8
   1   9  10 1063.06 45.3349   1
   1   9  10 1031.16 45.1648   3
  -2  -9 -10 619.571 26.3521   8
  -2  -9 -10 602.889 25.8034   6
   2   9  10 591.009 26.1699   3
   2   9  10 596.544 26.5233   1
  -3  -9 -10 18.0501 2.13578   6
  -3  -9 -10 13.1741 2.24973   8
   3   9  10 14.0328 2.64709   9
   3   9  10 14.8240 2.70984   1
   3   9  10 10.6129 2.80872   5
   3   9  10 14.8684 2.11519   3
  -4  -9 -10 25.4484 4.13330   8
  -4  -9 -10 30.2887 2.50366   6
   4   9  10 21.9281 3.62357   5
   4   9  10 36.0679 3.15319   1
   4   9  10 31.8438 3.04283   9
  -5  -9 -10 113.943 5.41010   6
   5   9  10 103.798 5.88341   9
   5   9  10 109.181 6.74446   5
   5   9  10 114.561 5.72105   1
   1 -10 -10 120.935 6.23869   3
   1 -10 -10 90.3987 7.77833   8
  -1  10  10 117.227 5.83570   3
   0 -10 -10 6.82182 1.58012   8
   0  10  10 5.95879 1.64163   3
   0  10  10 7.56333 2.07947   1
  -1 -10 -10 41.6285 3.19680   8
   1  10  10 46.7089 3.38433   3
   1  10  10 45.0109 3.36998   1
  -2 -10 -10 0.38193 1.03695   6
  -2 -10 -10 2.75537 1.56407   8
   2  10  10 0.33566 1.40577   3
   2  10  10 1.05632 1.55152   1
  -3 -10 -10 42.7001 3.32226   8
  -3 -10 -10 42.3424 2.66079   6
   3  10  10 38.7612 3.06457   1
  -4 -10 -10 45.9428 2.84704   6
  -4 -10 -10 43.8954 4.97479   8
   4  10  10 46.3197 3.15538   1
  -1 -11 -10 18.8687 2.52724   8
   1  11  10 24.7375 2.48236   3
  -2 -11 -10 52.2104 3.64278   8
   2  11  10 58.0802 3.59854   3
   2  11  10 55.4601 3.62659   1
  -3 -11 -10 1.31505 1.92094   8
  -3 -11 -10 2.34416 1.13703   6
   3  11  10 -0.6158 1.41332   1
  -1  -4  11 18.7500 2.11137  10
  -1  -4  11 18.7337 2.08875   3
   0   4 -11 333.757 14.9094   8
   0  -4  11 332.799 15.2079  10
   0  -4  11 368.136 14.9024   3
   2   3 -11 99.8909 5.73512   3
  -2  -3  11 100.132 5.68872  10
  -2  -3  11 115.329 5.48754   3
   1   3 -11 63.0727 6.00664   3
   1   3 -11 64.6191 3.76527   8
  -1  -3  11 63.8314 4.15201  10
  -1  -3  11 69.4870 3.84070   3
   0   3 -11 67.7484 4.01863   8
   0  -3  11 75.6614 3.96078   3
   0  -3  11 72.6482 4.51603  10
  -1   3 -11 74.4225 4.08274   8
  -1   3 -11 70.2181 3.79362   6
   1  -3  11 74.9834 3.87766   3
   1  -3  11 72.4815 5.34983   9
   1  -3  11 70.3834 4.62380  10
  -2   3 -11 47.8927 3.11879   8
  -2   3 -11 46.7176 2.93147   6
   2  -3  11 51.1589 4.48606  10
   3   2 -11 298.450 12.8511   3
  -3  -2  11 279.677 12.8146   8
  -3  -2  11 290.488 13.2034   3
   2   2 -11 549.031 23.9096   8
   2   2 -11 554.588 24.1004   3
  -2  -2  11 572.257 24.1607   3
  -2  -2  11 548.349 24.2186  10
   1   2 -11 83.4500 4.73619   8
   1   2 -11 85.9301 6.58620   3
  -1  -2  11 85.2913 5.17370  10
  -1  -2  11 88.7462 4.78119   3
   0   2 -11 1251.59 53.3243   8
   0   2 -11 1198.42 52.7246   6
   0  -2  11 1268.14 53.5937  10
   0  -2  11 1301.19 53.2144   3
  -1   2 -11 835.039 36.0089   8
  -1   2 -11 833.628 35.6371   6
   1  -2  11 841.821 36.2940  10
   1  -2  11 848.948 35.7713   3
  -2   2 -11 716.098 31.1845   8
  -2   2 -11 734.519 30.9907   6
   2  -2  11 710.953 31.4730  10
   2  -2  11 747.831 31.4612   9
  -3   2 -11 43.1441 3.41599   8
   4   1 -11 270.058 11.6309   3
  -4  -1  11 261.368 11.7434   8
   3   1 -11 13.8918 1.92959   3
  -3  -1  11 15.8331 2.23009   8
  -3  -1  11 16.2351 2.53175   3
   2   1 -11 130.661 6.89791   3
   2   1 -11 134.407 6.48510   8
  -2  -1  11 122.198 7.02186  10
  -2  -1  11 124.609 6.73791   8
  -2  -1  11 130.707 6.76768   3
   1   1 -11 156.697 7.90359   8
   1   1 -11 159.840 8.87230   3
  -1  -1  11 164.918 7.96861   3
  -1  -1  11 161.663 8.35061  10
   0   1 -11 33.0820 2.91909   6
   0   1 -11 26.7365 2.94998   8
   0  -1  11 29.7865 2.77836   3
   0  -1  11 26.7260 3.39899  10
  -1   1 -11 149.886 7.11389   6
  -1   1 -11 143.017 7.29109   8
   1  -1  11 133.545 6.96007   3
   1  -1  11 142.471 7.69328  10
  -2   1 -11 402.680 17.2616   6
  -2   1 -11 391.348 17.4061   8
   2  -1  11 391.001 17.0263   3
   2  -1  11 376.981 17.7806  10
   2  -1  11 391.438 17.7805   9
  -3   1 -11 39.5031 4.69838   8
  -3   1 -11 47.0492 3.43904   6
   3  -1  11 46.8331 4.65494  10
   3  -1  11 42.9258 5.06188   9
  -4   1 -11 36.6537 2.82831   6
   4   0 -11 269.955 11.9224   3
  -4   0  11 271.327 12.0642   8
   3   0 -11 316.116 14.0579   3
  -3   0  11 306.279 14.0865   8
  -3   0  11 320.539 14.4564   3
   2   0 -11 1383.22 59.8701   8
   2   0 -11 1386.04 60.0005   3
  -2   0  11 1426.01 60.1774  10
  -2   0  11 1473.35 60.2155   3
  -2   0  11 1398.12 59.9368   8
   1   0 -11 1155.97 50.1229   3
   1   0 -11 1176.65 50.0670   8
  -1   0  11 1154.36 50.0506   3
  -1   0  11 1199.92 50.3576  10
   0   0 -11 197.086 9.65525   8
   0   0 -11 200.370 9.18623   6
   0   0  11 192.931 9.47439   3
   0   0  11 194.911 10.0151  10
  -1   0 -11 567.631 24.6543   8
  -1   0 -11 564.506 24.2900   6
   1   0  11 545.306 24.3460   3
   1   0  11 558.150 25.0092  10
  -2   0 -11 92.0009 5.21743   6
  -2   0 -11 83.3247 5.14655   8
   2   0  11 81.7466 5.67319  10
   2   0  11 80.4603 5.61195   9
   2   0  11 83.4614 4.78620   3
  -3   0 -11 9.62805 1.95325   6
  -3   0 -11 9.16952 2.12269   8
   3   0  11 11.0220 2.72078   9
   3   0  11 12.7326 2.66236  10
  -4   0 -11 237.552 10.2549   6
   4   0  11 213.339 11.6790   5
   4  -1 -11 251.881 10.9682   3
  -4   1  11 238.604 11.2581   8
   3  -1 -11 22.8130 2.93532   3
  -3   1  11 18.5835 2.82283   8
  -3   1  11 17.9508 2.65214   3
   2  -1 -11 1.20879 2.07684   3
   2  -1 -11 -0.3303 1.63272   8
  -2   1  11 1.40247 2.78903  10
  -2   1  11 3.32669 1.94532   3
  -2   1  11 0.20810 1.90724   8
   1  -1 -11 20.6671 3.42347   3
   1  -1 -11 14.7841 2.79080   8
   1  -1 -11 22.2150 2.69219   6
  -1   1  11 19.6899 3.01502   3
  -1   1  11 22.9923 3.18268  10
   0  -1 -11 1797.57 74.0273   6
   0  -1 -11 1756.69 74.5577   8
   0   1  11 1784.03 74.9709  10
   0   1  11 1683.57 74.5209   3
  -1  -1 -11 346.018 15.3438   6
  -1  -1 -11 336.901 15.5722   8
   1   1  11 336.469 15.3278   3
   1   1  11 333.483 16.3799  10
  -2  -1 -11 59.4232 4.27825   6
  -2  -1 -11 55.3240 4.29810   8
   2   1  11 51.8855 3.91231   3
   2   1  11 60.0093 4.80817  10
   2   1  11 52.8606 4.61996   9
  -3  -1 -11 13.7107 2.18495   6
  -3  -1 -11 15.9758 2.49461   8
   3   1  11 18.2442 3.02150   9
   3   1  11 10.8869 3.30964   5
   3   1  11 20.0815 3.17687  10
  -4  -1 -11 548.798 22.7440   6
   4   1  11 500.293 24.1077   5
   4   1  11 527.453 23.2689   9
  -5  -1 -11 534.002 22.8362   6
   5   1  11 535.821 23.9757   5
   4  -2 -11 155.533 7.25016   3
  -4   2  11 156.674 8.49351   8
   3  -2 -11 34.0955 3.28084   3
  -3   2  11 34.0369 3.27240   8
  -3   2  11 40.2585 4.22918   3
   2  -2 -11 13.0939 2.52280   3
  -2   2  11 9.69472 3.61518  10
  -2   2  11 13.8030 2.33869   3
  -2   2  11 16.8421 3.10432   8
   1  -2 -11 975.769 40.8532   8
   1  -2 -11 936.832 40.8914   3
   1  -2 -11 937.482 40.0758   6
  -1   2  11 941.902 40.9540   3
  -1   2  11 948.133 41.1210  10
   0  -2 -11 119.797 6.79257   6
   0  -2 -11 122.139 6.66754   8
   0   2  11 120.797 6.68423   3
   0   2  11 111.649 8.39434  10
  -1  -2 -11 463.981 20.3438   6
  -1  -2 -11 462.332 21.1670   8
   1   2  11 450.818 20.6076   3
   1   2  11 472.125 21.4018  10
  -2  -2 -11 1724.83 70.2266   6
  -2  -2 -11 1696.44 70.5234   8
   2   2  11 1677.75 70.2121   3
   2   2  11 1594.29 71.9261   5
   2   2  11 1617.63 71.0544  10
   2   2  11 1643.63 71.0365   9
  -3  -2 -11 1268.60 52.1521   6
  -3  -2 -11 1239.00 52.3142   8
   3   2  11 1240.21 52.9122   9
   3   2  11 1153.23 53.7587   5
   3   2  11 1234.82 52.9566  10
  -4  -2 -11 420.723 17.9750   6
   4   2  11 387.756 19.6745   5
   4   2  11 420.668 18.6992   9
  -5  -2 -11 907.393 38.2607   6
   5   2  11 908.591 38.6357   9
   5   2  11 896.042 39.6486   5
   4  -3 -11 94.5722 4.99745   3
  -4   3  11 85.4646 4.82725   8
   3  -3 -11 416.954 18.1107   3
  -3   3  11 399.012 18.2565   8
  -3   3  11 418.011 18.6223   3
   2  -3 -11 79.6160 5.12585   3
   2  -3 -11 74.1902 4.71734   8
  -2   3  11 74.5290 4.98184   8
  -2   3  11 80.3380 5.22565   3
   1  -3 -11 206.307 10.0817   8
   1  -3 -11 200.852 9.38594   6
   1  -3 -11 214.364 10.6491   3
  -1   3  11 203.389 10.6980  10
  -1   3  11 215.029 10.3455   3
   0  -3 -11 857.820 37.4123   8
   0  -3 -11 876.700 36.8362   6
   0   3  11 866.277 38.7244  10
   0   3  11 856.152 37.4640   3
  -1  -3 -11 686.173 30.4513   8
  -1  -3 -11 719.074 30.0350   6
   1   3  11 709.610 30.9604  10
   1   3  11 670.849 30.3191   3
  -2  -3 -11 146.740 7.79297   8
   2   3  11 135.987 9.84221   5
   2   3  11 152.809 9.73955  10
   2   3  11 156.362 9.83692   9
   2   3  11 145.282 7.51966   3
  -3  -3 -11 176.798 8.30204   6
  -3  -3 -11 166.996 8.56471   8
   3   3  11 154.463 10.3854   5
   3   3  11 165.169 9.20284  10
   3   3  11 177.478 9.18991   9
  -4  -3 -11 259.489 11.3179   6
   4   3  11 243.969 13.4762   5
   4   3  11 236.324 12.0126   9
  -5  -3 -11 62.4658 4.50257   6
   5   3  11 76.7093 6.28106   5
   5   3  11 73.9346 4.91464   9
   4  -4 -11 42.1977 2.74316   2
   4  -4 -11 36.6101 2.68439   3
  -4   4  11 40.1370 2.96576   8
   3  -4 -11 150.652 7.18498   3
  -3   4  11 148.099 7.98880   3
  -3   4  11 143.502 7.38438   8
   2  -4 -11 156.827 8.05971   8
   2  -4 -11 172.168 8.34930   3
  -2   4  11 159.304 8.34851   8
  -2   4  11 170.877 8.62455   3
   1  -4 -11 1048.84 45.3488   3
   1  -4 -11 1089.32 45.3815   8
   1  -4 -11 999.293 44.5387   6
  -1   4  11 1097.59 45.6184   3
  -1   4  11 1050.37 45.4460   9
   0  -4 -11 2526.51 105.287   8
   0  -4 -11 2419.78 104.777   6
   0   4  11 2545.60 107.205   9
   0   4  11 2425.17 106.342  10
   0   4  11 2542.68 105.413   3
  -1  -4 -11 1096.81 46.4824   6
  -1  -4 -11 1116.83 47.0369   8
   1   4  11 1105.79 47.5240  10
   1   4  11 1065.05 47.3118   9
   1   4  11 1083.26 46.9652   3
  -2  -4 -11 91.1583 5.50637   8
   2   4  11 82.3586 8.03814   9
   2   4  11 82.9257 5.60395   3
   2   4  11 79.2283 7.08785   5
   2   4  11 94.2958 7.05312  10
  -3  -4 -11 573.124 26.1534   8
  -3  -4 -11 637.623 25.9576   6
   3   4  11 570.221 28.0573   5
   3   4  11 612.684 26.7996   9
  -4  -4 -11 156.470 7.56220   6
   4   4  11 158.791 8.34113   9
   4   4  11 149.930 10.0122   5
  -5  -4 -11 114.432 6.14302   6
   5   4  11 131.079 6.64819   9
   5   4  11 118.857 8.15519   5
   3  -5 -11 409.262 17.8771   3
  -3   5  11 439.602 18.8248   3
  -3   5  11 381.394 17.9763   8
   2  -5 -11 18.1096 2.66707   8
   2  -5 -11 14.8125 2.28236   3
  -2   5  11 10.8616 2.21135   3
  -2   5  11 16.3059 2.37216   8
   1  -5 -11 0.45099 2.56379   3
   1  -5 -11 1.61874 1.61843   8
  -1   5  11 1.06260 2.47443   8
  -1   5  11 3.38547 3.01233   9
  -1   5  11 2.15712 1.74529   3
   0  -5 -11 89.6186 5.49221   8
   0  -5 -11 93.6776 4.86663   6
   0   5  11 96.1748 5.84011   3
   0   5  11 82.6185 5.82075   9
  -1  -5 -11 129.114 7.03982   6
   1   5  11 131.922 7.87668   9
  -2  -5 -11 813.142 34.2386   8
  -2  -5 -11 790.866 33.7009   6
   2   5  11 793.177 34.0036   3
   2   5  11 741.545 35.7300   5
   2   5  11 796.364 34.5883   9
  -3  -5 -11 52.4013 4.50894   8
  -3  -5 -11 60.0773 3.83490   6
   3   5  11 62.9796 4.63947   9
   3   5  11 53.3927 4.92643   1
   3   5  11 47.1662 5.89770   5
  -4  -5 -11 26.8955 2.73585   6
   4   5  11 18.8881 4.01005   5
   4   5  11 28.5224 4.47411   1
   4   5  11 29.2888 3.42687   9
  -5  -5 -11 282.024 12.8445   6
   5   5  11 301.209 13.4106   9
   5   5  11 287.408 14.7229   5
   3  -6 -11 307.888 13.8983   2
   3  -6 -11 335.158 13.9219   3
  -3   6  11 303.668 13.9508   8
  -3   6  11 316.501 14.5231   3
   2  -6 -11 902.572 38.9187   8
   2  -6 -11 927.091 39.0182   3
  -2   6  11 934.374 39.3712   3
  -2   6  11 891.247 39.0446   8
   1  -6 -11 22.8713 3.06815   3
   1  -6 -11 27.7147 2.90966   8
  -1   6  11 23.0802 3.27001   3
   0  -6 -11 410.776 17.8029   6
   0  -6 -11 416.166 18.4869   8
   0   6  11 403.315 18.6082   9
   0   6  11 412.917 18.6495   3
  -1  -6 -11 18.5598 2.41895   6
  -1  -6 -11 15.8806 2.87890   8
   1   6  11 14.7010 2.37273   3
   1   6  11 18.8439 2.89847   9
  -2  -6 -11 335.814 15.2029   8
  -2  -6 -11 342.687 14.6677   6
   2   6  11 325.226 16.8287   5
   2   6  11 329.978 15.3846   9
   2   6  11 316.090 14.9645   3
  -3  -6 -11 314.407 14.6637   8
  -3  -6 -11 327.752 14.2328   6
   3   6  11 297.288 16.3149   5
   3   6  11 326.092 15.0032   9
   3   6  11 337.690 15.1358   1
  -4  -6 -11 1679.70 69.1667   6
   4   6  11 1626.14 69.8363   9
   4   6  11 1601.49 71.2021   5
   4   6  11 1661.90 69.7909   1
   5   6  11 16.2277 3.27186   5
   5   6  11 17.4535 2.54607   9
   3  -7 -11 53.4448 3.28038   3
   2  -7 -11 3.54868 2.10524   8
   2  -7 -11 3.96918 1.70933   3
  -2   7  11 2.82219 2.26837   8
  -2   7  11 6.31957 1.86439   3
   1  -7 -11 481.865 21.0918   8
   1  -7 -11 483.877 21.2283   3
  -1   7  11 478.069 21.3565   3
   0  -7 -11 482.669 21.1012   8
   0  -7 -11 469.020 20.4209   6
   0   7  11 478.448 21.2454   3
  -1  -7 -11 36.0180 2.67954   6
  -1  -7 -11 29.1997 3.18326   8
   1   7  11 30.1131 3.29861   3
   1   7  11 29.4957 3.51653   9
  -2  -7 -11 52.4103 3.21786   6
  -2  -7 -11 48.2254 3.84659   8
   2   7  11 44.4457 3.77214   3
   2   7  11 40.2298 4.14195   9
   2   7  11 46.8190 4.00862   1
   2   7  11 45.5194 5.11329   5
  -3  -7 -11 72.8330 4.80875   8
  -3  -7 -11 77.3554 4.12093   6
   3   7  11 65.5538 4.68407   9
   3   7  11 79.6127 4.98897   1
   3   7  11 64.8248 5.96999   5
  -4  -7 -11 1051.75 42.9178   6
   4   7  11 1008.04 43.4640   9
   4   7  11 965.412 44.7998   5
   4   7  11 1030.85 43.5446   1
  -5  -7 -11 14.0472 2.61409   6
   5   7  11 18.6101 3.59034   5
   5   7  11 13.4416 2.36883   9
   5   7  11 11.3029 2.44787   1
   2  -8 -11 104.354 5.55703   3
  -2   8  11 114.054 5.97180   3
   1  -8 -11 427.826 19.2036   3
   1  -8 -11 423.231 18.9668   8
  -1   8  11 454.887 19.3034   3
   0  -8 -11 108.254 5.88818   8
   0   8  11 116.064 6.15817   3
  -1  -8 -11 1292.34 54.7478   8
  -1  -8 -11 1269.92 54.1769   6
   1   8  11 1295.06 54.7597   3
  -2  -8 -11 1125.54 47.4654   8
  -2  -8 -11 1135.10 46.9983   6
   2   8  11 1107.07 47.6999   1
   2   8  11 1102.02 47.2334   3
   2   8  11 1086.23 47.3641   9
  -3  -8 -11 325.038 14.8024   8
  -3  -8 -11 338.341 14.4100   6
   3   8  11 315.752 16.2055   5
   3   8  11 341.572 15.1416   1
   3   8  11 323.899 14.8414   9
  -4  -8 -11 886.454 36.1957   6
   4   8  11 832.145 37.8201   5
   4   8  11 869.994 36.7435   1
   4   8  11 828.261 36.5523   9
  -5  -8 -11 279.667 12.3632   6
   5   8  11 289.476 12.6290   9
   5   8  11 278.025 13.6250   5
   5   8  11 288.227 12.6668   1
   1  -9 -11 547.981 25.0768   3
  -1   9  11 582.028 24.6672   1
  -1   9  11 592.608 24.8042   3
   0  -9 -11 22.6179 2.48423   8
   0   9  11 31.3426 2.89932   3
   0   9  11 30.8392 2.74083   1
  -1  -9 -11 33.3200 2.43560   6
  -1  -9 -11 32.3608 2.86151   8
   1   9  11 30.0159 2.85069   1
   1   9  11 31.8875 2.97231   3
  -2  -9 -11 45.4246 3.40883   8
  -2  -9 -11 45.8591 2.85181   6
   2   9  11 44.4718 3.43281   1
   2   9  11 49.2187 3.46891   3
  -3  -9 -11 101.229 4.80733   6
  -3  -9 -11 95.4541 5.36689   8
   3   9  11 89.0201 5.84203   9
   3   9  11 101.129 5.32098   1
  -4  -9 -11 234.272 10.4581   6
   4   9  11 220.049 10.9245   1
   4   9  11 210.690 10.1190   9
   0 -10 -11 375.912 17.2198   8
   0  10  11 419.399 17.2906   3
  -1 -10 -11 3.47953 1.76879   8
   1  10  11 1.57943 1.34692   3
   1  10  11 3.69529 1.57513   1
  -2 -10 -11 143.812 7.01095   8
  -2 -10 -11 144.436 6.60723   6
   2  10  11 153.695 7.38896   1
  -3 -10 -11 264.714 11.4964   6
   3  10  11 265.381 11.8966   1
   1   2 -12 19.9067 2.38531   8
  -1  -2  12 28.8934 2.35266   3
  -1  -2  12 23.1234 2.84485  10
   0   2 -12 407.570 18.0065   8
   0  -2  12 412.529 18.2865  10
   0  -2  12 417.129 18.2453   9
   0  -2  12 433.937 18.0087   3
  -1   2 -12 1065.52 44.5668   8
   1  -2  12 1044.96 44.7643  10
   2   1 -12 836.676 36.1708   3
  -2  -1  12 867.121 36.2592   3
   1   1 -12 671.355 29.1593   8
  -1  -1  12 687.489 29.5964  10
  -1  -1  12 691.568 29.2927   3
   0   1 -12 25.6248 2.46105   8
   0  -1  12 28.5035 2.49393   3
   0  -1  12 28.6055 3.09437  10
  -1   1 -12 314.929 14.8704   6
  -1   1 -12 335.443 14.6924   8
   1  -1  12 332.807 15.0219  10
   1  -1  12 333.729 14.5408   3
   1  -1  12 349.332 14.9973   9
  -2   1 -12 175.775 8.22715   8
  -2   1 -12 171.236 8.37008   6
   2  -1  12 181.769 8.62724  10
   2  -1  12 186.297 8.72508   9
   3   0 -12 239.704 10.6629   3
   2   0 -12 104.992 5.58302   8
   2   0 -12 104.551 5.96094   3
  -2   0  12 118.426 6.78076  10
  -2   0  12 111.795 5.86065   3
   1   0 -12 330.259 15.6940   3
   1   0 -12 344.373 15.0724   8
  -1   0  12 348.920 15.2103   3
  -1   0  12 337.938 15.3854  10
   0   0 -12 64.8658 3.86378   8
   0   0 -12 59.1522 3.48805   6
   0   0  12 62.4319 3.85380   3
   0   0  12 61.4152 4.36018  10
  -1   0 -12 8.17167 1.57319   8
   1   0  12 7.77480 1.90462  10
   1   0  12 7.79141 1.47881   3
   1   0  12 6.45392 1.88583   9
  -2   0 -12 2.80799 1.28946   6
   2   0  12 4.32372 1.97445  10
   2   0  12 2.68747 1.89349   9
  -3   0 -12 154.000 7.36886   8
   3   0  12 154.749 7.84356   9
   3  -1 -12 12.3698 1.79685   3
  -3   1  12 9.72406 2.46566   3
   2  -1 -12 211.627 11.2844   3
  -2   1  12 234.381 10.4902   3
   1  -1 -12 293.892 13.2173   8
  -1   1  12 297.300 13.5658  10
  -1   1  12 288.587 13.3244   3
   0  -1 -12 2.10961 1.49099   8
   0  -1 -12 5.25502 1.36326   6
   0   1  12 2.61339 1.86929  10
   0   1  12 2.59173 1.39437   3
  -1  -1 -12 10.7200 1.89247   8
  -1  -1 -12 17.9494 2.36470   6
   1   1  12 12.8692 2.30502  10
   1   1  12 11.5718 2.20407   9
   1   1  12 11.5913 1.72872   3
  -2  -1 -12 421.278 17.7411   6
  -2  -1 -12 406.650 17.9830   8
   2   1  12 397.218 17.6424   3
   2   1  12 403.421 18.4021  10
   2   1  12 410.496 18.3168   9
  -3  -1 -12 1816.22 73.6914   6
  -3  -1 -12 1704.58 73.7861   8
   3   1  12 1738.42 74.1158   9
  -4  -1 -12 181.618 8.14376   6
   3  -2 -12 126.701 6.16404   3
  -3   2  12 124.877 6.86348   3
   2  -2 -12 80.3568 4.64800   8
   2  -2 -12 81.4832 5.05588   3
  -2   2  12 86.5373 4.98535   3
   1  -2 -12 5.83633 3.06678   3
   1  -2 -12 7.02223 1.64823   8
  -1   2  12 6.02859 2.36101  10
  -1   2  12 2.18722 1.51829   3
   0  -2 -12 330.831 15.1558   8
   0  -2 -12 330.135 14.5823   6
   0   2  12 337.685 15.5446  10
   0   2  12 345.967 15.2029   3
  -1  -2 -12 8.78650 1.92006   8
   1   2  12 12.6719 2.22902   9
   1   2  12 9.09852 1.70575   3
   1   2  12 10.3635 2.10931  10
  -2  -2 -12 859.773 35.4872   6
  -2  -2 -12 821.609 35.7565   8
   2   2  12 845.003 36.2566  10
   2   2  12 826.229 36.1094   9
   2   2  12 812.982 35.4342   3
  -3  -2 -12 234.908 11.4606   8
  -3  -2 -12 261.259 11.0997   6
   3   2  12 243.463 13.6554   5
   3   2  12 249.379 11.6569   9
  -4  -2 -12 0.72203 1.26060   6
   4   2  12 2.44952 1.98458   9
   4   2  12 1.71796 2.46684   5
   3  -3 -12 97.0384 5.07424   3
  -3   3  12 101.878 6.06625   3
   2  -3 -12 64.7382 4.05602   8
   2  -3 -12 63.6464 4.45949   3
  -2   3  12 60.8224 4.30549   3
  -2   3  12 71.8370 5.06155   9
   1  -3 -12 12.9751 2.32266   8
   1  -3 -12 4.77721 2.97921   3
  -1   3  12 9.28845 1.91568   3
  -1   3  12 10.3098 2.08512   9
   0  -3 -12 472.095 20.6527   8
   0  -3 -12 470.842 20.0666   6
   0   3  12 462.133 20.8828   9
   0   3  12 457.751 20.9944  10
   0   3  12 473.572 20.7112   3
  -1  -3 -12 45.9036 3.02856   6
  -1  -3 -12 36.5940 3.27971   8
   1   3  12 38.3120 3.59848   9
   1   3  12 39.3119 3.34320   3
   1   3  12 37.8515 4.09335  10
  -2  -3 -12 220.787 10.3699   8
  -2  -3 -12 231.452 10.0709   6
   2   3  12 228.636 10.9566  10
   2   3  12 202.167 10.0604   3
   2   3  12 211.824 10.6433   9
  -3  -3 -12 1343.50 57.2083   8
  -3  -3 -12 1434.94 57.0410   6
   3   3  12 1343.41 57.6017   9
   3   3  12 1281.34 58.4113   5
   4   3  12 516.331 21.8504   9
   4   3  12 478.856 22.4693   5
   3  -4 -12 456.575 18.9311   3
  -3   4  12 421.057 19.3441   3
   2  -4 -12 602.461 26.7484   8
   2  -4 -12 633.053 26.7829   3
  -2   4  12 631.174 27.0344   3
   1  -4 -12 192.482 9.94185   3
   1  -4 -12 203.108 9.28735   8
  -1   4  12 204.012 9.51877   3
  -1   4  12 183.140 9.47424   9
   0  -4 -12 2078.06 87.7731   6
   0  -4 -12 2109.07 88.4041   8
   0   4  12 2092.81 88.5277   9
   0   4  12 2090.57 88.4601   3
  -1  -4 -12 56.5464 3.37953   6
  -1  -4 -12 50.6059 3.86596   8
   1   4  12 52.5856 4.12009   9
   1   4  12 51.1331 3.79604   3
  -2  -4 -12 196.630 8.92839   6
  -2  -4 -12 198.096 9.41936   8
   2   4  12 191.773 9.65362   9
   2   4  12 188.451 9.10297   3
  -3  -4 -12 8.15787 1.50332   6
   3   4  12 10.2671 2.06527   9
   3   4  12 8.45777 2.71822   5
  -4  -4 -12 1.73704 1.26561   6
   4   4  12 1.94090 3.26772   5
   4   4  12 5.16887 1.78426   9
   5   4  12 366.963 16.5975   5
   5   4  12 362.213 15.9497   9
   2  -5 -12 833.589 37.6167   3
   2  -5 -12 886.164 37.2586   8
  -2   5  12 916.849 37.6496   3
   1  -5 -12 31.3847 2.84577   8
   1  -5 -12 27.1583 3.48728   3
  -1   5  12 33.9493 3.12788   3
   0  -5 -12 156.570 7.18093   6
   0  -5 -12 157.739 7.76581   8
   0   5  12 156.760 8.06975   9
   0   5  12 154.245 7.84515   3
  -1  -5 -12 4.45661 1.70753   8
  -1  -5 -12 7.31852 1.37765   6
   1   5  12 5.26288 2.04948   9
   1   5  12 5.90410 1.65841   3
  -2  -5 -12 378.487 16.6074   8
  -2  -5 -12 378.853 16.1291   6
   2   5  12 358.219 16.2794   3
   2   5  12 369.158 16.8038   9
   2   5  12 361.486 16.7461   1
  -3  -5 -12 19.7439 2.19428   6
  -3  -5 -12 21.2202 3.19808   8
   3   5  12 17.3854 3.55168   1
   3   5  12 13.8414 2.31979   9
   3   5  12 15.0751 3.85913   5
  -4  -5 -12 684.925 28.0602   6
   4   5  12 658.378 28.5689   9
   4   5  12 635.845 29.4176   5
   5   5  12 186.662 8.65340   9
   5   5  12 186.730 9.32170   5
   2  -6 -12 45.6886 3.71023   3
  -2   6  12 52.5923 3.79130   3
   1  -6 -12 124.030 7.13368   3
   1  -6 -12 122.005 6.14885   8
  -1   6  12 123.593 6.42306   3
   0  -6 -12 160.299 7.69314   8
   0  -6 -12 146.348 7.07516   6
   0   6  12 161.084 7.78288   3
  -1  -6 -12 1092.19 45.9842   6
  -1  -6 -12 1117.84 46.5435   8
   1   6  12 1096.76 46.4530   3
   1   6  12 1050.22 46.4841   9
  -2  -6 -12 154.468 7.71504   8
  -2  -6 -12 156.968 7.19893   6
   2   6  12 160.710 9.98667   5
   2   6  12 157.972 7.88885   9
   2   6  12 143.029 7.46261   3
   2   6  12 151.315 7.86352   1
  -3  -6 -12 55.6122 4.18012   8
  -3  -6 -12 67.7081 3.50138   6
   3   6  12 53.5789 5.04555   5
   3   6  12 59.9521 4.09491   9
   3   6  12 58.7104 4.22155   1
  -4  -6 -12 341.822 14.5954   6
   4   6  12 298.689 16.0510   1
   4   6  12 325.778 14.4976   9
  -2   7  12 137.175 6.89916   3
   1  -7 -12 4.84763 2.22556   8
   1  -7 -12 5.53242 2.96256   3
  -1   7  12 2.52581 1.40252   3
   0  -7 -12 61.2510 3.77136   8
   0   7  12 58.4584 3.91559   3
  -1  -7 -12 99.2879 4.77328   6
  -1  -7 -12 92.0760 5.28386   8
   1   7  12 101.063 5.34161   3
  -2  -7 -12 1044.51 44.0435   8
  -2  -7 -12 1050.99 43.6319   6
   2   7  12 1040.39 43.7226   3
   2   7  12 1034.86 44.2095   1
   2   7  12 994.588 44.0274   9
  -3  -7 -12 216.878 9.18391   6
  -3  -7 -12 202.080 10.5386   8
   3   7  12 202.613 9.66446   9
   3   7  12 213.739 9.72522   1
   3   7  12 187.571 12.0705   5
  -4  -7 -12 1072.19 43.6497   6
   4   7  12 989.818 43.8792   1
   4   7  12 1010.99 44.8184   5
   4   7  12 1072.15 44.9290   9
   1  -8 -12 219.082 10.7246   8
  -1   8  12 266.079 10.9762   3
   0  -8 -12 329.045 15.1790   8
   0   8  12 347.519 15.3090   3
   0   8  12 362.445 15.4209   1
  -1  -8 -12 46.6000 3.30591   8
   1   8  12 51.8465 3.37877   3
   1   8  12 47.8338 3.35502   1
  -2  -8 -12 958.583 40.0600   8
  -2  -8 -12 948.523 39.6545   6
   2   8  12 937.923 40.1806   1
   2   8  12 915.201 39.6191   3
  -3  -8 -12 4.79852 1.13244   6
  -3  -8 -12 2.87131 1.93053   8
   3   8  12 1.20002 1.92990   9
   3   8  12 2.42791 2.16901   1
  -4  -8 -12 26.0284 2.10241   6
   4   8  12 24.0374 2.75221   9
   4   8  12 23.4877 2.64298   1
   0  -9 -12 150.506 7.01146   8
   0   9  12 153.706 7.11945   3
  -1  -9 -12 84.2081 4.48296   8
   1   9  12 84.5226 4.55734   1
   1   9  12 90.1835 4.56836   3
  -2  -9 -12 17.8541 2.30488   8
  -2  -9 -12 13.2221 1.82685   6
   2   9  12 18.5338 2.17183   1
  -3  -9 -12 327.370 13.7808   6
   3   9  12 315.085 14.1305   1
   0   0 -13 28.6004 2.35077   8
   0   0  13 31.3663 2.75956   9
   0   0  13 30.5427 2.49345   3
   0   0  13 35.3041 3.11521  10
   1  -1 -13 53.5661 3.44906   8
  -1   1  13 60.6013 3.54915   3
  -1   1  13 63.6545 3.69006   9
   0  -1 -13 215.282 9.82675   8
   0   1  13 219.090 10.1072  10
   0   1  13 212.393 10.0601   9
   0   1  13 223.074 9.79005   3
  -1  -1 -13 6.30839 1.35820   8
   1   1  13 4.56903 1.82680  10
   1   1  13 4.97123 1.63600   9
  -2  -1 -13 316.998 13.8536   8
  -2  -1 -13 316.840 13.5665   6
   2   1  13 318.782 14.0486   9
   1  -2 -13 260.750 11.6088   8
  -1   2  13 262.904 11.7834   9
  -1   2  13 264.631 11.7681   3
   0  -2 -13 42.6771 2.90496   8
   0   2  13 34.8453 3.60358  10
   0   2  13 39.0044 3.11460   9
   0   2  13 45.8582 3.03619   3
  -1  -2 -13 37.6121 2.70634   8
  -1  -2 -13 36.2755 2.84331   6
   1   2  13 35.1146 2.99216   9
   1   2  13 33.1896 3.35478  10
   1   2  13 32.1733 3.07182   3
  -2  -2 -13 51.1516 3.37028   8
  -3  -2 -13 914.450 38.4459   6
   1  -3 -13 248.143 10.9520   8
  -1   3  13 243.046 11.1866   9
   0  -3 -13 1288.18 53.5620   8
   0   3  13 1257.49 53.5488   3
   0   3  13 1251.48 53.6606   9
  -1  -3 -13 1333.18 55.3623   8
  -1  -3 -13 1302.00 54.9181   6
   1   3  13 1293.35 55.1722   3
   1   3  13 1304.67 55.5287   9
  -2  -3 -13 440.540 19.3606   8
  -2  -3 -13 448.639 18.9845   6
   2   3  13 445.191 19.5169   9
  -3  -3 -13 250.792 10.8891   6
   3   3  13 251.329 11.3682   9
   1  -4 -13 11.9882 1.69969   8
  -1   4  13 11.7905 3.13161   3
   0  -4 -13 1.79027 1.31660   8
   0   4  13 0.23685 1.82878   9
   0   4  13 -1.1567 1.23112   3
  -1  -4 -13 98.0847 4.66897   6
  -1  -4 -13 95.9841 5.09890   8
   1   4  13 96.6237 5.09304   3
   1   4  13 98.2793 5.40161   9
  -2  -4 -13 103.649 5.85955   8
  -2  -4 -13 103.571 4.88567   6
   2   4  13 98.4482 5.43495   9
  -3  -4 -13 790.966 33.2179   6
   3   4  13 783.073 33.6715   9
   1  -5 -13 676.866 29.1554   8
  -1   5  13 695.529 29.3445   3
   0  -5 -13 22.9351 2.29544   8
   0   5  13 18.3185 2.98328   9
   0   5  13 23.2020 2.46750   3
  -1  -5 -13 165.584 7.66275   8
  -1  -5 -13 150.081 7.27089   6
   1   5  13 160.130 7.84184   1
   1   5  13 168.181 7.59434   3
  -2  -5 -13 2.48595 1.01643   6
  -2  -5 -13 -1.2732 2.81243   8
   2   5  13 1.21783 1.53806   9
  -3  -5 -13 23.7506 1.95701   6
  -3  -5 -13 22.1408 4.17889   8
   3   5  13 17.4370 2.35976   9
   1  -6 -13 2.99039 2.41741   8
  -1   6  13 -0.1408 1.34336   3
   0  -6 -13 29.3020 2.98313   8
   0   6  13 31.7932 3.28741   3
  -1  -6 -13 93.5465 4.78037   8
  -1  -6 -13 89.5969 4.32346   6
   1   6  13 88.6825 4.90753   1
   1   6  13 97.0767 5.47727   9
   1   6  13 79.8232 4.72693   3
  -2  -6 -13 6.12884 1.64909   8
   2   6  13 7.50590 2.13575   1
   2   6  13 8.09855 1.83375   9
  -3  -6 -13 52.5445 2.92525   6
   3   6  13 54.1849 3.48173   9
   0  -7 -13 78.5808 4.30309   8
   0   7  13 85.3536 4.43567   3
   0   7  13 87.6316 4.45394   1
  -1  -7 -13 774.142 32.4564   8
   1   7  13 756.426 32.5002   1
   1   7  13 756.851 32.2317   3
  -2  -7 -13 515.663 21.9015   8
  -2  -7 -13 508.223 21.5548   6
   2   7  13 503.586 21.9296   1
   0   0   0    0.00    0.00   0

 _exptl_absorpt_process_details
)
 SADABS 2016/2: Krause, L., Herbst-Irmer, R., Sheldrick G.M. & Stalke D.,
 J. Appl. Cryst. 48 (2015) 3-10
)
 _exptl_absorpt_correction_type   multi-scan
 _exptl_absorpt_correction_T_max  0.7538
 _exptl_absorpt_correction_T_min  0.4581
 _exptl_special_details
)
 The following wavelength and cell were deduced by SADABS from the
 direction cosines etc. They are given here for emergency use only:
 CELL 1.54172    7.092   10.372   10.957   71.918   83.951   76.994
)
;
_shelx_hkl_checksum              5565
_olex2_submission_special_instructions 'No special instructions were received'
loop_
_space_group_symop_operation_xyz
'x, y, z'
'-x, -y, -z'
loop_
_atom_site_label
_atom_site_type_symbol
_atom_site_fract_x
_atom_site_fract_y
_atom_site_fract_z
_atom_site_U_iso_or_equiv
_atom_site_adp_type
_atom_site_occupancy
_atom_site_site_symmetry_order
_atom_site_calc_flag
_atom_site_refinement_flags_posn
_atom_site_refinement_flags_adp
_atom_site_refinement_flags_occupancy
Cu1 Cu 1.0000 0.0000 0.0000 0.01223(11) Uani 1 2 d S T P
Cl2 Cl 0.89347(6) -0.18782(4) -0.02738(3) 0.01517(11) Uani 1 1 d . . .
S3 S 1.32343(6) -0.13920(4) -0.21557(4) 0.01644(11) Uani 1 1 d . . .
S4 S 0.96400(6) 0.50869(4) -0.27197(4) 0.01691(11) Uani 1 1 d . . .
O2 O 1.25845(18) -0.02067(12) -0.15875(11) 0.0163(2) Uani 1 1 d . . .
O0AA O 0.52337(18) 0.37733(13) -0.56793(11) 0.0182(3) Uani 1 1 d . . .
C7 C 0.5052(2) 0.21215(17) -0.22260(15) 0.0144(3) Uani 1 1 d . . .
H7 H 0.3690 0.2211 -0.2076 0.017 Uiso 1 1 calc R . .
C8 C 0.7815(2) 0.26033(16) -0.36114(15) 0.0135(3) Uani 1 1 d . . .
H8 H 0.8375 0.3018 -0.4426 0.016 Uiso 1 1 calc R . .
O10 O 0.27572(19) 0.32175(16) -0.43154(11) 0.0259(3) Uani 1 1 d . . .
H10 H 0.2148 0.3470 -0.4996 0.039 Uiso 1 1 calc GR . .
C11 C 0.6309(2) 0.14198(16) -0.12378(15) 0.0139(3) Uani 1 1 d . . .
H11 H 0.5781 0.1018 -0.0408 0.017 Uiso 1 1 calc R . .
C13 C 0.5831(2) 0.26945(16) -0.34485(14) 0.0129(3) Uani 1 1 d . . .
C16 C 0.4581(2) 0.33068(17) -0.46000(15) 0.0146(3) Uani 1 1 d . . .
C20 C 0.8977(2) 0.18966(16) -0.25669(15) 0.0132(3) Uani 1 1 d . . .
H20 H 1.0337 0.1845 -0.2679 0.016 Uiso 1 1 calc R . .
N28 N 0.8240(2) 0.12821(14) -0.14006(12) 0.0124(3) Uani 1 1 d . . .
O1 O 0.91716(19) 0.64745(14) -0.37636(11) 0.0220(3) Uani 1 1 d . . .
C1AA C 1.1488(3) 0.52769(18) -0.18478(17) 0.0198(4) Uani 1 1 d . . .
H1AA H 1.2638 0.5415 -0.2415 0.030 Uiso 1 1 calc GR . .
H1AB H 1.1825 0.4440 -0.1122 0.030 Uiso 1 1 calc GR . .
H1AC H 1.1018 0.6080 -0.1527 0.030 Uiso 1 1 calc GR . .
C3 C 1.1717(3) -0.1028(2) -0.34774(17) 0.0232(4) Uani 1 1 d . . .
H3A H 1.0389 -0.1098 -0.3153 0.035 Uiso 1 1 calc GR . .
H3B H 1.2207 -0.1697 -0.3959 0.035 Uiso 1 1 calc GR . .
H3C H 1.1724 -0.0088 -0.4045 0.035 Uiso 1 1 calc GR . .
C4 C 0.7686(3) 0.5111(2) -0.15497(17) 0.0242(4) Uani 1 1 d . . .
H4A H 0.7545 0.5933 -0.1259 0.036 Uiso 1 1 calc GR . .
H4B H 0.7959 0.4275 -0.0815 0.036 Uiso 1 1 calc GR . .
H4C H 0.6482 0.5141 -0.1933 0.036 Uiso 1 1 calc GR . .
C5 C 1.5430(3) -0.1070(2) -0.30569(18) 0.0239(4) Uani 1 1 d . . .
H5A H 1.5186 -0.0140 -0.3673 0.036 Uiso 1 1 calc GR . .
H5B H 1.5883 -0.1759 -0.3522 0.036 Uiso 1 1 calc GR . .
H5C H 1.6424 -0.1136 -0.2469 0.036 Uiso 1 1 calc GR . .
loop_
_atom_site_aniso_label
_atom_site_aniso_U_11
_atom_site_aniso_U_22
_atom_site_aniso_U_33
_atom_site_aniso_U_23
_atom_site_aniso_U_13
_atom_site_aniso_U_12
Cu1 0.01558(19) 0.01047(17) 0.00886(17) 0.00018(12) -0.00369(13) -0.00189(13)
Cl2 0.0192(2) 0.01301(19) 0.01282(18) -0.00240(14) -0.00162(14) -0.00380(14)
S3 0.0208(2) 0.0138(2) 0.01345(19) -0.00351(15) -0.00112(15) -0.00172(15)
S4 0.0205(2) 0.0186(2) 0.01289(19) -0.00542(15) -0.00033(15) -0.00550(16)
O2 0.0207(6) 0.0160(6) 0.0117(5) -0.0045(4) 0.0004(4) -0.0025(5)
O0AA 0.0211(6) 0.0214(6) 0.0093(5) -0.0009(4) 0.0002(5) -0.0044(5)
C7 0.0170(8) 0.0145(7) 0.0109(7) -0.0028(6) 0.0006(6) -0.0033(6)
C8 0.0161(8) 0.0138(7) 0.0099(7) -0.0020(6) -0.0009(6) -0.0036(6)
O10 0.0157(6) 0.0463(8) 0.0095(5) 0.0010(5) -0.0034(5) -0.0059(6)
C11 0.0177(8) 0.0139(7) 0.0090(7) -0.0010(6) 0.0000(6) -0.0045(6)
C13 0.0169(8) 0.0108(7) 0.0097(7) -0.0015(6) -0.0023(6) -0.0016(6)
C16 0.0172(8) 0.0128(7) 0.0113(7) -0.0025(6) -0.0013(6) 0.0006(6)
C20 0.0123(8) 0.0139(7) 0.0124(7) -0.0019(6) -0.0017(6) -0.0027(6)
N28 0.0158(7) 0.0112(6) 0.0100(6) -0.0021(5) -0.0028(5) -0.0027(5)
O1 0.0210(6) 0.0297(7) 0.0118(6) 0.0017(5) -0.0046(5) -0.0074(5)
C1AA 0.0213(9) 0.0194(8) 0.0166(8) 0.0004(6) -0.0056(7) -0.0057(7)
C3 0.0255(10) 0.0281(10) 0.0195(8) -0.0120(7) -0.0034(7) -0.0041(8)
C4 0.0235(10) 0.0302(10) 0.0137(8) -0.0002(7) 0.0025(7) -0.0056(8)
C5 0.0242(10) 0.0253(9) 0.0227(9) -0.0111(7) 0.0043(7) -0.0027(7)
loop_
_atom_type_symbol
_atom_type_description
_atom_type_scat_dispersion_real
_atom_type_scat_dispersion_imag
_atom_type_scat_source
C C 0.0181 0.0091 'International Tables Vol C Tables 4.2.6.8 and 6.1.1.4'
H H 0.0000 0.0000 'International Tables Vol C Tables 4.2.6.8 and 6.1.1.4'
Cl Cl 0.3639 0.7018 'International Tables Vol C Tables 4.2.6.8 and 6.1.1.4'
Cu Cu -1.9646 0.5888 'International Tables Vol C Tables 4.2.6.8 and 6.1.1.4'
N N 0.0311 0.0180 'International Tables Vol C Tables 4.2.6.8 and 6.1.1.4'
O O 0.0492 0.0322 'International Tables Vol C Tables 4.2.6.8 and 6.1.1.4'
S S 0.3331 0.5567 'International Tables Vol C Tables 4.2.6.8 and 6.1.1.4'
loop_
_geom_angle_atom_site_label_1
_geom_angle_atom_site_label_2
_geom_angle_atom_site_label_3
_geom_angle
_geom_angle_site_symmetry_1
_geom_angle_site_symmetry_3
Cl2 Cu1 Cl2 180.0 . 2_755
Cl2 Cu1 O2 89.41(3) . 2_755
Cl2 Cu1 O2 90.59(3) 2_755 2_755
Cl2 Cu1 O2 89.41(3) 2_755 .
Cl2 Cu1 O2 90.59(3) . .
O2 Cu1 O2 180.0 . 2_755
N28 Cu1 Cl2 91.21(4) 2_755 .
N28 Cu1 Cl2 88.79(4) . .
N28 Cu1 Cl2 88.79(4) 2_755 2_755
N28 Cu1 Cl2 91.21(4) . 2_755
N28 Cu1 O2 89.68(5) . .
N28 Cu1 O2 89.68(5) 2_755 2_755
N28 Cu1 O2 90.32(5) . 2_755
N28 Cu1 O2 90.32(5) 2_755 .
N28 Cu1 N28 180.0 . 2_755
O2 S3 C3 106.40(8) . .
O2 S3 C5 104.71(8) . .
C3 S3 C5 98.19(9) . .
O1 S4 C1AA 104.21(8) . .
O1 S4 C4 105.65(8) . .
C1AA S4 C4 99.29(9) . .
S3 O2 Cu1 126.50(7) . .
C11 C7 H7 120.7 . .
C11 C7 C13 118.51(15) . .
C13 C7 H7 120.7 . .
C13 C8 H8 120.5 . .
C13 C8 C20 119.03(14) . .
C20 C8 H8 120.5 . .
C16 O10 H10 109.5 . .
C7 C11 H11 118.6 . .
N28 C11 C7 122.84(14) . .
N28 C11 H11 118.6 . .
C7 C13 C16 121.36(15) . .
C8 C13 C7 118.89(15) . .
C8 C13 C16 119.59(14) . .
O0AA C16 O10 124.50(16) . .
O0AA C16 C13 122.62(16) . .
O10 C16 C13 112.80(14) . .
C8 C20 H20 118.9 . .
N28 C20 C8 122.24(15) . .
N28 C20 H20 118.9 . .
C11 N28 Cu1 120.54(10) . .
C11 N28 C20 118.35(14) . .
C20 N28 Cu1 120.70(11) . .
S4 C1AA H1AA 109.5 . .
S4 C1AA H1AB 109.5 . .
S4 C1AA H1AC 109.5 . .
H1AA C1AA H1AB 109.5 . .
H1AA C1AA H1AC 109.5 . .
H1AB C1AA H1AC 109.5 . .
S3 C3 H3A 109.5 . .
S3 C3 H3B 109.5 . .
S3 C3 H3C 109.5 . .
H3A C3 H3B 109.5 . .
H3A C3 H3C 109.5 . .
H3B C3 H3C 109.5 . .
S4 C4 H4A 109.5 . .
S4 C4 H4B 109.5 . .
S4 C4 H4C 109.5 . .
H4A C4 H4B 109.5 . .
H4A C4 H4C 109.5 . .
H4B C4 H4C 109.5 . .
S3 C5 H5A 109.5 . .
S3 C5 H5B 109.5 . .
S3 C5 H5C 109.5 . .
H5A C5 H5B 109.5 . .
H5A C5 H5C 109.5 . .
H5B C5 H5C 109.5 . .
loop_
_geom_bond_atom_site_label_1
_geom_bond_atom_site_label_2
_geom_bond_distance
_geom_bond_site_symmetry_2
Cu1 Cl2 2.3514(4) .
Cu1 Cl2 2.3514(4) 2_755
Cu1 O2 2.4092(11) 2_755
Cu1 O2 2.4092(11) .
Cu1 N28 2.0155(13) 2_755
Cu1 N28 2.0155(13) .
S3 O2 1.5066(12) .
S3 C3 1.7886(19) .
S3 C5 1.7920(19) .
S4 O1 1.5263(13) .
S4 C1AA 1.7780(18) .
S4 C4 1.7857(18) .
O0AA C16 1.215(2) .
C7 H7 0.9500 .
C7 C11 1.384(2) .
C7 C13 1.396(2) .
C8 H8 0.9500 .
C8 C13 1.383(2) .
C8 C20 1.389(2) .
O10 H10 0.8400 .
O10 C16 1.314(2) .
C11 H11 0.9500 .
C11 N28 1.341(2) .
C13 C16 1.504(2) .
C20 H20 0.9500 .
C20 N28 1.347(2) .
C1AA H1AA 0.9800 .
C1AA H1AB 0.9800 .
C1AA H1AC 0.9800 .
C3 H3A 0.9800 .
C3 H3B 0.9800 .
C3 H3C 0.9800 .
C4 H4A 0.9800 .
C4 H4B 0.9800 .
C4 H4C 0.9800 .
C5 H5A 0.9800 .
C5 H5B 0.9800 .
C5 H5C 0.9800 .
loop_
_geom_torsion_atom_site_label_1
_geom_torsion_atom_site_label_2
_geom_torsion_atom_site_label_3
_geom_torsion_atom_site_label_4
_geom_torsion
C7 C11 N28 Cu1 -170.30(12)
C7 C11 N28 C20 2.4(2)
C7 C13 C16 O0AA -177.70(16)
C7 C13 C16 O10 -0.8(2)
C8 C13 C16 O0AA -2.5(2)
C8 C13 C16 O10 174.49(15)
C8 C20 N28 Cu1 169.46(12)
C8 C20 N28 C11 -3.2(2)
C11 C7 C13 C8 -3.4(2)
C11 C7 C13 C16 171.93(15)
C13 C7 C11 N28 0.9(2)
C13 C8 C20 N28 0.7(2)
C20 C8 C13 C7 2.6(2)
C20 C8 C13 C16 -172.78(14)
C3 S3 O2 Cu1 85.93(10)
C5 S3 O2 Cu1 -170.73(9)
