#------------------------------------------------------------------------------
#$Date: 2019-11-26 01:16:59 +0200 (Tue, 26 Nov 2019) $
#$Revision: 242250 $
#$URL: file:///home/coder/svn-repositories/cod/cif/4/13/22/4132254.cif $
#------------------------------------------------------------------------------
#
# This file is available in the Crystallography Open Database (COD),
# http://www.crystallography.net/
#
# All data on this site have been placed in the public domain by the
# contributors.
#
data_4132254
loop_
_publ_author_name
'Lu, Yanhui'
'Nakatsuji, Hidefumi'
'Okumura, Yukimasa'
'Yao, Lu'
'Ishihara, Kazuaki'
_publ_section_title
;
 Enantioselective Halo-oxy- and Halo-azacyclizations Induced by Chiral
 Amidophosphate Catalysts and Halo-Lewis Acids.
;
_journal_issue                   19
_journal_name_full               'Journal of the American Chemical Society'
_journal_page_first              6039
_journal_page_last               6043
_journal_paper_doi               10.1021/jacs.8b02607
_journal_volume                  140
_journal_year                    2018
_chemical_formula_moiety         'C18 H15 I3 P S'
_chemical_formula_sum            'C18 H15 I3 P S'
_chemical_formula_weight         675.06
_space_group_crystal_system      triclinic
_space_group_IT_number           2
_space_group_name_Hall           '-P 1'
_space_group_name_H-M_alt        'P -1'
_atom_sites_solution_hydrogens   geom
_atom_sites_solution_primary     direct
_atom_sites_solution_secondary   difmap
_cell_angle_alpha                84.477(11)
_cell_angle_beta                 74.428(8)
_cell_angle_gamma                81.055(10)
_cell_formula_units_Z            2
_cell_length_a                   8.8480(19)
_cell_length_b                   9.559(2)
_cell_length_c                   12.435(3)
_cell_measurement_reflns_used    3916
_cell_measurement_temperature    123
_cell_measurement_theta_max      27.50
_cell_measurement_theta_min      3.00
_cell_volume                     999.2(4)
_computing_cell_refinement       'CrystalClear-SM Expert 2.1 b29'
_computing_data_collection
'CrystalClear-SM Expert 2.1 b29 (Rigaku, 2013)'
_computing_data_reduction        'CrystalClear-SM Expert 2.1 b29'
_computing_molecular_graphics    'CrystalStructure 4.2.2'
_computing_publication_material  'CrystalStructure 4.2.2 (Rigaku, 2016)'
_computing_structure_refinement  'SHELXL Version 2016/4 (Sheldrick, 2008)'
_computing_structure_solution    'SHELXT Version 2014/5 (Sheldrick, 2014)'
_diffrn_ambient_temperature      123
_diffrn_detector_area_resol_mean 5.814
_diffrn_measured_fraction_theta_full 0.960
_diffrn_measured_fraction_theta_max 0.932
_diffrn_measurement_device_type  'Rigaku XtaLAB P200'
_diffrn_measurement_method       \w
_diffrn_radiation_type           'Mo K\a'
_diffrn_radiation_wavelength     0.71075
_diffrn_reflns_av_R_equivalents  0.2066
_diffrn_reflns_Laue_measured_fraction_full 0.960
_diffrn_reflns_Laue_measured_fraction_max 0.932
_diffrn_reflns_limit_h_max       11
_diffrn_reflns_limit_h_min       -11
_diffrn_reflns_limit_k_max       12
_diffrn_reflns_limit_k_min       -9
_diffrn_reflns_limit_l_max       16
_diffrn_reflns_limit_l_min       -11
_diffrn_reflns_number            8542
_diffrn_reflns_point_group_measured_fraction_full 0.960
_diffrn_reflns_point_group_measured_fraction_max 0.932
_diffrn_reflns_theta_full        25.242
_diffrn_reflns_theta_max         27.455
_diffrn_reflns_theta_min         3.013
_diffrn_standards_number         0
_exptl_absorpt_coefficient_mu    4.876
_exptl_absorpt_correction_T_max  0.377
_exptl_absorpt_correction_T_min  0.205
_exptl_absorpt_correction_type   multi-scan
_exptl_absorpt_process_details   'REQAB (Rigaku, 1998)'
_exptl_crystal_colour            red
_exptl_crystal_density_diffrn    2.244
_exptl_crystal_density_method    'not measured'
_exptl_crystal_description       prism
_exptl_crystal_F_000             626.00
_exptl_crystal_size_max          0.200
_exptl_crystal_size_mid          0.200
_exptl_crystal_size_min          0.200
_refine_diff_density_max         3.10
_refine_diff_density_min         -2.73
_refine_ls_extinction_method     none
_refine_ls_goodness_of_fit_ref   1.049
_refine_ls_hydrogen_treatment    constr
_refine_ls_number_parameters     208
_refine_ls_number_reflns         4267
_refine_ls_number_restraints     0
_refine_ls_R_factor_all          0.0698
_refine_ls_R_factor_gt           0.0673
_refine_ls_shift/su_max          0.000
_refine_ls_structure_factor_coef Fsqd
_refine_ls_weighting_details
'w = 1/[\s^2^(Fo^2^)+(0.1084P)^2^] where P=(Fo^2^+2Fc^2^)/3'
_refine_ls_weighting_scheme      calc
_refine_ls_wR_factor_gt          0.1826
_refine_ls_wR_factor_ref         0.1846
_reflns_Friedel_coverage         0.000
_reflns_number_gt                3808
_reflns_number_total             4267
_reflns_threshold_expression     F^2^>2.0\s(F^2^)
_cod_data_source_file            ja8b02607_si_007.cif
_cod_data_source_block           20180123-1
_cod_database_code               4132254
_shelx_res_file
;
TITL 20180123-1
 shelxl.res created by SHELXL-2016/4 at 18:49:32 on 23-Jan-2018
CELL  0.71075 8.84800 9.55900 12.43500 84.47700 74.42800 81.05500
ZERR  2 0.00190 0.00200 0.00300 0.01100 0.00800 0.01000
LATT 1
SFAC C H I P S
UNIT 36 30 6 2 2
L.S. 5
FMAP 2
PLAN 25
WPDB -2
HTAB
BOND $H
CONF
LIST 4
TEMP -150.0
ACTA
SIZE 0.200 0.200 0.200
WGHT    0.108400
FVAR       0.31477
I1    3    0.628954    0.553639    0.111670    11.00000    0.01949    0.01420 =
         0.01987    0.00016   -0.00726   -0.00563
I2    3    0.843173    0.498353   -0.099657    11.00000    0.02375    0.03040 =
         0.02205   -0.00409   -0.00171   -0.00440
I3    3    0.962024    0.141025   -0.028991    11.00000    0.03520    0.05297 =
         0.02310    0.00377   -0.00570   -0.02378
S4    5    0.412151    0.588866    0.310033    11.00000    0.02382    0.01825 =
         0.01989   -0.00229   -0.00335   -0.01062
P5    4    0.460706    0.757131    0.372953    11.00000    0.01380    0.01232 =
         0.01602    0.00150   -0.00446   -0.00621
C6    1    0.789100    0.710616    0.328057    11.00000    0.01803    0.02008 =
         0.02182   -0.00378   -0.00018   -0.00705
AFIX  43
H6    2    0.788307    0.714898    0.251563    11.00000   -1.20000
AFIX   0
C7    1    0.211415    0.919975    0.517084    11.00000    0.01881    0.01444 =
         0.02262   -0.00129   -0.00680   -0.00810
AFIX  43
H7    2    0.230049    0.997057    0.463199    11.00000   -1.20000
AFIX   0
C8    1    0.646901    0.729561    0.411406    11.00000    0.01190    0.00964 =
         0.02417    0.00218   -0.00572   -0.00343
C9    1    0.365179    0.928082    0.204051    11.00000    0.02202    0.02779 =
         0.02012    0.00083   -0.00861   -0.00914
AFIX  43
H9    2    0.299680    0.858339    0.203680    11.00000   -1.20000
AFIX   0
C10   1    0.304990    0.789891    0.498224    11.00000    0.01411    0.01786 =
         0.01827    0.00315   -0.00398   -0.00631
C11   1    0.157590    0.695193    0.675513    11.00000    0.02496    0.02648 =
         0.02044    0.00996   -0.00923   -0.01190
AFIX  43
H11   2    0.137678    0.618655    0.729750    11.00000   -1.20000
AFIX   0
C12   1    0.366304    1.046716    0.131586    11.00000    0.03110    0.01705 =
         0.03004    0.00618   -0.01835    0.00261
AFIX  43
H12   2    0.301486    1.058423    0.080730    11.00000   -1.20000
AFIX   0
C13   1    0.277398    0.674591    0.578924    11.00000    0.01782    0.01479 =
         0.02378    0.00650   -0.00693   -0.00609
AFIX  43
H13   2    0.340471    0.584782    0.566523    11.00000   -1.20000
AFIX   0
C14   1    0.461830    1.149895    0.132206    11.00000    0.03715    0.01090 =
         0.02725    0.00909   -0.00334   -0.00441
AFIX  43
H14   2    0.459567    1.232517    0.083349    11.00000   -1.20000
AFIX   0
C15   1    0.461482    0.911779    0.277936    11.00000    0.01888    0.01546 =
         0.01358    0.00193   -0.00046   -0.00450
C16   1    0.064888    0.827693    0.694588    11.00000    0.01730    0.04071 =
         0.01866   -0.00122   -0.00440   -0.01164
AFIX  43
H16   2   -0.015418    0.841955    0.762258    11.00000   -1.20000
AFIX   0
C17   1    0.931460    0.685485    0.358238    11.00000    0.01852    0.01934 =
         0.03722   -0.00861   -0.00438   -0.00196
AFIX  43
H17   2    1.028386    0.675386    0.301715    11.00000   -1.20000
AFIX   0
C18   1    0.649706    0.721234    0.523154    11.00000    0.01963    0.01816 =
         0.02158    0.00406   -0.00715   -0.00713
AFIX  43
H18   2    0.553176    0.732153    0.580010    11.00000   -1.20000
AFIX   0
C19   1    0.091711    0.937974    0.613449    11.00000    0.01790    0.01854 =
         0.02934   -0.00642   -0.00642   -0.00246
AFIX  43
H19   2    0.026503    1.026927    0.624715    11.00000   -1.20000
AFIX   0
C20   1    0.934132    0.675004    0.468835    11.00000    0.01854    0.01779 =
         0.04243    0.00163   -0.01296   -0.00712
AFIX  43
H20   2    1.032080    0.652777    0.488497    11.00000   -1.20000
AFIX   0
C21   1    0.558811    1.012497    0.277756    11.00000    0.02235    0.02220 =
         0.02128    0.00730   -0.01234   -0.00917
AFIX  43
H21   2    0.624853    1.000373    0.327804    11.00000   -1.20000
AFIX   0
C22   1    0.559049    1.131964    0.203424    11.00000    0.03632    0.01349 =
         0.02603    0.00555   -0.00785   -0.01294
AFIX  43
H22   2    0.626424    1.200724    0.202165    11.00000   -1.20000
AFIX   0
C23   1    0.793048    0.697030    0.551860    11.00000    0.02695    0.02633 =
         0.02694    0.00860   -0.01717   -0.01451
AFIX  43
H23   2    0.794870    0.695499    0.628006    11.00000   -1.20000
AFIX   0
HKLF 4




REM  20180123-1
REM R1 =  0.0673 for    3808 Fo > 4sig(Fo)  and  0.0698 for all    4267 data
REM    208 parameters refined using      0 restraints

END

WGHT      0.1084      0.0000

REM Instructions for potential hydrogen bonds
HTAB C6 I1
HTAB C9 S4

REM Highest difference peak  3.104,  deepest hole -2.727,  1-sigma level  0.402
Q1    1   0.5268  0.5882  0.1814  11.00000  0.05    3.10
Q2    1   0.6557  0.6391  0.1205  11.00000  0.05    3.07
Q3    1   0.7448  0.5400 -0.0409  11.00000  0.05    3.06
Q4    1   0.7402  0.5191  0.0399  11.00000  0.05    2.89
Q5    1   0.6017  0.4693  0.1044  11.00000  0.05    2.70
Q6    1   0.9413  0.4554 -0.1648  11.00000  0.05    2.63
Q7    1   0.8734  0.5879 -0.0955  11.00000  0.05    2.57
Q8    1   0.8116  0.4148 -0.1001  11.00000  0.05    2.42
Q9    1   1.0393  0.0955 -0.0789  11.00000  0.05    2.27
Q10   1   0.8472  0.1753  0.0354  11.00000  0.05    2.18
Q11   1   0.9885  0.2276 -0.0285  11.00000  0.05    2.15
Q12   1   0.9184  0.5408 -0.0033  11.00000  0.05    2.15
Q13   1   1.0931  0.0995 -0.1038  11.00000  0.05    2.03
Q14   1   0.7493  0.8792  0.1380  11.00000  0.05    1.88
Q15   1   0.5545  1.3492  0.0966  11.00000  0.05    1.84
Q16   1   0.9353  0.0609 -0.0302  11.00000  0.05    1.83
Q17   1   0.2322  0.7089  0.1229  11.00000  0.05    1.82
Q18   1   0.6976  0.7502  0.1316  11.00000  0.05    1.49
Q19   1   0.9152  0.6966 -0.0779  11.00000  0.05    1.43
Q20   1   0.5139  1.2403  0.0792  11.00000  0.05    1.41
Q21   1   1.0420  0.1945  0.0688  11.00000  0.05    1.40
Q22   1   0.1175  1.0574  0.0439  11.00000  0.05    1.28
Q23   1   0.2720  0.8159  0.1355  11.00000  0.05    1.22
Q24   1   0.3742  0.7802  0.4371  11.00000  0.05    1.18
Q25   1   0.4394  0.6799  0.3534  11.00000  0.05    1.17
;
_shelx_res_checksum              1275
_shelx_hkl_file
;
   0   0   2  888.33   22.84
   0   0  -2  950.42   23.95
   0   0  -2  536.08   16.57
   0   0   3   41.80    4.31
   0   0   3   59.79    5.62
   0   0  -3   36.37    4.07
   0   0   4  632.53   19.05
   0   0   4  896.60   25.25
   0   0  -4  498.52   15.77
   0   0   5 1249.99   27.18
   0   0   5 1789.81   34.12
   0   0  -5  925.04   22.20
   0   0   6   83.63    6.38
   0   0   6  124.16    7.41
   0   0  -6   60.32    5.16
   0   0   7    9.60    2.45
   0   0   7    8.28    2.27
   0   0  -7    3.15    1.74
   0   0   8  445.45   16.04
   0   0   8  640.04   19.47
   0   0   8  346.77   13.86
   0   0   9  707.85   31.30
   0   0   9 1006.82   40.16
   0   0   9  590.64   25.62
   0   0  10  805.04   35.44
   0   0  10 1113.38   44.60
   0   0  10  696.74   21.73
   0   0  11   23.04    3.66
   0   0  11   31.17    4.09
   0   0  11   18.98    3.39
   0   0  12  303.62   16.08
   0   0  12  203.03   10.99
   0   0  13  478.34   15.14
   0   0  13  325.94   12.49
   0   0  14  525.67   15.30
   0   0  15  430.43   15.44
   0  -1  15  123.32    7.79
   0  -1  12  370.84   15.89
   0  -1  11 1133.79   22.55
   0  -1  10 1334.43   36.39
   0  -1  10 1738.18   42.00
   0  -1   9 2096.01   67.46
   0  -1   9 2958.49   91.64
   0  -1   8  396.72   15.11
   0  -1   8  543.80   17.90
   0  -1   7    1.21    1.33
   0  -1   7    0.93    1.47
   0  -1   6  185.33    9.33
   0  -1   6  264.19   10.85
   0  -1   6  151.39    8.71
   0  -1   5 2130.21   39.76
   0  -1   5 3007.04   48.78
   0  -1   5 1946.00   36.25
   0  -1   4  816.15   22.41
   0  -1   4 1153.43   27.95
   0  -1   4  703.21   20.11
   0  -1   3   44.10    4.48
   0  -1   3   54.96    6.26
   0  -1   3   46.74    4.62
   0  -1   2   27.81    3.65
   0  -1   2   24.87    3.49
   0   1   2   14.94    2.87
   0   1   2    5.71    1.87
   0  -1  -2    8.86    2.16
   0   1   3 1728.80   36.53
   0   1   3 1025.92   25.55
   0  -1  -3 1850.95   37.77
   0  -1  -3 1064.39   25.76
   0   1   4 4174.72   72.53
   0   1   4 6347.27  103.48
   0   1   4 3324.75   60.04
   0  -1  -4 3439.97   61.69
   0   1   5 2627.75   44.89
   0   1   5 3914.24   59.47
   0   1   5 2134.87   37.97
   0  -1  -5 1988.69   36.14
   0   1   6 1802.58   40.02
   0   1   6 2689.33   54.40
   0   1   6 1448.21   34.59
   0  -1  -6 1271.65   30.38
   0   1   7   75.11    5.90
   0   1   7  115.52    7.12
   0   1   7   61.11    5.19
   0  -1  -7   50.51    5.19
   0   1   8    5.64    2.08
   0   1   8    5.62    4.10
   0   1   8    1.03    3.22
   0  -1  -8    1.76    3.77
   0   1   9  366.04   18.06
   0   1   9  542.02   23.92
   0   1   9  305.37   15.59
   0   1  10  420.88   17.58
   0   1  10  250.62   11.62
   0   1  11    3.09    2.20
   0   1  11    2.48    2.23
   0   1  12   61.81    5.29
   0   1  12   40.29    4.78
   0   1  13  155.08    8.34
   0   1  13  105.03    6.90
   0   1  14  581.36   18.17
   0   1  14  411.43   13.84
   0   1  15   74.95    5.93
   0  -2  14  317.73   12.18
   0  -2  13  199.68    9.92
   0  -2  12   58.76    5.37
   0  -2  11  191.18    9.84
   0  -2  11  143.59    8.08
   0  -2  10  503.58   20.31
   0  -2  10  372.09   16.30
   0  -2   9   83.90    6.47
   0  -2   9  102.80    6.89
   0  -2   9   76.59    5.92
   0  -2   8  170.07    9.19
   0  -2   8  213.30    9.73
   0  -2   8  145.02    8.15
   0   2  -7  331.27   13.34
   0  -2   7  552.18   19.09
   0  -2   7  475.53   16.51
   0  -2   7  680.06   21.02
   0   2  -6 2361.47   55.66
   0  -2   6 3826.81   85.26
   0  -2   6 3294.19   74.56
   0  -2   6 4757.91  102.96
   0   2  -5 3578.08   38.94
   0  -2   5 5924.75   55.56
   0  -2   5 4942.83   71.00
   0  -2   5 7220.58   99.99
   0   2  -4 1084.89   24.29
   0  -2   4 1814.84   36.55
   0  -2   4 1435.57   29.47
   0  -2   4 2040.10   48.93
   0   2  -3  472.11   15.31
   0  -2   3  585.29   17.82
   0   2  -2   13.67    3.22
   0   2  -2   10.58    2.34
   0  -2   2   12.82    2.46
   0   2  -1 6545.31  105.69
   0  -2   1 6349.92  103.08
   0   2   0  752.34   20.59
   0  -2   0  704.04   20.07
   0  -2  -1  869.61   22.42
   0   2   2   66.93    5.54
   0  -2  -2   83.89    6.13
   0  -2  -2   70.18    5.57
   0   2   3  445.85   15.31
   0  -2  -3  492.27   16.02
   0   2   4  708.54   20.36
   0   2   4 1070.40   26.16
   0   2   4  580.38   17.77
   0  -2  -4  656.55   18.89
   0   2   5  234.12   10.58
   0   2   5  339.54   12.80
   0   2   5  176.51    9.22
   0  -2  -5  184.48    9.12
   0   2   6   14.93    2.79
   0   2   6   29.69    3.72
   0   2   6   11.44    2.54
   0  -2  -6   14.20    2.67
   0   2   7  655.59   20.96
   0   2   7  958.22   26.13
   0   2   7  488.48   16.92
   0  -2  -7  442.47   15.86
   0   2   8 1270.00   31.24
   0   2   8 1834.97   40.39
   0   2   8  990.32   26.31
   0  -2  -8  825.33   22.81
   0   2   9 2370.55   75.03
   0   2   9 1285.96   43.85
   0   2  10 1314.84   34.21
   0   2  10  727.76   22.39
   0   2  11  158.89    8.98
   0   2  11   93.23    6.82
   0   2  12   76.80    6.13
   0   2  12   47.76    4.81
   0   2  13   70.04    5.79
   0   2  13   41.82    4.84
   0   2  14   93.63    6.95
   0   2  14   60.89    5.54
   0   2  15    3.34    3.22
   0  -3  14  272.54   11.21
   0  -3  13   32.45    4.26
   0  -3  12   19.01    3.48
   0  -3  11  389.18   13.01
   0  -3  10 1184.28   23.53
   0  -3   9  260.44   15.85
   0  -3   9  282.98   15.30
   0  -3   9  223.01   12.83
   0  -3   8  193.10   10.55
   0  -3   8  213.89    9.98
   0  -3   8  159.72    8.53
   0   3  -7    9.95    2.64
   0  -3   7    1.58    2.37
   0  -3   7    3.82    1.90
   0  -3   7    1.33    2.45
   0   3  -6  556.91   18.31
   0  -3   6  856.52   24.43
   0   3  -5  103.68    6.81
   0  -3   5  149.32    8.16
   0   3  -4   37.44    4.01
   0  -3   4   56.75    5.27
   0   3  -3  112.25    6.96
   0  -3   3  135.25    7.83
   0   3  -2 3407.50   62.18
   0   3  -2 4913.80   84.17
   0   3  -2 3488.67   62.20
   0  -3   2 3727.79   66.92
   0   3  -1 8366.34  109.08
   0   3  -1 8361.50  107.48
   0  -3   1 7300.13   98.01
   0   3   0 2225.77   44.75
   0   3   1 1770.23   37.39
   0   3   2   11.51    2.40
   0   3   2   11.29    2.31
   0  -3  -2   12.04    2.41
   0   3   3  128.13    8.08
   0  -3  -3  124.26    7.81
   0   3   4  714.73   19.68
   0  -3  -4  792.10   20.59
   0   3   5  534.84   17.90
   0   3   5  799.99   22.45
   0   3   5  403.84   14.94
   0  -3  -5  460.75   15.88
   0   3   6   17.21    2.91
   0   3   6   30.13    3.78
   0   3   6   16.55    2.89
   0  -3  -6   13.83    2.54
   0   3   7    5.87    1.88
   0   3   7    9.31    2.41
   0   3   7    4.64    2.00
   0  -3  -7    4.48    1.97
   0   3   8  423.01   19.97
   0   3   8  221.79   12.71
   0  -3  -8  194.40   11.23
   0   3   9  571.23   25.46
   0   3   9  302.00   15.83
   0   3  10    1.59    2.09
   0   3  10    0.73    2.19
   0   3  11  117.28    7.24
   0   3  11   68.19    5.58
   0   3  12  391.31   16.22
   0   3  12  218.51   11.79
   0   3  13  649.08   17.02
   0   3  13  408.69   13.68
   0   3  14  370.88   13.37
   0   3  14  244.44   10.75
   0   3  15  197.77   10.55
   0   3  15  134.94    9.07
   0  -4  14    1.29    3.04
   0  -4  13   66.45    5.56
   0  -4  12  237.27   10.67
   0  -4  11 1087.03   34.02
   0  -4  10  754.61   18.44
   0  -4   9  212.51   11.53
   0  -4   8   65.05    5.61
   0  -4   7  502.76   25.79
   0   4  -6 1063.26   28.02
   0  -4   6 1650.93   37.34
   0   4  -5  689.24   20.50
   0  -4   5  996.94   27.06
   0   4  -4  581.88   19.29
   0  -4   4  776.64   24.28
   0   4  -3   98.64    8.72
   0   4  -3  108.75    8.77
   0   4  -3   72.03    5.64
   0  -4   3   84.90    6.24
   0   4  -2  316.01   13.29
   0   4  -2  471.25   15.36
   0   4  -2  344.65   13.05
   0  -4   2  336.93   13.05
   0   4  -1  160.39    8.90
   0   4  -1  273.69   11.69
   0   4  -1  246.03   10.76
   0  -4   1  188.56    9.58
   0   4   0   90.48    6.75
   0   4   0  163.62    8.64
   0   4   0  169.93    9.03
   0  -4   0  106.22    7.25
   0   4   1  463.41   15.50
   0   4   1  425.44   15.27
   0   4   1  395.73   14.06
   0   4   2  498.14   15.81
   0  -4  -2  502.87   17.03
   0   4   3 1438.31   30.04
   0   4   4 1761.87   39.34
   0  -4  -4 1942.45   43.17
   0   4   5  436.43   16.99
   0  -4  -5  497.60   18.38
   0   4   6   91.02    6.56
   0   4   6  128.69    7.52
   0   4   6   63.18    5.94
   0  -4  -6   68.06    5.93
   0   4   7   13.97    2.73
   0   4   7    7.48    2.36
   0  -4  -7    3.36    1.82
   0   4   8  395.78   17.87
   0   4   8  188.15   10.80
   0  -4  -8  175.10   10.32
   0   4   9   92.71    6.68
   0   4   9   45.95    4.73
   0   4  10    3.16    2.33
   0   4  10    2.53    2.17
   0   4  11    2.55    2.40
   0   4  11    0.68    2.13
   0   4  12   14.56    3.21
   0   4  12    7.69    2.70
   0   4  13   72.71    5.97
   0   4  13   43.20    5.31
   0   4  14   23.63    4.31
   0   4  14   16.87    3.69
   0  -5  13   97.86    7.38
   0  -5  12   35.85    4.70
   0  -5  11  170.24    8.79
   0  -5  10   25.98    3.94
   0  -5   9   15.67    3.16
   0  -5   8  309.43   14.50
   0  -5   7 1421.16   55.22
   0   5  -6  829.95   34.28
   0  -5   6 1320.69   50.83
   0   5  -5  637.80   19.07
   0  -5   5  930.83   25.22
   0   5  -4  112.27    7.41
   0  -5   4  143.77    8.24
   0   5  -3   28.36    4.33
   0   5  -3   36.60    4.41
   0   5  -3   21.69    3.16
   0  -5   3   22.85    3.33
   0   5  -2  678.14   23.57
   0   5  -2 1023.16   29.06
   0   5  -2  729.50   22.59
   0  -5   2  636.21   21.70
   0   5  -1 1022.64   27.78
   0   5  -1 1698.49   38.30
   0   5  -1 1474.92   34.19
   0  -5   1  981.86   28.09
   0   5   0  519.52   18.93
   0   5   0  902.52   26.20
   0   5   0  891.02   24.60
   0   5   1   19.34    3.39
   0   5   1   37.49    4.31
   0   5   1   33.61    3.90
   0   5   1   28.45    3.62
   0   5   2   15.56    2.95
   0   5   2   22.81    3.44
   0   5   2   17.85    2.99
   0   5   2   18.37    2.90
   0   5   3  142.76    8.53
   0   5   3  225.99   10.70
   0   5   3  183.86    9.96
   0  -5  -3  215.47   11.18
   0   5   4   42.53    4.70
   0   5   4   62.05    5.35
   0   5   4   45.41    4.63
   0  -5  -4   48.56    4.94
   0   5   5  136.54    8.41
   0   5   5  177.50    9.50
   0   5   5  119.25    8.29
   0  -5  -5  139.36    8.42
   0   5   6   66.14    5.72
   0  -5  -6   78.56    5.94
   0   5   7  647.64   25.00
   0   5   7  295.75   14.46
   0  -5  -7  335.80   15.59
   0   5   8  782.91   33.18
   0   5   8  356.17   18.02
   0  -5  -8  360.42   17.95
   0   5   9  795.27   27.95
   0   5   9  401.01   17.63
   0   5  10   64.06    5.77
   0   5  10   33.04    4.27
   0   5  11   29.06    4.10
   0   5  11   18.26    3.57
   0   5  12    0.62    2.52
   0   5  12    4.08    3.21
   0   5  13    4.43    3.09
   0   5  13    3.00    3.27
   0   5  14   12.48    3.58
   0   5  14    6.36    3.53
   0  -6  13   10.03    3.24
   0  -6  12  302.73   12.24
   0  -6  11  319.13   13.04
   0  -6  10  208.49    9.96
   0  -6   9  193.35   10.99
   0  -6   8    0.76    2.14
   0  -6   7   65.66    5.67
   0  -6   6  118.06    8.53
   0   6  -5    2.54    2.01
   0  -6   5    2.44    1.82
   0   6  -4  479.72   25.48
   0   6  -4  478.48   24.26
   0   6  -4  322.34   16.68
   0  -6   4  381.19   18.72
   0   6  -3  628.66   21.80
   0   6  -3  759.97   22.25
   0   6  -3  485.18   16.78
   0  -6   3  485.93   17.75
   0   6  -2 1390.31   35.76
   0   6  -2 1960.02   42.34
   0   6  -2 1377.67   32.58
   0  -6   2 1133.00   30.23
   0   6  -1 1018.95   28.33
   0   6  -1 1625.35   36.86
   0   6  -1 1306.38   31.43
   0  -6   1  820.25   25.36
   0   6   0   67.45    5.94
   0   6   0  111.40    7.37
   0   6   0  104.39    6.84
   0   6   0   73.50    6.03
   0   6   1   25.42    3.49
   0   6   1   46.97    4.69
   0   6   1   43.70    4.53
   0   6   1   30.48    3.86
   0   6   2   42.97    4.82
   0   6   2   78.29    6.15
   0   6   2   62.38    5.76
   0   6   2   54.69    5.39
   0   6   3  234.25   11.06
   0   6   3  404.58   15.39
   0   6   3  296.76   12.94
   0   6   3  309.25   12.84
   0   6   4  153.64    8.83
   0   6   4  111.63    7.64
   0  -6  -4  132.33    8.21
   0   6   5   38.75    4.52
   0   6   5   27.13    3.59
   0  -6  -5   28.01    3.54
   0   6   6    5.82    2.09
   0   6   6    3.00    1.94
   0  -6  -6    3.62    2.01
   0   6   7   31.81    3.99
   0  -6  -7   36.97    4.63
   0   6   8    9.06    2.62
   0  -6  -8    7.96    2.38
   0   6   9    0.86    2.20
   0   6   9    1.88    2.26
   0   6  10  171.30    8.88
   0   6  10   89.97    6.44
   0   6  11   86.60    6.50
   0   6  11   49.23    4.85
   0   6  12   71.56    6.41
   0   6  12   39.74    4.66
   0   6  13  183.58    9.11
   0   6  13  112.99    7.31
   0  -7  12  208.01   10.03
   0  -7  11  208.94    9.94
   0  -7  10   58.88    5.43
   0  -7   9   12.37    3.08
   0  -7   8  103.51    7.15
   0  -7   7  446.00   14.56
   0  -7   6  400.14   14.01
   0   7  -5   30.04    4.10
   0  -7   5   37.22    4.25
   0   7  -4   62.96    6.51
   0   7  -4   62.32    5.55
   0   7  -4   41.89    4.34
   0  -7   4   46.97    4.76
   0   7  -3   11.54    2.73
   0   7  -3   11.69    2.87
   0   7  -3    8.63    2.83
   0  -7   3    8.02    2.43
   0   7  -2  259.73   14.03
   0   7  -2  369.69   17.32
   0   7  -2  241.54   12.88
   0  -7   2  187.32   11.25
   0   7  -1   82.39    6.81
   0   7  -1  114.81    7.30
   0   7  -1   93.24    6.71
   0  -7   1   53.24    5.50
   0   7   0  150.35    9.23
   0   7   0  244.51   10.59
   0   7   0  213.08   10.05
   0   7   0  143.46    8.18
   0   7   1   45.84    5.15
   0   7   1   74.27    5.95
   0   7   1   69.76    5.75
   0   7   1   44.75    4.69
   0   7   2  348.20   18.16
   0   7   2  617.06   27.23
   0   7   2  541.72   24.39
   0   7   2  397.92   19.23
   0   7   3  397.57   19.80
   0   7   3  319.70   15.48
   0   7   3  282.21   14.14
   0   7   4   58.52    6.07
   0   7   4   42.96    4.71
   0   7   4   40.85    5.18
   0   7   5   18.99    3.36
   0   7   5   11.99    2.80
   0  -7  -5   13.38    2.91
   0   7   6    5.44    2.44
   0   7   6    3.94    2.09
   0  -7  -6    3.97    2.16
   0   7   7   12.71    3.20
   0   7   7    8.89    2.79
   0   7   8   95.51    6.76
   0   7   9   22.80    3.82
   0   7  10    2.00    2.55
   0   7  10    1.67    2.55
   0   7  11   62.28    5.51
   0   7  11   34.53    4.40
   0   7  12    3.68    3.28
   0   7  12    3.43    2.50
   0   7  13    2.09    3.41
   0  -8  11   51.43    5.30
   0  -8  10   38.21    5.38
   0  -8   9   42.78    4.67
   0  -8   8  108.90    7.53
   0  -8   7  343.22   12.59
   0  -8   6  115.66    7.71
   0  -8   5    7.18    2.65
   0   8  -4    1.34    2.48
   0  -8   4    1.11    1.58
   0   8  -3  300.53   14.37
   0   8  -3  173.95   10.16
   0  -8   3  161.99    9.87
   0   8  -2  231.36   12.92
   0   8  -2  300.55   14.12
   0   8  -2  189.83   11.29
   0  -8   2  141.29    9.46
   0   8  -1  133.23    8.52
   0   8  -1  183.81    9.23
   0   8  -1  133.44    8.46
   0   8  -1  103.58    7.24
   0   8   0    5.41    2.28
   0   8   0    6.26    2.55
   0   8   0    5.83    2.33
   0   8   0    3.13    1.98
   0   8   1    8.69    2.55
   0   8   1   12.80    2.97
   0   8   1   13.03    2.90
   0   8   1    6.92    2.29
   0   8   2    6.89    2.48
   0   8   2    4.96    2.29
   0   8   2    4.46    2.03
   0   8   3   31.44    4.14
   0   8   3   27.33    3.93
   0   8   3   19.90    3.35
   0   8   4   76.89    6.25
   0   8   4   56.98    5.45
   0   8   5  162.68    9.53
   0   8   5  103.29    7.43
   0   8   6   40.48    4.53
   0   8   6   21.12    3.49
   0   8   7   68.38    5.72
   0   8   7   32.43    4.11
   0   8   8   68.62    5.72
   0   8   8   38.12    4.53
   0   8   9   18.91    3.50
   0   8  11   28.76    4.60
   0   8  12    2.37    2.65
   0  -9   9   24.65    4.09
   0  -9   8   16.06    3.52
   0  -9   7    3.77    2.55
   0  -9   6   62.50    5.58
   0  -9   5   29.13    4.03
   0  -9   4   28.75    3.91
   0  -9   3  182.60   10.85
   0   9  -2    4.31    2.58
   0  -9   2    2.31    2.02
   0   9  -1    2.70    2.35
   0   9  -1    0.16    1.74
   0   9   0    3.79    2.31
   0   9   0    1.71    2.01
   0   9   1    0.96    2.14
   0   9   1    0.32    1.96
   0   9   2    1.95    2.46
   0   9   2    0.68    1.78
   0   9   3   49.35    4.87
   0   9   4    6.89    2.92
   0   9   5    9.63    3.16
   0   9   6   79.70    5.99
   0   9   7    9.19    3.35
   0   9   8  134.73    7.90
   0   9   9  111.42    7.81
   0   9  10    1.64    3.15
   0  10  -1  151.63    8.68
   0  10   0   65.02    5.73
   0  10   1   44.68    4.69
   0  10   2   30.23    4.13
   0  10   3   35.33    4.78
   0  10   4  118.25    7.42
   0  10   5   57.96    5.49
   0  10   6    2.98    2.91
   0  10   7    0.62    2.79
   0  10   8  139.38    8.41
   0  10   9   15.04    3.94
   0  11   1   51.69    5.22
   0  11   2   41.21    4.85
   0  11   3  169.47    9.73
   0  11   4   16.17    3.74
   0  11   5    1.86    3.10
   0  11   6   -0.05    2.57
   0  11   7   52.57    5.72
   0  12   3  105.13    7.34
  -1  11   6  269.96   12.12
  -1  11   5  108.07    7.31
  -1  11   4    6.61    2.95
  -1  11   3    1.03    3.38
  -1  11   2  373.10   12.83
  -1  11   1  406.03   13.56
  -1  10   8   30.02    4.45
  -1  10   7  249.08   11.26
  -1  10   6  360.61   13.48
  -1  10   5   96.12    6.85
  -1  10   4  225.47   10.34
  -1  10   3    1.18    2.39
  -1  10   2  230.84   10.26
  -1  10   1  365.28   13.49
  -1  10   0  134.40    7.65
  -1  10  -1    1.45    2.65
  -1   9  10   33.79    4.69
  -1   9   9   42.35    5.02
  -1   9   8   83.87    6.38
  -1   9   7  656.07   17.72
  -1   9   6  538.01   16.44
  -1   9   5  286.61   12.03
  -1   9   4  129.71    7.89
  -1   9   4   82.49    6.37
  -1   9   3  253.10   12.25
  -1   9   3  169.01    9.95
  -1   9   2  386.68   13.29
  -1   9   2  255.36   11.06
  -1   9   1  519.38   15.21
  -1   9   1  329.61   13.15
  -1   9   0  245.71   10.99
  -1   9   0  148.28    8.74
  -1   9  -1   44.74    4.70
  -1   9  -1   23.92    3.46
  -1   9  -2  138.51    8.34
  -1   9  -2   76.67    6.12
   1  -9   3  232.59   12.41
   1  -9   4   99.86    6.96
   1  -9   5    1.85    2.01
   1  -9   6    9.45    2.76
   1  -9   7  310.61   12.31
   1  -9   8  488.43   15.43
   1  -9   9   76.74    6.11
  -1   8  11  379.93   13.40
  -1   8   9  116.50    7.66
  -1   8   8   44.57    4.65
  -1   8   8   19.31    3.57
  -1   8   7  329.63   14.68
  -1   8   7  149.25    9.81
  -1   8   6  261.85   11.32
  -1   8   6  125.70    8.15
  -1   8   5  156.69    9.15
  -1   8   5   86.01    6.31
  -1   8   4   81.33    6.30
  -1   8   4   52.03    5.30
  -1   8   3  347.37   16.01
  -1   8   3  278.47   13.99
  -1   8   3  245.40   12.61
  -1   8   2 1212.99   39.40
  -1   8   2 1091.20   36.25
  -1   8   2  857.38   29.76
  -1   8   1 1083.47   35.53
  -1   8   1 1084.52   35.58
  -1   8   1  772.00   27.05
  -1   8   0  169.84   10.28
  -1   8   0  175.92    9.42
  -1   8   0  173.72    9.09
  -1   8   0  113.70    7.52
  -1   8  -1    0.44    1.91
  -1   8  -1    0.44    2.04
  -1   8  -1    0.29    1.96
  -1   8  -1    0.12    1.55
   1  -8   2  129.73    8.74
  -1   8  -2  270.96   13.44
  -1   8  -2  244.61   14.06
  -1   8  -2  222.45   11.55
   1  -8   3  791.37   20.10
  -1   8  -3 1661.29   27.60
  -1   8  -3 1204.52   23.79
   1  -8   4  163.08    9.11
  -1   8  -4  315.59   12.41
   1  -8   5   57.70    5.56
   1  -8   6    2.36    2.44
   1  -8   7  265.40   12.49
   1  -8   8  125.17    7.80
   1  -8   9    1.33    3.16
   1  -8  10    2.10    2.58
   1  -8  11  243.57   11.89
  -1   7  12  578.42   16.46
  -1   7  12  304.44   12.59
  -1   7  11  241.05   10.97
  -1   7  11  114.82    7.14
  -1   7  10  531.60   16.01
  -1   7  10  229.87   10.53
  -1   7   9    9.69    3.42
  -1   7   8  196.72   10.69
  -1   7   7  779.35   19.56
  -1   7   7  356.52   12.73
   1  -7  -6  615.82   22.94
  -1   7   6  517.45   20.63
  -1   7   6 1018.70   34.16
   1  -7  -5  252.52   11.90
  -1   7   5  216.80   10.88
  -1   7   5  376.42   14.87
  -1   7   4   28.54    3.99
  -1   7   4    7.32    2.17
  -1   7   4    8.24    2.37
  -1   7   3   80.89    6.06
  -1   7   3   57.49    5.45
  -1   7   3   56.86    5.25
  -1   7   2  647.31   25.62
  -1   7   2  571.93   22.99
  -1   7   2  499.63   21.16
  -1   7   1   74.87    6.20
  -1   7   1   73.78    5.88
  -1   7   1   76.71    6.15
  -1   7   1   60.01    5.25
  -1   7   0    4.09    2.11
  -1   7   0    3.53    2.09
  -1   7   0    3.61    1.99
  -1   7   0    2.28    1.73
  -1   7  -1  306.24   15.44
  -1   7  -1  311.85   14.81
  -1   7  -1  309.43   14.79
  -1   7  -1  211.83   11.83
   1  -7   2 1076.65   38.82
  -1   7  -2 2028.39   65.51
  -1   7  -2 1944.43   64.34
  -1   7  -2 1864.56   60.27
   1  -7   3  729.30   31.83
  -1   7  -3 1359.01   53.25
  -1   7  -3 1217.61   50.62
  -1   7  -3 1097.87   44.35
   1  -7   4  375.32   15.14
  -1   7  -4  687.98   22.38
  -1   7  -4  561.61   20.02
  -1   7  -4  477.58   17.27
   1  -7   5   56.71    5.35
   1  -7   6   32.32    4.05
   1  -7   7  390.75   14.05
   1  -7   8  196.90   10.80
   1  -7   9  155.74    9.10
   1  -7  10    1.95    2.79
   1  -7  11   37.58    4.45
   1  -7  12   34.84    4.52
  -1   6  13  142.34    8.38
  -1   6  13   82.38    6.36
  -1   6  12  160.52    8.76
  -1   6  12   82.12    6.26
  -1   6  11  164.08    8.65
  -1   6  11   80.70    6.18
  -1   6  10   55.50    5.24
  -1   6  10   25.07    3.82
  -1   6   9   94.25    6.56
  -1   6   9   40.47    4.75
  -1   6   8  682.83   17.41
  -1   6   8  317.37   12.22
  -1   6   7  680.37   24.47
   1  -6  -6  481.01   22.83
  -1   6   6  426.57   21.03
  -1   6   6  787.66   33.50
   1  -6  -5   41.05    4.41
  -1   6   5   37.29    4.99
  -1   6   5   63.76    5.40
   1  -6  -4   28.70    3.65
  -1   6   4   26.34    3.65
  -1   6   4   41.96    4.43
  -1   6   3 1473.62   34.36
  -1   6   3  957.14   25.73
  -1   6   3 1081.51   28.66
  -1   6   2 1065.52   28.86
  -1   6   2 1195.34   29.71
  -1   6   2 1016.45   26.62
  -1   6   2 1001.11   26.59
  -1   6   1  403.43   15.98
  -1   6   1  352.14   14.05
  -1   6   1  384.76   15.13
  -1   6   1  334.44   14.13
  -1   6   0  401.73   16.33
  -1   6   0  331.75   13.64
  -1   6   0  408.78   15.21
  -1   6   0  318.88   13.04
   1  -6   1    2.30    1.53
  -1   6  -1    2.26    1.80
  -1   6  -1    3.86    1.86
  -1   6  -1    3.51    2.09
   1  -6   2  449.12   16.57
  -1   6  -2  681.34   21.13
  -1   6  -2  753.96   23.00
  -1   6  -2  726.06   21.04
   1  -6   3   46.92    4.66
  -1   6  -3   71.27    5.72
  -1   6  -3   69.15    5.79
  -1   6  -3   62.55    5.59
   1  -6   4   11.38    2.52
  -1   6  -4   17.46    3.16
  -1   6  -4   15.02    2.99
  -1   6  -4   13.40    2.93
   1  -6   5  122.42    7.90
  -1   6  -5  127.01    7.86
   1  -6   6  840.99   35.30
   1  -6   7  925.03   31.35
   1  -6   8  365.58   13.39
   1  -6   9   75.89    6.48
   1  -6  10    0.84    2.30
   1  -6  11   14.89    3.37
   1  -6  12  176.02    9.46
   1  -6  13   20.46    4.01
  -1   5  14   61.84    6.06
  -1   5  14   35.72    4.59
  -1   5  13  393.19   14.35
  -1   5  13  219.82    9.89
  -1   5  12  937.01   20.87
  -1   5  12  485.50   15.05
  -1   5  11 1151.19   23.79
  -1   5  11  565.64   16.63
  -1   5  10  178.12    9.14
  -1   5  10   80.69    7.10
  -1   5   9   20.98    3.44
  -1   5   9   10.06    2.88
  -1   5   8  183.30    8.96
  -1   5   8   79.89    6.08
   1  -5  -7  400.58   19.05
  -1   5   7  362.67   18.87
  -1   5   7  757.68   32.21
   1  -5  -6    2.54    1.89
  -1   5   6    1.15    1.70
   1  -5  -5    2.13    1.55
  -1   5   5    3.31    1.68
   1  -5  -4  289.12   12.28
  -1   5   4  271.80   12.50
  -1   5   4  401.41   15.20
   1  -5  -3 1858.56   42.21
  -1   5   3 2095.74   47.32
  -1   5   2  945.23   27.65
  -1   5   2 1046.02   30.27
  -1   5   2  869.80   26.19
  -1   5   2  937.83   29.65
  -1   5   1  346.06   15.21
  -1   5   1  268.75   12.54
  -1   5   1  295.59   13.86
  -1   5   1  259.54   12.71
  -1   5   0   47.52    4.81
  -1   5   0   30.68    3.83
  -1   5   0   44.26    4.39
  -1   5   0   37.22    4.55
   1  -5   1  740.30   23.69
  -1   5  -1 1182.53   32.51
   1  -5   2  939.97   29.37
  -1   5  -2 1475.92   38.82
  -1   5  -2 1410.99   37.01
   1  -5   3  729.31   22.70
  -1   5  -3  870.63   25.83
  -1   5  -3 1019.53   28.73
  -1   5  -3  969.63   26.43
   1  -5   4  205.82   10.84
  -1   5  -4  300.38   12.93
  -1   5  -4  253.22   12.47
  -1   5  -4  238.12   10.88
   1  -5   5   79.71    6.06
  -1   5  -5   80.77    6.05
   1  -5   6   24.24    3.69
   1  -5   7   53.88    5.21
   1  -5   8    2.45    2.29
   1  -5   9  208.63   10.11
   1  -5  10  102.74    7.66
   1  -5  11  412.33   14.42
   1  -5  12  353.88   13.47
   1  -5  13    0.33    2.69
  -1   4  14  103.93    7.12
  -1   4  14   59.77    5.55
  -1   4  13  381.25   13.38
  -1   4  13  219.19    9.97
  -1   4  12  520.51   15.40
  -1   4  12  279.98   11.54
  -1   4  11  157.88    8.61
  -1   4  11   82.43    6.11
  -1   4  10    3.86    2.23
  -1   4  10    5.63    2.53
  -1   4   9  155.89    8.63
  -1   4   9   74.68    5.81
  -1   4   8 2458.53   91.39
  -1   4   8 1088.55   43.90
   1  -4  -7  606.93   26.26
  -1   4   7  575.22   25.34
  -1   4   7 1173.11   45.83
   1  -4  -6  555.86   18.01
  -1   4   6  521.80   17.65
  -1   4   6  934.64   25.15
   1  -4  -5  364.99   14.30
  -1   4   5  344.00   14.04
   1  -4  -4   52.56    4.85
  -1   4   4   51.97    5.08
   1  -4  -3  180.48    8.90
  -1   4   3  140.90    8.46
  -1   4   3  153.35    9.07
  -1   4   3  203.78    9.93
   1  -4  -2    8.37    2.16
  -1   4   2    8.80    2.24
  -1   4   2    7.68    2.00
  -1   4   2    9.59    2.44
  -1   4   1    2.48    1.61
  -1   4   1    4.33    1.90
  -1   4   1    1.88    1.31
  -1   4   1    2.45    1.42
  -1   4   0  483.98   17.18
  -1   4   0  366.83   14.64
  -1   4   0  401.72   14.54
  -1   4   0  381.95   14.17
   1  -4   1  854.03   22.61
  -1   4  -1 1386.57   29.82
  -1   4  -1 1270.50   27.43
   1  -4   2 1281.18   29.77
  -1   4  -2 1924.50   36.93
  -1   4  -2 1782.84   38.57
   1  -4   3 1008.98   27.07
  -1   4  -3 1307.40   32.33
  -1   4  -3 1241.56   29.41
   1  -4   4   40.52    4.35
  -1   4  -4   41.50    5.07
  -1   4  -4   47.62    5.19
  -1   4  -4   44.57    4.45
   1  -4   5    1.64    1.56
  -1   4  -5    1.10    1.28
   1  -4   6  754.17   22.26
  -1   4  -6  655.38   21.78
   1  -4   7  467.15   21.61
   1  -4   8  114.91    7.04
   1  -4   9   94.33    6.41
   1  -4  10   33.30    4.24
   1  -4  11   26.84    3.84
   1  -4  12   41.39    4.76
   1  -4  13   72.68    6.13
   1  -4  14   35.81    4.69
  -1   3  14    6.19    3.22
  -1   3  14    4.39    3.02
  -1   3  13  305.01   12.04
  -1   3  13  176.80    9.07
  -1   3  12  149.57    8.63
  -1   3  12   81.57    6.17
  -1   3  11   17.49    3.57
  -1   3  11    8.93    2.90
  -1   3  10    2.70    2.27
  -1   3  10    5.78    2.24
  -1   3   9  817.74   24.27
  -1   3   9  374.38   15.17
  -1   3   8 1231.11   41.82
  -1   3   8  588.10   23.33
   1  -3  -7  106.86    6.79
  -1   3   7  104.08    6.88
  -1   3   7  216.83   10.38
   1  -3  -6  152.22    8.63
  -1   3   6  174.14    9.54
  -1   3   6  144.84    8.37
  -1   3   6  264.77   12.10
   1  -3  -5   95.60    6.38
  -1   3   5   86.55    6.32
  -1   3   5   96.17    6.67
  -1   3   5  139.78    7.87
   1  -3  -3 1322.66   27.84
  -1   3   3 1289.90   28.91
   1  -3  -2  726.66   19.69
   1  -3  -2  763.90   20.84
  -1   3   2  715.92   19.67
  -1   3   2  789.15   21.79
   1  -3  -1  756.48   22.11
   1  -3  -1  817.01   21.68
  -1   3   1  728.15   20.76
  -1   3   1  937.53   24.00
   1  -3   0  269.95   12.28
  -1   3   0  374.98   14.30
  -1   3   0  261.34   11.69
  -1   3   0  276.37   12.21
   1  -3   1   98.61    7.03
   1  -3   1   88.57    6.55
  -1   3  -1  145.57    8.38
  -1   3  -1  120.46    7.47
   1  -3   2    6.27    1.85
   1  -3   2    5.19    1.70
  -1   3  -2    5.80    1.79
  -1   3  -2    7.98    2.04
   1  -3   3  310.89   13.55
   1  -3   3  306.64   12.67
  -1   3  -3  420.50   15.32
  -1   3  -3  399.02   13.65
   1  -3   4  307.35   14.84
   1  -3   4  350.85   13.22
  -1   3  -4  459.35   18.26
  -1   3  -4  358.43   12.91
   1  -3   5  401.07   13.60
  -1   3  -5  370.46   12.51
   1  -3   6  769.74   26.61
   1  -3   6  965.73   26.47
  -1   3  -6  818.90   23.82
   1  -3   7  319.90   15.09
   1  -3   7  365.19   17.62
   1  -3   7  348.92   13.87
  -1   3  -7  276.40   12.15
   1  -3   8    3.66    2.15
   1  -3   8    1.57    1.90
   1  -3   8    1.38    1.69
   1  -3   9   39.80    5.31
   1  -3   9   41.35    4.50
   1  -3   9   36.58    4.27
   1  -3  10   20.34    3.41
   1  -3  11   47.05    4.67
   1  -3  12    5.02    2.80
   1  -3  13   53.08    4.99
   1  -3  14    7.95    3.11
   1  -3  15   28.03    4.28
  -1   2  14  350.74   13.12
  -1   2  14  218.00   10.34
  -1   2  13 1065.15   23.67
  -1   2  13  635.87   17.36
  -1   2  12  669.78   19.39
  -1   2  12  387.18   13.43
  -1   2  11  469.65   16.08
  -1   2  11  263.10   11.39
  -1   2  10  437.99   18.90
  -1   2  10  228.37   12.02
  -1   2   9  233.90   13.32
  -1   2   9  114.83    8.42
  -1   2   8   11.53    2.72
  -1   2   8   17.17    3.16
  -1   2   8   16.09    3.07
   1  -2  -7    9.25    2.35
  -1   2   7   12.77    2.69
  -1   2   7    9.35    2.32
  -1   2   7   18.31    3.21
   1  -2  -6    8.85    2.35
  -1   2   6   12.60    2.62
  -1   2   6    7.69    2.04
  -1   2   6   14.61    2.83
   1  -2  -5  252.02   10.94
  -1   2   5  263.52   11.41
  -1   2   5  248.09   11.54
  -1   2   5  418.42   15.22
   1  -2  -4  319.35   12.10
  -1   2   4  322.92   12.69
  -1   2   4  531.85   16.48
   1  -2  -3  564.20   17.12
  -1   2   3  578.71   18.12
  -1   2   3  611.15   18.03
   1  -2  -2  618.70   18.76
   1  -2  -2  573.73   17.43
  -1   2   2  546.73   17.62
   1  -2  -1   48.85    4.80
   1  -2  -1   38.98    4.13
  -1   2   1   37.07    4.06
  -1   2   1   50.78    4.71
   1  -2   0 1040.05   26.56
  -1   2   0 1206.36   28.30
  -1   2   0  730.01   20.09
  -1   2   0  842.99   22.51
   1  -2   1 2193.07   43.94
   1  -2   1 1620.94   35.37
  -1   2  -1 2582.20   48.75
  -1   2  -1 1996.30   40.07
   1  -2   2 1505.09   34.08
   1  -2   2 1278.56   29.58
  -1   2  -2 1598.53   35.12
  -1   2  -2 1513.20   32.73
   1  -2   3  562.25   17.44
   1  -2   3  516.62   15.88
  -1   2  -3  627.10   18.91
  -1   2  -3  569.99   17.38
   1  -2   4 1937.53   37.70
   1  -2   4 1892.62   35.48
  -1   2  -4 2667.60   45.42
  -1   2  -4 1852.08   33.99
   1  -2   5    6.68    1.92
   1  -2   5    6.75    1.98
  -1   2  -5    9.61    2.32
  -1   2  -5    6.30    1.92
   1  -2   6  221.80   10.20
   1  -2   6  184.60    8.96
  -1   2  -6  160.50    8.49
  -1   2  -6  154.36    8.40
   1  -2   7  264.63   12.10
   1  -2   7  432.18   16.00
   1  -2   7  348.86   13.70
  -1   2  -7  272.69   11.88
   1  -2   8  138.63    8.42
   1  -2   8  191.52    9.81
   1  -2   8  153.30    8.32
   1  -2   9   92.32    7.63
   1  -2   9  118.71    7.62
   1  -2   9   88.58    6.32
   1  -2  10  632.33   22.28
   1  -2  10  504.47   17.55
   1  -2  11   49.27    4.88
   1  -2  11   40.87    4.52
  -1   1  15    1.44    2.85
  -1   1  14  323.35   13.35
  -1   1  13   64.37    5.93
  -1   1  13   39.84    4.74
  -1   1  12    8.28    3.00
  -1   1  12    6.03    2.61
  -1   1  11   12.06    2.86
  -1   1  11    6.03    2.53
  -1   1  10  473.08   19.09
  -1   1  10  271.68   13.33
  -1   1   9 1078.49   37.64
  -1   1   9 1523.76   50.62
  -1   1   9  802.79   29.74
  -1   1   8  698.13   21.11
  -1   1   8  996.08   26.59
  -1   1   8  504.02   17.25
   1  -1  -7  570.48   18.17
  -1   1   7  892.99   25.46
  -1   1   7  621.17   20.17
  -1   1   7 1190.35   31.25
   1  -1  -6  233.12   11.13
  -1   1   6  319.54   13.50
  -1   1   6  241.04   11.80
  -1   1   6  421.30   16.15
   1  -1  -5  120.23    7.26
  -1   1   5  145.17    8.37
  -1   1   5  117.46    7.44
  -1   1   5  225.64   10.60
   1  -1  -4  106.21    7.64
   1  -1  -4   85.62    6.13
  -1   1   4   85.36    6.57
  -1   1   4  106.47    6.96
   1  -1  -3  153.43    9.30
   1  -1  -3  105.70    7.09
  -1   1   3  102.69    6.95
  -1   1   3  150.08    8.60
   1  -1  -2 1038.83   25.21
  -1   1   2  943.34   24.30
  -1   1   2 1595.76   33.91
   1  -1  -1   18.31    2.92
   1  -1   0  218.80   10.51
   1  -1   1  745.00   21.38
   1  -1   1  504.71   16.17
  -1   1  -1  758.05   20.63
   1  -1   2    2.21    1.30
   1  -1   2    1.79    1.24
  -1   1  -2    1.75    1.38
   1  -1   3   11.32    2.28
   1  -1   3    9.34    2.08
  -1   1  -3   13.76    2.53
   1  -1   4   11.31    2.38
  -1   1  -4   12.86    2.49
   1  -1   5  356.35   13.72
  -1   1  -5  378.94   13.54
   1  -1   6  213.00   10.31
  -1   1  -6  187.01    9.07
   1  -1   7  148.29    8.47
  -1   1  -7  122.13    7.73
   1  -1   8  149.99    8.52
   1  -1   8  214.80   12.23
   1  -1   9  203.23    9.89
   1  -1   9  288.96   11.45
   1  -1  10  504.70   23.51
   1  -1  10  632.97   27.82
   1  -1  11  261.98   13.19
   1  -1  12  360.27   12.95
   1  -1  13   53.32    5.06
   1  -1  14   12.87    3.16
   1  -1  15   32.94    4.95
  -1   0  15    8.75    3.44
  -1   0  14   13.11    3.49
  -1   0  13    4.73    2.95
  -1   0  12  112.15    9.16
  -1   0  12   65.36    5.45
  -1   0  11    3.61    2.26
  -1   0  11    2.62    2.48
  -1   0  10  141.72    8.68
  -1   0  10  206.29   11.23
  -1   0  10   99.41    6.95
  -1   0   9   36.08    4.39
  -1   0   9   42.33    4.99
  -1   0   8   87.42    6.56
  -1   0   8  114.80    7.40
   1   0  -7    1.30    1.89
  -1   0   7    2.72    1.86
  -1   0   7    5.09    1.85
   1   0  -6   83.34    5.97
  -1   0   6  161.34    8.52
  -1   0   6  134.97    8.07
   1   0  -5  326.75   12.24
  -1   0   5  618.66   18.04
   1   0  -4 1164.73   29.61
  -1   0   4 1313.39   30.84
   1   0  -3 1245.05   30.49
  -1   0   3 1334.73   30.50
   1   0  -2 3578.02   65.83
  -1   0   2 3651.98   64.38
  -1   0   1  808.28   21.51
   1   0   2  851.11   22.83
  -1   0  -2  960.19   24.10
  -1   0  -2  765.81   20.63
   1   0   3  787.51   21.58
  -1   0  -3  915.83   23.30
  -1   0  -3  600.15   18.16
   1   0   4  483.28   17.08
  -1   0  -4  535.56   18.71
  -1   0  -4  315.67   12.78
   1   0   5   48.21    4.70
   1   0   5   30.66    3.65
  -1   0  -5   51.13    5.12
  -1   0  -5   29.63    3.67
   1   0   6    8.89    2.24
   1   0   6    5.98    1.82
  -1   0  -6   11.31    2.50
  -1   0  -6    4.45    2.10
   1   0   7   76.50    5.93
   1   0   7   49.26    4.69
  -1   0  -7   64.08    5.48
  -1   0  -7   41.26    4.37
   1   0   8   23.36    3.37
   1   0   8   16.12    2.79
  -1   0  -8   21.94    3.50
  -1   0  -8   13.16    2.81
   1   0   9    4.16    1.85
   1   0   9    2.44    1.71
   1   0   9    1.89    1.79
   1   0  10    2.94    1.98
   1   0  10    4.15    2.24
   1   0  10    4.72    1.90
   1   0  11    8.53    2.62
   1   0  11    7.17    2.54
   1   0  11    7.90    2.42
   1   0  12    6.79    2.54
   1   0  12    3.61    2.33
   1   0  13   51.03    5.14
   1   0  13   37.15    4.35
   1   0  14  362.24   13.60
   1   0  15  164.95    9.81
  -1  -1  11  261.80   10.80
  -1  -1  10    3.01    2.11
  -1  -1  10    0.26    2.00
  -1  -1   9   22.86    4.31
  -1  -1   9   31.22    4.12
  -1  -1   9   16.95    3.07
  -1  -1   8   10.01    2.55
  -1  -1   8   14.38    2.91
  -1  -1   8    8.77    2.55
  -1  -1   7   87.10    6.81
  -1  -1   7   98.20    6.79
  -1  -1   7   65.40    5.49
  -1  -1   6   13.93    2.75
  -1  -1   6   14.78    2.77
  -1  -1   6   10.28    2.43
   1   1  -5   94.07    6.90
   1   1  -5   52.17    4.84
  -1  -1   5   73.12    6.25
  -1  -1   5  129.41    7.85
   1   1  -4   20.74    3.49
   1   1  -4    9.95    2.26
  -1  -1   4   11.08    2.33
  -1  -1   4   21.47    3.13
   1   1  -3  437.20   16.47
   1   1  -3  177.07   10.02
  -1  -1   3  198.44   10.30
  -1  -1   3  466.77   16.85
   1   1  -2   37.92    4.15
   1   1  -2   15.50    2.80
  -1  -1   2   16.43    2.88
  -1  -1   2   33.92    3.86
   1   1  -1  641.95   19.57
   1   1  -1  299.41   12.04
  -1  -1   1  308.58   12.58
  -1  -1   1  637.48   18.85
   1   1   0  382.18   14.79
   1   1   0  239.83   11.03
  -1  -1   0  219.62   10.68
  -1  -1   0  444.08   15.81
   1   1   1   15.91    2.78
  -1  -1  -1   24.14    3.21
  -1  -1  -1   19.24    3.03
   1   1   2 1367.67   30.65
   1   1   2 1125.74   26.82
  -1  -1  -2 1035.32   25.22
   1   1   3 2025.98   41.23
   1   1   3 1419.73   31.82
  -1  -1  -3 2234.77   43.46
  -1  -1  -3 1201.75   27.72
   1   1   4 1044.94   25.65
   1   1   4  681.87   19.53
  -1  -1  -4 1175.63   27.39
  -1  -1  -4  576.05   17.24
   1   1   5 1731.62   33.46
   1   1   5 1097.54   25.24
  -1  -1  -5 1932.93   35.14
  -1  -1  -5  924.09   22.63
   1   1   6 1070.85   27.18
   1   1   6  681.99   20.35
  -1  -1  -6 1172.82   28.99
  -1  -1  -6  598.06   18.90
   1   1   7  798.51   24.51
   1   1   7  518.67   18.46
  -1  -1  -7  744.35   22.75
  -1  -1  -7  438.82   16.15
   1   1   8   21.82    3.43
   1   1   8   14.83    2.81
  -1  -1  -8   24.00    3.41
  -1  -1  -8   12.51    2.71
   1   1   9    1.11    1.53
   1   1   9    0.91    1.67
   1   1   9    0.35    1.21
   1   1  10    1.23    1.83
   1   1  10    6.04    2.30
   1   1  10    1.30    1.82
   1   1  11  290.92   13.71
   1   1  11  192.19   10.37
   1   1  12   25.71    3.78
   1   1  12   18.68    3.35
   1   1  13   83.48    7.90
   1   1  13   59.40    5.16
   1   1  14    0.72    3.45
   1   1  14    1.35    2.33
   1   1  15   14.67    3.98
  -1  -2  14   -0.12    2.95
  -1  -2  13    4.56    2.95
  -1  -2  12   71.39    5.63
  -1  -2  11   95.76    6.79
  -1  -2  10  409.80   16.88
  -1  -2  10  254.56   12.85
  -1  -2   9  608.70   28.02
  -1  -2   9  834.63   34.79
  -1  -2   9  506.89   23.54
  -1  -2   8   66.64    5.94
  -1  -2   8   78.59    6.26
  -1  -2   8   46.55    4.72
   1   2  -7  444.31   16.52
  -1  -2   7  878.98   24.72
  -1  -2   7  631.23   20.18
  -1  -2   7  966.78   25.60
   1   2  -6  136.14    9.53
  -1  -2   6  282.78   14.40
  -1  -2   6  180.86    8.98
  -1  -2   6  252.25   10.91
   1   2  -5   19.02    3.02
  -1  -2   5   22.70    5.40
  -1  -2   5   35.98    4.31
   1   2  -4  474.23   16.30
   1   2  -4  228.95   10.09
  -1  -2   4  309.70   12.76
  -1  -2   4  546.13   18.58
   1   2  -3  867.56   25.02
   1   2  -3  293.10   11.74
  -1  -2   3  414.33   14.53
  -1  -2   3  809.70   22.42
   1   2  -2    5.80    1.78
   1   2  -2    3.37    1.59
  -1  -2   2    3.57    1.55
  -1  -2   2    6.55    1.82
   1   2  -1   32.32    4.07
   1   2  -1   10.35    2.38
  -1  -2   1   15.86    2.79
  -1  -2   1   36.35    3.99
   1   2   0  498.96   17.63
   1   2   0  200.41   10.24
  -1  -2   0  232.45   13.40
  -1  -2   0  543.83   18.04
   1   2   1   27.44    3.56
  -1  -2  -1   27.49    3.61
  -1  -2  -2 3036.29   55.25
   1   2   3   11.51    2.65
  -1  -2  -3   10.18    4.44
   1   2   4    0.68    1.07
   1   2   4    0.61    1.05
  -1  -2  -4    2.19    1.54
  -1  -2  -4    3.06    1.51
   1   2   5  150.98    8.52
   1   2   5   88.73    6.20
  -1  -2  -5  191.51    9.17
  -1  -2  -5   83.28    6.26
   1   2   6    8.05    2.24
   1   2   6    5.14    1.92
  -1  -2  -6    5.86    1.95
  -1  -2  -6    3.46    1.88
   1   2   7    2.47    1.66
   1   2   7    3.17    1.62
  -1  -2  -7    2.74    1.88
  -1  -2  -7    1.41    1.67
   1   2   8 1174.44   29.84
   1   2   8  740.73   21.49
  -1  -2  -8 1205.64   29.60
  -1  -2  -8  630.14   19.17
   1   2   9  554.48   24.73
   1   2   9  801.49   32.99
   1   2   9  498.04   22.74
   1   2  10 1160.86   46.07
   1   2  10  749.25   31.57
   1   2  11 1308.17   41.63
   1   2  11  834.10   28.54
   1   2  12  111.87    7.20
   1   2  12   75.77    6.01
   1   2  13    1.21    2.86
   1   2  13    0.83    2.25
   1   2  14   25.87    3.97
   1   2  14   17.16    3.70
   1   2  15  212.17   10.08
   1   2  15  155.19   10.62
  -1  -3  14    3.72    3.11
  -1  -3  13    6.86    2.93
  -1  -3  12   11.95    2.89
  -1  -3  11    2.43    2.26
  -1  -3  10   13.39    2.92
  -1  -3   9  218.94   10.02
  -1  -3   9  147.13    8.37
  -1  -3   8  318.32   19.44
  -1  -3   8  403.02   17.53
  -1  -3   8  263.27   13.36
  -1  -3   7  163.28   11.71
  -1  -3   7  188.91    9.08
  -1  -3   7  122.51    7.54
   1   3  -6  205.92   10.67
  -1  -3   6  432.84   17.65
  -1  -3   6  320.35   13.31
  -1  -3   6  464.58   17.11
   1   3  -5   14.03    2.84
  -1  -3   5   33.79    4.44
  -1  -3   5   21.07    3.22
  -1  -3   5   28.35    3.98
   1   3  -4   66.71    6.27
   1   3  -4   29.32    3.79
  -1  -3   4   44.76    4.54
  -1  -3   4   72.05    5.93
   1   3  -3  887.49   23.66
   1   3  -3  327.99   12.57
  -1  -3   3  600.45   17.86
  -1  -3   3  954.13   23.07
   1   3  -2  373.68   15.12
   1   3  -2  134.87    8.01
  -1  -3   2  285.25   12.93
  -1  -3   2  439.69   16.74
   1   3  -1 2851.23   53.77
  -1  -3   1 3059.62   56.53
  -1  -3   1 2281.64   44.99
   1   3   0  680.77   18.89
  -1  -3   0  678.10   19.14
  -1  -3   0  554.12   17.58
   1   3   1 3091.66   57.49
  -1  -3  -1 3038.84   55.43
   1   3   2  843.94   22.97
  -1  -3  -2  855.84   22.27
  -1  -3  -2  438.40   17.87
   1   3   3   20.86    3.15
  -1  -3  -3   57.68    5.07
  -1  -3  -3   26.27    3.53
   1   3   4  102.63    7.02
  -1  -3  -4  115.82    7.26
   1   3   5  414.29   13.80
   1   3   5  253.30   11.47
  -1  -3  -5  266.59   11.51
   1   3   6  789.55   24.44
  -1  -3  -6 1406.14   36.86
  -1  -3  -6  744.36   23.31
   1   3   7    3.18    1.66
   1   3   7    0.88    1.35
  -1  -3  -7    2.12    1.53
   1   3   8    9.76    2.65
   1   3   8    1.85    1.64
  -1  -3  -8    3.75    1.96
  -1  -3  -8    2.14    1.67
   1   3   9    6.06    2.31
   1   3   9    4.12    1.95
   1   3  10  138.42    7.94
   1   3  10   86.23    6.31
   1   3  11   37.49    4.50
   1   3  11   22.11    3.34
   1   3  12  169.43    8.84
   1   3  12  111.52    7.10
   1   3  13  470.13   15.11
   1   3  13  318.63   12.61
   1   3  14  628.05   17.30
   1   3  14  434.36   14.37
   1   3  15  706.62   18.33
   1   3  15  498.18   15.01
  -1  -4  14   14.08    3.96
  -1  -4  13    4.87    2.98
  -1  -4  12   94.61    7.25
  -1  -4  11    9.05    2.66
  -1  -4  10   56.90    5.17
  -1  -4   9  239.16   11.98
  -1  -4   8    1.41    1.92
  -1  -4   7    6.88    3.51
   1   4  -6   34.57    4.69
  -1  -4   6   59.28    5.49
   1   4  -5  158.48    8.89
  -1  -4   5  295.02   12.53
   1   4  -4 1230.09   40.97
   1   4  -4  565.73   19.34
  -1  -4   4 1133.86   31.29
  -1  -4   4 1143.59   40.75
   1   4  -3  690.55   21.82
   1   4  -3  279.69   11.81
  -1  -4   3  582.86   18.59
  -1  -4   3  630.28   19.40
   1   4  -2  282.10   12.72
   1   4  -2  112.37    7.22
  -1  -4   2  244.39   10.67
  -1  -4   2  256.79   10.86
   1   4  -1    3.00    1.54
   1   4  -1    1.26    1.41
  -1  -4   1    4.68    1.66
  -1  -4   1    2.43    1.49
   1   4   0   70.27    5.59
   1   4   0   35.04    4.02
  -1  -4   0   46.52    4.85
  -1  -4   0   62.33    5.29
   1   4   1  438.18   14.94
   1   4   1  226.10   12.38
   1   4   1  323.01   13.93
  -1  -4  -1  356.26   12.63
   1   4   2 1050.36   24.30
   1   4   2  428.72   17.77
   1   4   2  574.65   18.50
  -1  -4  -2  926.05   22.11
   1   4   3 1611.25   32.24
  -1  -4  -3 1632.64   31.12
  -1  -4  -3 1005.07   25.52
   1   4   4  374.86   14.56
  -1  -4  -4  840.94   24.16
  -1  -4  -4  515.82   17.25
   1   4   5  986.68   29.54
  -1  -4  -5 1168.44   36.81
   1   4   6  740.30   22.45
  -1  -4  -6  780.98   23.16
   1   4   7    1.46    1.55
   1   4   7    0.77    1.54
  -1  -4  -7    0.85    1.45
   1   4   8   31.28    3.83
   1   4   8   18.22    3.11
  -1  -4  -8   16.83    3.02
   1   4   9  555.46   24.99
   1   4   9  337.78   16.91
  -1  -4  -9  260.95   14.27
   1   4  10 1017.74   33.69
   1   4  10  622.71   23.07
   1   4  11  160.43    8.44
   1   4  11  101.10    6.86
   1   4  12    2.36    2.30
   1   4  12    0.75    2.22
   1   4  13  115.09    7.46
   1   4  13   74.55    6.13
   1   4  14  121.11    7.49
   1   4  14   83.30    6.70
   1   4  15   64.30    5.83
   1   4  15   45.07    5.15
  -1  -5  13   90.19    6.98
  -1  -5  12   35.06    4.60
  -1  -5  11  148.04    8.61
  -1  -5  10    7.74    2.67
  -1  -5   9    3.02    2.50
  -1  -5   8   33.68    4.13
  -1  -5   7   70.36    6.06
   1   5  -6  246.78   12.90
  -1  -5   6  491.08   20.38
   1   5  -5  230.58   10.73
  -1  -5   5  460.69   16.37
   1   5  -4  628.34   27.79
   1   5  -4  694.76   34.87
   1   5  -4  319.71   13.89
  -1  -5   4  637.10   20.02
   1   5  -3   73.00    6.13
   1   5  -3   37.88    4.03
  -1  -5   3   67.46    6.05
  -1  -5   3   57.35    5.46
   1   5  -2  696.38   22.64
   1   5  -2  302.34   13.13
  -1  -5   2  581.89   19.72
  -1  -5   2  445.34   16.64
   1   5  -1  279.76   11.79
   1   5  -1  127.24    7.44
  -1  -5   1  195.89    9.49
  -1  -5   1  171.58    8.74
   1   5   0 2697.63   58.52
  -1  -5   0 1460.22   34.64
   1   5   1 2297.61   49.67
   1   5   1 1268.44   31.97
   1   5   1 1796.81   40.02
  -1  -5  -1 1593.12   35.83
   1   5   2   20.08    3.09
   1   5   2   10.09    7.62
   1   5   2   15.47    2.93
  -1  -5  -2   14.80    2.81
   1   5   3  121.71    7.53
   1   5   3   53.72    5.36
  -1  -5  -3  106.20    6.80
  -1  -5  -3   85.30    7.28
   1   5   4  213.59    9.85
   1   5   4  109.48    7.33
  -1  -5  -4  207.68    9.67
  -1  -5  -4  156.65    8.94
   1   5   5  313.43   13.02
  -1  -5  -5  610.36   19.49
  -1  -5  -5  422.95   15.95
   1   5   6   29.60    3.82
  -1  -5  -6   32.39    3.86
   1   5   7  320.97   12.22
   1   5   7  217.77   12.44
  -1  -5  -7  207.40   12.27
   1   5   8  776.76   32.74
   1   5   8  484.34   22.46
  -1  -5  -8  421.33   20.23
   1   5   9 1685.04   41.17
   1   5   9 1010.84   27.78
  -1  -5  -9  811.22   26.00
   1   5  10  989.01   21.49
   1   5  10  591.19   16.47
   1   5  11  277.26   13.05
   1   5  11  169.18    9.52
   1   5  12   20.09    3.58
   1   5  12   12.40    2.98
   1   5  13  204.08    9.87
   1   5  13  131.22    7.94
   1   5  14  354.34   13.24
   1   5  14  238.54   11.39
  -1  -6  12    1.59    2.64
  -1  -6  11  166.06    9.09
  -1  -6  10  324.30   11.88
  -1  -6   9  403.19   17.07
  -1  -6   8  179.62    9.29
  -1  -6   7   11.54    2.79
  -1  -6   6   21.92    3.45
   1   6  -5   53.25    4.95
  -1  -6   5  106.96    7.05
   1   6  -4   75.34    7.97
   1   6  -4   76.82    8.45
   1   6  -4   39.71    4.31
  -1  -6   4   69.91    5.93
   1   6  -3  256.92   13.10
   1   6  -3  378.38   14.81
   1   6  -3  161.56    8.77
  -1  -6   3  333.66   13.61
   1   6  -2  801.75   23.72
   1   6  -2  343.74   13.61
  -1  -6   2  588.28   20.28
   1   6  -1  495.34   17.22
   1   6  -1  228.82   11.21
  -1  -6   1  299.02   12.90
  -1  -6   1  306.51   13.15
   1   6   0 3820.90   76.31
  -1  -6   0 1778.39   42.97
   1   6   1   90.35    6.65
   1   6   1   47.25    4.79
   1   6   1   66.36    5.67
  -1  -6  -1   52.09    4.78
   1   6   2   20.86    3.19
   1   6   2   11.24    2.60
   1   6   2   17.87    3.27
  -1  -6  -2   14.08    2.87
   1   6   3  429.22   15.40
   1   6   3  207.70   10.70
   1   6   3  296.87   13.62
  -1  -6  -3  355.69   13.65
   1   6   4  989.49   26.18
   1   6   4  498.75   17.68
  -1  -6  -4 1029.86   26.66
  -1  -6  -4  781.52   22.77
   1   6   5 1153.11   45.27
   1   6   5  668.81   29.21
  -1  -6  -5  926.18   37.87
   1   6   6  251.49   10.68
   1   6   6  177.93   10.84
  -1  -6  -6  207.44   11.76
   1   6   7   10.96    2.78
  -1  -6  -7    8.24    2.24
   1   6   8  127.05    8.11
  -1  -6  -8  116.39    7.30
   1   6   9  156.32    9.21
   1   6   9   88.98    6.58
   1   6  10  241.47   10.67
   1   6  10  147.34    8.37
   1   6  11   27.21    3.79
   1   6  11   16.39    3.34
   1   6  12  458.89   14.75
   1   6  12  292.41   11.91
   1   6  13  493.97   14.77
   1   6  13  325.00   12.57
   1   6  14  611.48   17.78
   1   6  14  414.29   13.77
  -1  -7  11   80.72    6.41
  -1  -7  10  116.64    7.70
  -1  -7   9  104.53    6.87
  -1  -7   8    2.35    2.56
  -1  -7   7  234.64   10.53
  -1  -7   6  387.38   13.66
   1   7  -5  675.31   25.38
  -1  -7   5 1483.13   28.34
   1   7  -4  530.41   20.61
   1   7  -4  531.84   19.29
   1   7  -4  218.10   10.90
  -1  -7   4  428.96   16.17
   1   7  -3   80.82    7.16
   1   7  -3  104.88    7.52
   1   7  -3   45.25    4.40
  -1  -7   3   82.32    6.52
   1   7  -2    4.08    2.10
   1   7  -2    7.82    2.39
   1   7  -2    5.37    2.22
  -1  -7   2    4.93    2.13
   1   7  -1  678.13   28.72
   1   7  -1  287.85   15.22
  -1  -7   1  353.40   18.50
   1   7   0  504.24   22.97
   1   7   0  245.69   13.81
   1   7   0  280.59   15.28
   1   7   1  107.13    7.07
   1   7   1   67.02    5.78
   1   7   1   53.39    5.07
   1   7   2  212.65   10.03
   1   7   2  188.11   10.05
   1   7   2  111.27    7.81
   1   7   3 1244.51   48.63
   1   7   3 1069.12   43.37
   1   7   3  586.69   26.06
   1   7   4 1465.43   49.59
   1   7   4 1021.10   37.25
   1   7   4  703.18   27.27
   1   7   5  546.36   24.87
   1   7   5  321.38   16.78
  -1  -7  -5  463.78   22.26
   1   7   6   53.38    5.03
   1   7   6   36.35    4.27
  -1  -7  -6   43.77    5.36
   1   7   7  248.10   12.34
   1   7   7  164.68    9.55
   1   7   8  343.50   12.91
   1   7   9  466.36   18.52
   1   7  10  520.73   16.02
   1   7  10  326.84   12.25
   1   7  11    8.90    3.20
   1   7  11    5.44    2.50
   1   7  12  157.89    8.44
   1   7  12  102.54    6.87
   1   7  13   58.25    5.32
  -1  -8  10   93.64    6.71
  -1  -8   9   18.06    3.39
  -1  -8   8   79.29    5.99
  -1  -8   7   27.63    3.85
  -1  -8   6  395.58   17.11
  -1  -8   5  469.04   14.91
  -1  -8   4    0.26    1.89
   1   8  -3  154.37    8.72
   1   8  -3   58.30    5.71
  -1  -8   3  106.65    7.28
   1   8  -2  233.26   12.93
   1   8  -2  340.21   15.50
   1   8  -2  125.02    8.65
  -1  -8   2  191.42   11.06
   1   8  -1 1303.96   35.83
   1   8  -1 2349.89   54.37
   1   8  -1  881.66   26.05
  -1  -8   1 1116.39   32.10
   1   8   0  243.71   12.45
   1   8   0  488.27   18.08
   1   8   0  212.02   11.18
   1   8   0  262.68   12.24
   1   8   1  684.72   21.80
   1   8   1  345.91   14.51
   1   8   1  345.72   14.97
   1   8   2    2.63    2.10
   1   8   2    1.10    2.14
   1   8   3  288.78   13.21
   1   8   3  256.31   12.75
   1   8   3  125.28    8.83
   1   8   4  328.63   14.89
   1   8   4  272.61   13.93
   1   8   4  146.85    9.74
   1   8   5  117.78    7.84
   1   8   5   63.77    5.93
   1   8   6   53.99    5.22
   1   8   6   30.30    4.12
   1   8   7  425.36   14.05
   1   8   7  295.79   12.12
   1   8   8  474.04   18.66
   1   8   9  897.83   21.53
   1   8  11   27.06    4.11
   1   8  12   80.55    6.09
   1   9  -2  721.17   19.00
   1   9  -1  893.44   21.18
   1   9  -1  504.03   15.58
   1   9   0  229.92   10.99
   1   9   0  416.20   14.34
   1   9   1   55.06    5.23
   1   9   2  705.26   18.84
   1   9   3  499.98   15.88
   1   9   4  861.65   19.86
   1   9   5  433.79   18.31
   1   9   6   32.39    4.33
   1   9   7   26.31    4.03
   1   9   8  197.35    9.73
   1   9   9  178.75    9.52
   1   9  10    3.10    2.95
   1  10  -1  171.06    9.37
   1  10   0  137.69    7.90
   1  10   1   71.40    6.22
   1  10   2  274.22   12.02
   1  10   3  547.78   17.13
   1  10   4  634.11   17.66
   1  10   5    2.84    2.52
   1  10   6   88.02    6.91
   1  10   7  193.68    9.52
   1  10   8  458.54   15.04
   1  10   9  268.08   11.57
   1  10  10    6.42    3.41
   1  11   1   91.81    7.13
   1  11   2   30.35    4.15
   1  11   3  282.93   11.29
   1  11   4  115.08    7.36
   1  11   5   31.80    4.57
   1  11   6   53.46    5.63
   1  11   7  231.41   10.67
   1  11   8  179.76    9.31
   1  12   3  436.31   14.44
   1  12   4   76.33    6.52
  -2  11   5  195.38    9.79
  -2  11   4   33.60    4.52
  -2  11   3   32.58    4.54
  -2  11   2    3.66    3.00
  -2  11   1   52.98    5.29
  -2  10   7    1.69    3.31
  -2  10   6   79.34    6.40
  -2  10   5    1.98    2.83
  -2  10   4    9.67    3.15
  -2  10   3    7.46    3.18
  -2  10   2  116.01    7.55
  -2  10   1  117.86    7.31
  -2  10   0   36.55    4.51
  -2  10  -1   70.71    5.85
  -2  10  -3    4.38    2.77
  -2  10  -4   15.02    3.57
  -2   9   9   68.79    6.39
  -2   9   8   60.15    5.78
  -2   9   7   38.51    4.87
  -2   9   6    4.08    2.91
  -2   9   5   16.67    3.70
  -2   9   5    9.50    3.15
  -2   9   4    3.08    2.57
  -2   9   4    1.69    2.23
  -2   9   3    6.77    2.62
  -2   9   3    4.25    2.34
  -2   9   2    7.82    2.81
  -2   9   2    5.73    2.31
  -2   9   1    2.47    2.35
  -2   9   1    1.68    2.25
  -2   9   0   11.62    3.20
  -2   9   0    8.32    2.52
  -2   9  -1   54.21    5.32
  -2   9  -1   35.77    4.29
  -2   9  -2   58.32    5.54
  -2   9  -2   35.58    4.33
  -2   9  -3   37.60    4.50
   2  -9   4   27.39    3.98
   2  -9   5   18.82    3.59
   2  -9   6   10.05    3.44
   2  -9   7   11.40    3.18
   2  -9   8    0.55    3.03
   2  -9   9   83.67    7.17
  -2   8  10    3.37    2.88
  -2   8   9    0.95    2.85
  -2   8   8   10.08    3.24
  -2   8   8    4.88    2.68
  -2   8   7  137.03    8.16
  -2   8   7   65.95    5.61
  -2   8   6   85.06    6.29
  -2   8   6   49.14    4.89
  -2   8   5   54.30    5.30
  -2   8   5   31.73    4.03
  -2   8   4   28.37    4.10
  -2   8   4   17.10    3.36
  -2   8   3   18.04    3.52
  -2   8   3   12.73    3.17
  -2   8   2    0.37    2.33
  -2   8   2    0.22    1.95
  -2   8   2    0.68    1.94
  -2   8   1   10.09    3.06
  -2   8   1   11.85    3.04
  -2   8   1    7.70    2.49
  -2   8   0   75.51    6.38
  -2   8   0   81.41    6.49
  -2   8   0   60.09    5.55
  -2   8  -1    8.24    2.63
  -2   8  -1    7.28    2.47
  -2   8  -1    7.51    2.37
  -2   8  -1    5.34    2.07
  -2   8  -2    2.27    1.86
  -2   8  -2    1.61    2.15
  -2   8  -2    1.74    1.84
   2  -8   3    7.27    2.45
  -2   8  -3   14.56    3.26
   2  -8   4   90.20    6.99
  -2   8  -4  175.21    9.38
   2  -8   5   88.36    6.81
   2  -8   6   42.10    4.87
   2  -8   7   83.43    6.63
   2  -8   8    2.77    2.44
   2  -8   9   33.94    4.34
   2  -8  10    0.49    2.67
   2  -8  11    1.15    2.73
  -2   7  11    2.20    3.20
  -2   7  11    5.23    3.12
  -2   7  10   16.80    3.93
  -2   7  10    8.84    3.05
  -2   7   9    4.65    2.50
  -2   7   8    4.57    2.64
  -2   7   7    7.35    3.09
  -2   7   7    1.75    2.18
  -2   7   6   68.18    5.74
  -2   7   6   38.79    4.29
  -2   7   5  184.16   10.10
  -2   7   5  107.25    7.63
  -2   7   4   47.07    4.69
  -2   7   4   27.64    3.67
  -2   7   4   31.48    4.00
  -2   7   3   30.23    4.01
  -2   7   3   20.77    3.35
  -2   7   3   21.23    3.35
  -2   7   2  172.96   10.61
  -2   7   2  143.43    9.74
  -2   7   2  137.33    9.14
  -2   7   1    1.12    2.04
  -2   7   1    1.18    1.89
  -2   7   1    0.89    1.94
  -2   7   0    4.39    2.40
  -2   7   0    3.31    2.30
  -2   7   0    3.08    1.76
  -2   7   0    2.98    1.92
  -2   7  -1   46.53    4.98
  -2   7  -1   31.60    4.20
  -2   7  -1   42.34    4.77
  -2   7  -1   29.42    3.98
   2  -7   2   38.82    4.73
  -2   7  -2   49.72    4.89
  -2   7  -2   71.89    6.13
  -2   7  -2   65.38    5.80
   2  -7   3    8.35    2.51
  -2   7  -3   15.20    3.08
  -2   7  -3   14.90    3.12
  -2   7  -3   14.08    2.96
   2  -7   4  600.13   20.17
  -2   7  -4  945.39   27.06
  -2   7  -4  989.67   29.23
   2  -7   5   41.95    4.48
  -2   7  -5   76.71    6.09
   2  -7   6    7.55    2.54
   2  -7   7    2.75    2.17
   2  -7   8  108.74    7.49
   2  -7   9  172.23    9.52
   2  -7  10  159.97    8.95
   2  -7  11   26.87    3.79
   2  -7  12    1.67    2.82
  -2   6  12   24.75    4.34
  -2   6  12   12.67    3.66
  -2   6  11   18.38    4.21
  -2   6  11    8.81    3.23
  -2   6  10    7.62    3.32
  -2   6  10    3.32    2.55
  -2   6   9   16.98    3.72
  -2   6   9    6.72    2.69
  -2   6   8   15.51    3.18
  -2   6   8    7.90    2.75
  -2   6   7    8.35    2.82
  -2   6   6    5.18    2.25
  -2   6   6    5.89    2.33
   2  -6  -5  105.17    8.06
  -2   6   5   96.15    7.61
  -2   6   5  145.60    9.82
   2  -6  -4   57.19    5.32
  -2   6   4   50.85    4.93
  -2   6   4   70.81    5.85
  -2   6   3    0.95    1.93
  -2   6   3    0.26    1.37
  -2   6   3    0.44    1.84
  -2   6   2  215.17   11.15
  -2   6   2  172.20    9.00
  -2   6   2  175.87    9.33
  -2   6   1  995.45   27.51
  -2   6   1  770.92   22.10
  -2   6   1  702.31   21.39
  -2   6   1  662.07   20.56
  -2   6   0  465.02   17.02
  -2   6   0  336.62   13.67
  -2   6   0  360.91   14.25
  -2   6   0  309.19   13.16
  -2   6  -1  104.45    7.39
  -2   6  -1   65.83    5.75
  -2   6  -1   86.61    6.60
  -2   6  -1   66.11    5.60
   2  -6   2   75.09    6.35
  -2   6  -2   93.20    6.56
  -2   6  -2  141.07    8.83
  -2   6  -2  127.06    7.72
   2  -6   3   29.76    3.97
  -2   6  -3   31.84    4.06
  -2   6  -3   51.78    5.41
  -2   6  -3   46.11    4.62
   2  -6   4    8.02    2.41
  -2   6  -4    6.77    2.52
  -2   6  -4   12.56    2.76
  -2   6  -4    9.44    2.51
   2  -6   5   13.33    2.84
  -2   6  -5   16.72    3.08
  -2   6  -5   21.68    3.73
   2  -6   6   49.55    5.02
  -2   6  -6   83.70    6.55
   2  -6   7  207.61   11.40
   2  -6   8  392.43   14.19
   2  -6   9  382.04   16.80
   2  -6  10  151.70    8.68
   2  -6  11   52.10    5.09
   2  -6  12   24.22    3.93
   2  -6  13  165.49    9.23
  -2   5  13   22.65    4.13
  -2   5  13   12.88    3.67
  -2   5  12   75.38    6.08
  -2   5  12   40.33    4.77
  -2   5  11  107.70    7.48
  -2   5  11   50.56    5.10
  -2   5  10  293.38   11.47
  -2   5  10  131.51    8.10
  -2   5   9   15.19    3.64
  -2   5   9    6.15    4.31
  -2   5   8  218.54   10.81
  -2   5   8  111.99    7.59
  -2   5   7    7.26    2.74
  -2   5   7    5.70    2.70
  -2   5   6   48.21    5.14
   2  -5  -5   14.70    2.85
  -2   5   5   14.42    2.84
   2  -5  -4   23.61    3.29
  -2   5   4   20.76    3.18
  -2   5   4   29.02    3.83
   2  -5  -3    7.05    2.09
  -2   5   3    8.19    2.49
  -2   5   3    6.70    2.23
  -2   5   3   11.03    2.61
  -2   5   2  593.33   19.34
  -2   5   2  388.30   14.96
  -2   5   2  433.92   16.15
   2  -5  -1  263.45   12.98
  -2   5   1  414.47   15.88
  -2   5   1  234.58   11.22
  -2   5   1  244.75   11.79
   2  -5   0   29.69    4.22
  -2   5   0   37.34    4.32
  -2   5   0   25.39    3.45
  -2   5   0   24.29    3.57
   2  -5   1    3.71    1.71
  -2   5  -1    6.26    2.09
  -2   5  -1    6.31    2.05
  -2   5  -1    4.44    1.81
   2  -5   2  175.77    9.96
   2  -5   2  153.09    8.80
  -2   5  -2  268.66   12.90
  -2   5  -2  238.96   10.20
   2  -5   3 1290.95   32.44
   2  -5   3 1271.00   31.64
  -2   5  -3 2063.14   43.90
  -2   5  -3 1957.73   42.33
   2  -5   4  854.24   25.09
   2  -5   4  925.81   25.32
  -2   5  -4 1341.19   33.60
  -2   5  -4 1301.03   32.00
   2  -5   5  452.64   22.28
   2  -5   5  552.39   25.16
  -2   5  -5  737.76   31.61
  -2   5  -5  698.55   29.43
   2  -5   6   72.77    5.94
  -2   5  -6  117.16   10.65
   2  -5   7    1.76    1.96
   2  -5   8  117.92    7.80
   2  -5   9  169.33    9.41
   2  -5  10   63.09    5.55
   2  -5  11   69.07    5.94
   2  -5  12  227.92   10.40
   2  -5  13  509.40   15.86
   2  -5  14  136.94    8.04
  -2   4  13    1.70    2.95
  -2   4  13    2.30    2.99
  -2   4  12    2.01    2.89
  -2   4  12    0.85    2.80
  -2   4  11  152.73    8.26
  -2   4  11   73.31    6.10
  -2   4  10    8.32    3.14
  -2   4  10    5.18    4.12
  -2   4   9  116.71    7.74
  -2   4   9   54.51    5.95
  -2   4   8   98.93    6.72
  -2   4   8   51.80    5.10
  -2   4   7  664.46   29.24
  -2   4   7  391.86   19.88
   2  -4  -6 1098.74   42.90
  -2   4   6 1091.78   43.32
  -2   4   6 1672.97   62.48
   2  -4  -5  116.76    7.29
  -2   4   5  115.80    9.50
   2  -4  -4  267.22   12.51
   2  -4  -4  240.06   10.79
  -2   4   4  229.89   11.18
   2  -4  -3    6.83    2.16
   2  -4  -3    4.13    1.79
  -2   4   3    2.99    1.71
  -2   4   3    3.14    1.84
   2  -4  -2   89.09    6.90
   2  -4  -2   80.04    5.82
  -2   4   2   67.61    5.73
  -2   4   2  104.44    7.10
   2  -4  -1  278.92   11.50
  -2   4   1  351.57   12.90
  -2   4   1  203.40    9.62
  -2   4   1  232.93   10.51
   2  -4   0   12.30    2.66
  -2   4   0   14.94    2.81
  -2   4   0   10.16    2.38
  -2   4   0    9.74    2.25
   2  -4   1  320.58   14.31
   2  -4   1  221.59   10.73
  -2   4  -1  422.88   13.92
  -2   4  -1  314.59   11.64
   2  -4   2  671.24   23.38
   2  -4   2  517.12   18.78
  -2   4  -2  886.13   24.52
  -2   4  -2  751.86   21.69
   2  -4   3 1027.39   30.69
   2  -4   3  859.58   27.13
  -2   4  -3 1309.64   35.47
  -2   4  -3 1207.05   32.62
   2  -4   4  790.62   28.58
   2  -4   4  706.33   23.18
  -2   4  -4  960.36   28.94
  -2   4  -4  940.26   26.79
   2  -4   5   13.88    2.78
   2  -4   5   12.90    2.62
  -2   4  -5   17.78    3.09
  -2   4  -5   15.54    2.77
   2  -4   6  360.32   16.17
   2  -4   6  356.18   14.42
  -2   4  -6  533.81   18.55
  -2   4  -6  390.49   14.04
   2  -4   7  621.00   32.83
   2  -4   7  598.93   26.03
  -2   4  -7  811.77   37.65
   2  -4   8 1190.14   57.00
   2  -4   8 1374.30   53.55
   2  -4   9  763.72   27.19
   2  -4  10   59.84    5.30
   2  -4  11   66.97    5.46
   2  -4  12  118.83    7.57
   2  -4  13  100.36    7.06
   2  -4  14    3.35    2.88
  -2   3  14   19.98    4.01
  -2   3  14   10.52    3.11
  -2   3  13   23.11    4.14
  -2   3  13   10.64    3.42
  -2   3  12   23.67    4.05
  -2   3  12   12.36    3.28
  -2   3  11  138.39    8.62
  -2   3  11   64.18    5.53
  -2   3  10    6.72    2.75
  -2   3  10    2.71    2.38
  -2   3   9   27.85    3.75
  -2   3   9   14.62    3.05
  -2   3   8   72.72    5.99
  -2   3   8   40.38    4.66
  -2   3   7  397.49   19.22
  -2   3   7  230.19   13.40
   2  -3  -6   28.96    3.69
  -2   3   6   29.43    3.77
  -2   3   6   50.80    4.82
   2  -3  -5    4.39    1.86
   2  -3  -5    3.63    1.73
  -2   3   5    3.44    2.93
  -2   3   5    3.39    1.56
   2  -3  -4   18.76    2.91
  -2   3   4   19.69    3.20
  -2   3   4   21.80    3.31
   2  -3  -3 1701.09   39.52
   2  -3  -3 1309.17   30.93
  -2   3   3 1230.60   30.58
   2  -3  -2 3078.56   52.81
   2  -3  -2 2401.30   41.25
  -2   3   2 2207.80   39.37
  -2   3   2 3280.17   52.11
   2  -3  -1 2914.41   51.09
   2  -3  -1 2361.89   40.61
  -2   3   1 2097.08   39.38
  -2   3   1 3272.29   52.71
   2  -3   0 1355.54   30.65
  -2   3   0 1542.96   30.37
  -2   3   0  898.68   21.64
  -2   3   0  960.34   23.51
   2  -3   1   32.94    4.20
   2  -3   1   18.03    3.02
  -2   3  -1   34.69    4.07
  -2   3  -1   24.35    3.33
   2  -3   2   34.72    4.16
   2  -3   2   22.00    3.42
  -2   3  -2   38.95    4.11
  -2   3  -2   30.00    3.61
   2  -3   3 1107.10   27.29
   2  -3   3  826.05   22.06
  -2   3  -3 1184.48   26.60
  -2   3  -3 1098.87   25.28
   2  -3   4  343.54   13.23
   2  -3   4  278.64   11.54
  -2   3  -4  373.26   13.09
  -2   3  -4  355.17   13.05
   2  -3   5  365.61   16.26
   2  -3   5  311.79   13.18
  -2   3  -5  430.46   16.52
  -2   3  -5  376.07   14.86
   2  -3   6  223.20   10.59
   2  -3   6  205.60    9.89
  -2   3  -6  296.93   11.59
  -2   3  -6  217.69    9.80
   2  -3   7 1482.08   35.84
   2  -3   7 1366.31   32.80
  -2   3  -7 1965.47   44.91
   2  -3   8 2042.33   75.70
   2  -3   8 1958.68   72.95
  -2   3  -8 2137.58   80.35
   2  -3   9  121.43    7.75
   2  -3   9  115.91    7.55
   2  -3  10   29.66    3.91
   2  -3  10   29.59    3.77
   2  -3  11  383.20   13.15
   2  -3  12  762.68   19.41
   2  -3  13  438.93   14.23
   2  -3  14  192.34   10.02
   2  -3  15    2.52    2.91
  -2   2  14   79.52    6.63
  -2   2  14   50.64    5.59
  -2   2  13  151.72    8.35
  -2   2  13   82.37    6.37
  -2   2  12 1110.48   25.13
  -2   2  12  570.47   15.91
  -2   2  11  612.47   23.34
  -2   2  11  316.86   14.64
  -2   2  10  202.98   10.30
  -2   2  10  100.77    7.32
  -2   2   9  206.31   10.00
  -2   2   9  106.14    7.42
  -2   2   8  167.37    9.13
  -2   2   8   93.52    6.91
  -2   2   7  304.67   14.29
  -2   2   7  166.83    9.69
   2  -2  -6  254.92   12.01
   2  -2  -6  190.06    9.51
  -2   2   6  189.12   10.13
  -2   2   6  216.77   10.38
   2  -2  -5   17.88    3.17
   2  -2  -5   12.51    2.55
  -2   2   5   13.31    2.56
  -2   2   5   16.28    2.83
   2  -2  -4  849.66   24.46
   2  -2  -4  614.38   18.77
  -2   2   4  599.69   19.09
  -2   2   4  839.49   24.24
   2  -2  -3  326.09   12.39
  -2   2   3  325.53   12.70
  -2   2   3  490.23   15.38
   2  -2  -2  675.39   18.16
  -2   2   2  564.98   28.55
   2  -2  -1  274.14   12.95
   2  -2  -1  187.00    9.42
  -2   2   1  167.57   10.33
  -2   2   1  265.06   11.82
   2  -2   0  316.66   14.50
  -2   2   0  327.56   13.23
  -2   2   0  177.64    9.34
  -2   2   0  205.42   10.35
   2  -2   1 1226.82   29.96
   2  -2   1  661.01   19.73
  -2   2  -1 1273.44   29.99
  -2   2  -1  826.48   21.88
   2  -2   2 5340.30   92.87
   2  -2   2 3567.30   65.59
  -2   2  -2 5645.61   93.23
  -2   2  -2 4536.33   77.43
   2  -2   3 5852.11   99.91
   2  -2   3 4460.61   76.44
  -2   2  -3 6060.23   99.69
  -2   2  -3 5581.35   92.27
   2  -2   4 2188.95   42.22
   2  -2   4 1910.71   35.98
  -2   2  -4 2545.00   43.09
  -2   2  -4 2198.37   38.04
   2  -2   5  318.55   12.54
   2  -2   5  296.57   11.84
  -2   2  -5  408.39   13.32
  -2   2  -5  291.32   11.90
   2  -2   6    2.19    1.43
   2  -2   6    2.62    1.53
  -2   2  -6    3.13    1.84
   2  -2   7  554.90   18.96
   2  -2   7  510.12   17.46
  -2   2  -7  738.66   21.91
   2  -2   8  279.49   12.24
   2  -2   8  239.54   11.23
  -2   2  -8  312.97   15.64
   2  -2   9   16.46    3.04
  -2   2  -9   14.06    2.84
   2  -2  10   39.05    4.54
   2  -2  11  681.35   18.78
  -2   1  14   46.31    5.09
  -2   1  13   55.71    5.83
  -2   1  13   37.33    4.62
  -2   1  12  210.13    9.73
  -2   1  12  115.34    7.02
  -2   1  11    9.37    2.92
  -2   1  11    1.15    2.29
  -2   1  10    1.04    2.03
  -2   1  10    1.24    2.34
  -2   1   9  521.06   17.96
  -2   1   9  270.21   12.14
  -2   1   8 1159.90   40.79
  -2   1   8 1410.51   47.13
  -2   1   8  792.20   29.45
  -2   1   7 1991.69   42.84
  -2   1   7 2848.44   57.35
  -2   1   7 1393.76   33.75
   2  -1  -6 1301.36   34.59
   2  -1  -6  849.31   23.56
  -2   1   6  842.70   25.16
  -2   1   6 1256.29   31.29
   2  -1  -5  721.21   22.61
   2  -1  -5  438.43   15.17
  -2   1   5  411.49   15.41
  -2   1   5  696.54   20.59
   2  -1  -4    5.60    1.94
   2  -1  -4    2.44    1.34
  -2   1   4    4.11    1.78
   2  -1  -3  446.83   15.42
   2  -1  -3  267.25   10.84
  -2   1   3  447.60   14.45
   2  -1  -2 2587.77   48.56
  -2   1   2 4380.55   74.78
   2  -1  -1  190.78    9.65
   2  -1   0  513.09   17.88
   2  -1   0  316.91   12.84
   2  -1   1  985.85   25.10
  -2   1  -1 1014.20   25.14
   2  -1   2 4304.90   76.19
  -2   1  -2 4526.90   77.15
   2  -1   3 2100.49   43.50
  -2   1  -3 2309.36   45.40
   2  -1   4    2.80    1.36
  -2   1  -4    3.26    1.55
   2  -1   5  492.68   17.56
  -2   1  -5  661.29   18.44
  -2   1  -5  460.64   14.52
   2  -1   6 3052.67   60.23
  -2   1  -6 4142.83   77.52
  -2   1  -6 2708.60   53.32
   2  -1   7 4810.28  106.38
  -2   1  -7 6122.55   54.26
  -2   1  -7 3816.38   39.31
   2  -1   8 2202.05   46.74
  -2   1  -8 2536.53   56.25
   2  -1   9  788.59   32.70
  -2   1  -9  775.90   32.35
   2  -1  10    2.43    1.95
   2  -1  10    1.79    1.85
  -2   1 -10   13.29    2.74
   2  -1  11  226.38   11.83
   2  -1  11  166.28    9.79
   2  -1  12  112.93    7.31
   2  -1  12   86.53    6.25
   2  -1  13   27.47    3.90
   2  -1  14   55.28    5.21
   2  -1  15  172.95    9.36
  -2   0  14    0.89    2.85
  -2   0  13  162.99    8.72
  -2   0  12  289.74   11.61
  -2   0  11  249.92   11.93
  -2   0  10   69.47    6.71
  -2   0   9  144.51    8.45
  -2   0   9  174.03    8.93
  -2   0   8  133.85    8.32
  -2   0   8  151.92    9.70
  -2   0   7  562.12   18.10
   2   0  -6    3.07    1.73
  -2   0   6    2.72    1.63
   2   0  -5  939.82   27.02
  -2   0   5  975.92   25.58
   2   0  -4 1399.47   31.21
  -2   0   4 1414.58   28.91
   2   0  -3 8320.77  134.13
  -2   0   3 7966.05  103.08
  -2   0   3 4167.13   72.82
   2   0  -2 5542.76   92.45
  -2   0   2 5494.95   91.03
  -2   0   2 2934.92   54.98
  -2   0   1 1401.53   31.04
  -2   0   1  798.10   21.96
  -2   0   0  443.98   15.97
   2   0   1    9.03    2.26
  -2   0  -1    4.98    1.67
   2   0   2 5002.33   85.79
   2   0   2 3193.22   58.74
  -2   0  -2 5453.73   91.52
  -2   0  -2 4299.88   73.34
   2   0   3  312.44   13.32
   2   0   3  242.96   12.26
  -2   0  -3  357.39   13.80
  -2   0  -3  300.44   12.47
   2   0   4    1.44    1.13
   2   0   4    4.59    1.57
  -2   0  -4    2.15    1.38
  -2   0  -4    0.93    1.18
   2   0   5  235.98   10.76
   2   0   5  202.20    9.68
  -2   0  -5  309.62   11.84
  -2   0  -5  212.23    9.64
   2   0   6 1516.54   36.03
   2   0   6 1257.19   30.57
  -2   0  -6 1867.19   41.49
  -2   0  -6 1203.23   29.72
   2   0   7 2344.17   56.77
   2   0   7 1867.46   46.13
  -2   0  -7 2939.72   67.44
  -2   0  -7 1645.77   41.39
   2   0   8  427.84   15.72
   2   0   8  343.09   13.41
  -2   0  -8  470.19   15.93
  -2   0  -8  292.32   12.41
   2   0   9   79.03    6.17
   2   0   9   62.28    5.38
  -2   0  -9   83.02    6.01
   2   0  10  732.67   31.51
   2   0  10  552.62   25.01
  -2   0 -10  726.13   31.50
   2   0  11  756.57   27.17
   2   0  11  570.12   21.53
   2   0  12 2348.33   33.08
   2   0  12 1820.64   28.10
   2   0  13  376.14   13.36
   2   0  13  289.42   11.80
   2   0  14   15.26    3.36
   2   0  15    2.22    2.80
   2   0  16   82.81    6.21
  -2  -1  12  641.29   17.20
  -2  -1  11  764.92   29.61
  -2  -1  11  458.90   18.32
  -2  -1  10   16.28    3.27
  -2  -1  10    5.56    2.46
  -2  -1   9   17.38    3.25
  -2  -1   9   22.70    3.68
  -2  -1   9   14.06    2.95
  -2  -1   8  696.27   26.78
  -2  -1   8  763.59   29.06
  -2  -1   8  478.75   20.20
   2   1  -7 1355.51   33.83
  -2  -1   7 1658.05   38.93
  -2  -1   7  957.78   27.11
   2   1  -6   55.40    5.22
   2   1  -6   28.60    3.62
  -2  -1   6   35.07    4.16
  -2  -1   6   61.31    5.39
   2   1  -5   10.70    2.80
   2   1  -5    4.74    1.84
  -2  -1   5    8.72    2.31
  -2  -1   5   10.50    2.30
   2   1  -4  446.06   15.60
   2   1  -4  207.04    9.74
  -2  -1   4  210.83   10.45
  -2  -1   4  441.78   14.76
   2   1  -3 3099.89   57.63
   2   1  -3 1452.52   32.30
  -2  -1   3 1458.50   33.30
  -2  -1   3 2972.84   55.26
   2   1  -2  420.94   17.15
   2   1  -2  211.13   10.17
  -2  -1   2  211.03   10.73
  -2  -1   2  401.54   14.83
   2   1  -1  168.98    9.76
   2   1  -1   92.66    6.38
  -2  -1   1   92.58    6.72
  -2  -1   1  166.26    9.15
   2   1   0 2598.61   50.60
   2   1   0 1666.22   35.71
  -2  -1   0 1568.50   38.31
  -2  -1   0 2733.09   51.00
  -2  -1  -1 9498.60  119.86
  -2  -1  -1 5501.76   75.93
  -2  -1  -1 6092.95   83.83
   2   1   2 6292.04  102.90
   2   1   2 4350.05   76.00
  -2  -1  -2 5811.98   94.97
   2   1   3 8387.40  132.38
   2   1   3 6760.74  109.95
  -2  -1  -3 9999.00  124.89
  -2  -1  -3 8198.59  105.43
   2   1   4  295.36   13.10
   2   1   4  244.99   11.61
  -2  -1  -4  351.00   13.89
  -2  -1  -4  254.54   11.36
   2   1   5   17.06    2.88
   2   1   5   15.18    2.62
  -2  -1  -5   23.03    3.25
  -2  -1  -5   13.12    2.50
   2   1   6  962.45   25.47
   2   1   6  778.90   21.94
  -2  -1  -6 1237.38   29.53
  -2  -1  -6  689.57   20.02
   2   1   7  588.69   20.47
   2   1   7  481.96   17.57
  -2  -1  -7  740.96   23.21
  -2  -1  -7  388.72   14.85
   2   1   8  104.54    7.17
   2   1   8   80.36    6.15
  -2  -1  -8  130.11    8.01
  -2  -1  -8   65.54    5.49
   2   1   9  227.99   10.08
   2   1   9  168.80    8.77
  -2  -1  -9  262.78   11.18
   2   1  10  260.03   14.45
   2   1  10  179.57   10.90
  -2  -1 -10  242.06   13.32
   2   1  11  824.67   28.64
   2   1  11  564.07   21.37
   2   1  12  517.51   15.65
   2   1  12  364.96   12.90
   2   1  13    8.11    2.84
   2   1  13    6.16    2.89
   2   1  14   94.71    7.01
   2   1  14   78.52    6.14
   2   1  15  196.65    9.55
   2   1  16  523.63   16.19
  -2  -2  14   12.96    3.52
  -2  -2  13   82.23    6.44
  -2  -2  12  100.73    6.75
  -2  -2  11   31.74    4.36
  -2  -2  10  372.50   12.62
  -2  -2  10  237.65   10.35
  -2  -2   9  925.53   35.49
  -2  -2   9 1139.45   38.70
  -2  -2   9  767.46   27.17
  -2  -2   8 3146.77  100.60
  -2  -2   8 3135.82   96.62
  -2  -2   8 2323.45   34.05
   2   2  -7  743.53   23.88
  -2  -2   7  976.16   26.22
  -2  -2   7  622.40   19.19
   2   2  -6  498.95   18.42
   2   2  -6  234.72   10.52
  -2  -2   6  334.40   13.91
  -2  -2   6  586.33   19.89
   2   2  -5  104.59    7.35
   2   2  -5   42.73    4.43
  -2  -2   5   52.18    4.96
  -2  -2   5  102.71    6.90
   2   2  -4 1425.66   36.05
   2   2  -4  528.92   16.84
  -2  -2   4  610.35   19.68
  -2  -2   4 1335.23   34.95
   2   2  -3 2937.11   50.57
   2   2  -3 1231.88   26.12
  -2  -2   3 1226.23   27.48
  -2  -2   3 2731.55   45.98
   2   2  -2  743.65   21.48
   2   2  -2  358.08   13.19
  -2  -2   2  332.75   13.11
  -2  -2   2  718.84   21.21
   2   2  -1  105.15    7.54
   2   2  -1   55.27    4.98
  -2  -2   1   52.37    5.08
  -2  -2   1  106.55    7.04
   2   2   0  183.76    9.70
   2   2   0  107.00    6.91
  -2  -2   0   99.76    6.85
  -2  -2   0  203.47    9.93
   2   2   1 4227.92   74.22
  -2  -2  -1 4669.32   78.90
  -2  -2  -1 2250.79   44.13
  -2  -2  -1 2429.44   51.67
   2   2   2  493.13   16.66
  -2  -2  -2 1038.85   25.59
  -2  -2  -2  768.98   20.88
   2   2   3   12.75    2.52
  -2  -2  -3   14.41    2.61
   2   2   4  748.13   21.08
   2   2   4  606.35   18.25
  -2  -2  -4  785.89   21.95
  -2  -2  -4  533.08   16.76
   2   2   5 2279.85   40.52
   2   2   5 1874.84   35.94
  -2  -2  -5 2885.55   46.96
  -2  -2  -5 1481.78   31.06
   2   2   6 5165.17   93.69
   2   2   6 4106.22   76.55
  -2  -2  -6 6570.80  113.93
  -2  -2  -6 3043.99   59.44
   2   2   7 3666.75   82.43
   2   2   7 2772.20   64.41
  -2  -2  -7 4683.44  101.56
  -2  -2  -7 2072.55   50.25
   2   2   8  751.86   21.91
   2   2   8  548.02   17.72
  -2  -2  -8  977.87   25.62
  -2  -2  -8  444.61   16.41
   2   2   9   62.49    5.89
   2   2   9   41.02    4.46
  -2  -2  -9   72.01    5.86
  -2  -2  -9   35.59    4.05
   2   2  10   47.32    4.85
   2   2  10   29.58    3.72
   2   2  11  485.03   20.47
   2   2  11  334.76   14.89
   2   2  12   26.26    3.93
   2   2  12   18.34    3.13
   2   2  13   23.92    3.71
   2   2  13   16.20    3.26
   2   2  14   45.00    5.07
   2   2  14   34.45    4.55
   2   2  15  275.29   11.00
   2   2  15  211.31   10.54
   2   2  16  146.55    8.45
  -2  -3  13  552.62   15.95
  -2  -3  12  260.22   10.85
  -2  -3  11   38.31    4.48
  -2  -3  10   33.03    3.94
  -2  -3   9  158.49    9.54
  -2  -3   9  104.78    7.00
  -2  -3   8  826.24   38.54
  -2  -3   8  872.23   36.55
  -2  -3   8  686.53   29.38
  -2  -3   7   26.36    4.41
  -2  -3   7   19.51    3.22
   2   3  -6   80.13    6.59
   2   3  -6   38.21    4.09
  -2  -3   6   56.65    5.07
  -2  -3   6   85.11    6.82
   2   3  -5 1880.74   43.50
   2   3  -5  698.24   20.79
  -2  -3   5 1064.83   28.53
  -2  -3   5 1816.02   47.42
   2   3  -4 5801.33  105.29
  -2  -3   4 5162.27   93.18
  -2  -3   4 2757.51   56.61
   2   3  -3 4458.71   83.31
   2   3  -3 1619.19   35.89
  -2  -3   3 1936.19   43.08
  -2  -3   3 4068.49   75.69
   2   3  -2 1811.74   37.54
   2   3  -2  782.03   20.60
  -2  -3   2 1860.85   35.63
   2   3  -1  279.61   12.71
   2   3  -1  135.64    7.92
  -2  -3   1  114.40   11.38
  -2  -3   1  309.34   12.73
   2   3   0   87.46    6.81
   2   3   0   45.86    4.61
  -2  -3   0   34.81    4.19
  -2  -3   0   97.47    6.72
   2   3   1 2125.20   43.58
  -2  -3  -1 2448.42   46.66
  -2  -3  -1  994.37   34.74
   2   3   2 3086.04   57.29
  -2  -3  -2 3460.99   61.20
  -2  -3  -2 2398.21   49.50
   2   3   3   49.03    4.89
  -2  -3  -3   73.22    5.61
  -2  -3  -3   34.33    4.11
   2   3   4   37.32    4.29
  -2  -3  -4   21.48    3.20
   2   3   5  610.81   19.06
   2   3   5  499.54   16.62
  -2  -3  -5  280.86   12.75
   2   3   6 1238.59   34.66
   2   3   6  948.80   27.78
  -2  -3  -6 1578.00   40.53
  -2  -3  -6  604.87   20.57
   2   3   7  181.47    9.34
   2   3   7  133.22    7.99
  -2  -3  -7  249.27   10.67
  -2  -3  -7   99.90    6.73
   2   3   8  262.80   10.94
   2   3   8  170.72    8.76
  -2  -3  -8  351.42   14.00
  -2  -3  -8  164.09    9.36
   2   3   9  235.09   10.60
   2   3   9  151.06    8.15
  -2  -3  -9  142.97    9.19
   2   3  10 1163.36   31.25
   2   3  10  731.27   22.47
   2   3  11 1535.68   26.76
   2   3  11  982.39   20.76
   2   3  12  382.72   13.29
   2   3  12  259.59   10.92
   2   3  13  203.08    9.62
   2   3  13  146.03    8.18
   2   3  14    4.08    3.29
   2   3  14    5.49    2.79
   2   3  15   32.55    4.31
   2   3  15   24.33    3.90
  -2  -4  13  666.35   18.34
  -2  -4  12  221.46   10.17
  -2  -4  11   33.13    4.05
  -2  -4  10   36.57    4.44
  -2  -4   9  977.79   21.28
  -2  -4   8  519.25   21.35
  -2  -4   8  354.92   15.66
  -2  -4   7  595.67   28.66
  -2  -4   7  523.98   24.26
  -2  -4   7  439.58   20.71
   2   4  -6   44.54    5.19
   2   4  -6   21.98    3.35
  -2  -4   6   37.15    4.15
  -2  -4   6   50.47    5.14
   2   4  -5  170.20   10.24
   2   4  -5   62.23    5.52
  -2  -4   5  106.74    7.29
  -2  -4   5  165.81    9.71
   2   4  -4  634.19   20.80
   2   4  -4  189.37   10.05
  -2  -4   4  377.07   14.55
  -2  -4   4  620.57   20.80
   2   4  -3  269.45   11.71
   2   4  -3   88.81    6.43
  -2  -4   3  162.45    8.50
  -2  -4   3  288.70   12.02
   2   4  -2   11.80    2.63
   2   4  -2    5.34    1.93
  -2  -4   2    7.50    2.30
  -2  -4   2   13.29    2.84
   2   4  -1 1775.50   34.91
   2   4  -1  763.61   20.52
  -2  -4   1 1191.02   27.49
  -2  -4   1 2042.03   37.52
   2   4   0 3679.83   57.27
   2   4   0 1766.18   34.91
  -2  -4   0 2826.51   49.24
  -2  -4   0 4157.50   62.02
   2   4   1 5756.86   80.77
  -2  -4  -1 6843.66   91.37
   2   4   2 2830.70   48.75
  -2  -4  -2 3155.55   49.44
   2   4   3  200.25   10.23
   2   4   3  139.54    9.95
  -2  -4  -3  225.05   10.01
  -2  -4  -3   92.45    8.09
   2   4   4  213.52    9.89
  -2  -4  -4  283.53   11.62
  -2  -4  -4  109.89    7.61
   2   4   5  497.22   17.60
  -2  -4  -5  710.14   22.62
  -2  -4  -5  291.10   13.19
   2   4   6  588.28   19.42
   2   4   6  444.18   15.88
  -2  -4  -6  311.41   13.14
   2   4   7   95.98    8.34
   2   4   7   68.82    5.71
  -2  -4  -7   60.17    5.84
   2   4   8    2.72    1.80
   2   4   8    0.76    1.63
  -2  -4  -8    0.56    1.62
   2   4   9   92.02    6.73
   2   4   9   52.12    4.91
  -2  -4  -9   56.04    5.17
   2   4  10  277.02   13.22
   2   4  10  159.15    9.25
   2   4  11  110.72    7.43
   2   4  11   69.87    5.83
   2   4  12    1.02    2.47
   2   4  12    0.94    2.21
   2   4  13  147.51    9.18
   2   4  13  100.06    6.95
   2   4  14  187.83    9.41
   2   4  14  133.45    7.83
   2   4  15  239.70   14.46
   2   4  15  194.23    9.38
  -2  -5  12    8.13    3.31
  -2  -5  11   23.46    3.85
  -2  -5  10  495.69   15.02
  -2  -5   9 1066.46   33.33
  -2  -5   8  574.57   16.26
  -2  -5   7  355.42   14.30
  -2  -5   6   19.26    3.16
   2   5  -5  369.53   18.93
   2   5  -5  126.66    7.45
  -2  -5   5  275.54   14.59
  -2  -5   5  386.36   14.23
   2   5  -4 1634.55   38.69
  -2  -5   4 1721.15   38.72
  -2  -5   4 1244.11   30.37
   2   5  -3 1070.60   29.47
  -2  -5   3 1210.95   32.23
  -2  -5   3  886.72   24.91
   2   5  -2   69.41    5.84
   2   5  -2   21.49    3.68
  -2  -5   2   60.02    5.27
  -2  -5   2   75.87    5.78
   2   5  -1   37.51    4.68
   2   5  -1   15.50    2.87
  -2  -5   1   36.20    4.05
  -2  -5   1   42.43    4.49
   2   5   0  754.30   22.01
   2   5   0  332.78   13.86
  -2  -5   0  619.04   19.78
  -2  -5   0  794.47   22.25
   2   5   1  394.59   14.15
  -2  -5  -1  403.80   13.09
   2   5   2   38.87    4.48
  -2  -5  -2   41.43    4.27
   2   5   3  421.58   16.51
  -2  -5  -3  440.69   17.18
   2   5   4 1352.49   37.06
   2   5   4 1185.37   33.24
  -2  -5  -4 1476.36   38.08
  -2  -5  -4  733.04   24.65
   2   5   5 2339.73   51.52
   2   5   5 1979.15   44.46
  -2  -5  -5 2777.14   57.82
  -2  -5  -5 1341.44   34.61
   2   5   6 1000.97   26.29
  -2  -5  -6  812.22   24.89
   2   5   7  307.65   11.70
   2   5   7  239.83   13.20
  -2  -5  -7  248.62   13.89
   2   5   8   49.43    4.82
   2   5   8   27.49    3.61
  -2  -5  -8   32.73    3.99
   2   5   9   18.87    3.33
   2   5   9    8.54    2.44
  -2  -5  -9    9.72    2.57
   2   5  10   84.20    6.45
   2   5  10   52.20    5.00
   2   5  11   63.27    5.58
   2   5  11   44.52    4.60
   2   5  12    1.74    2.58
   2   5  12    1.91    2.29
   2   5  13   48.11    5.24
   2   5  13   36.38    4.27
   2   5  14    4.42    3.30
   2   5  14    3.93    2.81
   2   5  15   41.92    5.10
   2   5  15   33.27    4.64
  -2  -6  12  113.88    7.90
  -2  -6  11   18.60    3.56
  -2  -6  10   99.11    6.79
  -2  -6   9   62.20    5.34
  -2  -6   8   16.87    3.29
  -2  -6   7  103.52    7.46
  -2  -6   6  436.84   17.77
   2   6  -5 1431.15   59.12
   2   6  -5  465.60   21.86
  -2  -6   5 1215.70   48.20
  -2  -6   5 1142.55   48.76
   2   6  -4 1937.24   63.67
  -2  -6   4 1797.46   58.52
  -2  -6   4 1721.18   56.13
   2   6  -3  365.68   18.57
   2   6  -3   98.15    6.62
  -2  -6   3  341.56   16.84
  -2  -6   3  349.35   13.01
   2   6  -2   11.66    2.58
   2   6  -2    4.98    1.95
  -2  -6   2   11.99    2.61
  -2  -6   2   12.08    2.70
   2   6  -1    2.48    1.73
   2   6  -1    1.78    1.55
  -2  -6   1    2.34    1.57
  -2  -6   1    2.59    1.87
   2   6   0 1028.31   27.27
   2   6   0  427.39   17.21
  -2  -6   0  617.52   21.13
  -2  -6   0  935.27   24.69
   2   6   1  781.07   23.28
  -2  -6  -1  689.18   21.87
   2   6   2   87.28    6.79
  -2  -6  -2   79.31    5.99
   2   6   3   74.59    6.21
  -2  -6  -3   67.92    5.44
   2   6   4  107.08    7.34
   2   6   4   70.13   12.09
   2   6   4   50.85   10.51
  -2  -6  -4   86.86    6.43
   2   6   5   32.64    4.07
   2   6   5   24.69    3.47
  -2  -6  -5   19.98    3.29
   2   6   6   36.19    4.15
   2   6   6   25.51    3.55
  -2  -6  -6   22.10    3.44
   2   6   7   43.66    4.43
  -2  -6  -7   49.06    5.08
   2   6   8  127.53    7.53
  -2  -6  -8  167.59    9.69
   2   6   9  258.00   10.99
   2   6   9  151.34    8.84
   2   6  10  352.22   12.83
   2   6  10  220.26    9.84
   2   6  11  324.08   14.58
   2   6  11  205.63   10.80
   2   6  12   35.25    4.63
   2   6  12   24.06    3.70
   2   6  13   10.01    3.42
   2   6  13    7.62    2.77
   2   6  14    4.70    3.14
   2   6  14    3.76    2.56
  -2  -7  11   51.04    5.38
  -2  -7  10  192.42    9.74
  -2  -7   9  427.73   14.63
  -2  -7   8  285.97   11.69
  -2  -7   7    7.08    2.60
  -2  -7   6   40.51    4.49
   2   7  -5   67.67    5.61
  -2  -7   5  201.19   10.96
   2   7  -4   64.84    5.85
   2   7  -4   16.93    5.27
  -2  -7   4   56.74    5.43
   2   7  -3   52.07    5.10
   2   7  -3   15.59    3.01
  -2  -7   3   48.87    4.95
  -2  -7   3   41.35    4.34
   2   7  -2  122.01    7.90
   2   7  -2   37.26    4.41
  -2  -7   2  101.78    7.09
  -2  -7   2   93.33    6.70
   2   7  -1 1454.11   49.45
   2   7  -1  478.39   20.58
  -2  -7   1  978.05   36.22
  -2  -7   1 1076.64   38.10
   2   7   0 1576.32   59.85
   2   7   0  651.74   29.23
  -2  -7   0 1163.68   45.20
   2   7   1  644.41   28.13
  -2  -7  -1  480.01   21.77
   2   7   2   83.85    6.88
  -2  -7  -2   64.11    5.62
   2   7   3    2.33    1.91
   2   7   4   86.41    6.49
   2   7   5  229.93   13.05
   2   7   5  228.21   15.36
   2   7   6   68.78    5.87
   2   7   6   62.97    5.45
  -2  -7  -6   50.93    5.07
   2   7   7   19.93    3.59
   2   7   7   12.82    2.79
   2   7   8    3.11    2.20
   2   7   9    2.98    2.21
   2   7  10   87.72    6.51
   2   7  10   53.69    5.06
   2   7  11  177.99    9.12
   2   7  11  109.62    7.00
   2   7  12  144.45    8.03
   2   7  13    9.77    3.11
  -2  -8  10  232.63   10.60
  -2  -8   9  237.09   10.25
  -2  -8   8    1.28    2.54
  -2  -8   7    2.41    2.47
  -2  -8   6  104.53    6.94
  -2  -8   5  372.85   13.56
  -2  -8   4  140.72    8.50
   2   8  -3   22.34    3.55
  -2  -8   3   19.50    3.35
   2   8  -2   18.51    3.47
   2   8  -2    6.07    2.51
  -2  -8   2   14.60    2.95
   2   8  -1    2.73    2.20
   2   8  -1    2.60    1.93
  -2  -8   1    1.67    1.97
  -2  -8   1    2.29    1.99
   2   8   0   22.23    3.49
   2   8   0   11.78    4.09
   2   8   0   10.20    4.12
  -2  -8   0   27.34    3.92
   2   8   1   53.34    5.08
  -2  -8  -1   33.60    4.09
   2   8   2  388.06   15.68
   2   8   3  220.17   11.43
   2   8   4  235.13   12.65
   2   8   5  394.62   17.08
   2   8   6   44.52    4.72
   2   8   7    0.90    2.33
   2   8   8   24.01    3.60
   2   8   9    9.02    3.14
   2   8  11    3.34    2.75
   2   8  12    0.26    2.46
   2   8  13   17.02    3.90
   2   9  -2   59.19    5.39
   2   9  -1  211.32   10.70
   2   9   0  215.21   10.13
   2   9   1    2.66    2.61
   2   9   2    3.90    2.31
   2   9   3   45.27    4.77
   2   9   4    8.83    2.85
   2   9   5    2.19    2.59
   2   9   6  299.04   14.18
   2   9   7   26.89    3.77
   2   9   8   18.94    3.80
   2   9   9   67.11    6.27
   2   9  10    4.60    2.87
   2  10   0  213.87    9.99
   2  10   1  136.65    8.15
   2  10   2   34.94    4.28
   2  10   3    3.75    2.52
   2  10   4   59.97    5.53
   2  10   5   12.63    3.54
   2  10   6   19.84    3.49
   2  10   7   55.51    5.23
   2  10   8    3.10    2.74
   2  10   9   27.30    4.16
   2  10  10  101.28    7.24
   2  11   1  184.56    9.58
   2  11   2    4.81    2.97
   2  11   3   24.68    3.94
   2  11   4    3.45    2.88
   2  11   5   61.94    5.68
   2  11   6    0.30    2.60
   2  11   7    1.27    3.35
   2  11   8   26.70    4.35
   2  12   3   28.97    4.58
   2  12   4  106.65    7.21
   2  12   5  116.61    7.52
  -3  11   3  131.10    8.19
  -3  11   2  111.45    8.17
  -3  11   1   15.88    3.67
  -3  10   6   28.14    4.46
  -3  10   5  127.23    8.24
  -3  10   4  220.38   11.00
  -3  10   3   55.27    5.39
  -3  10   2   36.82    4.59
  -3  10   1   58.81    5.52
  -3  10   0  277.55   11.53
  -3  10  -1  498.53   15.48
  -3  10  -1  315.91   12.40
  -3  10  -2  158.98    8.85
  -3  10  -3    6.38    2.78
  -3  10  -4    0.23    2.33
  -3  10  -5  138.88    8.10
  -3   9   8  227.86   10.54
  -3   9   7   84.41    7.89
  -3   9   6    2.53    2.90
  -3   9   6    1.33    2.91
  -3   9   5  324.44   12.30
  -3   9   5  180.22    9.05
  -3   9   4  361.60   12.61
  -3   9   4  226.76   10.66
  -3   9   3  247.50   10.84
  -3   9   3  156.35    8.44
  -3   9   2   64.80    5.59
  -3   9   2   38.61    4.63
  -3   9   1   35.76    4.33
  -3   9   1   23.36    3.70
  -3   9   0  177.55    9.07
  -3   9   0  139.47    8.11
  -3   9  -1  382.30   14.05
  -3   9  -1  294.59   11.82
  -3   9  -2   39.17    4.60
  -3   9  -2   30.93    4.10
  -3   9  -3    4.70    2.63
  -3   9  -4  151.95    8.45
   3  -9   5  515.83   15.84
   3  -9   6  251.22   11.66
   3  -9   7   15.94    3.57
   3  -9   8   48.03    4.98
   3  -9   9  142.92    9.06
  -3   8   9   61.86    5.49
  -3   8   8   59.64    6.86
  -3   8   8   27.34    4.16
  -3   8   7    8.63    3.31
  -3   8   7    4.59    2.69
  -3   8   6  192.68   10.22
  -3   8   6  108.13    7.18
  -3   8   5  550.04   16.24
  -3   8   5  334.17   12.44
  -3   8   4  677.71   24.12
  -3   8   4  452.30   18.27
  -3   8   3  334.54   14.79
  -3   8   3  242.93   12.15
  -3   8   2    0.89    2.37
  -3   8   2    0.59    1.93
  -3   8   1   53.32    5.08
  -3   8   1   46.97    5.02
  -3   8   0  686.46   17.85
  -3   8   0  622.94   17.29
  -3   8  -1  385.80   13.37
  -3   8  -1  360.10   13.06
  -3   8  -2   28.16    3.91
  -3   8  -2   27.87    3.78
  -3   8  -3   29.73    4.13
  -3   8  -3   24.48    3.72
   3  -8   4  105.69    7.30
  -3   8  -4  155.44    8.72
   3  -8   5  325.39   15.47
   3  -8   6   29.45    4.06
   3  -8   7   18.88    3.32
   3  -8   8  102.41    7.39
   3  -8   9  335.87   12.79
   3  -8  10  289.26   11.73
  -3   7  10  358.64   13.51
  -3   7  10  157.42    8.54
  -3   7   9  489.08   14.69
  -3   7   9  242.52   11.09
  -3   7   8  185.38    9.24
  -3   7   7   33.03    4.17
  -3   7   7   20.59    3.55
  -3   7   6   73.58    5.98
  -3   7   6   43.51    4.76
  -3   7   5  380.85   13.58
  -3   7   5  271.48   11.76
  -3   7   4  230.54   10.18
  -3   7   4  176.21    9.73
  -3   7   3    2.12    2.31
  -3   7   3    1.51    2.10
  -3   7   2   47.44    4.92
  -3   7   2   37.02    4.48
  -3   7   1  559.47   21.57
  -3   7   1  425.10   21.47
  -3   7   0 1383.23   35.33
  -3   7   0 1148.61   30.97
  -3   7  -1  404.70   15.20
  -3   7  -1  340.81   18.17
  -3   7  -2  378.25   17.24
  -3   7  -2  271.31   13.03
  -3   7  -2  245.94   12.32
   3  -7   3    5.44    2.13
  -3   7  -3    9.07    2.72
  -3   7  -3   10.43    2.57
  -3   7  -4  627.23   17.08
   3  -7   5  238.09   10.50
  -3   7  -5  289.15   11.68
   3  -7   6  193.40    9.75
   3  -7   7   30.72    4.24
   3  -7   8   88.23    6.76
   3  -7   9   56.41    5.20
   3  -7  10  112.24    7.26
   3  -7  11    8.28    2.92
   3  -7  12   36.05    4.89
  -3   6  11  290.14   14.45
  -3   6  11  129.19    8.56
  -3   6  10  534.35   19.23
  -3   6  10  245.44   10.94
  -3   6   9  541.61   15.73
  -3   6   9  267.76   11.37
  -3   6   8   92.45    6.86
  -3   6   8   49.38    4.93
  -3   6   7    3.01    2.30
  -3   6   6  355.88   13.97
  -3   6   5 1121.15   36.63
  -3   6   5  770.87   27.87
  -3   6   4  654.29   21.53
  -3   6   4  412.28   15.68
  -3   6   3  201.75   11.95
   3  -6  -2   19.96    3.43
  -3   6   2   15.67    3.12
  -3   6   2   15.87    3.03
   3  -6  -1  612.09   25.76
  -3   6   1  560.98   22.60
  -3   6   1  549.86   22.25
   3  -6   0  345.64   16.87
  -3   6   0  511.20   21.81
  -3   6   0  366.74   16.57
  -3   6   0  309.37   15.02
   3  -6   1    4.53    2.33
  -3   6  -1    7.77    2.56
  -3   6  -1    5.05    2.16
  -3   6  -1    5.07    1.97
   3  -6   2    2.34    1.89
  -3   6  -2    3.28    1.92
  -3   6  -2    2.66    1.95
  -3   6  -2    1.17    1.83
   3  -6   3  528.60   22.99
   3  -6   3  403.72   18.61
  -3   6  -3  764.61   28.86
   3  -6   4 1160.45   48.47
   3  -6   4 1024.58   42.58
  -3   6  -4 1720.90   66.23
   3  -6   5  666.72   22.11
   3  -6   5  612.60   20.57
  -3   6  -5  956.21   27.88
   3  -6   6  247.53   13.13
   3  -6   6  248.04   13.27
   3  -6   7    6.66    2.50
   3  -6   8   78.21    6.15
   3  -6   9  252.52   12.82
   3  -6  10  208.20   10.18
   3  -6  11    1.17    2.61
   3  -6  12    0.05    2.87
   3  -6  13   10.60    3.33
  -3   5  12    4.49    3.83
  -3   5  12    2.18    2.98
  -3   5  11   30.72    4.47
  -3   5  11   13.65    3.52
  -3   5  10  414.40   13.89
  -3   5  10  192.38   10.50
  -3   5   9  104.61    6.99
  -3   5   9   54.82    6.04
  -3   5   8    1.98    2.59
  -3   5   8    1.61    2.51
  -3   5   7  107.54    7.31
  -3   5   7   70.09    6.03
  -3   5   6  485.71   19.98
  -3   5   5  969.40   39.54
   3  -5  -4  298.68   14.91
  -3   5   4  241.09   12.88
   3  -5  -3   99.77    7.16
   3  -5  -3   86.19    7.17
  -3   5   3   77.34    6.61
   3  -5  -2  193.48   10.45
  -3   5   2  132.16    8.09
  -3   5   2  150.88    9.33
   3  -5  -1 1135.24   31.73
  -3   5   1 1369.78   32.48
  -3   5   1  816.42   22.64
  -3   5   1  871.62   25.90
   3  -5   0 1004.48   27.81
  -3   5   0 1242.24   30.94
  -3   5   0  809.29   22.57
  -3   5   0  771.08   22.93
   3  -5   1  844.21   25.52
  -3   5  -1 1048.05   28.20
  -3   5  -1  751.68   21.62
  -3   5  -1  675.82   20.54
   3  -5   2  117.17    8.84
   3  -5   2   74.50    6.13
  -3   5  -2  143.98    8.64
  -3   5  -2  117.06    7.28
   3  -5   3  134.42    8.25
   3  -5   3   91.11    6.74
  -3   5  -3  162.81    8.65
  -3   5  -3  142.67    7.93
   3  -5   4   96.11    6.95
   3  -5   4   74.13    5.98
  -3   5  -4  125.95    8.09
  -3   5  -4  111.09    7.14
   3  -5   5  287.43   16.19
   3  -5   5  239.77   13.08
  -3   5  -5  369.74   17.48
   3  -5   6   35.56    4.53
   3  -5   6   31.19    3.97
  -3   5  -6   45.43    4.79
   3  -5   7  185.26   10.36
   3  -5   7  169.38    9.77
  -3   5  -7  274.77   13.22
   3  -5   8  431.16   18.39
   3  -5   9 1032.58   22.06
   3  -5  10  185.61   10.88
   3  -5  11   16.03    3.36
   3  -5  12    8.28    3.04
   3  -5  13  105.78    7.03
  -3   4  13    8.75    3.35
  -3   4  13    5.17    3.48
  -3   4  12   52.57    5.20
  -3   4  12   26.94    5.18
  -3   4  11  689.70   18.93
  -3   4  11  348.84   12.72
  -3   4  10  884.73   20.51
  -3   4  10  450.13   17.55
  -3   4   9  465.87   18.93
  -3   4   9  259.32   12.57
  -3   4   8  420.12   14.22
  -3   4   8  256.13   10.97
  -3   4   7   22.80    3.75
  -3   4   7   13.33    2.98
  -3   4   6  433.13   20.91
  -3   4   5   67.53    6.55
   3  -4  -4   29.50    4.14
   3  -4  -4   24.86    3.50
  -3   4   4   24.40    3.44
   3  -4  -3  146.82    8.97
   3  -4  -3  114.77    7.19
  -3   4   3  101.71    7.13
  -3   4   3  151.33    8.43
   3  -4  -2 1128.99   30.57
   3  -4  -2  886.40   24.92
  -3   4   2  778.44   23.83
  -3   4   2 1234.96   31.30
   3  -4  -1 1943.71   46.93
  -3   4   1 2160.72   48.05
  -3   4   1 1201.99   31.14
  -3   4   1 1300.62   35.73
   3  -4   0 1023.63   29.73
  -3   4   0 1184.54   32.66
  -3   4   0  709.66   22.71
  -3   4   0  715.38   23.35
   3  -4   1  475.63   18.17
  -3   4  -1  541.20   18.65
  -3   4  -1  369.15   14.71
  -3   4  -1  338.60   14.63
   3  -4   2  176.36    9.84
   3  -4   2  100.72    7.20
  -3   4  -2  190.25    9.76
  -3   4  -2  145.67    7.93
   3  -4   3  284.96   13.13
   3  -4   3  178.00   10.21
  -3   4  -3  307.24   14.48
  -3   4  -3  270.23   11.76
   3  -4   4 1534.69   42.69
   3  -4   4 1115.38   30.21
  -3   4  -4 1748.07   41.08
  -3   4  -4 1660.36   39.15
   3  -4   5  470.04   17.10
   3  -4   5  354.02   14.45
  -3   4  -5  509.61   17.77
  -3   4  -5  507.08   16.90
   3  -4   6   45.93    5.08
   3  -4   6   37.32    4.22
  -3   4  -6   49.68    5.15
   3  -4   7   28.43    4.94
   3  -4   7   24.05    3.54
  -3   4  -7   35.48    4.29
   3  -4   8   16.23    3.13
   3  -4   8   12.39    2.92
  -3   4  -8   23.16    3.88
   3  -4   9   24.43    3.65
   3  -4  10   80.42    6.36
   3  -4  11   11.12    3.21
   3  -4  12  213.55    9.97
   3  -4  13  220.08   10.30
   3  -4  14   61.08    5.66
  -3   3  13    1.98    3.00
  -3   3  13    1.77    3.07
  -3   3  12   58.66    5.41
  -3   3  12   34.08    5.25
  -3   3  11  772.34   18.48
  -3   3  11  371.66   13.13
  -3   3  10  286.40   13.66
  -3   3  10  151.06    9.52
  -3   3   9  114.04    7.39
  -3   3   9   65.99    5.61
  -3   3   8    0.82    2.38
  -3   3   8    2.14    2.17
  -3   3   7  346.93   17.38
   3  -3  -6 1000.00   36.16
  -3   3   6  714.28   27.75
   3  -3  -5 1134.31   29.50
  -3   3   5  797.84   24.67
   3  -3  -4  833.29   22.76
  -3   3   4  821.44   24.34
  -3   3   4 1170.72   29.05
   3  -3  -3  313.91   13.91
   3  -3  -3  228.60   10.90
  -3   3   3  222.12   11.37
   3  -3  -2  165.95    9.33
   3  -3  -2  117.73    6.93
  -3   3   2  104.32    7.65
  -3   3   2  168.72    8.67
   3  -3  -1  397.03   14.50
   3  -3  -1  297.25   11.24
  -3   3   1  259.41   11.10
  -3   3   1  422.25   13.98
   3  -3   0    8.35    2.16
  -3   3   0    8.91    2.15
  -3   3   0    5.15    1.82
  -3   3   0    6.39    1.96
   3  -3   1  104.14    7.29
  -3   3  -1  107.15    7.17
  -3   3  -1   68.53    5.45
  -3   3  -1   70.02    5.73
   3  -3   2  410.94   14.41
   3  -3   2  224.75   10.39
  -3   3  -2  420.63   13.99
  -3   3  -2  312.73   11.58
   3  -3   3 1734.35   51.87
   3  -3   3 1117.76   29.67
  -3   3  -3 1884.62   41.12
  -3   3  -3 1594.40   35.97
   3  -3   4 1909.81   49.48
   3  -3   4 1331.36   36.46
  -3   3  -4 2042.01   50.46
  -3   3  -4 1883.68   47.12
   3  -3   5  153.65    9.08
   3  -3   5  114.91    7.54
  -3   3  -5  163.72    8.84
  -3   3  -5  157.81    8.30
   3  -3   6  171.16    9.55
   3  -3   6  140.75    8.32
  -3   3  -6  208.26   10.57
  -3   3  -6  178.57    9.12
   3  -3   7   18.90    3.37
   3  -3   7   16.72    2.91
  -3   3  -7   26.72    3.79
   3  -3   8  776.89   29.91
   3  -3   8  713.76   27.09
  -3   3  -8 1136.55   40.72
   3  -3   9  224.84   12.17
   3  -3   9  232.11   11.31
  -3   3  -9  340.56   14.17
   3  -3  10   19.18    3.98
   3  -3  10   17.24    3.11
   3  -3  11   10.59    2.70
   3  -3  12    0.93    2.48
   3  -3  13    1.69    2.53
   3  -3  14   18.27    3.55
  -3   2  13  210.24   11.29
  -3   2  13  116.64    7.92
  -3   2  12   55.41    5.47
  -3   2  12   28.47    4.22
  -3   2  11  164.98    8.94
  -3   2  11   84.39    6.55
  -3   2  10   79.17    6.20
  -3   2  10   43.14    4.75
  -3   2   9    7.40    2.61
  -3   2   9    3.46    2.62
  -3   2   8   53.62    5.16
  -3   2   8   28.19    3.84
   3  -2  -7  681.82   27.31
  -3   2   7  483.01   20.22
   3  -2  -6  891.82   37.17
  -3   2   6  615.15   27.06
   3  -2  -5  383.07   14.78
   3  -2  -5  249.49   11.07
  -3   2   5  248.45   11.56
  -3   2   5  362.36   13.95
   3  -2  -4   37.60    4.40
   3  -2  -4   29.49    3.60
  -3   2   4   22.71    3.47
  -3   2   4   37.22    4.05
   3  -2  -3  104.91    6.60
  -3   2   3  103.80    6.98
  -3   2   3  170.58    8.56
   3  -2  -2  835.99   22.81
  -3   2   2  747.50   21.79
   3  -2  -1 1814.02   35.36
   3  -2  -1 1189.70   25.49
  -3   2   1 1047.44   24.53
   3  -2   0 1448.10   30.50
  -3   2   0 1446.93   29.59
  -3   2   0  744.71   19.69
  -3   2   0  807.18   21.16
   3  -2   1  289.94   12.25
  -3   2  -1  299.75   11.74
  -3   2  -1  173.70    8.66
   3  -2   2  556.58   18.05
   3  -2   2  310.51   12.98
  -3   2  -2  570.08   16.51
  -3   2  -2  357.07   12.76
   3  -2   3  110.42    7.55
   3  -2   3   70.30    5.95
  -3   2  -3  115.17    7.02
   3  -2   4   72.68    5.91
   3  -2   4   51.58    4.84
  -3   2  -4   77.58    6.08
   3  -2   5  371.44   14.77
   3  -2   5  285.77   11.50
  -3   2  -5  427.64   13.69
   3  -2   6   89.39    6.84
   3  -2   6   67.84    5.70
  -3   2  -6  118.77    7.58
   3  -2   7  751.91   23.77
  -3   2  -7 1272.08   30.92
   3  -2   8  364.61   19.07
  -3   2  -8  546.79   24.68
   3  -2   9   37.84    4.44
  -3   2  -9   53.43    5.84
   3  -2  10  154.10    8.80
  -3   2 -10  180.74    9.86
   3  -2  11    8.11    2.72
   3  -2  15    3.03    2.82
  -3   1  13   37.38    5.85
  -3   1  13   20.88    3.82
  -3   1  12  741.05   19.32
  -3   1  12  422.72   14.65
  -3   1  11  542.47   15.85
  -3   1  11  303.14   11.75
  -3   1  10  701.53   18.52
  -3   1  10  398.09   14.07
  -3   1   9  511.62   16.85
  -3   1   9  292.72   12.91
   3  -1  -8   41.21    5.07
  -3   1   8   26.54    3.81
   3  -1  -7   25.38    3.68
   3  -1  -6  105.54    7.63
  -3   1   6  102.76    6.93
   3  -1  -5    6.11    1.91
   3  -1  -5    3.17    1.71
  -3   1   5    5.16    2.04
   3  -1  -4    3.57    1.68
   3  -1  -4    2.12    1.63
  -3   1   4    3.39    2.17
   3  -1  -3  248.26   11.47
   3  -1  -3  136.92    7.65
  -3   1   3  237.03   10.01
   3  -1  -2 1536.61   30.06
  -3   1   2 2892.99   46.93
   3  -1   0   15.69    2.70
   3  -1   1   29.66    3.91
  -3   1  -1   29.27    3.73
   3  -1   2  569.24   17.39
  -3   1  -2  576.73   16.63
  -3   1  -2  370.06   14.31
   3  -1   3 2305.14   41.84
  -3   1  -3 2508.82   42.86
  -3   1  -3 1984.07   35.55
   3  -1   4  333.89   13.61
  -3   1  -4  372.81   13.46
  -3   1  -4  330.31   12.03
   3  -1   5  555.49   20.87
  -3   1  -5  690.10   21.05
  -3   1  -5  591.99   18.33
   3  -1   6  198.18   10.51
  -3   1  -6  269.04   11.06
  -3   1  -6  215.72   10.19
   3  -1   7  199.75    9.91
  -3   1  -7  280.37   12.08
  -3   1  -7  199.31    9.16
   3  -1   8   72.09    5.87
   3  -1   8   56.94    5.17
  -3   1  -8   92.59    6.48
   3  -1   9  237.00   10.94
   3  -1   9  205.68   10.23
  -3   1  -9  327.45   12.88
   3  -1  10  441.65   16.50
   3  -1  10  371.73   14.67
  -3   1 -10  534.07   22.32
   3  -1  11  177.70   10.06
   3  -1  11  144.76    8.77
  -3   1 -11  194.23   12.45
   3  -1  12   52.63    5.05
   3  -1  12   39.32    4.39
   3  -1  13   76.87    5.96
   3  -1  14   11.65    3.26
   3  -1  15    1.39    2.69
  -3   0  12  124.26   10.01
  -3   0  11  194.15    9.82
  -3   0  10    2.74    2.55
  -3   0   9   30.70    5.11
   3   0  -8  262.18   14.66
   3   0  -7  951.72   39.13
  -3   0   7  964.82   38.93
   3   0  -6  938.78   26.81
  -3   0   6  899.62   24.04
  -3   0   6  489.55   17.82
   3   0  -5  704.63   21.83
  -3   0   5  672.32   20.44
  -3   0   5  379.54   14.86
   3   0  -4 1043.18   28.11
  -3   0   4  976.63   25.54
  -3   0   4  565.45   18.99
   3   0  -3    6.41    1.98
  -3   0   3    7.06    1.93
  -3   0   3    2.56    1.37
   3   0  -2  148.40    9.32
   3   0  -2   74.82    5.58
  -3   0   2   80.19    6.06
  -3   0   2  143.68    8.07
   3   0  -1  208.21   11.87
   3   0  -1  134.35    7.80
  -3   0   1  131.55    8.66
  -3   0   1  234.09   10.89
   3   0   0   96.73    6.79
  -3   0   0   85.76    6.42
  -3   0   0  136.37    7.86
   3   0   1  218.56   10.93
  -3   0  -1  129.51    7.66
  -3   0  -1  146.03    8.70
   3   0   2  925.10   24.41
   3   0   2  520.70   18.02
  -3   0  -2  993.80   24.68
  -3   0  -2  676.54   19.59
   3   0   3   19.35    3.00
   3   0   3   13.14    2.64
  -3   0  -3   20.88    3.07
  -3   0  -3   24.96    3.27
   3   0   4   32.01    3.86
   3   0   4   24.55    3.34
  -3   0  -4   38.23    4.05
  -3   0  -4   34.18    3.78
   3   0   5   32.74    4.12
   3   0   5   26.27    3.51
  -3   0  -5   42.76    4.32
  -3   0  -5   33.75    3.86
   3   0   6   17.64    3.11
   3   0   6   13.49    2.60
  -3   0  -6   23.94    3.47
  -3   0  -6   17.86    2.92
   3   0   7   86.00    6.40
   3   0   7   84.11    6.17
  -3   0  -7  126.86    8.26
  -3   0  -7   87.48    6.03
   3   0   8  163.38    9.23
   3   0   8  144.00    8.53
  -3   0  -8  222.07   10.41
  -3   0  -8  141.49    8.18
   3   0   9   45.40    4.69
   3   0   9   41.19    4.34
  -3   0  -9   63.67    5.91
   3   0  10   94.07    7.02
   3   0  10   76.57    5.92
  -3   0 -10  119.03    7.72
   3   0  11  377.96   16.55
   3   0  11  305.91   14.24
  -3   0 -11  429.62   20.81
   3   0  12   85.80    6.46
   3   0  12   60.51    5.32
   3   0  13  325.66   12.39
   3   0  13  235.13   10.86
   3   0  14  166.61    9.13
   3   0  15   34.31    4.44
   3   0  16   16.33    3.99
  -3  -1  13    1.52    2.88
  -3  -1  12    4.29    3.12
  -3  -1  11   21.24    3.58
  -3  -1  11   15.75    3.46
  -3  -1  10    4.13    2.43
  -3  -1  10    3.59    2.44
  -3  -1   9   49.09    5.29
  -3  -1   9   29.02    3.78
   3   1  -8  169.02   10.13
  -3  -1   8  190.24   10.24
  -3  -1   8  112.86    7.95
   3   1  -7  261.25   13.60
  -3  -1   7  270.85   13.89
  -3  -1   7  149.69    9.26
   3   1  -6    5.94    2.10
  -3  -1   6    4.87    2.21
  -3  -1   6    2.59    1.73
   3   1  -5   22.24    3.47
   3   1  -5    9.58    2.38
  -3  -1   5   11.15    2.43
  -3  -1   5   19.46    3.22
   3   1  -4   85.37    6.29
   3   1  -4   40.15    4.98
  -3  -1   4   44.48    6.71
  -3  -1   4   78.38    5.97
   3   1  -3 1934.92   43.89
   3   1  -3  959.15   26.28
  -3  -1   3  958.65   25.72
  -3  -1   3 1754.08   38.76
   3   1  -2  476.47   21.81
   3   1  -2  288.26   11.43
  -3  -1   2  278.92   12.42
  -3  -1   2  500.40   15.43
   3   1  -1  770.92   24.41
   3   1  -1  463.76   15.72
  -3  -1   1  438.51   15.27
  -3  -1   1  774.99   21.36
   3   1   0 1265.78   31.68
   3   1   0  802.77   21.22
  -3  -1   0  752.38   22.00
  -3  -1   0 1296.24   29.63
  -3  -1  -1 1556.65   33.35
  -3  -1  -1  836.76   22.22
  -3  -1  -1  933.98   24.67
   3   1   2   11.68    2.45
  -3  -1  -2   15.93    2.71
   3   1   3 1266.38   31.72
   3   1   3  848.31   23.49
  -3  -1  -3 1460.95   31.87
  -3  -1  -3 1175.67   27.35
   3   1   4  610.39   17.90
   3   1   4  447.66   15.20
  -3  -1  -4  746.56   19.89
  -3  -1  -4  604.22   17.52
   3   1   5  563.30   17.83
   3   1   5  460.01   16.42
  -3  -1  -5  723.15   19.39
  -3  -1  -5  563.50   16.39
   3   1   6  144.04    8.73
   3   1   6  119.47    7.82
  -3  -1  -6  192.60    9.51
  -3  -1  -6  137.51    7.63
   3   1   7   39.50    4.27
   3   1   7   34.39    4.03
  -3  -1  -7   50.73    4.69
  -3  -1  -7   34.33    4.03
   3   1   8   28.25    4.01
   3   1   8   22.65    3.35
  -3  -1  -8   37.36    4.19
  -3  -1  -8   20.38    3.24
   3   1   9  153.07    8.63
   3   1   9  121.87    7.68
  -3  -1  -9  204.85   10.17
   3   1  10   41.90    4.38
   3   1  10   32.42    3.96
  -3  -1 -10   51.46    5.40
   3   1  11    7.87    2.76
   3   1  11    3.43    2.18
   3   1  12   17.16    3.16
   3   1  12   15.51    3.22
   3   1  13   92.19    6.70
   3   1  13   58.43    5.19
   3   1  14   13.63    3.10
   3   1  14    9.04    2.65
   3   1  15  102.07    7.04
   3   1  16   41.42    5.57
  -3  -2  13  120.98    7.64
  -3  -2  12  385.21   13.54
  -3  -2  11  122.73    7.41
  -3  -2  10  191.04   10.53
  -3  -2  10  156.25    9.53
  -3  -2   9  151.01    8.78
  -3  -2   9  112.94    7.35
   3   2  -8   15.05    2.96
  -3  -2   8   10.54    2.71
  -3  -2   8   11.87    2.77
   3   2  -7   22.05    3.46
  -3  -2   7   20.21    3.43
  -3  -2   7   15.82    3.13
   3   2  -6  255.52   12.34
  -3  -2   6  235.27   11.90
  -3  -2   6  129.52    8.13
   3   2  -5   42.93    4.89
   3   2  -5   18.74    3.04
  -3  -2   5   18.91    3.08
  -3  -2   5   39.61    4.42
   3   2  -4  155.40    9.03
   3   2  -4   68.52    5.59
  -3  -2   4   66.93    5.59
  -3  -2   4  139.14    8.41
   3   2  -3    8.97    2.23
   3   2  -3    4.95    1.80
  -3  -2   3   10.28    2.41
  -3  -2   3    9.34    2.23
   3   2  -2   11.71    3.18
   3   2  -2    5.51    1.74
  -3  -2   2    5.24    1.82
  -3  -2   2   10.97    2.33
   3   2  -1  186.89    9.51
   3   2  -1  108.61    6.83
  -3  -2   1  102.95    7.36
  -3  -2   1  189.13    9.11
   3   2   0  351.11   14.91
   3   2   0  220.32   10.71
  -3  -2   0  198.48   10.82
  -3  -2   0  372.29   14.26
   3   2   1  273.47   12.46
  -3  -2  -1  335.75   13.39
  -3  -2  -1  179.45    9.64
  -3  -2  -2   79.96    5.93
  -3  -2  -2   47.53    4.56
  -3  -2  -2   45.73    4.79
   3   2   3  384.98   14.35
  -3  -2  -3  578.52   16.66
   3   2   4    2.35    1.34
   3   2   4    2.11    1.29
  -3  -2  -4    2.00    1.87
   3   2   5 1399.72   33.85
   3   2   5 1132.65   30.02
  -3  -2  -5 1777.39   40.73
  -3  -2  -5 1289.34   30.28
   3   2   6 1390.32   33.92
   3   2   6 1162.08   29.15
  -3  -2  -6 1842.11   39.61
  -3  -2  -6 1159.67   28.19
   3   2   7  451.12   16.31
   3   2   7  380.17   14.98
  -3  -2  -7  595.43   18.98
  -3  -2  -7  339.82   13.82
   3   2   8 1104.68   29.20
   3   2   8  901.91   24.22
  -3  -2  -8 1502.17   35.45
  -3  -2  -8  773.24   22.52
   3   2   9  616.97   27.02
   3   2   9  512.55   23.12
  -3  -2  -9  840.50   35.51
  -3  -2  -9  410.27   19.18
   3   2  10    3.07    2.11
   3   2  10    2.26    1.84
   3   2  11   28.68    3.94
   3   2  11   18.63    3.25
   3   2  12  125.27    8.26
   3   2  12   77.15    5.89
   3   2  13   69.17    5.62
   3   2  13   47.78    4.87
   3   2  14    8.60    3.00
   3   2  14    7.89    2.77
   3   2  15   16.80    3.58
   3   2  15   13.07    3.42
   3   2  16   44.68    5.23
  -3  -3  13    5.61    3.47
  -3  -3  12    5.00    2.66
  -3  -3  11   92.18    6.61
  -3  -3  10    2.24    2.55
  -3  -3   9  354.83   12.63
  -3  -3   9  294.94   11.43
   3   3  -8  234.01   13.57
  -3  -3   8  199.02   10.77
   3   3  -7  144.15   10.47
  -3  -3   7  144.41   12.40
  -3  -3   7   97.01    7.47
   3   3  -6  501.50   23.15
  -3  -3   6  472.98   22.09
  -3  -3   6  265.75   15.06
   3   3  -5  292.20   13.07
   3   3  -5  115.72    7.47
  -3  -3   5  127.16    8.28
  -3  -3   5  250.06   12.26
   3   3  -4  310.59   13.32
   3   3  -4  123.75    7.32
  -3  -3   4  131.14    8.10
  -3  -3   4  266.14   13.71
   3   3  -3  758.86   25.38
   3   3  -3  350.63   14.06
  -3  -3   3  325.81   13.90
  -3  -3   3  690.70   22.29
   3   3  -2  523.16   18.19
   3   3  -2  263.81   11.42
  -3  -3   2  240.48   11.84
  -3  -3   2  500.57   17.01
   3   3  -1  498.75   16.85
   3   3  -1  282.21   11.44
  -3  -3   1  254.00   11.11
  -3  -3   1  522.64   16.63
   3   3   0    3.32    1.55
   3   3   0    1.91    1.27
  -3  -3   0    1.26    1.23
  -3  -3   0    2.33    1.47
   3   3   1   64.93    5.79
   3   3   1   43.95    4.34
  -3  -3  -1   35.75    4.31
  -3  -3  -1   73.94    5.54
   3   3   2   23.45    3.47
  -3  -3  -2   28.04    3.58
  -3  -3  -2   17.43    2.87
  -3  -3  -2   14.03    2.68
   3   3   3  314.01   14.46
  -3  -3  -3  739.76   19.08
  -3  -3  -3  557.37   17.19
   3   3   4  182.88    9.23
  -3  -3  -4  243.37   10.34
   3   3   5   27.13    3.58
   3   3   5   20.99    3.44
  -3  -3  -5   21.08    3.12
   3   3   6   12.26    2.57
   3   3   6   10.84    2.33
  -3  -3  -6   16.10    2.91
  -3  -3  -6    8.64    2.31
   3   3   7    1.45    1.66
   3   3   7    0.87    1.59
  -3  -3  -7    3.04    1.98
  -3  -3  -7    1.09    1.55
   3   3   8  101.58    7.05
   3   3   8   88.62    6.54
  -3  -3  -8   58.78    5.32
   3   3   9  301.73   14.59
   3   3   9  254.84   13.07
  -3  -3  -9  181.44   10.42
   3   3  10  277.73   13.05
   3   3  10  208.76   10.59
   3   3  11  687.70   18.19
   3   3  11  419.48   13.92
   3   3  12  686.11   18.52
   3   3  12  401.83   13.43
   3   3  13  354.41   12.98
   3   3  13  213.79    9.85
   3   3  14  135.60    8.18
   3   3  14   91.27    6.47
   3   3  15    0.08    2.49
   3   3  15    0.60    2.54
  -3  -4  12   24.92    4.14
  -3  -4  11    2.85    2.86
  -3  -4  10    4.65    2.58
  -3  -4   9    2.74    2.27
  -3  -4   8   31.53    4.04
   3   4  -7  204.70   10.88
  -3  -4   7  161.27    9.25
   3   4  -6  217.04   10.35
  -3  -4   6  197.20   11.01
  -3  -4   6  130.86    7.95
   3   4  -5  361.05   13.60
   3   4  -5  123.84    7.47
  -3  -4   5  184.87    9.57
  -3  -4   5  315.25   14.12
   3   4  -4  114.91    7.69
   3   4  -4   44.34    4.49
  -3  -4   4   54.73    5.02
  -3  -4   4  107.29    7.30
   3   4  -3  297.57   13.08
   3   4  -3  125.98    7.32
  -3  -4   3  132.76    7.87
  -3  -4   3  293.53   12.73
   3   4  -2    8.18    2.22
   3   4  -2    4.17    1.74
  -3  -4   2    4.73    1.82
  -3  -4   2    8.72    2.21
   3   4  -1  128.66   12.19
   3   4  -1   75.91    5.68
  -3  -4   1   58.57    5.78
  -3  -4   1  155.87    8.36
   3   4   0 1059.41   28.46
   3   4   0  605.83   18.79
  -3  -4   0  462.02   16.79
  -3  -4   0 1241.80   30.07
   3   4   1  686.92   21.45
  -3  -4  -1  827.69   23.17
  -3  -4  -1  324.08   13.55
   3   4   2 1928.51   42.67
  -3  -4  -2 2268.84   46.80
  -3  -4  -2 1577.00   36.44
  -3  -4  -2  996.98   29.25
   3   4   3 2489.59   51.04
  -3  -4  -3 3036.17   59.33
  -3  -4  -3 2053.49   44.63
  -3  -4  -3 1539.71   36.10
   3   4   4  122.52    7.63
   3   4   4   80.95    6.49
  -3  -4  -4  161.05    8.12
  -3  -4  -4   82.28    6.14
   3   4   5   44.80    4.54
  -3  -4  -5   72.75    6.09
  -3  -4  -5   29.61    3.83
   3   4   6   65.92    5.57
   3   4   6   57.28    5.00
  -3  -4  -6   31.67    4.02
   3   4   7  827.09   23.32
   3   4   7  733.41   21.84
  -3  -4  -7  424.50   15.64
   3   4   8  506.78   22.99
   3   4   8  440.28   20.61
  -3  -4  -8  281.44   15.65
   3   4   9    4.59    2.20
   3   4   9    3.69    1.84
  -3  -4  -9    2.19    2.15
   3   4  10    5.31    2.46
   3   4  10    3.61    2.06
   3   4  11  104.34    7.45
   3   4  11   54.08    5.25
   3   4  12   59.72    5.52
   3   4  12   29.80    3.93
   3   4  13   19.29    3.52
   3   4  13   13.74    2.99
   3   4  14  105.09    7.34
   3   4  14   72.45    5.84
   3   4  15  509.58   15.60
   3   4  15  361.53   13.01
  -3  -5  12    5.28    3.43
  -3  -5  11   56.47    5.41
  -3  -5  10   25.74    3.95
  -3  -5   9  112.92    7.34
  -3  -5   8   73.28    5.84
   3   5  -7  131.46    9.10
  -3  -5   7  115.81    7.63
   3   5  -6  124.51    8.15
  -3  -5   6   82.50    6.54
   3   5  -5  143.16    8.43
   3   5  -5   41.60    5.00
  -3  -5   5   89.23    6.39
  -3  -5   5  130.88    8.05
   3   5  -4  226.03   10.65
   3   5  -4   81.05    6.03
  -3  -5   4  136.41    7.86
  -3  -5   4  223.92   10.40
   3   5  -3  179.99    9.61
   3   5  -3   79.10    6.08
  -3  -5   3  113.90    7.27
  -3  -5   3  199.74    9.82
   3   5  -2 1207.28   30.83
   3   5  -2  588.11   18.96
  -3  -5   2  701.18   22.03
  -3  -5   2 1386.05   32.64
   3   5  -1  436.50   16.41
   3   5  -1  227.19   11.34
  -3  -5   1  270.20   12.13
  -3  -5   1  517.69   17.47
   3   5   0    1.93    1.61
   3   5   0    0.91    1.33
  -3  -5   0    1.14    1.64
  -3  -5   0    1.96    1.60
   3   5   1  131.93    8.04
  -3  -5  -1  158.73    8.49
  -3  -5  -1   73.93    6.87
   3   5   2   65.63    5.64
  -3  -5  -2   77.28    6.17
   3   5   3    4.29    1.87
  -3  -5  -3    4.48    1.99
   3   5   4  525.43   18.38
  -3  -5  -4  624.63   20.27
  -3  -5  -4  239.27   14.59
   3   5   5  689.99   20.69
   3   5   5  505.43   17.63
  -3  -5  -5  826.19   23.34
  -3  -5  -5  308.71   14.55
   3   5   6 1245.10   30.87
  -3  -5  -6  667.05   21.95
   3   5   7 1343.52   51.44
  -3  -5  -7  743.65   32.45
   3   5   8  300.43   16.10
   3   5   8  285.50   15.11
  -3  -5  -8  180.19   10.98
   3   5   9   66.82    5.91
   3   5   9   63.74    5.47
  -3  -5  -9   50.81    4.89
   3   5  10  119.31    7.88
   3   5  10   81.72    6.30
  -3  -5 -10   82.05    6.41
   3   5  11  234.74   10.83
   3   5  11  120.25    7.48
   3   5  12  324.83   12.25
   3   5  12  176.42    9.08
   3   5  13  196.13    9.93
   3   5  13  122.93    7.40
   3   5  14   57.19    5.47
   3   5  14   36.95    4.41
   3   5  15   36.22    4.63
   3   5  15   25.70    4.11
  -3  -6  11   97.68    6.96
  -3  -6  10  156.83    8.42
  -3  -6   9    2.01    2.49
  -3  -6   8   45.73    4.84
  -3  -6   7   31.18    4.08
   3   6  -6   58.67    5.99
  -3  -6   6   48.43    4.99
   3   6  -5  270.59   12.55
   3   6  -5   75.42    6.17
  -3  -6   5  196.68   10.07
   3   6  -4  160.15   10.65
   3   6  -4   54.92    5.15
  -3  -6   4  130.58    8.89
  -3  -6   4  169.08    9.22
   3   6  -3 1483.08   49.69
   3   6  -3  604.31   24.22
  -3  -6   3 1179.06   40.66
  -3  -6   3 1634.04   54.19
   3   6  -2  766.58   32.78
   3   6  -2  360.01   17.68
  -3  -6   2  641.09   27.54
  -3  -6   2  893.35   36.03
   3   6  -1   75.29    6.21
   3   6  -1   38.43    4.45
  -3  -6   1   69.92    5.72
  -3  -6   1   88.94    6.28
   3   6   0  100.25    7.30
   3   6   0   55.06    5.55
  -3  -6   0   94.22    6.66
  -3  -6   0  117.24    7.27
   3   6   1  772.47   23.37
  -3  -6  -1  875.67   23.47
   3   6   2 2010.91   44.68
  -3  -6  -2 2239.35   46.34
   3   6   3  729.66   21.74
  -3  -6  -3  810.88   22.48
   3   6   4   59.84    5.67
   3   6   5   66.95    5.73
   3   6   5   38.70    5.50
  -3  -6  -5   38.38    5.38
   3   6   6   82.27    6.32
   3   6   6   69.38    5.93
  -3  -6  -6   46.96    5.09
   3   6   7  207.59   12.31
  -3  -6  -7  128.88    9.56
   3   6   8    0.47    1.62
  -3  -6  -8    0.24    1.77
   3   6   9  355.49   12.87
   3   6   9  348.38   12.36
   3   6  10  755.40   18.96
   3   6  10  575.25   16.72
   3   6  11  359.84   16.19
   3   6  11  198.51   10.60
   3   6  13   44.42    5.17
   3   6  13   28.17    3.91
   3   6  14   48.58    5.45
  -3  -7  10   97.29    6.67
  -3  -7   9   44.80    4.98
  -3  -7   8  392.61   13.16
  -3  -7   7  470.96   15.08
  -3  -7   6   42.09    4.54
  -3  -7   5   16.24    3.10
   3   7  -4    2.89    2.37
   3   7  -4    1.37    1.82
  -3  -7   4    3.60    2.48
   3   7  -3  123.09    8.61
   3   7  -3   49.27    5.06
  -3  -7   3  112.49    7.61
   3   7  -2   24.51    3.53
   3   7  -2   11.95    2.66
  -3  -7   2   25.00    4.51
  -3  -7   2   28.11    3.81
   3   7  -1  115.43    7.48
   3   7  -1   58.49    6.02
  -3  -7   1  104.16    7.33
  -3  -7   1  119.82    7.30
   3   7   0  355.20   16.25
   3   7   0  198.92   13.87
  -3  -7   0  243.93   14.97
  -3  -7   0  379.66   16.84
   3   7   1 1584.08   52.63
  -3  -7  -1 1649.43   54.13
   3   7   2 1115.71   38.98
  -3  -7  -2 1159.93   40.63
   3   7   3  246.36   11.66
   3   7   4   37.26    4.43
   3   7   5  498.41   23.45
   3   7   6  897.68   26.46
   3   7   6  619.53   22.44
   3   7   7  643.15   24.14
   3   7   7  625.27   23.49
   3   7   8  124.18    8.20
   3   7   8  152.68    8.86
   3   7   9   22.51    3.62
   3   7  10   24.16    3.85
   3   7  11  213.32   10.21
   3   7  12  145.01    8.55
   3   7  13   93.50    6.46
   3   7  14  269.65   11.47
  -3  -8   9   15.86    3.78
  -3  -8   8  479.27   17.51
  -3  -8   7   16.87    3.55
  -3  -8   6   48.88    4.91
  -3  -8   5   49.82    5.22
  -3  -8   4  888.56   21.00
   3   8  -3 1201.38   24.96
  -3  -8   3 1110.42   24.12
   3   8  -2  328.74   12.53
  -3  -8   2  279.05   11.97
   3   8  -1    2.58    2.23
  -3  -8   1    2.93    2.20
   3   8   0   48.48    4.93
  -3  -8   0   41.59    4.35
   3   8   1  302.63   13.74
   3   8   2   93.54    6.92
   3   8   3    5.68    2.44
   3   8   4  676.06   24.92
   3   8   5  620.42   22.98
   3   8   6  992.02   21.95
   3   8   7  441.90   14.07
   3   8   8    0.72    2.12
   3   8   9  153.99    8.51
   3   8  11  558.82   16.16
   3   8  12   44.72    5.30
   3   8  13    0.79    3.03
   3   9  -2   26.49    3.93
   3   9  -1  136.95    8.77
   3   9   0  567.60   16.27
   3   9   1  916.36   21.44
   3   9   2 1238.22   25.32
   3   9   3    7.97    2.61
   3   9   4   24.15    4.03
   3   9   5   97.78    7.12
   3   9   6  360.90   15.77
   3   9   7   44.57    4.69
   3   9   8  163.86    9.08
   3   9   9  190.61    9.80
   3   9  10  377.40   13.40
   3  10   0  428.34   14.79
   3  10   1  580.57   17.28
   3  10   2  121.73    7.62
   3  10   3   52.79    5.27
   3  10   4  268.36   11.87
   3  10   5  629.44   18.28
   3  10   6  506.50   16.02
   3  10   7   50.46    5.23
   3  10   8    1.50    2.59
   3  10   9   45.26    5.10
   3  10  10  121.35    8.11
   3  11   1  271.71   12.20
   3  11   2    1.48    2.64
   3  11   3  104.52    7.36
   3  11   4  172.22    9.27
   3  11   5  452.77   15.30
   3  11   6  195.29   10.19
   3  11   7    0.51    2.88
   3  11   8   88.09    6.94
   3  12   3   21.43    4.32
   3  12   4  132.02    8.07
   3  12   5  105.83    7.76
  -4  10   4  142.84    8.40
  -4  10   3   47.05    5.40
  -4  10   2  110.45    7.82
  -4  10   1    6.65    3.37
  -4  10   0   10.04    3.19
  -4  10   0    7.98    2.79
  -4  10  -1   19.55    4.01
  -4  10  -1   14.73    3.36
  -4  10  -2    1.90    2.89
  -4  10  -3    1.75    2.70
  -4  10  -4    5.52    2.88
  -4  10  -5    6.17    3.16
  -4  10  -6   50.11    5.26
  -4   9   7   54.83    6.75
  -4   9   6   23.64    4.03
  -4   9   6   12.68    3.15
  -4   9   5   52.09    5.21
  -4   9   5   31.97    4.43
  -4   9   4   17.01    4.09
  -4   9   4   11.22    3.24
  -4   9   3   13.86    3.70
  -4   9   3    9.35    2.91
  -4   9   2    5.16    2.91
  -4   9   2    0.64    2.10
  -4   9   1   19.49    3.60
  -4   9   1   13.60    3.08
  -4   9   0   14.44    3.12
  -4   9   0   10.59    2.95
  -4   9  -1  138.57    8.76
  -4   9  -1  124.02    7.41
  -4   9  -2   11.06    3.20
  -4   9  -2    9.64    3.41
  -4   9  -3    4.54    2.72
  -4   9  -4   12.17    3.12
  -4   9  -5   33.63    4.29
   4  -9   6   11.24    3.06
   4  -9   7   26.16    3.99
   4  -9   8    9.16    2.93
  -4   8   8   65.94    7.38
  -4   8   8   35.79    4.92
  -4   8   7   72.36    5.90
  -4   8   7   41.53    4.73
  -4   8   6   11.18    3.70
  -4   8   6    5.38    3.25
  -4   8   5    2.62    2.78
  -4   8   5    2.52    2.84
  -4   8   4   30.57    4.51
  -4   8   4   22.29    3.63
  -4   8   3    1.42    2.66
  -4   8   3    0.44    2.96
  -4   8   2    0.03    2.21
  -4   8   2    0.21    2.50
  -4   8   1    1.38    2.36
  -4   8   1    0.36    1.93
  -4   8   0   28.12    4.11
  -4   8   0   23.68    3.57
  -4   8  -1    1.49    2.35
  -4   8  -1    1.05    2.17
  -4   8  -2   61.65    5.36
  -4   8  -2   50.74    5.28
  -4   8  -3   11.03    3.03
  -4   8  -3    8.11    2.69
  -4   8  -4   27.65    3.98
  -4   8  -4   25.24    3.99
   4  -8   5   55.83    5.49
   4  -8   6    5.02    2.63
   4  -8   7    9.88    3.12
   4  -8   8    1.45    2.34
   4  -8   9    1.79    2.62
   4  -8  10    7.39    3.56
  -4   7   9   -0.23    3.03
  -4   7   9    0.86    3.33
  -4   7   8    0.73    2.47
  -4   7   7    4.53    2.95
  -4   7   7    2.85    2.60
  -4   7   6   24.80    4.00
  -4   7   6   17.21    3.36
  -4   7   5   78.74    6.40
  -4   7   5   51.13    4.91
  -4   7   4   96.43    7.18
  -4   7   4   63.01    5.91
  -4   7   3    1.27    2.53
  -4   7   3    0.53    2.07
   4  -7  -2   21.75    3.45
  -4   7   2   17.21    3.40
   4  -7  -1   81.85    6.75
  -4   7   1   65.91    6.22
   4  -7   0    8.77    2.80
  -4   7   0    8.11    2.75
   4  -7   1  111.15    8.78
  -4   7  -1   95.61    7.44
   4  -7   2   43.39    5.27
  -4   7  -2   39.35    4.52
   4  -7   3    8.41    2.51
  -4   7  -3    8.32    2.76
   4  -7   4    1.34    2.15
   4  -7   4    0.21    1.74
   4  -7   5    8.32    2.82
   4  -7   5    6.05    2.39
   4  -7   6   81.10    6.22
   4  -7   7   93.08    6.55
   4  -7   8   49.16    4.95
   4  -7   9    1.19    2.20
   4  -7  10    3.24    2.82
   4  -7  11   12.35    3.38
  -4   6  10    0.86    3.02
  -4   6  10    1.38    2.82
  -4   6   9   15.08    3.77
  -4   6   9    9.98    3.46
  -4   6   8    2.28    2.79
  -4   6   8    3.31    2.54
  -4   6   7    4.13    2.43
  -4   6   6   13.70    3.13
  -4   6   5    0.52    2.05
   4  -6  -4   65.54    6.03
  -4   6   4   48.74    5.38
   4  -6  -3  132.22    8.65
  -4   6   3   98.12    7.18
   4  -6  -2   16.78    3.27
  -4   6   2   12.66    2.82
   4  -6  -1  192.50   10.57
  -4   6   1  141.95    8.54
   4  -6   0   33.73    4.60
  -4   6   0   25.06    3.57
   4  -6   1   18.01    3.32
  -4   6  -1   13.25    2.82
   4  -6   2    7.57    2.56
  -4   6  -2    8.44    2.75
  -4   6  -2    4.99    2.16
   4  -6   3    7.88    2.64
  -4   6  -3    8.33    2.66
  -4   6  -3    5.10    2.17
   4  -6   4   30.07    4.64
   4  -6   4   20.54    3.61
  -4   6  -4   33.89    4.14
   4  -6   5  278.43   15.93
   4  -6   5  207.34   11.66
  -4   6  -5  354.11   16.28
   4  -6   6  118.85    8.66
   4  -6   6   90.87    6.94
   4  -6   7  406.11   14.56
   4  -6   8   20.78    3.53
   4  -6   9    3.01    2.29
   4  -6  10   83.76    6.68
   4  -6  11  243.56   11.15
   4  -6  12  104.05    7.04
  -4   5  11   20.22    4.25
  -4   5  11   11.41    3.44
  -4   5  10   74.03    6.96
  -4   5  10   39.03    4.69
  -4   5   9   -0.23    2.98
  -4   5   9    1.49    2.71
  -4   5   8    8.49    3.24
  -4   5   8    4.89    2.54
  -4   5   7  107.94    7.02
  -4   5   7   64.76    6.33
  -4   5   6    5.53    2.56
   4  -5  -5   14.67    2.89
  -4   5   5   10.82    2.70
   4  -5  -4  236.76   11.99
  -4   5   4  171.49    9.76
   4  -5  -3    0.70    2.03
  -4   5   3    0.74    1.84
   4  -5  -2    2.37    2.17
  -4   5   2    1.11    1.61
   4  -5  -1   51.49    5.17
  -4   5   1   34.71    4.22
   4  -5   0  508.47   23.36
  -4   5   0  342.93   18.99
   4  -5   1  463.38   21.62
  -4   5  -1  528.56   23.97
  -4   5  -1  326.05   17.80
   4  -5   2  523.02   24.98
  -4   5  -2  573.88   26.09
  -4   5  -2  378.79   19.15
   4  -5   3   64.27    6.38
   4  -5   3   39.56    4.31
  -4   5  -3   69.43    5.78
   4  -5   4   14.40    3.14
   4  -5   4    5.94    2.23
  -4   5  -4   11.73    2.84
   4  -5   5   26.84    3.86
   4  -5   5   17.11    3.12
  -4   5  -5   30.70    3.87
   4  -5   6   72.01    6.53
   4  -5   6   50.91    5.15
  -4   5  -6   86.50    6.82
   4  -5   7   23.18    4.06
   4  -5   7   16.88    3.34
   4  -5   8   88.61    6.64
   4  -5   9   37.04    4.50
   4  -5  10  489.05   15.87
   4  -5  11  298.15   12.22
   4  -5  12    0.58    2.28
   4  -5  13    6.16    3.10
  -4   4  12   77.28    6.46
  -4   4  12   37.77    4.92
  -4   4  11   23.25    4.21
  -4   4  11   11.49    3.23
  -4   4  10   43.54    4.87
  -4   4  10   23.46    3.75
  -4   4   9  272.53   11.73
  -4   4   9  163.11    8.83
  -4   4   8   59.00    5.29
  -4   4   8   35.94    4.36
   4  -4  -7   60.83    5.59
  -4   4   7   45.43    4.81
   4  -4  -6  129.25    8.57
  -4   4   6   98.42    7.24
  -4   4   5    7.49    2.51
   4  -4  -4  185.01    9.60
  -4   4   4  126.32    8.04
   4  -4  -3   13.94    2.87
  -4   4   3    7.94    2.14
   4  -4  -2   28.73    3.76
  -4   4   2   17.31    3.05
   4  -4  -1  205.68   10.65
  -4   4   1  116.14    7.52
  -4   4   1  131.32    8.58
   4  -4   0  394.55   14.98
  -4   4   0  413.88   16.16
  -4   4   0  245.35   11.01
  -4   4   0  254.09   12.20
   4  -4   1  807.29   24.39
  -4   4  -1  850.98   23.60
  -4   4  -1  551.64   18.18
  -4   4  -1  532.96   18.24
   4  -4   2  128.90    9.33
  -4   4  -2  134.31    8.30
  -4   4  -2   97.26    6.94
  -4   4  -2   90.86    6.75
   4  -4   3  216.33   11.58
   4  -4   3  119.42    7.67
  -4   4  -3  216.69   11.19
  -4   4  -3  176.77    8.79
   4  -4   4  185.54    9.88
   4  -4   4  112.10    7.62
  -4   4  -4  195.94    9.56
   4  -4   5  996.73   42.08
   4  -4   5  633.27   27.76
  -4   4  -5 1030.49   41.11
   4  -4   6 2385.45   77.80
   4  -4   6 1641.34   54.53
  -4   4  -6 2579.85   80.67
   4  -4   7  104.67    7.77
   4  -4   7   72.98    5.73
  -4   4  -7  124.86    7.86
   4  -4   8   38.06    4.67
   4  -4   8   30.75    4.13
  -4   4  -8   51.15    5.45
   4  -4   9   65.71    5.80
   4  -4   9   51.18    5.20
   4  -4  10  187.83   10.19
   4  -4  11   16.35    3.49
   4  -4  12   36.06    4.35
   4  -4  13   83.19    6.41
   4  -4  14  294.92   11.45
  -4   3  12   19.22    3.89
  -4   3  12    9.33    3.90
  -4   3  11    4.42    3.03
  -4   3  11    3.50    3.31
  -4   3  10   72.63    6.71
  -4   3  10   44.20    5.06
  -4   3   9   50.40    5.26
  -4   3   9   27.91    4.69
   4  -3  -8    2.63    1.87
  -4   3   8    3.45    2.11
   4  -3  -7   42.17    4.52
  -4   3   7   31.29    4.01
   4  -3  -6  418.64   16.14
  -4   3   6  271.70   12.19
   4  -3  -5 1190.42   42.73
  -4   3   5  782.82   30.04
  -4   3   4  247.64   13.83
  -4   3   3  447.70   17.77
   4  -3  -2   96.01    7.25
   4  -3  -2   62.24    5.24
  -4   3   2   54.91    5.20
  -4   3   2   91.57    6.69
   4  -3  -1   12.68    2.69
  -4   3   1    4.12    1.91
  -4   3   1    2.23    1.41
   4  -3   0  187.40    9.94
  -4   3   0  184.33    9.40
  -4   3   0  101.80    6.63
  -4   3   0  111.91    7.12
   4  -3   1  213.93   10.48
  -4   3  -1  222.97    9.88
  -4   3  -1  135.51    7.70
  -4   3  -1  139.89    8.36
   4  -3   2   75.81    6.37
  -4   3  -2   73.43    5.96
  -4   3  -2   54.35    4.94
  -4   3  -2   49.51    4.89
   4  -3   3  317.26   13.73
   4  -3   3  175.81    9.80
  -4   3  -3  321.27   13.59
  -4   3  -3  259.04   11.69
   4  -3   4  671.18   22.74
   4  -3   4  408.57   15.43
  -4   3  -4  694.92   21.15
  -4   3  -4  617.60   19.29
   4  -3   5 1907.14   42.22
   4  -3   5 1232.63   31.07
  -4   3  -5 2003.97   44.19
   4  -3   6  306.70   13.60
   4  -3   6  225.27   11.16
  -4   3  -6  354.52   14.63
   4  -3   7   55.56    5.20
   4  -3   7   41.55    4.66
  -4   3  -7   66.89    5.75
   4  -3   8    3.05    2.08
   4  -3   8    2.56    2.12
  -4   3  -8    4.03    2.21
   4  -3   9 1005.53   33.93
   4  -3   9  834.75   29.69
  -4   3  -9 1455.82   46.54
   4  -3  10  961.36   22.62
   4  -3  10  817.80   20.42
   4  -3  11  371.29   16.28
  -4   2  12  108.50    8.73
  -4   2  12   55.88    6.27
  -4   2  11    8.52    3.34
  -4   2  11    4.90    3.72
  -4   2  10  109.57    7.61
  -4   2  10   57.65    6.10
  -4   2   9   47.80    5.65
  -4   2   9   24.81    3.79
   4  -2  -8    1.52    1.94
  -4   2   8    1.47    2.20
   4  -2  -7    3.03    2.00
  -4   2   7    2.68    2.26
   4  -2  -6  110.47    7.41
  -4   2   6   69.87    5.90
   4  -2  -5  452.95   22.00
  -4   2   5  273.73   14.49
   4  -2  -4  439.46   16.43
  -4   2   4  257.14   12.28
   4  -2  -3    0.54    1.40
  -4   2   3    0.15    0.98
  -4   2   3    0.74    1.58
   4  -2  -2  502.06   16.66
  -4   2   2  397.16   15.36
   4  -2  -1 1448.85   39.95
   4  -2  -1  916.86   26.30
   4  -2   0 4338.89   81.68
  -4   2   0 4273.57   79.25
   4  -2   1 2748.16   56.17
  -4   2  -1 2744.94   55.04
   4  -2   2  154.19    8.98
  -4   2  -2  155.25    8.80
   4  -2   3  318.87   14.32
   4  -2   3  159.09    8.93
  -4   2  -3  322.61   14.56
   4  -2   4  813.64   25.58
  -4   2  -4  844.01   25.81
   4  -2   5  572.99   19.38
  -4   2  -5  659.13   20.33
   4  -2   6    4.15    1.87
  -4   2  -6    3.68    1.84
   4  -2   7   27.76    4.05
  -4   2  -7   36.39    4.39
   4  -2   8  949.97   37.89
  -4   2  -8 1372.83   46.44
   4  -2   9 1306.77   52.42
  -4   2  -9 1830.83   68.87
   4  -2  10  607.83   22.87
  -4   2 -10  903.85   31.20
   4  -2  11   72.80    6.15
   4  -2  13  273.46   11.60
   4  -2  14  316.74   12.18
   4  -2  15  328.51   12.72
  -4   1  13   14.64    3.68
  -4   1  12   41.92    5.64
  -4   1  12   26.15    4.20
  -4   1  11  478.23   19.85
  -4   1  11  290.32   13.47
  -4   1  10  537.20   17.08
  -4   1  10  262.80   11.50
   4  -1  -9  449.77   15.55
   4  -1  -8  205.26   10.02
   4  -1  -7   12.04    2.90
   4  -1  -6   52.42    5.63
   4  -1  -5  544.73   24.75
   4  -1  -4  151.73    9.30
  -4   1   4  135.73    7.87
   4  -1  -3   49.67    5.04
  -4   1   3   43.42    4.32
  -4   1   2  171.60    8.55
   4  -1   0 2084.55   45.27
  -4   1   0 1160.29   29.03
   4  -1   1   12.94    2.68
  -4   1  -1   12.21    2.56
  -4   1  -1    7.12    2.05
  -4   1  -1    7.84    2.07
   4  -1   2  205.10    9.70
  -4   1  -2  205.37    9.45
  -4   1  -2  137.43    7.63
  -4   1  -2  136.29    8.13
   4  -1   3 1014.78   28.83
  -4   1  -3 1044.29   26.90
  -4   1  -3  797.73   22.92
   4  -1   4 4066.79   79.83
  -4   1  -4 4525.20   82.19
  -4   1  -4 3719.15   69.97
   4  -1   5 3465.23   79.35
   4  -1   5 2325.00   56.76
  -4   1  -5 4062.23   90.32
  -4   1  -5 3558.45   79.10
   4  -1   6 1038.18   28.56
   4  -1   6  793.75   24.14
  -4   1  -6 1327.61   33.96
  -4   1  -6 1142.96   29.19
   4  -1   7  321.81   13.64
   4  -1   7  262.08   12.09
  -4   1  -7  435.41   15.67
   4  -1   8  255.18   10.95
   4  -1   8  208.44    9.91
  -4   1  -8  353.11   12.89
   4  -1   9  162.16   10.66
   4  -1   9  137.76    9.50
  -4   1  -9  231.71   13.24
   4  -1  10  298.89   13.21
   4  -1  10  255.75   12.27
  -4   1 -10  433.20   16.99
   4  -1  11    3.19    2.13
   4  -1  11    2.63    1.95
  -4   1 -11    4.98    2.55
   4  -1  12  316.87   14.50
   4  -1  12  263.05   12.90
   4  -1  13  276.36   11.50
   4  -1  14  411.07   13.53
   4  -1  15  142.04    8.88
  -4   0  12    2.13    3.13
  -4   0  11   44.68    5.72
  -4   0  10  137.82    8.96
   4   0  -9   42.39    4.79
  -4   0   9   28.66    4.04
   4   0  -8   89.91    7.33
  -4   0   8   52.76    5.23
   4   0  -7  689.43   22.70
  -4   0   7  388.30   14.97
   4   0  -6 1726.32   57.47
  -4   0   6  953.23   34.03
   4   0  -5 3247.95   64.10
  -4   0   5 2840.17   55.87
  -4   0   5 1722.96   28.33
   4   0  -4 1450.73   34.77
   4   0  -4  752.18   21.84
  -4   0   4  795.19   22.46
  -4   0   4 1311.02   31.66
   4   0  -3   89.05    6.78
   4   0  -3   47.63    4.68
  -4   0   3   48.66    4.86
  -4   0   3   82.45    6.22
   4   0  -2   72.90    5.85
   4   0  -2   43.59    4.24
  -4   0   2   52.38    4.85
  -4   0   2   70.24    5.58
   4   0  -1 1597.85   36.79
   4   0  -1  992.62   26.40
  -4   0   1  909.25   25.04
  -4   0   1 1552.86   35.01
   4   0   0  661.27   17.89
  -4   0   0  593.20   18.51
  -4   0   0  980.61   26.29
   4   0   1   10.07    2.29
  -4   0  -1    6.18    1.84
  -4   0  -1    6.75    1.90
   4   0   2   16.95    2.93
  -4   0  -2   19.30    3.07
  -4   0  -2   11.36    2.34
  -4   0  -2   12.95    2.55
   4   0   3 2477.36   45.74
   4   0   3 1412.33   31.44
  -4   0  -3 2661.54   45.39
  -4   0  -3 1999.56   36.10
   4   0   4 2192.75   47.08
   4   0   4 1413.94   34.18
  -4   0  -4 2496.28   50.64
  -4   0  -4 2061.05   44.11
   4   0   5  787.02   23.21
   4   0   5  547.58   18.59
  -4   0  -5  950.37   26.59
  -4   0  -5  790.06   22.28
   4   0   6    1.89    1.42
   4   0   6    1.80    1.47
  -4   0  -6    2.02    1.47
  -4   0  -6    1.12    1.55
   4   0   7  964.94   26.45
   4   0   7  775.30   22.30
  -4   0  -7 1299.39   31.66
  -4   0  -7  984.76   25.45
   4   0   8 1352.14   32.85
   4   0   8 1110.13   28.92
  -4   0  -8 1883.78   45.06
   4   0   9 2419.50   77.00
   4   0   9 2090.23   67.90
  -4   0  -9 3443.90  105.76
   4   0  10 1579.78   40.10
   4   0  10 1370.79   35.43
  -4   0 -10 2315.35   54.46
   4   0  11   59.81    6.14
   4   0  11   51.42    4.85
   4   0  12    3.61    2.30
   4   0  12    0.13    1.89
   4   0  13   32.03    4.25
   4   0  13   22.86    3.78
   4   0  14  242.15   10.72
   4   0  15    5.68    2.77
  -4  -1  13   42.70    4.81
  -4  -1  12   21.41    3.98
  -4  -1  11   78.68    6.84
  -4  -1  11   55.07    5.42
  -4  -1  10  468.72   19.80
  -4  -1  10  285.07   11.76
   4   1  -9   62.10    5.79
  -4  -1   9   39.32    4.55
   4   1  -8    1.72    2.03
  -4  -1   8    1.14    2.43
   4   1  -7   13.16    2.89
  -4  -1   7    7.43    2.62
   4   1  -6  737.27   28.93
  -4  -1   6  656.44   25.71
  -4  -1   6  377.57   17.00
   4   1  -5  508.92   17.99
  -4  -1   5  448.87   15.87
  -4  -1   5  252.30   12.17
   4   1  -4    2.48    1.70
   4   1  -4    1.55    1.45
  -4  -1   4    1.79    1.63
  -4  -1   4    6.72    2.23
   4   1  -3  655.68   22.99
   4   1  -3  333.82   13.60
  -4  -1   3  336.97   14.06
  -4  -1   3  574.79   19.23
   4   1  -2 3701.64   70.79
   4   1  -2 2023.71   43.28
  -4  -1   2 1971.71   42.47
  -4  -1   2 3370.80   64.75
   4   1  -1 6121.08  108.33
   4   1  -1 3610.84   67.61
  -4  -1   1 3390.22   65.76
  -4  -1   1 5795.40  103.50
   4   1   0 3649.67   57.17
   4   1   0 2371.83   40.60
  -4  -1   0 2057.94   38.19
  -4  -1   0 3639.30   56.17
  -4  -1  -1 1426.51   29.30
  -4  -1  -1  768.86   20.27
  -4  -1  -1  847.30   21.90
  -4  -1  -2   19.26    2.97
  -4  -1  -2   18.29    3.14
   4   1   3  659.95   19.12
   4   1   3  358.80   13.65
  -4  -1  -3  672.95   18.26
  -4  -1  -3  521.82   15.99
   4   1   4  368.18   13.26
   4   1   4  236.34   11.17
  -4  -1  -4  443.60   13.53
  -4  -1  -4  356.94   12.39
   4   1   5 1309.72   32.11
   4   1   5  935.14   25.30
  -4  -1  -5 1657.87   37.38
  -4  -1  -5 1366.99   31.70
   4   1   6   91.82    6.81
   4   1   6   68.86    5.96
  -4  -1  -6  116.35    8.12
  -4  -1  -6   91.09    6.27
   4   1   7  748.46   22.30
   4   1   7  609.04   19.01
  -4  -1  -7 1029.81   29.49
  -4  -1  -7  776.49   22.12
   4   1   8  983.36   26.91
   4   1   8  816.21   24.02
  -4  -1  -8 1387.97   33.55
  -4  -1  -8  931.96   24.49
   4   1   9 1504.53   50.43
   4   1   9 1277.97   43.90
  -4  -1  -9 2203.28   73.31
   4   1  10   63.30    5.54
   4   1  10   56.70    5.22
   4   1  11  168.05    9.91
   4   1  11  136.58    8.52
   4   1  12  310.13   12.32
   4   1  12  243.82   10.43
   4   1  13  935.01   21.92
   4   1  13  654.21   17.76
   4   1  14  537.50   16.07
   4   1  14  355.16   13.23
   4   1  15  168.92    9.10
   4   1  16    1.54    2.59
  -4  -2  12  156.23    8.40
  -4  -2  11  634.00   17.83
  -4  -2  10  931.88   24.72
  -4  -2  10  613.22   16.75
   4   2  -9  164.34    9.39
  -4  -2   9  120.12    7.85
   4   2  -8   69.64    6.42
  -4  -2   8   39.82    4.70
   4   2  -7  171.75    9.38
  -4  -2   7  161.39   12.23
  -4  -2   7   87.70    6.40
   4   2  -6 1373.83   47.29
  -4  -2   6 1199.67   42.29
  -4  -2   6  648.86   25.81
   4   2  -5  424.22   20.17
  -4  -2   5  359.27   17.92
  -4  -2   5  198.55   11.76
   4   2  -4   83.17    6.90
   4   2  -4   37.62    4.09
  -4  -2   4   38.83    4.33
  -4  -2   4   71.05    5.63
   4   2  -3   23.93    3.54
   4   2  -3   11.95    2.41
  -4  -2   3   12.85    2.59
  -4  -2   3   21.30    3.18
   4   2  -2  898.71   27.28
   4   2  -2  474.39   16.77
  -4  -2   2  474.55   17.10
  -4  -2   2  827.99   24.83
   4   2  -1 1314.33   32.17
   4   2  -1  761.07   21.77
  -4  -2   1  712.88   21.65
  -4  -2   1 1280.14   30.89
   4   2   0  370.46   13.05
   4   2   0  239.81    9.87
  -4  -2   0  212.80   10.13
  -4  -2   0  384.68   12.70
   4   2   1  119.43    7.67
  -4  -2  -1  123.42    7.62
  -4  -2  -1   65.94    7.45
  -4  -2  -2 2716.80   45.07
  -4  -2  -2 1564.91   31.04
  -4  -2  -2 1527.34   33.83
  -4  -2  -3 3609.69   68.55
   4   2   4 6151.32  109.21
   4   2   4 3569.46   76.56
  -4  -2  -4 6047.16   50.54
   4   2   5 1453.53   39.21
   4   2   5  994.93   29.96
  -4  -2  -5 1862.62   46.52
  -4  -2  -5 1488.28   38.36
   4   2   6  271.90   11.98
   4   2   6  209.49    9.89
  -4  -2  -6  370.05   13.38
  -4  -2  -6  285.62   11.44
   4   2   7   11.41    2.53
   4   2   7    8.53    2.31
  -4  -2  -7   15.87    3.05
  -4  -2  -7   11.98    2.64
   4   2   8  475.07   17.12
   4   2   8  394.06   15.14
  -4  -2  -8  661.21   20.66
  -4  -2  -8  408.97   14.80
   4   2   9  563.36   22.65
   4   2   9  484.26   20.44
   4   2  10   25.45    3.75
   4   2  10   19.91    3.22
   4   2  11   39.61    4.82
   4   2  11   31.83    4.04
   4   2  12  372.30   13.25
   4   2  12  277.52   11.45
   4   2  13  655.76   17.83
   4   2  13  410.01   14.06
   4   2  14   95.12    7.01
   4   2  14   56.44    5.16
   4   2  15    2.01    2.89
   4   2  15    1.49    2.80
   4   2  16   74.94    6.31
  -4  -3  12    5.23    3.52
  -4  -3  11  249.64   10.87
  -4  -3  10    8.43    2.96
   4   3  -9   33.07    4.46
  -4  -3   9   26.57    4.41
   4   3  -8  366.76   14.92
  -4  -3   8  241.75   10.57
   4   3  -7 1532.94   31.40
  -4  -3   7 1379.79   45.10
  -4  -3   7  827.01   28.80
   4   3  -6 2997.62  110.43
  -4  -3   6 2608.85  101.73
  -4  -3   6 1416.30   55.00
   4   3  -5 1390.67   54.68
  -4  -3   5 1164.06   45.79
  -4  -3   5  587.67   26.20
   4   3  -4  310.55   13.57
   4   3  -4  134.97    8.16
  -4  -3   4  135.52    8.21
  -4  -3   4  267.85   11.30
   4   3  -3   16.24    2.98
   4   3  -3    9.60    2.34
  -4  -3   3    7.77    2.21
  -4  -3   3   15.90    2.94
   4   3  -2 1195.73   33.88
   4   3  -2  641.94   20.99
  -4  -3   2  600.76   20.47
  -4  -3   2 1171.42   30.04
   4   3  -1 1739.67   44.72
   4   3  -1 1014.67   29.08
  -4  -3   1  939.06   28.13
  -4  -3   1 1746.80   43.25
   4   3   0  244.75   10.89
   4   3   0  156.82    8.17
  -4  -3   0  135.72    8.83
  -4  -3   0  259.80   10.82
   4   3   1  143.30    9.35
   4   3   1   97.10    6.48
  -4  -3  -1   78.43    5.92
  -4  -3  -1  154.03    8.06
   4   3   2  355.00   13.29
  -4  -3  -2  413.84   13.59
  -4  -3  -2  226.32   10.19
  -4  -3  -2  212.74    9.79
  -4  -3  -3  781.71   22.36
  -4  -3  -3  544.54   18.11
  -4  -3  -3  422.27   16.66
   4   3   4 1277.17   32.41
  -4  -3  -4 2661.75   52.87
  -4  -3  -4 2247.15   46.92
   4   3   5  346.65   15.01
   4   3   5  229.75   11.52
  -4  -3  -5  348.11   13.82
   4   3   6  579.52   18.88
   4   3   6  425.55   15.98
  -4  -3  -6  774.57   23.68
  -4  -3  -6  533.89   17.60
   4   3   7 1347.80   33.86
   4   3   7 1069.94   28.71
  -4  -3  -7 1150.21   29.72
   4   3   8 3183.46  114.05
   4   3   8 2630.92   95.23
  -4  -3  -8 2519.46   34.59
   4   3   9 1302.74   51.29
   4   3   9 1154.36   46.31
  -4  -3  -9  964.24   39.62
   4   3  10  222.54   11.60
   4   3  10  195.57    9.91
   4   3  11    9.36    3.19
   4   3  11   11.41    2.93
   4   3  12   40.80    4.47
   4   3  12   29.36    3.86
   4   3  13   85.70    6.55
   4   3  13   53.13    5.26
   4   3  14   30.92    4.55
   4   3  14   15.85    3.47
   4   3  15   29.32    4.32
   4   3  15   18.51    3.77
  -4  -4  12  185.40    9.72
  -4  -4  11  295.55   11.57
  -4  -4  10  172.26    8.82
  -4  -4   9   59.94    5.34
   4   4  -8   10.71    3.09
  -4  -4   8    6.39    2.87
   4   4  -7  294.02   12.79
  -4  -4   7  178.49    9.10
   4   4  -6  125.87    8.12
  -4  -4   6  104.31    9.43
  -4  -4   6   76.31    5.86
   4   4  -5  165.12   10.85
  -4  -4   5  137.85    8.47
  -4  -4   5   70.94    6.03
   4   4  -4  734.17   31.14
   4   4  -4  318.06   16.12
  -4  -4   4  306.74   15.82
  -4  -4   4  634.57   27.23
   4   4  -3 1537.10   35.94
   4   4  -3  719.17   21.49
  -4  -4   3  649.29   20.24
  -4  -4   3 1427.42   33.78
   4   4  -2 4000.44   43.25
   4   4  -2 2138.99   31.15
  -4  -4   2 1855.94   41.68
  -4  -4   2 4054.89   42.36
   4   4  -1 3407.75   67.73
   4   4  -1 1918.83   43.38
  -4  -4   1 1647.08   39.20
  -4  -4   1 3613.70   72.46
   4   4   0 1296.55   38.10
   4   4   0  812.92   24.73
  -4  -4   0  686.28   22.14
  -4  -4   0 1469.38   38.00
   4   4   1   18.87    3.07
  -4  -4  -1   22.50    3.24
  -4  -4  -1   10.53    2.39
   4   4   2  143.29    8.51
  -4  -4  -2  164.46    8.24
  -4  -4  -2   93.66    6.75
  -4  -4  -2   79.56    6.28
   4   4   3 2062.34   50.92
  -4  -4  -3 2641.64   61.09
  -4  -4  -3 1869.97   46.98
  -4  -4  -3 1261.03   35.29
   4   4   4  345.34   14.05
  -4  -4  -4  452.57   15.66
  -4  -4  -4  341.90   13.77
   4   4   5   16.43    3.01
  -4  -4  -5   26.56    3.50
   4   4   6   63.58    5.56
   4   4   6   48.04    4.90
  -4  -4  -6   53.48    5.34
   4   4   7  777.79   32.57
   4   4   7  611.23   27.31
  -4  -4  -7  528.08   23.75
   4   4   8  711.31   27.02
   4   4   8  606.36   23.97
  -4  -4  -8  456.70   19.39
   4   4   9    4.62    2.20
   4   4   9    4.19    2.15
  -4  -4  -9    3.57    2.42
   4   4  10   55.26    5.25
   4   4  10   49.60    5.07
   4   4  11  503.48   15.08
   4   4  11  425.58   14.39
   4   4  12  453.91   18.32
   4   4  12  303.31   14.24
   4   4  14  187.26    9.38
   4   4  14   95.87    6.53
   4   4  15    1.55    3.04
   4   4  15    0.97    2.33
  -4  -5  11  331.82   12.20
  -4  -5  10  172.99    8.93
  -4  -5   9    9.71    3.14
  -4  -5   8   75.44    6.21
   4   5  -7  884.07   21.67
  -4  -5   7  616.48   17.49
   4   5  -6  782.69   20.17
  -4  -5   6  454.13   14.47
   4   5  -5   35.15    4.19
  -4  -5   5   30.86    4.37
  -4  -5   5   18.84    3.24
   4   5  -4    2.88    2.07
   4   5  -4    1.57    1.84
  -4  -5   4    2.61    2.03
  -4  -5   4    2.93    2.22
   4   5  -3   68.64    6.26
   4   5  -3   32.95    3.99
  -4  -5   3   32.92    3.99
  -4  -5   3   72.74    5.78
   4   5  -2  739.99   22.58
   4   5  -2  388.84   18.74
  -4  -5   2  322.82   16.44
  -4  -5   2  789.76   22.48
   4   5  -1   79.10    6.04
   4   5  -1   45.44    4.48
  -4  -5   1   33.20    4.74
  -4  -5   1   88.10    6.35
   4   5   0  375.38   14.61
   4   5   0  229.86   11.12
  -4  -5   0  163.07    9.24
  -4  -5   0  447.44   15.57
   4   5   1  604.69   19.22
  -4  -5  -1  746.49   21.59
  -4  -5  -1  334.00   14.52
  -4  -5  -1  282.91   12.86
   4   5   2 2609.44   53.25
  -4  -5  -2 3226.15   62.46
  -4  -5  -2 2044.51   44.68
  -4  -5  -2 1303.91   32.68
   4   5   3 3393.27   67.57
  -4  -5  -3 4160.57   76.58
  -4  -5  -3 3215.22   63.79
  -4  -5  -3 1855.11   42.81
   4   5   4  944.70   26.68
  -4  -5  -4 1154.89   28.51
  -4  -5  -4  691.96   22.26
  -4  -5  -4  549.55   18.28
   4   5   5  320.95   13.81
   4   5   5  166.10    9.33
  -4  -5  -5  190.33   10.47
   4   5   6   14.66    2.82
  -4  -5  -6   11.12    2.73
   4   5   7  113.39    7.47
  -4  -5  -7   75.66    6.11
   4   5   8  185.03   11.34
   4   5   8  157.04   10.32
  -4  -5  -8   97.12    7.80
   4   5   9   61.54    5.45
   4   5   9   55.27    5.25
  -4  -5  -9   34.41    4.14
   4   5  10   18.12    3.39
   4   5  10   16.51    3.07
   4   5  11   39.54    4.38
   4   5  11   32.60    4.04
   4   5  12  160.50    8.60
   4   5  12  107.55    7.15
   4   5  13   61.23    5.59
   4   5  13   30.96    4.24
   4   5  14   22.48    4.10
   4   5  14   10.70    2.95
   4   5  15   69.43    6.01
   4   5  15   39.94    4.56
  -4  -6  10   14.17    3.49
  -4  -6   9  124.13    7.47
  -4  -6   8  403.80   13.61
  -4  -6   7  796.57   27.10
  -4  -6   6  607.94   16.79
   4   6  -5  106.54    8.03
  -4  -6   5   65.38    6.22
   4   6  -4   23.49    3.54
   4   6  -4   10.14    2.62
  -4  -6   4   15.55    3.02
   4   6  -3  986.65   40.40
   4   6  -3  468.77   21.71
  -4  -6   3  607.07   26.98
  -4  -6   3 1059.70   44.65
   4   6  -2 1140.41   39.92
   4   6  -2  586.60   23.71
  -4  -6   2  695.95   26.49
  -4  -6   2 1269.54   43.07
   4   6  -1  288.86   14.39
   4   6  -1  161.71    9.01
  -4  -6   1  180.89    9.20
  -4  -6   1  341.67   16.12
   4   6   0    6.75    2.46
   4   6   0    3.81    1.73
  -4  -6   0    3.87    1.83
  -4  -6   0    7.71    2.25
   4   6   1    4.60    2.07
  -4  -6  -1    5.85    2.16
  -4  -6  -1    2.08    1.76
  -4  -6  -1    2.58    2.22
   4   6   2  536.96   24.60
  -4  -6  -2  666.35   27.94
   4   6   3  209.35   11.35
   4   6   4   64.57    5.36
   4   6   5  275.07   11.88
  -4  -6  -5  132.73   10.19
  -4  -6  -5  164.02   10.27
   4   6   6 1039.43   42.14
   4   6   6  579.51   26.53
  -4  -6  -6  492.75   23.38
   4   6   7  814.22   25.20
  -4  -6  -7  563.35   19.84
   4   6   8  771.60   27.26
   4   6   9   76.23    6.44
   4   6   9   73.98    6.49
   4   6  10   11.11    2.79
   4   6  10    9.93    2.62
   4   6  11    9.64    2.63
   4   6  11    7.42    2.74
   4   6  12   44.89    4.85
   4   6  12   34.81    4.34
   4   6  13    3.20    2.94
   4   6  14   26.03    4.06
  -4  -7  10   16.03    3.60
  -4  -7   9    8.71    3.34
  -4  -7   8   39.19    4.75
  -4  -7   7  121.06    7.53
  -4  -7   6    9.96    3.13
  -4  -7   5  184.33    9.34
   4   7  -4  375.40   14.25
  -4  -7   4  285.25   11.36
   4   7  -3 1272.28   40.56
   4   7  -3  604.03   24.02
  -4  -7   3 1019.76   33.47
   4   7  -2  692.15   25.82
   4   7  -2  356.27   15.72
  -4  -7   2  585.04   22.31
  -4  -7   2  790.58   27.66
   4   7  -1  388.61   15.82
   4   7  -1  211.52   10.65
  -4  -7   1  358.33   14.50
  -4  -7   1  457.85   16.64
   4   7   0   64.72    5.90
   4   7   0   40.62    4.74
  -4  -7   0   66.83    5.71
  -4  -7   0   78.35    6.23
   4   7   1  172.70   11.43
  -4  -7  -1  205.24   11.98
   4   7   2  391.62   19.21
   4   7   3  256.33   14.73
   4   7   4   74.38    5.96
   4   7   5   39.93    4.51
   4   7   6    0.97    2.07
   4   7   7  118.40    7.83
   4   7   7   70.78    6.29
   4   7   8    0.40    2.07
   4   7  10   32.79    4.23
   4   7  11  161.86    9.15
   4   7  12  330.88   12.46
   4   7  13   14.10    3.76
   4   7  14    8.42    3.49
   4   8  -3   78.90    6.44
   4   8  -2   29.28    4.08
   4   8  -1  136.65    8.64
   4   8   0  433.85   14.52
   4   8   1  538.47   21.25
   4   8   2  664.13   24.96
   4   8   3  485.68   20.05
   4   8   4    3.12    2.36
   4   8   5    4.70    2.47
   4   8   6    8.22    2.77
   4   8   7  134.54    7.88
   4   8   8    2.00    2.37
   4   8   9   16.81    3.37
   4   8  12   31.14    4.37
   4   8  13    8.45    3.58
   4   9  -2  172.29   10.03
   4   9  -1    2.68    2.40
   4   9   0    8.84    2.70
   4   9   1    6.28    2.56
   4   9   2   22.27    3.73
   4   9   3  113.31    8.21
   4   9   4  162.44    9.21
   4   9   5   77.27    6.54
   4   9   6  293.01   14.31
   4   9   7  165.45    9.15
   4   9   8    5.67    2.96
   4   9   9   13.62    3.33
   4   9  10    0.91    2.54
   4  10   0    1.06    2.47
   4  10   1   56.12    5.45
   4  10   2  177.21    9.48
   4  10   3   63.14    6.18
   4  10   4    5.63    2.81
   4  10   5   13.64    3.33
   4  10   6    0.78    2.80
   4  10   7   89.09    6.86
   4  10   8   80.26    6.64
   4  10   9   16.37    3.65
   4  10  10   22.98    4.28
   4  11   2   12.19    3.36
   4  11   3    2.29    2.78
   4  11   4    1.78    2.88
   4  11   5    0.02    2.61
   4  11   6    2.85    2.84
   4  11   7   14.32    3.44
   4  11   8    0.92    3.26
   4  12   3   62.26    5.74
   4  12   4   32.48    4.43
  -5  10   1  250.78   11.12
  -5  10   0   24.54    4.19
  -5  10   0   18.93    3.75
  -5  10  -1    1.07    2.55
  -5  10  -2   47.52    5.02
  -5  10  -3  201.82    9.84
  -5   9   5   60.51    6.47
  -5   9   5   39.15    5.20
  -5   9   4    3.69    3.23
  -5   9   4    2.73    3.03
  -5   9   3   78.57    6.25
  -5   9   3   57.29    5.41
  -5   9   2  190.01    9.61
  -5   9   2  145.71    8.37
  -5   9   1  116.21    7.55
  -5   9   1   91.69    6.78
  -5   9   0   14.60    3.83
  -5   9   0    7.99    2.81
  -5   9  -1   13.57    3.41
  -5   9  -1   10.46    3.26
  -5   9  -2  324.69   12.25
  -5   9  -3  320.79   12.31
  -5   9  -4   85.55    6.55
  -5   9  -5   28.31    4.17
  -5   9  -6   18.95    3.99
   5  -9   7  172.22    8.93
  -5   8   7  273.62   12.75
  -5   8   7  165.32    9.72
  -5   8   6  158.56    9.70
  -5   8   6  108.36    7.51
  -5   8   5   16.30    3.76
  -5   8   5   10.10    3.50
  -5   8   4   30.78    4.39
  -5   8   4   22.42    3.70
  -5   8   3  155.31    9.96
  -5   8   3  100.06    6.80
  -5   8   2  608.77   18.05
  -5   8   2  396.81   14.10
   5  -8  -1   55.52    5.60
  -5   8   1   48.03    5.52
   5  -8   0   19.41    3.74
  -5   8   0   16.39    3.25
   5  -8   1   14.89    3.44
  -5   8  -1   15.36    3.05
   5  -8   2  379.74   14.57
  -5   8  -2  354.10   13.41
   5  -8   3  134.41    9.71
  -5   8  -3  125.86    7.90
  -5   8  -4    8.26    2.81
  -5   8  -5    1.60    2.36
   5  -8   6  230.50   10.32
   5  -8   7  272.03   11.51
   5  -8   8  136.50    8.53
   5  -8   9   79.69    6.81
  -5   7   8   51.95    5.33
  -5   7   7  269.27   12.84
  -5   7   7  184.71   10.17
  -5   7   6   20.27    4.25
  -5   7   6   12.44    3.29
  -5   7   5    8.15    2.86
  -5   7   5    3.09    2.69
   5  -7  -4  105.15    6.87
  -5   7   4   85.25    6.78
   5  -7  -3  896.58   21.62
  -5   7   3  701.30   19.81
   5  -7  -2  516.96   21.13
  -5   7   2  406.33   17.34
   5  -7  -1   53.98    6.15
  -5   7   1   39.85    4.68
   5  -7   0   69.76    6.05
  -5   7   0   52.64    5.26
   5  -7   1  398.25   17.99
  -5   7  -1  318.51   14.44
   5  -7   2  565.41   22.29
  -5   7  -2  449.66   18.76
   5  -7   3  248.66   12.45
  -5   7  -3  206.70   11.35
   5  -7   4   72.91    6.21
  -5   7  -4   59.91    5.37
   5  -7   5   26.66    3.75
   5  -7   5   18.35    3.36
   5  -7   6  147.81    9.28
   5  -7   7  151.77    9.39
   5  -7   8   44.70    5.37
   5  -7   9    6.42    2.99
   5  -7  10  129.06    8.24
   5  -7  11  172.48    9.35
  -5   6   9   74.70    6.20
  -5   6   9   40.72    6.21
  -5   6   8  376.17   13.31
  -5   6   8  241.85   11.18
  -5   6   7  274.89   12.74
  -5   6   6   63.83    5.93
   5  -6  -5   57.79    5.80
  -5   6   5   44.41    4.70
   5  -6  -4  135.61    8.90
  -5   6   4  105.20    8.60
   5  -6  -3  467.45   17.21
  -5   6   3  351.94   13.81
   5  -6  -2   47.76    5.21
  -5   6   2   33.25    4.18
   5  -6  -1   31.17    4.07
  -5   6   1   22.91    3.58
   5  -6   0  103.22    7.72
  -5   6   0   72.08    6.04
   5  -6   1 1174.20   26.03
  -5   6  -1  827.49   20.49
   5  -6   2  801.38   20.32
  -5   6  -2  579.47   17.88
   5  -6   3  496.87   15.87
  -5   6  -3  366.20   13.10
   5  -6   4  147.93   12.54
  -5   6  -4  112.26    7.82
   5  -6   5   20.92    3.48
   5  -6   5   13.56    2.76
   5  -6   6  461.33   15.29
   5  -6   6  316.65   12.97
   5  -6   7  404.18   17.05
   5  -6   8   31.55    4.32
   5  -6   9    2.18    2.39
   5  -6  10   21.99    3.83
   5  -6  11  193.81   10.11
   5  -6  12   55.81    5.29
  -5   5  10   11.85    3.76
  -5   5  10    8.03    3.22
  -5   5   9  204.18   10.34
  -5   5   9  119.51    8.34
  -5   5   8 1094.15   23.05
  -5   5   8  606.04   16.71
   5  -5  -7  166.79    9.35
  -5   5   7  134.61    7.96
  -5   5   6   42.34    4.53
   5  -5  -5   29.26    4.61
  -5   5   5   22.60    3.56
   5  -5  -4  607.27   17.30
  -5   5   4  412.75   14.79
   5  -5  -3 1057.22   24.35
  -5   5   3  700.45   18.07
   5  -5  -2  370.51   17.50
  -5   5   2  243.42   12.59
   5  -5  -1  286.06   13.11
  -5   5   1  187.10   11.30
   5  -5   0  150.43    8.67
  -5   5   0   99.41    7.44
   5  -5   1  239.71   11.92
  -5   5  -1  165.79    9.44
   5  -5   2  490.55   17.93
  -5   5  -2  340.76   14.39
   5  -5   3   33.40    4.14
  -5   5  -3   25.09    3.57
   5  -5   4  258.23   12.87
   5  -5   4  142.25    8.73
  -5   5  -4  259.05   12.08
   5  -5   5  664.58   24.92
   5  -5   5  384.51   16.74
  -5   5  -5  689.05   25.80
   5  -5   6  772.88   19.93
   5  -5   6  467.40   15.72
  -5   5  -6  815.52   20.28
   5  -5   7  680.58   19.31
   5  -5   7  448.29   14.91
   5  -5   8   59.88    5.91
   5  -5   9    4.85    2.39
   5  -5  10   47.33    5.24
   5  -5  11  210.57   10.13
   5  -5  12   16.92    3.47
   5  -5  13    5.94    2.99
  -5   4  11  109.03    8.59
  -5   4  11   61.81    5.94
  -5   4  10   11.04    3.43
  -5   4  10    6.44    3.23
  -5   4   9  192.26   10.33
  -5   4   9  115.19    9.28
   5  -4  -8  109.40    7.49
  -5   4   8   83.88    7.09
   5  -4  -7   15.69    3.67
  -5   4   7   12.79    3.06
   5  -4  -6   81.02    6.87
  -5   4   6   60.67    6.10
  -5   4   5  262.96   11.05
   5  -4  -4 1276.01   42.22
  -5   4   4  874.60   30.11
   5  -4  -3  659.78   21.73
  -5   4   3  406.63   15.74
   5  -4  -2  788.44   33.62
  -5   4   2  485.90   23.27
   5  -4  -1    4.49    2.11
  -5   4   1    3.53    1.92
   5  -4   0  355.46   16.41
  -5   4   0  214.91   11.96
   5  -4   1 1158.98   40.81
  -5   4  -1  733.46   28.65
   5  -4   2 1064.45   38.92
  -5   4  -2  692.40   26.86
   5  -4   3  293.35   15.19
  -5   4  -3  288.62   14.93
  -5   4  -3  191.76    9.45
   5  -4   4   65.20    5.82
   5  -4   4   35.70    4.22
  -5   4  -4   65.85    5.73
   5  -4   5   52.48    5.14
   5  -4   5   30.19    3.95
  -5   4  -5   55.79    5.21
   5  -4   6  737.61   24.14
   5  -4   6  453.61   17.38
  -5   4  -6  759.57   24.51
   5  -4   7    4.71    2.43
   5  -4   7    3.94    2.11
  -5   4  -7    4.88    2.76
   5  -4   8    6.56    2.52
   5  -4   8    5.14    2.05
   5  -4   9  425.67   14.62
   5  -4   9  321.58   12.67
   5  -4  10  381.99   16.24
   5  -4  11  343.64   13.08
   5  -4  12   69.91    6.45
   5  -4  13   19.04    4.10
   5  -4  14   27.22    4.37
  -5   3  11   15.62    3.83
  -5   3  11    9.01    3.43
  -5   3  10   97.43    7.93
  -5   3  10   55.24    5.87
  -5   3   9  491.88   15.62
   5  -3  -8  500.90   17.03
  -5   3   8  344.65   12.78
   5  -3  -7  479.48   19.90
  -5   3   7  311.71   14.31
   5  -3  -6   59.86    5.78
  -5   3   6   37.09    4.65
   5  -3  -5   40.69    4.75
  -5   3   5   26.62    5.60
  -5   3   4  168.08    9.70
  -5   3   3  100.74    6.83
   5  -3  -2    2.05    1.75
  -5   3   2    2.64    1.68
   5  -3  -1  323.56   12.64
  -5   3   1  190.00    9.83
   5  -3   0  927.41   26.58
  -5   3   0  535.07   18.57
   5  -3   1 2224.95   47.68
  -5   3  -1 2154.27   47.98
  -5   3  -1 1304.61   32.68
   5  -3   2  545.55   19.91
  -5   3  -2  534.88   17.80
  -5   3  -2  317.59   13.15
   5  -3   3   98.57    7.60
  -5   3  -3   97.30    6.80
  -5   3  -3   59.64    5.68
   5  -3   4    8.85    2.30
   5  -3   4    0.07    1.18
  -5   3  -4    0.57    1.68
   5  -3   5  789.75   34.28
   5  -3   5  464.28   21.84
  -5   3  -5  834.29   34.35
   5  -3   6  527.03   22.89
   5  -3   6  333.48   16.21
  -5   3  -6  544.82   22.43
   5  -3   7  108.72    7.59
   5  -3   7   74.20    5.90
  -5   3  -7  120.72    7.70
   5  -3   8  106.09    7.36
   5  -3   8   75.85    5.99
  -5   3  -8  134.22    8.11
   5  -3   9    8.64    2.66
   5  -3  10   61.04    5.79
  -5   2  11    2.59    3.01
  -5   2  11    2.04    2.97
  -5   2  10  254.39   11.75
  -5   2  10  136.82    7.88
   5  -2  -9  374.82   14.99
  -5   2   9  254.79   11.10
   5  -2  -8  312.81   14.96
  -5   2   8  202.98   11.36
   5  -2  -7  130.80    8.27
  -5   2   7   81.05    6.54
   5  -2  -6   50.08    5.12
  -5   2   6   31.33    4.04
   5  -2  -5  524.80   19.08
  -5   2   5  280.20   12.85
   5  -2  -4 1565.63   53.21
   5  -2  -1  211.92   10.76
   5  -2   0  108.69    7.61
  -5   2   0  107.08    7.12
   5  -2   1  369.58   14.64
  -5   2  -1  357.74   13.99
   5  -2   2    4.17    2.02
  -5   2  -2    5.12    2.18
   5  -2   3  247.58   11.99
  -5   2  -3  245.41   11.23
   5  -2   4  599.79   19.99
  -5   2  -4  609.92   19.11
   5  -2   5 1479.02   35.23
  -5   2  -5 1503.46   34.65
   5  -2   6  510.33   23.56
  -5   2  -6  569.29   24.97
   5  -2   7  307.53   15.12
  -5   2  -7  374.11   17.12
   5  -2   8   12.08    2.84
  -5   2  -8   14.63    3.12
   5  -2   9   34.08    4.43
  -5   2  -9   47.70    5.39
   5  -2  10  212.08   11.14
   5  -2  10  160.92    9.77
   5  -2  11   58.16    5.55
   5  -2  11   48.24    4.79
   5  -2  12   10.79    2.97
   5  -2  13    0.74    2.47
   5  -2  14    8.81    3.41
   5  -2  15    0.96    2.86
  -5   1  12  258.58   14.83
  -5   1  11   15.22    4.03
   5  -1  -9   62.02    5.63
   5  -1  -8   35.34    4.40
   5  -1  -7    0.52    2.04
   5  -1  -6  143.78    8.66
   5  -1  -5  646.83   28.17
   5  -1  -4 1211.02   43.74
   5  -1  -3  110.56    7.66
  -5   1   3   55.78    5.46
   5  -1  -2   18.76    3.21
  -5   1   2   11.60    2.39
  -5   1   1  177.95    9.19
  -5   1   1  110.78    7.24
   5  -1   0 1873.14   42.95
  -5   1   0 1093.17   28.89
   5  -1   1  618.10   19.89
  -5   1  -1  584.08   18.64
  -5   1  -1  344.24   13.72
  -5   1  -1  364.09   14.56
   5  -1   2  520.43   18.75
  -5   1  -2  520.33   18.62
  -5   1  -2  337.63   13.76
  -5   1  -2  338.19   14.38
   5  -1   3  659.74   21.15
  -5   1  -3  663.87   20.88
  -5   1  -3  479.07   16.35
  -5   1  -3  448.89   16.24
   5  -1   4   15.14    3.01
   5  -1   4    8.90    2.20
  -5   1  -4   15.00    2.81
  -5   1  -4   14.29    2.60
   5  -1   5    1.37    1.65
   5  -1   5    1.09    1.49
  -5   1  -5    2.45    1.88
  -5   1  -5    2.81    1.80
   5  -1   6    8.15    2.31
   5  -1   6    6.57    2.17
  -5   1  -6    9.82    2.63
   5  -1   7  178.93    9.19
   5  -1   7  125.64    7.93
  -5   1  -7  225.87   10.37
   5  -1   8  395.83   17.82
   5  -1   8  301.28   15.15
  -5   1  -8  544.88   22.43
   5  -1   9  131.05    8.18
   5  -1   9  103.43    7.15
  -5   1  -9  186.84    9.39
   5  -1  10  456.36   16.02
   5  -1  10  437.39   14.56
   5  -1  11   30.95    4.82
   5  -1  11   29.21    3.99
   5  -1  12    3.96    2.36
   5  -1  12    2.69    2.10
   5  -1  13   33.31    4.52
   5  -1  14    7.11    2.76
   5  -1  15   16.87    3.55
  -5   0  12   -0.23    3.00
  -5   0  11   47.96    5.27
  -5   0  11   29.86    4.24
   5   0 -10  333.01   13.21
  -5   0  10  235.86   10.23
   5   0  -9  768.04   20.65
  -5   0   9  471.09   15.07
   5   0  -8  392.34   16.64
  -5   0   8  226.44   11.58
   5   0  -7  218.08   11.80
  -5   0   7  125.73    7.55
   5   0  -6  100.06    7.13
  -5   0   6   53.90    5.11
   5   0  -5  183.89   11.59
  -5   0   5  102.56    8.06
   5   0  -4    9.56    2.58
  -5   0   4    3.93    2.20
   5   0  -3   47.25    4.95
  -5   0   3   24.83    3.81
   5   0  -2    6.18    2.05
   5   0  -2    3.76    1.80
  -5   0   2    3.91    1.65
  -5   0   2    6.06    1.96
   5   0  -1  719.73   22.86
   5   0  -1  440.88   15.94
  -5   0   1  402.94   15.15
  -5   0   1  675.60   20.75
   5   0   0  580.51   20.11
  -5   0   0  507.22   18.03
  -5   0   0  840.08   25.75
  -5   0  -1  200.16   10.48
  -5   0  -1  213.29   10.59
   5   0   2   57.28    5.17
  -5   0  -2   58.65    5.28
  -5   0  -2   35.20    3.96
  -5   0  -2   38.04    4.26
   5   0   3   84.21    6.53
  -5   0  -3   89.81    6.55
  -5   0  -3   63.01    5.22
  -5   0  -3   58.36    5.19
   5   0   4  361.28   15.28
   5   0   4  201.83   10.74
  -5   0  -4  399.06   15.37
  -5   0  -4  303.42   12.74
   5   0   5  429.14   16.58
   5   0   5  273.05   12.69
  -5   0  -5  501.26   17.50
  -5   0  -5  413.05   14.98
   5   0   6  246.76   11.98
   5   0   6  167.76   10.33
  -5   0  -6  303.35   12.60
  -5   0  -6  263.56   11.58
   5   0   7   24.01    3.47
   5   0   7   18.85    3.24
  -5   0  -7   31.74    4.02
   5   0   8  448.79   20.02
   5   0   8  346.89   16.52
  -5   0  -8  628.02   24.62
   5   0   9   20.97    3.29
   5   0   9   17.07    3.27
   5   0  10  100.83    6.71
   5   0  10   79.59    6.36
   5   0  11  230.98   10.99
   5   0  11  190.98    9.39
   5   0  12  154.89    8.96
   5   0  12  126.54    7.95
   5   0  13   43.31    4.57
   5   0  13   35.29    4.33
   5   0  14  121.93    7.57
   5   0  15    2.88    2.94
  -5  -1  12   -0.38    2.88
  -5  -1  11   17.12    3.78
   5   1 -10  167.11    9.05
  -5  -1  10  120.18    7.66
   5   1  -9   48.25    5.14
  -5  -1   9   29.69    3.91
   5   1  -8    2.01    2.04
  -5  -1   8   -0.02    2.73
   5   1  -7    4.51    2.39
  -5  -1   7    2.60    4.23
   5   1  -6  407.31   16.35
  -5  -1   6  205.26   10.25
   5   1  -5 1356.99   53.18
  -5  -1   5  691.19   30.37
   5   1  -4  606.53   28.58
  -5  -1   4  321.68   16.25
   5   1  -3  780.53   24.40
  -5  -1   3  678.51   20.00
  -5  -1   3  407.65   15.05
   5   1  -2  448.05   16.45
   5   1  -2  245.22   11.22
  -5  -1   2  236.17   11.24
  -5  -1   2  399.54   15.02
   5   1  -1    3.14    1.81
   5   1  -1    1.92    1.47
  -5  -1   1    0.89    1.17
  -5  -1   1    2.42    1.80
   5   1   0  140.72    8.55
   5   1   0   90.88    6.34
  -5  -1   0   81.99    6.37
  -5  -1   0  136.92    7.68
  -5  -1  -1  199.86    9.33
  -5  -1  -1  109.53    6.93
  -5  -1  -1  119.17    8.24
  -5  -1  -2  224.44   11.36
  -5  -1  -2  229.70   11.12
   5   1   3   71.71    6.15
  -5  -1  -3   50.12    4.65
  -5  -1  -3   46.65    4.84
   5   1   4  443.92   17.73
   5   1   4  242.69   12.06
  -5  -1  -4  499.70   18.25
  -5  -1  -4  374.55   15.00
   5   1   5  223.72   10.82
   5   1   5  136.07    8.35
  -5  -1  -5  272.65   11.12
  -5  -1  -5  220.22    9.97
   5   1   6   14.03    2.80
   5   1   6    9.74    2.34
  -5  -1  -6   16.98    3.14
  -5  -1  -6   15.00    2.83
   5   1   7    3.85    1.95
   5   1   7    2.51    1.74
  -5  -1  -7    5.68    2.04
  -5  -1  -7    4.25    1.84
   5   1   8   21.46    3.40
   5   1   8   15.22    3.20
   5   1   9  334.90   17.44
   5   1   9  266.15   14.89
   5   1  10   13.20    2.90
   5   1  10    8.74    2.65
   5   1  11    1.04    2.11
   5   1  11    0.74    1.94
   5   1  12  165.70    8.74
   5   1  12  139.14    8.09
   5   1  13   97.59    6.95
   5   1  13   75.46    5.94
   5   1  14   98.07    6.86
   5   1  14   65.82    5.59
   5   1  15  144.47    8.51
  -5  -2  11    2.04    3.30
   5   2 -10   30.53    4.45
  -5  -2  10   24.78    4.35
   5   2  -9   19.64    3.44
  -5  -2   9   11.65    3.32
   5   2  -8    1.09    2.26
  -5  -2   8    0.49    1.97
   5   2  -7    1.54    1.90
  -5  -2   7    0.30    2.10
   5   2  -6  216.02   11.61
  -5  -2   6  103.82    7.94
   5   2  -5   67.07    6.62
  -5  -2   5   32.14    4.13
   5   2  -4   12.37    2.77
  -5  -2   4    9.19    2.54
  -5  -2   4    5.64    2.16
   5   2  -3    1.18    1.68
   5   2  -3    1.10    1.66
  -5  -2   3    1.06    1.55
  -5  -2   3    1.25    1.60
   5   2  -2  214.88   11.04
   5   2  -2  120.58    7.42
  -5  -2   2  114.20    7.84
  -5  -2   2  197.08    9.78
   5   2  -1  231.72   10.91
   5   2  -1  134.09    7.67
  -5  -2   1  123.11    7.58
  -5  -2   1  218.66   10.18
   5   2   0 1046.95   28.54
   5   2   0  663.46   20.26
  -5  -2   0  584.58   19.92
  -5  -2   0 1024.35   27.17
   5   2   1  350.93   15.28
  -5  -2  -1  357.23   14.10
  -5  -2  -1  182.26    9.59
  -5  -2  -1  204.48   10.69
  -5  -2  -2  355.98   14.41
  -5  -2  -2  204.01   10.19
  -5  -2  -2  201.76   10.88
  -5  -2  -3  642.85   21.10
  -5  -2  -3  561.85   20.18
   5   2   4  316.71   13.58
   5   2   4  173.44   10.02
  -5  -2  -4  279.08   12.07
   5   2   5  183.76    9.30
   5   2   5  107.81    7.56
  -5  -2  -5  230.58   10.02
  -5  -2  -5  180.47    9.07
   5   2   6 1267.35   31.11
   5   2   6  809.51   24.19
  -5  -2  -6 1663.98   40.23
  -5  -2  -6 1320.97   31.60
   5   2   7    9.61    2.49
   5   2   7    6.43    1.99
  -5  -2  -7   10.02    2.40
   5   2   8  148.65    8.83
   5   2   8  110.51    7.42
  -5  -2  -8  149.51    8.37
   5   2   9   10.47    2.58
   5   2   9    8.19    2.33
   5   2  10   40.82    4.49
   5   2  10   35.11    4.35
   5   2  11    4.03    2.01
   5   2  11    3.29    2.22
   5   2  12    0.69    2.12
   5   2  12    3.18    2.18
   5   2  13    3.65    2.61
   5   2  13    3.04    2.30
   5   2  14   55.80    5.47
   5   2  14   36.37    4.25
   5   2  15    0.00    2.62
   5   2  15    0.21    2.71
  -5  -3  11  226.84   10.15
  -5  -3  10  110.89    7.36
   5   3  -9  193.34    9.97
  -5  -3   9  127.91    7.78
   5   3  -8  301.44   15.61
  -5  -3   8  169.51   10.44
   5   3  -7   26.59    3.97
  -5  -3   7   11.58    3.16
   5   3  -6   12.30    2.87
  -5  -3   6    5.98    2.53
   5   3  -5  242.68   12.36
  -5  -3   5  192.83   10.74
  -5  -3   5  107.06    7.43
   5   3  -4   21.95    3.49
  -5  -3   4   14.96    3.11
  -5  -3   4    8.36    2.42
   5   3  -3  147.25    8.78
   5   3  -3   73.55    5.65
  -5  -3   3   71.41    5.71
  -5  -3   3  127.98    7.66
   5   3  -2   38.71    4.62
   5   3  -2   21.44    3.35
  -5  -3   2   19.45    3.13
  -5  -3   2   35.31    4.03
   5   3  -1   42.26    4.67
   5   3  -1   24.05    3.46
  -5  -3   1   21.74    3.25
  -5  -3   1   39.74    4.55
   5   3   0   54.57    5.31
   5   3   0   35.46    4.00
  -5  -3   0   32.11    3.94
  -5  -3   0   54.79    4.89
   5   3   1  388.90   15.11
  -5  -3  -1  413.07   15.44
  -5  -3  -1  205.28   10.54
  -5  -3  -1  220.09   10.88
   5   3   2    0.65    1.32
  -5  -3  -2    2.08    1.86
  -5  -3  -2    0.33    1.26
  -5  -3  -2    0.61    1.21
   5   3   3  200.64    9.99
  -5  -3  -3  250.35   10.87
  -5  -3  -3  159.82    8.68
  -5  -3  -3  134.51    8.19
  -5  -3  -4  261.94   10.80
  -5  -3  -4  194.38    9.49
  -5  -3  -4  146.95    8.40
   5   3   5   81.03    6.64
   5   3   5   45.82    5.00
  -5  -3  -5   82.42    6.09
   5   3   6  235.01   10.54
   5   3   6  148.35    8.84
  -5  -3  -6  247.37   10.69
   5   3   7  477.25   22.18
   5   3   7  332.32   17.14
  -5  -3  -7  484.52   21.67
   5   3   8  348.43   16.59
   5   3   8  262.91   14.10
  -5  -3  -8  335.40   15.51
   5   3   9  995.53   28.88
   5   3   9  777.59   23.94
   5   3  10  466.72   19.75
   5   3  10  374.77   16.40
   5   3  11  190.98    9.71
   5   3  11  161.71    8.90
   5   3  12   35.09    4.38
   5   3  12   30.81    3.94
   5   3  13   36.13    4.35
   5   3  13   26.04    3.98
   5   3  14   20.09    3.89
   5   3  14   11.87    3.19
   5   3  15   36.94    5.20
   5   3  15   18.54    3.44
  -5  -4  11    5.32    3.43
  -5  -4  10   25.55    4.09
  -5  -4   9   32.71    4.72
   5   4  -8   69.94    6.35
  -5  -4   8   45.18    4.89
   5   4  -7   43.29    4.99
  -5  -4   7   24.31    3.82
   5   4  -6  322.58   13.31
  -5  -4   6  156.75    8.35
   5   4  -5  245.27   13.11
  -5  -4   5  202.97   11.56
  -5  -4   5  103.89    7.66
   5   4  -4  196.99   11.89
  -5  -4   4  170.14   11.03
  -5  -4   4   83.90    7.56
   5   4  -3  366.70   17.18
   5   4  -3  183.65   10.46
  -5  -4   3  166.45    9.96
  -5  -4   3  333.53   15.30
   5   4  -2  472.92   22.14
   5   4  -2  259.11   13.89
  -5  -4   2  238.71   13.32
  -5  -4   2  463.25   21.10
   5   4  -1  171.94    9.70
   5   4  -1  101.46    6.79
  -5  -4   1   89.68    6.52
  -5  -4   1  171.73   11.53
   5   4   0  729.64   22.68
   5   4   0  461.78   16.13
  -5  -4   0  405.23   15.47
  -5  -4   0  775.28   22.19
   5   4   1  328.69   13.98
  -5  -4  -1  366.59   13.92
  -5  -4  -1  179.36    9.61
  -5  -4  -1  181.91   10.00
   5   4   2   17.30    3.07
  -5  -4  -2   23.84    3.42
  -5  -4  -2   11.89    2.54
  -5  -4  -2   10.51    2.35
   5   4   3   57.06    5.42
  -5  -4  -3   69.24    5.82
  -5  -4  -3   44.44    4.73
  -5  -4  -3   34.40    4.14
   5   4   4  187.90   10.40
  -5  -4  -4  174.91    9.50
  -5  -4  -4  112.89    8.82
   5   4   5  211.89   11.51
  -5  -4  -5  416.22   15.16
   5   4   6    3.90    1.78
  -5  -4  -6    6.81    2.25
   5   4   7   53.80    5.28
   5   4   7   36.50    4.58
  -5  -4  -7   47.50    4.80
   5   4   8    9.33    2.63
   5   4   8    7.24    2.29
  -5  -4  -8    8.82    2.79
   5   4   9   56.40    5.24
   5   4   9   42.22    4.49
  -5  -4  -9   42.65    4.68
   5   4  10    8.91    2.69
   5   4  10    7.10    2.32
   5   4  11   25.95    3.78
   5   4  11   20.08    3.37
   5   4  12  332.58   12.79
   5   4  12  275.35   11.43
   5   4  13  299.93   11.66
   5   4  13  218.57   10.79
   5   4  14  295.30   11.94
   5   4  14  170.45    8.97
  -5  -5  10    5.73    3.21
  -5  -5   9   10.01    3.05
  -5  -5   8    2.67    2.64
  -5  -5   7    0.49    2.55
   5   5  -6   44.74    4.94
  -5  -5   6   23.94    3.83
   5   5  -5  277.02   11.70
  -5  -5   5  127.28    8.04
   5   5  -4  634.33   23.44
  -5  -5   4  574.25   22.36
  -5  -5   4  264.89   13.66
   5   5  -3    3.54    1.92
   5   5  -3    1.94    1.85
  -5  -5   3    3.02    2.22
  -5  -5   3    3.39    2.15
   5   5  -2  125.94    7.78
   5   5  -2   67.48    5.67
  -5  -5   2   55.79    5.39
  -5  -5   2  129.85    7.74
   5   5  -1   78.64    6.28
   5   5  -1   44.91    4.65
  -5  -5   1   35.63    4.27
  -5  -5   1   81.86    6.12
   5   5   0   14.14    2.93
   5   5   0    8.94    2.46
  -5  -5   0    7.09    2.26
  -5  -5   0   15.80    3.07
   5   5   1  261.20   11.14
  -5  -5  -1  300.58   11.72
  -5  -5  -1  137.77    8.56
  -5  -5  -1  132.68    8.06
   5   5   2  586.51   19.49
  -5  -5  -2  701.28   20.82
  -5  -5  -2  389.00   15.66
  -5  -5  -2  313.44   13.91
   5   5   3  682.77   29.87
  -5  -5  -3  596.51   26.22
  -5  -5  -3  384.00   18.73
   5   5   4 1378.12   53.28
  -5  -5  -4 1354.14   52.94
  -5  -5  -4  803.76   33.16
   5   5   5  696.71   29.99
  -5  -5  -5  668.98   28.82
  -5  -5  -5  447.66   21.02
   5   5   6  114.18    7.48
  -5  -5  -6  180.22    9.33
   5   5   7   21.79    3.56
  -5  -5  -7   26.20    3.67
   5   5   8  494.27   17.94
   5   5   8  340.63   14.81
  -5  -5  -8  322.09   13.92
   5   5   9   98.67    7.15
   5   5   9   78.35    6.42
   5   5  10  183.62    9.39
   5   5  10  155.14    8.71
   5   5  11    7.41    2.51
   5   5  11    7.29    2.33
   5   5  12   72.74    6.22
   5   5  12   60.58    5.40
   5   5  13   18.14    3.63
   5   5  13   12.79    3.08
   5   5  14   58.05    5.61
   5   5  14   33.21    4.27
   5   5  15    5.25    3.20
  -5  -6  10   11.61    3.83
  -5  -6   9   16.30    3.76
  -5  -6   8   74.89    5.94
  -5  -6   7   76.52    5.99
  -5  -6   6   76.01    5.90
   5   6  -5  234.26   11.01
  -5  -6   5  134.08    8.34
   5   6  -4    0.53    1.93
  -5  -6   4   -0.39    1.82
   5   6  -3    8.18    2.48
   5   6  -3    2.54    1.96
  -5  -6   3    2.90    2.09
  -5  -6   3    6.83    2.53
   5   6  -2   16.87    3.21
   5   6  -2    8.86    2.55
  -5  -6   2   10.10    2.64
  -5  -6   2   17.82    3.38
   5   6  -1  772.21   33.21
   5   6  -1  441.30   21.16
  -5  -6   1  342.34   17.41
  -5  -6   1  865.51   35.51
   5   6   0  593.07   26.45
   5   6   0  374.98   18.31
  -5  -6   0  255.15   15.75
  -5  -6   0  691.32   29.77
   5   6   1   37.44    4.68
  -5  -6  -1   21.32    3.61
  -5  -6  -1   19.99    3.32
   5   6   2  217.13   10.30
  -5  -6  -2  167.05    9.31
  -5  -6  -2   99.74    7.02
   5   6   3  101.29    7.22
  -5  -6  -3   98.83    7.33
  -5  -6  -3   51.97    5.49
   5   6   4    7.08    2.60
  -5  -6  -4    6.13    2.71
  -5  -6  -4    4.09    2.39
   5   6   5    4.74    2.34
  -5  -6  -5    2.33    2.23
  -5  -6  -5    2.61    1.90
   5   6   6  196.33   10.06
  -5  -6  -6  125.01    8.00
   5   6   7  434.82   18.88
   5   6   8  316.08   12.82
   5   6   9  809.83   19.37
   5   6   9  622.12   17.70
   5   6  10  537.66   20.71
   5   6  10  460.15   18.86
   5   6  11   32.47    4.25
   5   6  11   29.82    4.04
   5   6  12   56.36    5.37
   5   6  13  106.33    7.43
   5   6  14  244.55   10.69
  -5  -7   9   67.33    5.73
  -5  -7   8    9.40    3.14
  -5  -7   7   82.59    6.20
  -5  -7   6   19.36    3.70
  -5  -7   5   11.45    3.07
   5   7  -4  119.20    7.98
  -5  -7   4   78.70    6.12
   5   7  -3  258.58   11.43
  -5  -7   3  170.57    9.08
   5   7  -2  466.44   15.50
  -5  -7   2  319.10   12.75
   5   7  -1  691.32   25.85
  -5  -7   1  478.85   19.53
   5   7   0  231.06   12.48
  -5  -7   0  168.55    9.84
   5   7   1    7.02    2.39
  -5  -7  -1    4.70    2.61
   5   7   2  263.45   12.51
   5   7   3  546.34   18.77
   5   7   4  634.54   23.92
   5   7   5  479.06   20.06
   5   7   6   -0.03    2.18
   5   7   7   72.85    6.04
   5   7   8   57.32    5.28
   5   7  10   35.84    4.68
   5   7  11  248.68   11.27
   5   7  12  178.14    9.26
   5   7  13  402.92   13.51
   5   8  -3   35.58    4.28
   5   8  -2   37.13    4.52
   5   8  -1   81.23    6.44
   5   8   0    2.00    2.20
   5   8   1  177.08    9.30
   5   8   2  651.59   17.92
   5   8   3  442.70   15.12
   5   8   4 1072.95   23.38
   5   8   5  105.79    7.23
   5   8   6  201.82   10.00
   5   8   7  153.62    8.88
   5   8   8  550.61   16.20
   5   8   9  441.92   14.57
   5   8  12   51.22    5.26
   5   8  13  111.73    7.41
   5   9  -1  683.08   19.55
   5   9   0  226.87   10.81
   5   9   1    7.64    2.78
   5   9   2   46.82    4.83
   5   9   3   95.62    7.41
   5   9   4  236.20   12.86
   5   9   5  242.62   11.36
   5   9   6  228.06   10.94
   5   9   7  365.50   14.96
   5   9   8  617.60   17.36
   5   9   9  162.24    8.97
   5   9  10    4.48    2.61
   5  10   0   10.41    3.18
   5  10   1  141.26    8.35
   5  10   2  213.21   10.82
   5  10   3  903.28   21.09
   5  10   4  193.98    9.97
   5  10   5   16.15    3.51
   5  10   6   30.38    4.45
   5  10   7  169.99    9.19
   5  10   8  125.62    8.39
   5  10   9    3.60    3.03
   5  10  10   57.75    5.75
   5  11   2  306.55   12.92
   5  11   3  488.43   15.49
   5  11   4    1.22    2.59
   5  11   5   25.71    4.04
   5  11   6  183.72    9.97
   5  11   7  334.30   12.43
   5  11   8  190.42   10.60
  -6   9   2  143.31    8.57
  -6   9   2  100.56    7.41
  -6   9   1   52.62    6.26
  -6   9   1   35.28    4.49
  -6   9   0   22.77    4.15
  -6   9   0   14.70    3.51
  -6   9  -1   11.69    3.53
  -6   9  -2    5.91    2.87
  -6   9  -3   35.66    4.80
  -6   9  -4    5.13    3.22
  -6   9  -5   -0.31    2.77
  -6   8   5    1.64    3.18
  -6   8   5    1.32    2.83
  -6   8   4    5.94    3.37
  -6   8   4    1.93    2.89
  -6   8   3    1.70    2.48
   6  -8  -2   64.93    6.02
  -6   8   2   54.03    5.82
   6  -8  -1    4.83    2.91
  -6   8   1    2.15    2.62
   6  -8   0   -0.03    2.64
  -6   8   0    0.97    2.17
   6  -8   1    5.43    3.10
  -6   8  -1    4.45    2.62
   6  -8   2   67.56    6.61
  -6   8  -2   53.45    5.31
   6  -8   3   13.48    3.55
  -6   8  -3   11.41    3.28
  -6   8  -4    9.18    3.14
  -6   8  -5    8.38    3.06
  -6   8  -6    0.64    2.72
   6  -8   8    8.57    3.48
  -6   7   6   30.31    4.93
  -6   7   6   16.68    3.69
  -6   7   5   38.87    4.79
   6  -7  -4   23.28    3.75
  -6   7   4   16.78    3.33
   6  -7  -3   28.90    3.99
  -6   7   3   24.21    3.85
   6  -7  -2    0.70    2.41
  -6   7   2    0.02    2.49
   6  -7  -1    1.37    2.36
  -6   7   1    0.90    2.65
   6  -7   0    1.06    2.49
  -6   7   0    0.37    2.44
   6  -7   1    2.04    2.46
  -6   7  -1    1.71    2.16
   6  -7   2   59.38    5.93
  -6   7  -2   42.71    4.83
   6  -7   3   12.12    3.04
  -6   7  -3    8.90    3.11
   6  -7   4   30.44    4.33
  -6   7  -4   23.16    3.84
  -6   7  -5   57.39    5.60
  -6   7  -6   16.44    3.06
   6  -7   7    4.21    2.55
   6  -7   8    3.30    2.54
   6  -7   9   14.89    3.41
   6  -7  10    1.26    2.78
  -6   6   8    2.59    3.38
  -6   6   8    2.04    2.80
  -6   6   7    2.21    2.72
   6  -6  -6   17.59    3.97
  -6   6   6   12.01    3.41
   6  -6  -5    1.19    2.85
  -6   6   5    2.12    2.58
   6  -6  -4   18.83    3.79
  -6   6   4   13.34    3.31
   6  -6  -3  111.52    7.55
  -6   6   3   78.17    6.64
   6  -6  -2    1.43    2.56
  -6   6   2    1.50    2.25
   6  -6  -1   74.60    6.04
  -6   6   1   48.50    5.35
   6  -6   0    3.96    2.51
  -6   6   0    2.49    2.13
   6  -6   1    9.56    2.60
  -6   6  -1    5.97    2.53
   6  -6   2  103.41    7.80
  -6   6  -2   68.95    5.66
   6  -6   3   54.42    5.58
  -6   6  -3   36.51    4.36
   6  -6   4   37.39    4.56
  -6   6  -4   22.01    3.72
   6  -6   5    4.19    2.56
  -6   6  -5    2.95    1.96
   6  -6   6    1.18    2.29
   6  -6   6    0.23    2.04
   6  -6   7    3.89    2.63
   6  -6   8   35.19    4.76
   6  -6   9  130.64    8.56
   6  -6  10    0.20    2.65
   6  -6  11   14.21    3.82
  -6   5   8   33.96    4.52
   6  -5  -7   11.50    3.22
  -6   5   7   10.45    3.25
  -6   5   6    0.27    2.68
   6  -5  -5   21.34    3.63
  -6   5   5   15.34    3.35
   6  -5  -4    4.70    2.57
  -6   5   4    1.32    2.15
   6  -5  -3   33.97    4.09
  -6   5   3   19.16    3.47
   6  -5  -2  114.15    7.74
  -6   5   2   68.42    5.67
   6  -5  -1  106.06    8.31
  -6   5   1   61.56    5.64
   6  -5   0  131.41    8.84
  -6   5   0   80.32    6.56
   6  -5   1   18.65    3.54
  -6   5  -1   10.96    2.63
   6  -5   2   38.63    4.62
  -6   5  -2   22.90    3.56
   6  -5   3    5.59    2.52
  -6   5  -3    2.62    2.10
   6  -5   4   84.46    6.83
  -6   5  -4   57.86    5.32
   6  -5   5   60.35    5.72
   6  -5   6   89.11    7.56
   6  -5   6   49.24    4.97
   6  -5   7  205.39   10.37
   6  -5   7  125.12    8.70
   6  -5   8  338.70   12.69
   6  -5   9   12.63    3.12
   6  -5  10    1.78    2.57
   6  -5  11    6.33    3.39
   6  -5  12  136.44    8.48
  -6   4   9   23.64    4.88
  -6   4   9   14.43    3.63
   6  -4  -8   10.99    3.70
  -6   4   8   10.04    3.46
   6  -4  -7    5.40    3.09
  -6   4   7    4.68    2.80
   6  -4  -6   42.41    5.06
  -6   4   6   27.75    3.93
  -6   4   5    5.88    2.54
  -6   4   4   28.02    4.70
   6  -4  -3   73.13    5.98
  -6   4   3   43.24    4.66
   6  -4  -2   60.33    5.73
  -6   4   2   35.95    4.52
   6  -4  -1  138.49    8.79
  -6   4   1   80.03    6.45
   6  -4   0  115.63    7.96
  -6   4   0   70.34    5.88
   6  -4   1   60.07    5.40
  -6   4  -1   34.85    4.13
   6  -4   2  204.22    9.75
  -6   4  -2  124.86    7.95
   6  -4   3  845.00   26.30
  -6   4  -3  561.05   19.58
   6  -4   4  198.77   11.45
  -6   4  -4  127.92    8.32
   6  -4   5    2.86    2.07
   6  -4   5    1.97    1.78
   6  -4   6   45.37    4.81
   6  -4   6   27.25    3.67
   6  -4   7    9.56    2.96
   6  -4   7    5.40    2.64
   6  -4   8  220.83   12.20
   6  -4   8  135.33    8.84
   6  -4   9   34.73    4.56
   6  -4   9   23.01    3.66
   6  -4  10   31.08    4.35
   6  -4  11  118.79    7.63
   6  -4  12  227.38   11.73
   6  -4  13  144.11    8.20
  -6   3  10   35.53    6.12
  -6   3  10   19.29    3.88
   6  -3  -9    6.78    2.93
  -6   3   9    5.65    3.57
   6  -3  -8  173.83    9.05
  -6   3   8  115.56    7.39
   6  -3  -7  110.19    7.28
  -6   3   7   68.46    5.77
   6  -3  -6  202.25   10.89
  -6   3   6  127.85    8.44
   6  -3  -5   88.52    6.38
  -6   3   5   52.00    4.96
  -6   3   4    5.72    2.53
  -6   3   3    8.47    2.99
   6  -3  -2    7.98    2.79
  -6   3   2    3.72    2.18
   6  -3  -1   90.43    6.69
  -6   3   1   52.23    5.13
   6  -3   0  346.88   17.76
  -6   3   0  186.86   11.60
   6  -3   1   99.50    7.35
   6  -3   2  887.73   37.60
   6  -3   3  539.98   25.40
   6  -3   4    1.62    2.02
   6  -3   5   25.33    3.83
   6  -3   5   12.58    2.59
   6  -3   6  403.34   16.80
   6  -3   7 1265.81   50.27
   6  -3   8  363.93   19.83
   6  -3   9  130.04    8.14
   6  -3  10    8.27    2.92
  -6   2  10    1.21    2.57
   6  -2  -9    9.41    3.49
  -6   2   9    7.40    3.04
   6  -2  -8   50.43    5.40
  -6   2   8   31.08    4.13
   6  -2  -7   49.12    5.30
   6  -2  -6    0.47    2.04
   6  -2  -5  205.15   10.59
   6  -2  -4  232.62   12.34
   6  -2  -1   11.71    2.86
   6  -2   0  185.14    9.93
   6  -2   1    5.36    2.24
   6  -2   2  424.71   20.36
  -6   2  -2  238.13   13.51
   6  -2   3   82.24    6.43
  -6   2  -3   51.80    5.09
   6  -2   4  107.29    7.68
  -6   2  -4   71.89    5.98
   6  -2   5   88.91    6.71
   6  -2   6 1103.13   46.40
   6  -2   7  872.59   29.27
   6  -2   7  508.08   18.39
   6  -2   8  194.32   10.93
   6  -2   8  127.22    8.67
   6  -2   9    0.50    1.84
   6  -2   9    0.02    1.76
   6  -2  10  267.80   13.52
   6  -2  10  197.81   11.06
   6  -2  11  389.33   19.40
   6  -2  11  309.01   12.24
   6  -2  12  450.43   16.07
   6  -2  13  174.45    8.96
   6  -2  14    3.24    2.92
   6  -1 -10   16.52    3.65
   6  -1  -9    9.33    3.10
   6  -1  -8   22.48    3.74
   6  -1  -7  162.56    9.04
   6  -1  -6   28.22    3.99
  -6   1   6   15.07    3.06
   6  -1  -5   75.04    6.73
  -6   1   5   38.61    4.41
   6  -1  -4   92.54    6.76
  -6   1   4   50.41    5.11
   6  -1  -3  689.55   30.14
  -6   1   3  361.48   17.90
   6  -1  -2  292.99   12.24
  -6   1   2  164.90    9.87
  -6   1   1  109.56    7.37
   6  -1   0  115.30    7.68
  -6   1   0   69.47    5.93
   6  -1   1 2506.74   52.46
  -6   1  -1 1471.26   35.20
   6  -1   2 2436.59   50.82
  -6   1  -2 1469.87   34.68
   6  -1   3  922.81   27.36
  -6   1  -3  597.65   19.24
   6  -1   4  204.83   10.32
  -6   1  -4  139.29    7.96
   6  -1   5   20.44    3.32
   6  -1   5   11.97    2.71
   6  -1   6  146.79    8.44
   6  -1   6   90.48    7.03
   6  -1   7  345.28   17.77
   6  -1   7  211.39   12.35
   6  -1   8    3.98    2.21
   6  -1   8    2.13    2.21
   6  -1   9  108.53    7.74
   6  -1   9   78.98    6.78
   6  -1  10  606.06   18.06
   6  -1  10  440.79   14.76
   6  -1  11  655.36   24.34
   6  -1  11  491.91   19.49
   6  -1  12  558.09   17.38
   6  -1  12  426.53   14.59
   6  -1  13    3.50    2.41
   6  -1  14   57.72    5.12
   6  -1  15   98.13    6.84
   6   0 -10  130.73    9.12
  -6   0  10   82.26    6.00
   6   0  -9  222.52   11.83
  -6   0   9  134.12    7.98
   6   0  -8  740.42   19.33
  -6   0   8  431.00   14.23
   6   0  -7  580.36   21.93
  -6   0   7  315.83   14.33
   6   0  -6  104.28    7.39
  -6   0   6   56.62    5.25
   6   0  -5   55.35    5.44
  -6   0   5   29.76    3.84
   6   0  -4  258.02   12.03
  -6   0   4  141.68    8.61
   6   0  -3  750.33   31.93
  -6   0   3  395.87   19.22
   6   0  -2    0.48    1.44
  -6   0   2    0.73    1.63
   6   0  -1   25.93    3.74
  -6   0   1   15.25    2.89
  -6   0   0  181.17   10.40
  -6   0  -1  859.78   24.03
   6   0   2  739.09   22.19
  -6   0  -2  433.68   15.35
  -6   0  -2  448.95   17.29
   6   0   3   60.80    5.77
  -6   0  -3   40.60    4.28
  -6   0  -3   39.62    4.68
   6   0   4  108.90    7.28
  -6   0  -4   71.58    5.79
   6   0   5 1554.45   61.26
   6   0   5  897.11   37.17
   6   0   6 1961.96   72.64
   6   0   6 1169.66   46.03
   6   0   7 1296.03   44.29
   6   0   8  360.72   14.55
   6   0   8  250.94   12.30
   6   0   9    4.29    2.15
   6   0   9    3.33    2.01
   6   0  10   14.19    3.19
   6   0  10   10.59    2.53
   6   0  11  241.39   12.64
   6   0  11  194.69   11.47
   6   0  12   74.34    6.70
   6   0  12   56.93    5.21
   6   0  13   51.75    5.36
   6   0  13   40.60    4.64
   6   0  14   96.20    7.09
   6   0  15  197.05    9.63
   6   1 -10    3.61    2.58
  -6  -1  10    3.40    3.16
   6   1  -9   40.45    4.87
  -6  -1   9   25.37    4.12
   6   1  -8  346.73   13.77
  -6  -1   8  187.32    9.10
   6   1  -7   11.05    2.99
  -6  -1   7    6.79    2.53
   6   1  -6  160.42    9.52
  -6  -1   6   86.26    6.45
   6   1  -5  453.77   18.70
  -6  -1   5  228.91   11.82
   6   1  -4 2391.10   35.98
  -6  -1   4 1196.44   31.84
   6   1  -3 1766.12   68.19
  -6  -1   3  919.60   38.11
   6   1  -2  884.00   32.41
  -6  -1   2  460.55   19.88
   6   1  -1  472.79   22.12
  -6  -1   1  250.60   13.84
   6   1   0  458.74   17.38
   6   1   0  296.79   12.48
  -6  -1   0  261.11   12.15
  -6  -1  -1  153.14    8.74
  -6  -1  -1  169.33    9.55
  -6  -1  -2  395.24   15.03
  -6  -1  -2  397.40   15.10
   6   1   3    9.25    2.28
  -6  -1  -3    5.86    2.12
  -6  -1  -3    5.55    1.91
   6   1   4  414.54   16.01
  -6  -1  -4  332.45   13.01
  -6  -1  -4  277.00   12.06
   6   1   5  808.02   23.88
   6   1   5  454.18   16.89
  -6  -1  -5  736.24   20.86
   6   1   6 1405.04   54.14
   6   1   6  831.37   34.95
   6   1   7  465.92   20.26
   6   1   7  299.08   15.37
   6   1   8   25.28    3.67
   6   1   8   16.16    3.22
   6   1   9  426.00   17.83
   6   1   9  304.88   14.67
   6   1  10 1046.23   23.16
   6   1  10  792.23   19.71
   6   1  11 1474.86   27.06
   6   1  11 1103.60   22.62
   6   1  12  344.81   13.21
   6   1  12  280.63   11.83
   6   1  13   34.33    4.28
   6   1  13   29.27    4.38
   6   1  14   13.61    3.29
   6   1  14    9.15    3.00
   6   1  15   69.26    5.75
  -6  -2  10    0.75    3.21
   6   2  -9  352.21   16.76
  -6  -2   9  210.59   10.14
   6   2  -8  260.35   13.11
  -6  -2   8  139.16    8.40
   6   2  -7    9.33    2.93
  -6  -2   7    4.48    3.03
   6   2  -6   12.89    3.34
  -6  -2   6    5.52    2.63
   6   2  -5  337.92   13.23
  -6  -2   5  162.96    8.88
   6   2  -4  748.84   23.61
  -6  -2   4  367.37   14.64
   6   2  -3  260.54   14.65
  -6  -2   3  130.25    9.16
   6   2  -2   45.68    5.07
  -6  -2   2   24.01    3.43
   6   2  -1  855.90   35.31
   6   2  -1  513.72   23.19
  -6  -2   1  452.62   21.20
   6   2   0 2292.27   51.79
   6   2   0 1482.75   35.09
  -6  -2   0 1302.09   32.09
   6   2   1 3339.80   43.38
  -6  -2  -1 1809.03   40.28
  -6  -2  -1 1921.96   42.04
   6   2   2 2068.22   45.89
  -6  -2  -2 1438.77   34.30
  -6  -2  -2 1458.42   35.32
  -6  -2  -3  149.75    8.42
  -6  -2  -3  133.14    8.26
   6   2   4    3.82    1.91
  -6  -2  -4    2.41    1.65
  -6  -2  -4    1.96    1.63
   6   2   5  165.39    9.52
   6   2   5   86.56    6.91
  -6  -2  -5  155.26    8.03
   6   2   6  899.58   36.48
   6   2   6  512.70   23.92
  -6  -2  -6  913.15   37.07
   6   2   7    2.05    1.82
   6   2   7    0.94    1.61
   6   2   8   22.03    3.59
   6   2   8   15.67    2.87
   6   2   9  496.58   20.30
   6   2   9  345.50   16.00
   6   2  10  678.90   18.09
   6   2  10  506.94   16.03
   6   2  11  469.81   19.23
   6   2  11  366.77   13.67
   6   2  12    7.61    2.67
   6   2  12    6.47    2.57
   6   2  13   46.29    4.93
   6   2  13   35.11    4.39
   6   2  14  304.61   12.34
   6   2  14  216.70   10.56
   6   2  15  380.64   13.25
   6   2  15  243.54   11.12
  -6  -3  10  163.28    8.89
  -6  -3   9  494.95   14.49
   6   3  -8  487.31   16.32
  -6  -3   8  243.55   11.05
   6   3  -7  427.44   14.73
  -6  -3   7  198.47    9.72
   6   3  -6    7.20    2.60
  -6  -3   6    3.03    2.37
   6   3  -5  294.45   13.06
  -6  -3   5  132.01    8.12
   6   3  -4  676.95   25.83
  -6  -3   4  324.51   14.96
   6   3  -3  519.23   18.67
  -6  -3   3  251.37   12.12
   6   3  -2   12.91    2.75
  -6  -3   2    6.52    2.15
   6   3  -1  270.55   11.77
   6   3  -1  159.13    8.30
  -6  -3   1  140.54    8.04
   6   3   0  417.10   20.83
   6   3   0  269.72   14.40
  -6  -3   0  222.86   12.52
   6   3   1 1442.57   55.38
  -6  -3  -1  835.77   34.74
  -6  -3  -1  893.78   36.55
   6   3   2   35.31    4.29
  -6  -3  -2   17.45    3.06
  -6  -3  -2   16.16    2.87
   6   3   3  293.58   13.30
  -6  -3  -3  216.63   10.76
  -6  -3  -3  183.59    9.84
  -6  -3  -4  915.29   36.93
  -6  -3  -4  719.21   30.54
   6   3   5 2530.79   92.11
  -6  -3  -5 2684.98   97.07
  -6  -3  -5 1921.45   71.59
   6   3   6 3385.99   39.64
   6   3   6 1896.94   62.50
  -6  -3  -6 3601.72   39.58
   6   3   7  460.21   21.77
   6   3   7  280.42   15.51
  -6  -3  -7  492.11   22.39
   6   3   8    5.09    2.21
   6   3   8    3.69    2.00
   6   3   9   29.11    4.00
   6   3   9   20.39    3.57
   6   3  10  275.80   11.86
   6   3  10  204.00    9.95
   6   3  11  133.10    7.94
   6   3  11  102.21    7.04
   6   3  12    6.79    2.69
   6   3  12    3.96    2.43
   6   3  13  232.62   10.84
   6   3  13  176.19    9.40
   6   3  14  145.19    8.58
   6   3  14   96.99    7.24
   6   3  15  194.93   10.68
   6   3  15  115.98    7.50
  -6  -4  10   82.85    6.46
  -6  -4   9   92.22    7.97
  -6  -4   8    9.81    2.88
   6   4  -7  110.44    8.18
  -6  -4   7   50.02    5.32
   6   4  -6  845.74   28.96
  -6  -4   6  368.20   15.82
   6   4  -5 1289.90   26.60
  -6  -4   5  566.56   16.40
   6   4  -4 1714.67   30.18
  -6  -4   4  780.62   19.30
   6   4  -3 1305.91   41.66
  -6  -4   3  620.01   23.55
   6   4  -2   11.69    2.71
   6   4  -2    6.99    2.37
  -6  -4   2    6.73    2.38
   6   4  -1   20.28    3.44
   6   4  -1   12.12    2.62
  -6  -4   1    9.77    2.79
   6   4   0  628.50   25.08
   6   4   0  399.72   17.67
  -6  -4   0  348.85   16.42
   6   4   1  852.39   35.13
  -6  -4  -1  469.80   21.94
  -6  -4  -1  490.58   22.68
   6   4   2   26.51    3.77
  -6  -4  -2   15.60    2.76
  -6  -4  -2   14.82    2.85
   6   4   3   62.57    5.59
  -6  -4  -3   45.57    4.71
  -6  -4  -3   36.00    4.22
   6   4   4  416.71   20.38
  -6  -4  -4  361.92   18.03
  -6  -4  -4  257.84   14.07
  -6  -4  -5  907.84   32.83
  -6  -4  -5  607.61   24.28
  -6  -4  -6   17.86    3.17
   6   4   7   43.22    4.51
   6   4   7   29.96    4.08
  -6  -4  -7   47.25    4.71
   6   4   8  634.77   23.90
   6   4   8  401.08   17.59
  -6  -4  -8  626.75   23.16
   6   4   9  725.36   19.51
   6   4   9  486.83   15.55
   6   4  10 1386.92   25.71
   6   4  10 1045.78   22.63
   6   4  11  495.74   19.51
   6   4  11  374.31   16.05
   6   4  12   68.69    6.38
   6   4  12   56.78    5.40
   6   4  13    4.00    2.93
   6   4  13    2.83    2.64
   6   4  14    7.18    3.34
   6   4  14    4.23    2.56
   6   4  15  103.58    7.63
   6   4  15   56.32    5.49
  -6  -5   9  189.28   10.11
  -6  -5   8  115.02    7.50
  -6  -5   7    9.88    3.23
   6   5  -6    3.74    2.53
  -6  -5   6    1.11    2.36
   6   5  -5  441.14   18.10
  -6  -5   5  195.44   11.04
   6   5  -4  522.26   16.89
  -6  -5   4  225.83   10.83
   6   5  -3  187.41   10.05
  -6  -5   3   83.93    6.63
   6   5  -2  265.74   13.27
   6   5  -2  144.29    9.15
  -6  -5   2  125.02    8.36
   6   5  -1 1212.89   34.20
   6   5  -1  726.82   22.56
  -6  -5   1  605.97   20.02
   6   5   0 3192.31   39.22
   6   5   0 2038.94   76.70
  -6  -5   0 1661.29   28.02
   6   5   1 1421.38   55.79
  -6  -5  -1  780.37   33.36
  -6  -5  -1  778.88   33.06
   6   5   2  284.72   15.51
  -6  -5  -2  184.32   11.60
  -6  -5  -2  155.40   10.94
   6   5   3   19.12    3.43
  -6  -5  -3   15.14    2.99
  -6  -5  -3   11.35    2.56
   6   5   4  251.31   14.30
  -6  -5  -4  232.60   13.27
  -6  -5  -4  150.50    9.85
   6   5   5  680.69   29.99
  -6  -5  -5  692.33   29.72
  -6  -5  -5  422.89   20.30
  -6  -5  -6  249.58   11.84
  -6  -5  -6  160.21    9.10
   6   5   7   38.25    4.44
   6   5   8  241.07   11.03
   6   5   8  142.92    9.31
   6   5   9  196.26    9.65
   6   5   9  126.74    8.08
   6   5  10  273.38   12.90
   6   5  10  193.22   10.92
   6   5  11    0.67    2.21
   6   5  11    0.56    2.17
   6   5  12  165.05    9.04
   6   5  12  131.70    7.86
   6   5  13   89.08    6.96
   6   5  13   74.89    6.33
   6   5  14  356.82   12.82
  -6  -6   8   59.13    5.54
  -6  -6   7    3.09    2.69
  -6  -6   6   41.91    4.73
   6   6  -5  542.76   18.00
  -6  -6   5  277.47   11.44
   6   6  -4  408.75   17.77
  -6  -6   4  190.23   10.29
   6   6  -3   12.25    2.97
  -6  -6   3    6.46    2.77
   6   6  -2    9.50    2.92
  -6  -6   2    4.65    2.53
   6   6  -1  272.79   12.38
   6   6  -1  160.46    8.70
  -6  -6   1  119.27    8.47
   6   6   0  322.22   14.83
   6   6   0  214.11   11.44
  -6  -6   0  152.72    9.69
   6   6   1    5.19    2.63
  -6  -6  -1    3.91    2.07
   6   6   2  151.39    8.72
  -6  -6  -2   84.36    6.25
   6   6   3  750.76   23.89
  -6  -6  -3  415.30   16.39
   6   6   4 1243.06   34.39
  -6  -6  -4  706.66   22.99
   6   6   5 1477.54   46.36
  -6  -6  -5  869.09   30.39
   6   6   6  512.75   20.81
  -6  -6  -6  322.68   14.82
   6   6   7    1.76    2.11
  -6  -6  -7    1.21    1.99
   6   6   8   15.83    3.09
   6   6   9  206.34   12.07
   6   6   9  130.52    8.20
   6   6  10  138.96    8.65
   6   6  11    5.64    2.53
   6   6  12   42.41    4.82
   6   6  13   14.31    3.77
   6   6  14  112.04    7.62
  -6  -7   6  381.28   13.23
  -6  -7   5  711.09   17.96
   6   7  -4  221.62   10.93
  -6  -7   4  125.91    7.79
   6   7  -3   97.25    6.99
  -6  -7   3   54.04    5.39
   6   7  -2   47.95    4.93
  -6  -7   2   23.38    3.66
   6   7  -1  395.92   14.39
   6   7   0  397.16   14.06
   6   7   1  136.45    8.63
   6   7   2    9.01    2.91
   6   7   3   88.75    6.79
   6   7   4  116.83    7.97
   6   7   5  104.76    7.75
   6   7   6   86.15    6.77
   6   7   7  368.16   13.31
   6   7   8  202.74   10.25
   6   7  11   16.36    3.72
   6   7  12   13.00    3.53
   6   7  13   17.86    4.21
   6   8  -2  588.12   17.24
   6   8  -1  578.19   16.99
   6   8   0  632.61   23.70
   6   8   1   64.84    5.97
   6   8   2    3.85    2.53
   6   8   3    1.75    2.37
   6   8   4  403.30   17.24
   6   8   5   92.47    6.87
   6   8   6   26.90    4.13
   6   8   7    1.40    1.99
   6   8   8   89.20    6.56
   6   8   9   12.00    3.16
   6   8  12   63.71    6.47
   6   9  -1   57.02    5.38
   6   9   0    7.25    2.95
   6   9   1  216.05   10.81
   6   9   2  152.78    9.09
   6   9   3  371.99   13.37
   6   9   4  436.04   15.07
   6   9   5   16.59    3.53
   6   9   6    4.60    2.73
   6   9   7    8.08    3.16
   6   9   8   75.92    6.12
   6   9   9    0.08    2.70
   6   9  10    1.54    2.96
   6   9  11    9.07    3.24
   6  10   1    2.71    2.62
   6  10   2   21.28    3.71
   6  10   3   26.40    4.06
   6  10   4    0.47    2.54
   6  10   5  104.40    7.63
   6  10   6   68.16    6.02
   6  10   7  129.52    8.58
   6  10   8   65.71    6.38
   6  10   9   24.99    4.53
   6  11   2   24.61    4.19
   6  11   3   39.21    5.23
   6  11   4    3.93    3.03
   6  11   5   10.39    3.26
   6  11   6   23.75    4.20
   7  -8  -1  113.95    8.83
  -7   8   1   84.60    6.44
   7  -8   0  304.14   13.29
  -7   8   0  238.68   11.05
   7  -8   1   13.17    3.87
  -7   8  -1    9.56    3.05
   7  -8   2    0.08    2.98
  -7   8  -2   -0.10    3.29
   7  -8   3  126.89    9.13
  -7   8  -3   95.44    6.81
  -7   8  -4  250.34   11.40
  -7   8  -5  178.51    9.97
   7  -7  -4   49.54    5.51
  -7   7   4   37.10    4.63
   7  -7  -3   14.76    3.62
  -7   7   3   10.40    2.92
   7  -7  -2   18.57    3.78
  -7   7   2   13.18    3.24
   7  -7  -1  404.88   14.63
  -7   7   1  277.85   11.52
   7  -7   0  189.92   11.89
  -7   7   0  130.21    8.23
   7  -7   1   51.58    5.99
  -7   7  -1   34.96    4.42
   7  -7   2   44.45    5.01
  -7   7  -2   30.38    4.32
   7  -7   3  118.84    8.53
  -7   7  -3   86.76    6.71
   7  -7   4  268.03   11.87
  -7   7  -4  194.99    9.49
  -7   7  -5  155.35    9.13
  -7   7  -6    5.87    2.56
  -7   7  -7   51.50    5.22
   7  -7   8  110.62    7.67
   7  -6  -6  223.84   11.54
  -7   6   6  168.75    8.99
   7  -6  -5  101.57    7.84
  -7   6   5   72.13    5.96
   7  -6  -4   15.59    3.67
  -7   6   4   10.44    2.99
   7  -6  -3    9.92    3.27
  -7   6   3    7.54    3.27
   7  -6  -2  355.03   14.14
  -7   6   2  229.45   10.08
   7  -6  -1  710.80   19.25
  -7   6   1  457.23   15.28
   7  -6   0  414.84   14.80
  -7   6   0  264.12   10.99
   7  -6   1  123.81    8.21
  -7   6  -1   76.54    6.64
   7  -6   2   30.90    4.22
  -7   6  -2   20.05    3.48
   7  -6   3  298.79   14.98
  -7   6  -3  203.77   10.36
   7  -6   4  416.40   17.90
  -7   6  -4  281.28   11.91
   7  -6   5  111.00    8.19
  -7   6  -5   78.02    6.34
   7  -6   6   11.65    3.06
  -7   6  -6    9.18    2.99
   7  -6   8   96.12    7.16
   7  -6   9  165.14    9.76
   7  -6  10    0.07    2.58
   7  -5  -7  119.92    8.41
  -7   5   7   83.61    7.57
  -7   5   6  347.96   13.79
   7  -5  -5  181.26    9.82
  -7   5   5  124.29    8.23
   7  -5  -4  151.23    9.51
  -7   5   4   94.44    6.82
   7  -5  -3    1.33    2.59
  -7   5   3    0.62    2.37
   7  -5  -2  179.51    9.92
  -7   5   2  111.90    7.33
   7  -5  -1  436.07   14.95
  -7   5   1  276.26   12.33
   7  -5   0   81.60    6.48
  -7   5   0   52.05    5.17
   7  -5   1    0.94    2.27
  -7   5  -1    1.35    2.44
   7  -5   2  285.14   15.71
  -7   5  -2  174.31   10.02
   7  -5   3  551.16   21.59
  -7   5  -3  342.19   15.44
   7  -5   4 1291.73   41.25
  -7   5  -4  830.54   29.34
   7  -5   5  264.80   11.94
  -7   5  -5  167.43    9.15
   7  -5   6   11.77    3.35
  -7   5  -6    6.90    2.73
   7  -5   7   92.84    7.20
   7  -5   7   51.43    4.89
   7  -5   8  186.58   10.09
   7  -5   9  177.07    8.92
   7  -5  10    5.20    2.73
   7  -5  11    0.24    2.04
   7  -4  -8   26.03    3.94
  -7   4   8   19.18    4.35
   7  -4  -7  500.16   16.66
  -7   4   7  338.71   12.86
   7  -4  -6  363.51   14.10
  -7   4   6  227.69   10.53
  -7   4   5  154.22    8.31
  -7   4   4   39.01    4.55
   7  -4  -3  132.25    8.69
  -7   4   3   77.43    6.07
   7  -4  -2  728.91   26.42
  -7   4   2  423.39   17.34
   7  -4  -1  578.17   22.00
  -7   4   1  338.80   15.09
   7  -4   0  324.28   12.96
  -7   4   0  181.99   11.75
   7  -4   1   34.12    4.61
  -7   4  -1   20.61    3.69
   7  -4   2   29.59    4.10
  -7   4  -2   17.96    3.30
   7  -4   3  559.55   16.76
  -7   4  -3  340.10   13.31
   7  -4   4  130.90    8.33
  -7   4  -4   82.32    6.80
   7  -4   5    9.23    2.94
  -7   4  -5    4.53    2.24
   7  -4   6   47.31    5.44
   7  -4   7  468.00   19.25
   7  -4   7  254.17   13.27
   7  -4   8  956.74   23.34
   7  -4   8  544.36   16.58
   7  -4   9   60.23    5.51
   7  -4  10   80.30    6.65
   7  -4  11    3.39    2.65
   7  -3  -8    8.03    3.15
  -7   3   8    6.13    3.22
   7  -3  -7  143.62    7.99
  -7   3   7   96.42    7.56
   7  -3  -6  166.53    8.86
  -7   3   6  103.48    7.00
   7  -3  -5   51.17    5.08
  -7   3   5   30.92    4.40
  -7   3   4   35.96    4.42
  -7   3   3   96.64    6.57
   7  -3  -2 1387.66   27.04
  -7   3   2  720.68   20.86
   7  -3  -1  871.36   20.29
   7  -3   0  171.22    9.85
   7  -3   1    1.59    1.63
   7  -3   2  381.40   16.52
   7  -3   3 1160.73   37.34
   7  -3   4  249.04   11.65
   7  -3   5  135.15    8.73
   7  -3   6    1.78    2.04
   7  -3   7  163.82    9.28
   7  -3   8  135.96    8.17
   7  -3   9    5.95    2.88
   7  -3  10   55.81    5.39
   7  -3  12  217.29   11.03
   7  -3  13  127.65    8.27
   7  -2  -9    0.61    2.91
   7  -2  -8  165.35    9.07
   7  -2  -7  461.14   15.96
   7  -2  -6  707.69   18.69
   7  -2  -5  267.24   12.32
   7  -2  -4   48.54    5.38
   7  -2  -3   88.07    6.85
   7  -2  -1   46.15    4.73
  -7   2   1   24.65    3.80
   7  -2   0   15.28    3.30
  -7   2   0   10.22    2.45
   7  -2   1  206.74   10.40
  -7   2  -1  121.59    7.86
   7  -2   2  952.25   28.14
  -7   2  -2  553.21   19.39
   7  -2   3  971.61   27.81
  -7   2  -3  588.62   19.93
   7  -2   4  458.17   18.49
  -7   2  -4  290.28   12.73
   7  -2   5   57.24    5.96
  -7   2  -5   36.87    4.52
   7  -2   6  116.69    8.13
   7  -2   6   61.50    5.45
   7  -2   7  320.99   12.62
   7  -2   7  180.63    9.23
   7  -2   8  206.22   10.10
   7  -2   8  127.24    8.40
   7  -2   9  114.18    7.82
   7  -2   9   72.40    5.91
   7  -2  10    6.89    2.78
   7  -2  10    4.01    2.39
   7  -2  11    1.63    2.70
   7  -2  11    1.36    2.23
   7  -2  12    5.49    3.08
   7  -2  13   10.00    3.85
   7  -2  14   33.94    4.68
   7  -1  -9   51.67    5.31
  -7   1   9   30.62    4.53
   7  -1  -8  183.82    9.23
  -7   1   8  114.24    8.11
   7  -1  -7  570.50   17.06
  -7   1   7  332.86   12.47
   7  -1  -6  133.65    7.87
  -7   1   6   76.09    6.13
   7  -1  -5   30.04    4.06
  -7   1   5   15.57    3.34
   7  -1  -4    6.99    2.69
  -7   1   4    3.76    2.22
   7  -1  -3  855.78   22.13
  -7   1   3  456.32   15.01
   7  -1  -2  950.26   32.78
  -7   1   2  516.73   20.40
  -7   1   1  251.58   13.05
  -7   1   0  244.57   11.46
   7  -1   1    3.17    1.87
  -7   1  -1    1.45    1.93
   7  -1   2  141.11    8.69
  -7   1  -2   84.67    6.35
   7  -1   3   15.60    3.01
  -7   1  -3    9.65    2.66
   7  -1   4   21.28    3.48
  -7   1  -4   11.81    2.80
   7  -1   5  165.79    9.58
  -7   1  -5  111.24    7.24
   7  -1   6  446.09   18.91
   7  -1   6  240.75   13.11
   7  -1   7  457.72   18.77
   7  -1   7  259.80   12.80
   7  -1   8  464.77   16.41
   7  -1   8  276.07   11.55
   7  -1   9   25.69    3.76
   7  -1   9   15.87    3.32
   7  -1  10    0.39    2.18
   7  -1  10    0.38    2.24
   7  -1  11   13.00    3.16
   7  -1  11    8.18    2.78
   7  -1  12  146.69    8.21
   7  -1  12  103.98    6.93
   7  -1  13    6.73    2.65
   7  -1  14    9.31    3.15
   7   0  -9   46.96    5.30
  -7   0   9   28.38    4.33
   7   0  -8   34.76    4.52
  -7   0   8   20.40    3.75
   7   0  -7  142.87    8.35
  -7   0   7   81.60    6.53
   7   0  -6    2.98    2.53
  -7   0   6    1.96    3.36
   7   0  -5    1.60    2.34
   7   0  -4  203.19   10.10
  -7   0   4  106.96    7.14
   7   0  -3 1110.74   25.21
  -7   0   3  590.50   16.73
   7   0  -2  253.54   13.22
  -7   0   2  139.83    8.81
   7   0  -1  266.71   12.97
  -7   0   1  147.51    8.60
  -7   0   0   14.63    3.04
  -7   0  -1  123.78    8.91
   7   0   2  696.74   30.04
  -7   0  -2  403.98   19.80
   7   0   3  586.05   26.36
  -7   0  -3  372.08   18.82
   7   0   4  143.67    8.37
  -7   0  -4   93.59    7.59
   7   0   5   43.72    4.75
  -7   0  -5   29.75    4.05
   7   0   6   59.75    5.86
   7   0   6   33.01    4.17
   7   0   7   46.02    4.92
   7   0   7   27.06    4.03
   7   0   8   88.35    6.99
   7   0   8   54.10    5.41
   7   0   9  352.83   13.57
   7   0   9  222.66   11.03
   7   0  10   33.64    4.34
   7   0  10   25.74    3.99
   7   0  11  239.47   11.68
   7   0  11  164.30    8.85
   7   0  12   91.67    7.03
   7   0  12   71.54    5.99
   7   0  13    2.09    2.68
   7   0  13    1.19    2.43
   7   0  14    0.76    3.08
   7   1  -9   36.34    4.96
  -7  -1   9   19.78    3.89
   7   1  -8  581.00   16.98
  -7  -1   8  313.91   12.54
   7   1  -7  316.94   12.76
  -7  -1   7  164.56    8.99
   7   1  -6  380.11   13.91
  -7  -1   6  197.33    9.80
   7   1  -5  196.89   10.14
  -7  -1   5   98.20    6.89
   7   1  -4    6.21    2.84
  -7  -1   4    3.28    1.86
   7   1  -3    3.09    2.49
  -7  -1   3    1.40    2.04
   7   1  -2   16.81    3.26
  -7  -1   2    9.09    2.57
   7   1  -1   52.83    5.51
  -7  -1   1   27.39    3.93
   7   1   0  186.32   12.19
  -7  -1   0  104.63    7.84
  -7  -1  -1  114.47    8.31
  -7  -1  -2  327.48   15.41
   7   1   3  165.39    9.39
  -7  -1  -3   99.57    6.89
   7   1   4    1.59    1.57
  -7  -1  -4    0.13    1.53
   7   1   5    1.69    1.60
  -7  -1  -5    1.82    1.86
   7   1   6  205.33   10.96
   7   1   6  109.52    7.32
   7   1   7  283.04   13.59
   7   1   7  163.73    9.93
   7   1   8    6.69    2.48
   7   1   8    4.57    2.02
   7   1   9   65.58    5.64
   7   1   9   46.72    4.85
   7   1  10  130.56    8.01
   7   1  10   87.95    6.58
   7   1  11    1.76    2.44
   7   1  11    1.58    2.66
   7   1  12  123.22    7.71
   7   1  12   85.48    6.37
   7   1  13  179.04    9.75
   7   1  13  133.30    8.15
   7   1  14   30.00    4.67
   7   1  14   20.11    3.84
   7   2  -9  106.71    7.38
  -7  -2   9   60.98    5.67
   7   2  -8  193.87   10.95
  -7  -2   8  101.47    7.40
   7   2  -7   10.81    3.03
  -7  -2   7    5.18    2.61
   7   2  -6    5.50    2.53
  -7  -2   6    2.82    2.24
   7   2  -5   48.99    5.31
  -7  -2   5   24.24    3.75
   7   2  -4  484.37   15.25
  -7  -2   4  243.11   10.52
   7   2  -3  489.31   16.82
  -7  -2   3  252.84   10.97
   7   2  -2  612.23   22.90
  -7  -2   2  319.32   15.13
   7   2  -1   71.25    5.72
  -7  -2   1   36.53    4.31
   7   2   0  318.16   16.93
  -7  -2   0  173.41   10.64
   7   2   1   40.38    4.41
  -7  -2  -1   22.38    3.54
   7   2   2    2.28    1.99
  -7  -2  -2    2.15    1.81
  -7  -2  -3  344.85   16.16
   7   2   4  290.40   16.20
  -7  -2  -4  192.48   11.67
   7   2   5   24.88    3.70
  -7  -2  -5   16.48    3.83
   7   2   6  190.82    9.32
  -7  -2  -6  133.09    8.28
   7   2   7   30.34    4.31
   7   2   7   19.96    3.33
   7   2   8   36.13    4.41
   7   2   8   22.76    3.44
   7   2   9   16.71    3.38
   7   2   9   10.42    2.84
   7   2  10   25.49    3.83
   7   2  10   18.34    3.35
   7   2  11    1.22    2.29
   7   2  11    0.34    2.02
   7   2  12    0.97    2.60
   7   2  12    0.42    2.06
   7   2  13    2.02    2.61
   7   2  13    0.51    2.45
   7   2  14   14.75    3.62
   7   2  14   12.20    3.16
  -7  -3   9    1.13    3.64
   7   3  -8   19.01    3.78
  -7  -3   8    9.89    3.40
   7   3  -7   19.99    4.12
  -7  -3   7   10.02    3.06
   7   3  -6   12.16    3.35
  -7  -3   6    5.88    2.70
   7   3  -5   32.74    4.31
  -7  -3   5   14.97    3.27
   7   3  -4   79.36    6.26
  -7  -3   4   40.68    4.53
   7   3  -3   76.52    6.77
  -7  -3   3   39.37    4.49
   7   3  -2    4.75    2.37
  -7  -3   2    2.34    1.95
   7   3  -1   56.37    5.66
  -7  -3   1   29.43    3.75
   7   3   0    5.63    2.10
  -7  -3   0    3.46    2.03
   7   3   1  684.28   29.63
  -7  -3  -1  383.25   19.00
   7   3   2   59.10    5.39
  -7  -3  -2   36.84    4.35
  -7  -3  -2   33.06    4.01
   7   3   3  136.71    7.98
  -7  -3  -3   95.87    6.92
  -7  -3  -3   82.03    6.46
  -7  -3  -4  469.17   22.18
  -7  -3  -4  370.98   18.77
  -7  -3  -5   58.04    5.38
  -7  -3  -5   40.26    4.51
   7   3   6   45.04    4.73
  -7  -3  -6   30.69    3.96
   7   3   7  726.11   26.64
   7   3   7  396.35   17.27
   7   3   8  176.59   10.16
   7   3   8  105.10    7.63
   7   3   9  111.10    7.79
   7   3   9   68.95    6.33
   7   3  10   48.53    5.10
   7   3  10   33.78    4.33
   7   3  11    3.24    2.36
   7   3  11    1.53    2.17
   7   3  12   10.58    3.24
   7   3  12    7.33    2.92
   7   3  13   16.29    3.66
   7   3  13   12.71    3.14
   7   3  14    0.31    2.75
   7   3  14    0.68    2.15
  -7  -4   8   98.42    7.04
   7   4  -7   71.67    6.21
  -7  -4   7   32.19    4.47
   7   4  -6   44.64    5.04
  -7  -4   6   19.55    3.66
   7   4  -5  284.61   12.20
  -7  -4   5  122.46    7.95
   7   4  -4    7.23    2.75
  -7  -4   4    2.85    2.31
   7   4  -3   48.24    4.99
  -7  -4   3   23.07    3.72
   7   4  -2  488.57   16.08
  -7  -4   2  245.52   10.84
   7   4  -1    9.31    2.58
  -7  -4   1    7.23    2.41
   7   4   0   60.54    5.65
  -7  -4   0   31.65    3.88
   7   4   1   40.32    4.63
  -7  -4  -1   23.32    3.88
  -7  -4  -1   23.80    3.61
   7   4   2  163.98    9.16
  -7  -4  -2  102.07    7.10
  -7  -4  -2   94.17    6.67
   7   4   3   98.18    6.86
  -7  -4  -3   69.85    5.63
  -7  -4  -3   58.76    5.28
   7   4   4   16.93    3.41
  -7  -4  -4   12.62    2.79
  -7  -4  -4   12.10    2.67
  -7  -4  -5   27.56    3.83
  -7  -4  -5   18.59    3.47
  -7  -4  -6    1.06    2.11
  -7  -4  -6    0.63    1.93
   7   4   7    1.11    1.88
  -7  -4  -7    0.68    2.00
  -7  -4  -7    1.01    1.73
   7   4   8   81.47    6.57
   7   4   8   48.04    4.98
   7   4   9  218.86   10.61
   7   4   9  137.17    8.15
   7   4  10  257.96   13.15
   7   4  10  168.58   10.29
   7   4  11  302.00   12.37
   7   4  11  202.02   10.21
   7   4  12  293.85   11.89
   7   4  12  210.74   10.18
   7   4  13   95.76    7.00
   7   4  13   70.18    5.99
   7   4  14    1.55    2.97
   7   4  14    1.01    2.69
  -7  -5   8    0.61    3.57
  -7  -5   7   44.57    4.86
   7   5  -6    7.04    2.95
  -7  -5   6    4.03    2.88
   7   5  -5  177.21    9.23
  -7  -5   5   76.37    5.96
   7   5  -4  199.08   10.11
  -7  -5   4   83.55    6.10
   7   5  -3   68.29    5.89
  -7  -5   3   30.95    4.06
   7   5  -2   36.22    4.91
  -7  -5   2   16.09    3.10
   7   5  -1  529.19   16.18
  -7  -5   1  264.70   11.11
   7   5   0   26.98    3.88
   7   5   0   16.92    3.16
  -7  -5   0   13.51    2.88
   7   5   1  506.48   21.48
  -7  -5  -1  279.66   13.38
   7   5   2  379.64   16.39
  -7  -5  -2  216.52   11.79
   7   5   3  134.04    8.22
  -7  -5  -3   75.14    6.13
   7   5   4   27.01    3.83
  -7  -5  -4   16.48    3.06
   7   5   5    7.26    2.46
  -7  -5  -5    4.39    2.18
  -7  -5  -6   46.26    4.95
  -7  -5  -7   79.89    6.20
   7   5   8  160.57    8.55
   7   5   9    3.71    2.48
   7   5   9    2.79    2.19
   7   5  10   44.31    4.70
   7   5  10   27.66    3.77
   7   5  11    0.69    2.06
   7   5  11    1.00    2.31
   7   5  12   43.22    4.76
   7   5  12   28.75    4.11
   7   5  13   34.23    4.78
   7   5  14  162.97    9.18
  -7  -6   7   23.87    4.32
  -7  -6   6   13.31    3.56
   7   6  -5   10.97    2.86
  -7  -6   5    5.35    2.66
   7   6  -4   87.54    6.78
  -7  -6   4   37.74    4.41
   7   6  -3  392.23   14.27
  -7  -6   3  169.64    8.95
   7   6  -2    5.74    2.55
  -7  -6   2    2.60    2.19
   7   6  -1  209.25   10.76
  -7  -6   1   93.90    6.62
   7   6   0   13.74    3.15
  -7  -6   0    9.02    2.74
   7   6   1    9.41    2.70
  -7  -6  -1    5.34    2.34
   7   6   2   17.82    3.70
  -7  -6  -2    9.56    2.87
   7   6   3  133.72    8.51
  -7  -6  -3   76.41    6.33
   7   6   4  240.46   11.67
  -7  -6  -4  137.19    8.48
   7   6   5  626.34   17.88
   7   6   6  452.02   15.06
   7   6   7  543.30   21.12
   7   6   9   22.50    3.89
   7   6  10   52.20    5.04
   7   6  11  169.74    8.81
   7   6  12   93.63    6.92
   7   6  13   23.53    4.03
   7   7  -3  166.99    8.93
   7   7  -2    3.99    2.42
   7   7  -1    1.59    2.51
   7   7   0  175.49    9.33
   7   7   1  143.59    8.92
   7   7   2  481.76   19.06
   7   7   3   94.57    6.86
   7   7   4   22.48    3.60
   7   7   5   -0.16    2.27
   7   7   6   94.36    6.74
   7   7   7    1.20    2.13
   7   7   8  207.53   10.26
   7   7  11  423.17   14.41
   7   7  12   65.18    5.90
   7   8  -2   22.66    3.84
   7   8  -1  262.37   11.34
   7   8   0  339.51   13.26
   7   8   1  382.90   15.02
   7   8   2  213.65   11.03
   7   8   3   23.89    4.02
   7   8   4  131.17    7.96
   7   8   5  143.95    8.57
   7   8   6  549.71   16.74
   7   8   7   88.26    7.05
   7   8   8    2.89    2.79
   7   8   9   30.27    4.29
   7   9  -1    7.37    2.95
   7   9   0    4.67    2.87
   7   9   1  160.73    9.59
   7   9   2    9.86    3.09
   7   9   3  231.70   11.28
   7   9   4  212.75   10.23
   7   9   5  528.07   16.25
   7   9   6  356.98   13.73
   7   9   7    3.62    2.99
   7   9   8   59.98    5.50
   7   9   9  157.92    9.07
   7   9  10  158.34    9.05
   7  10   1  373.19   14.44
   7  10   2   16.27    3.79
   7  10   3   -1.02    2.96
   7  10   4   33.29    4.74
   7  10   5  188.42   10.19
   7  10   6    2.45    3.03
   7  10   7   21.17    4.35
   7  10   8  286.66   12.32
   8  -7  -1   41.98    5.03
  -8   7   1   29.29    4.33
   8  -7   0    1.23    2.92
  -8   7   0    0.09    2.60
   8  -7   1    1.96    3.00
  -8   7  -1    0.88    2.92
   8  -7   2    7.23    3.42
  -8   7  -2    6.48    2.94
   8  -7   3   12.12    3.37
  -8   7  -3    7.70    2.84
   8  -7   4   44.46    5.12
  -8   7  -4   27.44    4.61
  -8   7  -5   17.43    3.89
   8  -6  -3   31.87    4.55
  -8   6   3   18.27    4.20
   8  -6  -2    2.99    3.04
  -8   6   2    1.53    2.69
   8  -6  -1   11.38    3.46
  -8   6   1    8.47    3.00
   8  -6   0    5.43    2.93
  -8   6   0    2.71    2.65
   8  -6   1    2.64    2.45
  -8   6  -1    0.53    2.53
   8  -6   2   20.21    3.98
  -8   6  -2   11.66    3.13
   8  -6   3   31.67    4.36
  -8   6  -3   20.31    3.43
   8  -6   4    7.74    2.87
  -8   6  -4    4.25    2.54
   8  -6   5    1.41    3.07
  -8   6  -5    0.72    2.64
  -8   6  -6   59.81    5.86
  -8   6  -7   15.78    3.37
  -8   6  -8    2.22    3.06
  -8   5   5   21.67    4.13
   8  -5  -4    2.26    3.28
  -8   5   4    0.66    2.78
   8  -5  -3    6.88    3.14
  -8   5   3    5.38    2.78
   8  -5  -2   28.98    4.23
  -8   5   2   18.85    3.75
   8  -5  -1   19.04    3.77
  -8   5   1   11.16    3.30
   8  -5   0   34.84    4.74
  -8   5   0   18.74    3.47
   8  -5   1    2.90    3.06
  -8   5  -1    0.90    2.42
   8  -5   2   18.36    3.72
  -8   5  -2   10.03    3.13
   8  -5   3   45.25    4.76
  -8   5  -3   26.73    4.22
   8  -5   4    3.17    2.71
  -8   5  -4    1.17    2.71
   8  -5   5   79.56    6.48
  -8   5  -5   53.97    5.32
   8  -5   6  117.93    7.73
  -8   5  -6   76.38    6.36
   8  -5   7    3.97    2.95
  -8   5  -7    2.68    2.63
   8  -5   9    4.89    2.36
   8  -5  10   93.55    7.31
   8  -4  -6    0.98    2.77
  -8   4   6    1.03    2.84
  -8   4   5   -0.37    2.82
  -8   4   4    0.06    2.04
   8  -4  -3    4.29    2.93
  -8   4   3    1.68    2.25
   8  -4  -2   21.09    3.73
  -8   4   2   11.73    3.10
   8  -4  -1   30.07    4.39
  -8   4   1   14.72    3.34
   8  -4   0   98.55    7.18
  -8   4   0   55.31    5.03
   8  -4   1  224.35   10.79
  -8   4  -1  126.50    8.32
   8  -4   2    4.72    2.79
  -8   4  -2    2.17    2.39
   8  -4   3   23.10    3.81
  -8   4  -3   14.50    3.13
   8  -4   4   16.04    3.49
   8  -4   5   90.85    8.69
   8  -4   6    0.31    2.22
   8  -4   7   34.83    4.83
   8  -4   8   34.74    5.06
   8  -4   8   16.97    3.61
   8  -3  -6    0.67    2.71
  -8   3   6    0.17    2.58
   8  -3  -5   10.00    3.56
  -8   3   5    5.95    2.91
   8  -3  -4    6.17    2.95
   8  -3  -2   29.90    4.10
   8  -3  -1   64.53    6.06
   8  -3   0  105.94    7.19
   8  -3   1   54.90    5.67
   8  -3   2   26.77    4.11
   8  -3   3   17.78    3.56
   8  -3   4  439.85   18.01
   8  -3   5  427.34   19.74
  -8   3  -5  260.64   12.87
   8  -3   6   56.12    5.25
  -8   3  -6   37.49    4.24
   8  -3   7   42.38    4.78
  -8   3  -7   27.21    3.91
   8  -3   8    8.05    3.13
   8  -3   9  104.13    8.74
   8  -3   9   53.69    5.33
   8  -3  10    0.20    2.51
   8  -3  11   16.72    3.69
   8  -3  12   78.64    6.36
   8  -2  -7   54.54    5.60
   8  -2  -6   55.72    5.55
   8  -2  -5  279.61   12.24
   8  -2  -4  132.34    8.36
   8  -2  -3    4.65    2.48
  -8   2   3    1.69    2.36
  -8   2   2   31.75    4.08
   8  -2  -1   18.24    3.43
  -8   2   1   11.07    2.65
   8  -2   0  261.07   13.76
  -8   2   0  142.75    8.84
   8  -2   1  189.65    9.95
  -8   2  -1  103.40    6.93
   8  -2   2   15.14    3.27
  -8   2  -2    8.83    2.51
   8  -2   3  255.83   13.44
  -8   2  -3  152.25    9.13
   8  -2   4  485.04   15.16
  -8   2  -4  286.12   12.60
   8  -2   5  230.00   10.96
  -8   2  -5  151.12    8.57
   8  -2   6    5.01    2.63
  -8   2  -6    2.69    1.93
   8  -2   7   17.27    3.65
   8  -2   8  379.93   13.39
   8  -2   8  214.82   10.60
   8  -2   9  422.32   16.14
   8  -2   9  246.78   11.36
   8  -2  10  478.20   15.74
   8  -2  10  284.01   12.22
   8  -2  11    1.06    2.56
   8  -2  11    1.30    2.57
   8  -2  12    3.77    2.70
   8  -2  13   12.70    3.86
   8  -1  -7    4.15    3.10
  -8   1   7    1.85    2.69
   8  -1  -6   79.49    6.35
  -8   1   6   43.07    4.88
   8  -1  -5  184.10   10.34
  -8   1   5   99.98    7.24
   8  -1  -4   54.89    5.35
  -8   1   4   29.57    4.14
   8  -1  -3   72.41    6.16
  -8   1   3   38.28    4.65
   8  -1  -2  319.74   14.80
  -8   1   2  165.20   10.52
  -8   1   1  425.74   14.60
  -8   1   0  393.00   13.83
   8  -1   1   83.94    6.13
  -8   1  -1   47.86    5.05
   8  -1   2   32.88    4.18
  -8   1  -2   18.50    3.36
   8  -1   3   75.63    6.95
  -8   1  -3   44.00    4.93
   8  -1   4  157.93    9.63
  -8   1  -4   97.17    7.44
   8  -1   5   63.07    5.51
  -8   1  -5   41.11    4.37
   8  -1   6   55.73    5.39
  -8   1  -6   38.02    4.32
   8  -1   7  442.00   19.49
   8  -1   8  336.40   15.92
   8  -1   8  192.64   11.11
   8  -1   9  464.61   15.39
   8  -1   9  274.22   11.32
   8  -1  10  167.33    9.12
   8  -1  10  102.06    7.69
   8  -1  11   72.32    6.26
   8  -1  11   46.33    5.40
   8  -1  12   58.11    5.86
   8  -1  12   39.18    5.19
   8  -1  13  223.62   11.52
   8   0  -8    6.92    3.27
  -8   0   8    4.00    3.27
   8   0  -7    2.93    2.92
  -8   0   7    1.17    2.80
   8   0  -6  143.19    8.91
  -8   0   6   73.91    6.40
   8   0  -5   10.72    3.27
  -8   0   5    4.96    2.58
   8   0  -4   10.10    2.96
  -8   0   4    5.06    2.53
   8   0  -3   13.36    3.04
  -8   0   3    7.56    2.72
   8   0  -2  337.67   15.08
  -8   0   2  175.10    9.89
   8   0  -1  524.55   16.57
  -8   0   1  284.23   11.77
  -8   0   0    5.34    2.52
  -8   0  -1    0.75    1.61
   8   0   2  423.13   14.30
  -8   0  -2  240.52   10.90
   8   0   3 1017.67   22.03
  -8   0  -3  617.54   18.33
   8   0   4 1473.34   27.65
  -8   0  -4  890.91   20.43
   8   0   5  443.83   15.45
  -8   0  -5  286.64   11.61
   8   0   6   60.08    5.74
  -8   0  -6   40.13    4.52
   8   0   7   21.08    3.70
   8   0   8  146.16    8.21
   8   0   8   82.44    6.82
   8   0   9  304.04   12.37
   8   0   9  178.69   10.27
   8   0  10   14.90    3.44
   8   0  10   10.09    2.78
   8   0  11  170.54    9.22
   8   0  11  109.39    7.51
   8   0  12  177.11    9.10
   8   0  12  119.23    7.65
   8   0  13  586.56   19.83
   8   0  13  400.97   13.90
   8   1  -8   28.07    4.39
  -8  -1   8   15.05    3.61
   8   1  -7  441.98   15.06
  -8  -1   7  231.25   11.48
   8   1  -6  816.82   19.97
  -8  -1   6  417.44   14.31
   8   1  -5  261.77   11.22
  -8  -1   5  131.53    8.06
   8   1  -4   74.00    5.87
  -8  -1   4   38.77    4.58
   8   1  -3    1.14    2.31
  -8  -1   3    0.38    1.79
   8   1  -2  202.08   10.43
  -8  -1   2  103.63    7.07
   8   1  -1  310.61   12.86
  -8  -1   1  167.81    9.13
   8   1   0    8.77    2.62
  -8  -1   0    5.49    2.40
   8   1   1   81.43    6.40
  -8  -1  -1   48.11    5.00
  -8  -1  -2  365.77   16.42
   8   1   3  430.61   18.44
  -8  -1  -3  253.91   12.82
   8   1   4  590.48   22.21
  -8  -1  -4  365.29   16.11
   8   1   5    3.08    2.21
  -8  -1  -5    2.37    2.00
   8   1   6  230.50   11.47
  -8  -1  -6  155.85    9.11
   8   1   7  492.04   16.22
  -8  -1  -7  343.45   13.08
   8   1   8 1419.03   25.66
   8   1   8  804.12   20.43
   8   1   9  603.96   22.51
   8   1   9  353.98   15.96
   8   1  10   55.63    5.37
   8   1  10   35.26    4.66
   8   1  11   19.09    3.82
   8   1  11   12.64    3.10
   8   1  12  156.20    9.30
   8   1  12  102.22    7.04
   8   1  13   73.95    5.99
   8   1  13   51.57    5.55
   8   1  14    2.71    2.98
   8   1  14    2.32    2.98
   8   2  -8    2.33    3.03
  -8  -2   8    1.86    3.05
   8   2  -7  250.51   10.86
  -8  -2   7  129.88    8.83
   8   2  -6   76.99    6.24
  -8  -2   6   39.66    4.68
   8   2  -5    2.49    2.64
  -8  -2   5    0.80    2.62
   8   2  -4   94.43    6.87
  -8  -2   4   48.46    5.02
   8   2  -3  723.42   26.44
  -8  -2   3  354.56   15.45
   8   2  -2 1240.59   38.45
  -8  -2   2  642.53   23.10
   8   2  -1 1485.36   26.32
  -8  -2   1  765.72   19.11
   8   2   0  282.57   11.50
  -8  -2   0  153.85    8.67
   8   2   1   48.62    5.46
  -8  -2  -1   27.16    3.78
   8   2   2   19.79    3.45
  -8  -2  -2   11.41    2.87
  -8  -2  -3  459.76   18.84
   8   2   4  244.52   11.09
  -8  -2  -4  162.81    8.87
   8   2   5   47.62    4.82
  -8  -2  -5   34.70    4.17
   8   2   6  275.69   11.96
  -8  -2  -6  182.51    9.49
   8   2   7  608.13   17.03
  -8  -2  -7  425.95   14.59
   8   2   8  826.09   25.07
   8   2   8  466.68   15.29
   8   2   9   76.37    6.10
   8   2   9   45.19    4.77
   8   2  10   22.07    3.85
   8   2  10   13.24    2.95
   8   2  11  293.99   11.82
   8   2  11  187.27    9.27
   8   2  12  603.29   17.36
   8   2  12  405.06   13.93
   8   2  13  411.11   14.41
   8   2  13  280.31   11.98
   8   2  14  186.12    9.46
   8   2  14  132.20    8.69
   8   3  -7  137.81    8.53
  -8  -3   7   65.47    6.48
   8   3  -6  159.21    9.31
  -8  -3   6   77.82    6.46
   8   3  -5   25.52    3.92
  -8  -3   5   12.35    3.36
   8   3  -4   54.31    5.47
  -8  -3   4   26.25    4.01
   8   3  -3  175.89    9.67
  -8  -3   3   88.38    6.57
   8   3  -2  530.19   21.17
  -8  -3   2  268.19   12.93
   8   3  -1  108.32    7.39
  -8  -3   1   55.75    5.18
   8   3   0   39.53    4.55
  -8  -3   0   20.86    3.34
   8   3   1  750.97   18.94
  -8  -3  -1  415.32   13.68
   8   3   2 1142.23   24.73
  -8  -3  -2  647.74   17.36
   8   3   3 2097.21   35.16
  -8  -3  -3 1238.03   24.39
  -8  -3  -4  271.16   11.58
  -8  -3  -5  106.64    7.46
   8   3   6    0.96    1.78
  -8  -3  -6   -0.06    1.95
   8   3   7  214.43   10.64
  -8  -3  -7  152.15    8.43
   8   3   8  269.64   13.40
   8   3   9    8.11    3.00
   8   3   9    4.66    2.52
   8   3  10  110.43    7.77
   8   3  10   63.03    5.97
   8   3  11  268.62   11.42
   8   3  11  164.89    9.22
   8   3  12  278.48   11.30
   8   3  12  181.89    9.74
   8   3  13  226.32   10.43
   8   3  13  151.56    8.63
   8   3  14    2.78    2.75
   8   3  14    2.03    2.74
  -8  -4   7  285.55   11.44
   8   4  -6  659.20   19.11
  -8  -4   6  302.31   12.09
   8   4  -5   66.37    6.00
  -8  -4   5   32.53    4.34
   8   4  -4    0.36    2.36
  -8  -4   4    0.10    2.51
   8   4  -3  159.38    8.96
  -8  -4   3   76.32    6.45
   8   4  -2  635.21   24.07
  -8  -4   2  320.57   14.45
   8   4  -1   98.49    7.06
  -8  -4   1   48.14    5.09
   8   4   0    3.54    2.29
  -8  -4   0    2.40    2.03
   8   4   1  167.99    9.07
  -8  -4  -1   93.24    6.80
   8   4   2  635.71   18.90
  -8  -4  -2  353.80   12.96
   8   4   3  408.73   14.13
  -8  -4  -3  240.99   10.63
   8   4   4   18.69    3.51
  -8  -4  -4   11.89    2.84
  -8  -4  -5  153.27    8.69
  -8  -4  -6  672.51   17.90
   8   4   7 1380.32   41.90
  -8  -4  -7  937.42   21.52
   8   4   8  589.96   22.73
  -8  -4  -8  411.93   16.95
   8   4   9  375.95   13.61
   8   4   9  213.02   10.65
   8   4  10   28.28    4.31
   8   4  10   14.68    3.11
   8   4  11   33.43    4.47
   8   4  11   20.33    3.45
   8   4  12   86.93    6.86
   8   4  12   56.48    5.69
   8   4  13   36.24    4.86
   8   4  13   25.87    4.17
  -8  -5   6    1.78    3.12
   8   5  -5  141.94    8.65
  -8  -5   5   61.39    5.44
   8   5  -4  281.86   11.65
  -8  -5   4  128.62    8.07
   8   5  -3 1358.65   26.59
  -8  -5   3  621.84   17.08
   8   5  -2 1147.54   26.47
  -8  -5   2  554.60   16.62
   8   5  -1  199.75   10.10
  -8  -5   1   99.86    6.88
   8   5   0   89.66    6.50
  -8  -5   0   47.26    4.65
   8   5   1   68.53    5.81
  -8  -5  -1   36.95    4.47
   8   5   2  440.53   14.72
  -8  -5  -2  239.83   10.84
   8   5   3  244.11   11.61
  -8  -5  -3  136.14    7.85
   8   5   4    5.12    2.65
  -8  -5  -4    2.98    2.12
   8   5   5  132.92    8.31
  -8  -5  -5   77.53    6.73
   8   5   6  174.64    9.09
  -8  -5  -6  109.43    7.14
  -8  -5  -7  248.00   12.58
   8   5   8  197.69   10.43
  -8  -5  -8  135.89    8.12
   8   5   9  173.34    9.09
   8   5  10  169.45    9.31
   8   5  10   98.04    7.19
   8   5  11  354.89   13.16
   8   5  12  581.47   16.92
   8   5  13  166.86    8.98
  -8  -6   5    1.93    2.94
   8   6  -4   58.73    5.79
  -8  -6   4   24.27    4.08
   8   6  -3  231.91   11.10
  -8  -6   3  101.19    6.86
   8   6  -2   83.55    6.66
  -8  -6   2   38.06    4.55
   8   6  -1    4.00    2.73
  -8  -6   1    1.82    2.49
   8   6   0  603.56   17.23
  -8  -6   0  293.40   12.18
   8   6   1  735.51   21.03
   8   6   2 1246.44   40.40
   8   6   3  683.65   24.18
   8   6   4   62.01    5.92
   8   6   5   15.44    3.35
   8   6   6   47.44    5.17
   8   6   7  285.33   11.97
   8   6  10   40.07    4.77
   8   6  11  192.37    9.77
   8   6  12   94.29    6.50
   8   7  -3  312.71   12.30
   8   7  -2   77.25    6.74
   8   7  -1   26.16    3.98
   8   7   0   64.60    5.69
   8   7   1   47.89    5.26
   8   7   2  259.49   11.25
   8   7   3    1.21    2.17
   8   7   4  239.60   11.11
   8   7   5  349.15   13.40
   8   7   6  741.71   19.12
   8   7   7  642.37   18.99
   8   7   8   28.45    4.40
   8   7  11   94.36    7.44
   8   8  -1   13.00    3.69
   8   8   0    1.01    2.66
   8   8   1  231.87   11.36
   8   8   2  246.98   11.13
   8   8   3    0.69    2.28
   8   8   4   24.43    3.78
   8   8   5    0.64    2.59
   8   8   6  222.47   10.97
   8   8   7    2.53    2.94
   8   8   8   68.41    6.63
   8   8   9   74.26    6.17
   8   8  10  319.23   13.48
   8   9   0  114.70    8.02
   8   9   1  697.93   20.13
   8   9   2  126.46    8.05
   8   9   3    4.04    3.06
   8   9   4    3.77    2.92
   8   9   5   54.82    5.83
   8   9   6   87.12    6.78
   8   9   7    0.29    3.03
   8   9   8   15.98    3.53
   8   9   9    5.80    3.13
   8  10   2   27.00    4.66
   8  10   3   52.29    5.58
   8  10   4  111.75    8.02
   8  10   5  287.55   12.04
   9  -6   2  288.01   14.17
  -9   6  -2  177.72   10.16
   9  -6   3   49.85    6.64
  -9   6  -3   30.42    4.24
   9  -6   4   17.36    3.63
  -9   6  -4   11.18    3.71
   9  -5  -2    2.42    3.51
  -9   5   2    0.06    3.03
   9  -5  -1   34.40    4.66
  -9   5   1   20.54    4.09
   9  -5   0  296.35   12.25
  -9   5   0  177.80    9.27
   9  -5   1  478.11   17.33
  -9   5  -1  280.30   12.01
   9  -5   2  333.64   14.77
  -9   5  -2  199.14   10.19
   9  -5   3    6.95    3.12
  -9   5  -3    4.33    2.70
   9  -5   4    9.98    3.32
  -9   5  -4    4.92    3.16
   9  -5   5  197.91   10.26
  -9   5  -5  119.93    8.41
   9  -5   6  407.78   17.10
  -9   5  -6  253.57   11.29
   9  -5   7   26.73    5.00
  -9   5  -7   15.78    3.47
   9  -4  -3  252.52   12.92
  -9   4   3  148.90    9.04
   9  -4  -2   43.16    5.05
  -9   4   2   26.53    3.98
   9  -4  -1   14.25    3.61
  -9   4   1    8.79    3.07
   9  -4   0  200.53   10.28
  -9   4   0  112.16    7.37
   9  -4   1  359.75   13.83
  -9   4  -1  197.02   10.59
   9  -4   2    9.64    3.39
   9  -4   3   29.09    4.41
   9  -4   4   91.85    7.84
   9  -4   5  883.61   20.92
   9  -4   6  291.01   13.04
   9  -4   7  118.81    8.40
   9  -4   8    8.84    3.24
   9  -3  -4  539.71   16.24
   9  -3  -2    1.83    2.17
   9  -3  -1   43.70    4.93
   9  -3   0  577.53   16.94
   9  -3   1  521.26   17.20
   9  -3   2   47.65    4.90
  -9   3  -2   25.99    3.74
   9  -3   3   60.29    5.67
  -9   3  -3   33.25    4.34
   9  -3   4  157.80    9.39
  -9   3  -4   92.05    6.82
   9  -3   5  334.44   13.27
  -9   3  -5  211.04   10.46
   9  -3   6   33.47    4.51
  -9   3  -6   19.20    3.70
   9  -3   7    1.96    2.47
  -9   3  -7    1.79    2.63
   9  -3   8  164.17    9.17
  -9   3  -8  103.90    7.56
   9  -3   9  246.01   12.46
   9  -3  10  182.45    9.97
   9  -2  -5  159.50    9.44
  -9   2   5   88.79    6.98
   9  -2  -4  130.94    8.76
  -9   2   4   76.58    6.08
   9  -2  -3    1.63    2.75
  -9   2   3    0.85    2.44
  -9   2   2    8.88    3.21
  -9   2   1  257.18   11.43
   9  -2   0  686.84   18.58
  -9   2   0  374.42   13.23
   9  -2   1  375.79   13.65
  -9   2  -1  202.55    9.90
   9  -2   2   78.22    6.37
  -9   2  -2   43.64    4.87
   9  -2   3    7.74    2.83
  -9   2  -3    5.72    2.34
   9  -2   4  347.97   14.27
  -9   2  -4  205.59   10.87
   9  -2   5  216.09   10.71
  -9   2  -5  132.40    7.91
   9  -2   6  279.11   11.94
  -9   2  -6  178.59    9.03
   9  -2   7   24.13    3.94
  -9   2  -7   16.12    3.41
   9  -2   8   23.89    3.83
  -9   2  -8   14.96    3.08
   9  -2   9   57.01    5.86
   9  -2  10   86.25    6.49
   9  -2  10   44.46    5.00
   9  -2  11    1.39    2.46
   9  -1  -5  666.70   17.34
  -9   1   5  375.59   14.21
   9  -1  -4  178.91    9.34
  -9   1   4   92.84    7.24
   9  -1  -3  214.69   10.10
  -9   1   3  114.83    7.27
   9  -1  -2   29.53    4.25
  -9   1   2   14.19    3.02
  -9   1   1  113.75    7.79
  -9   1   0  115.67    7.64
   9  -1   1    5.90    2.49
  -9   1  -1    2.57    2.36
   9  -1   2    1.11    2.39
  -9   1  -2    0.16    2.26
   9  -1   3  389.50   14.30
  -9   1  -3  216.81   10.51
   9  -1   4  531.29   17.78
  -9   1  -4  315.94   12.08
   9  -1   5  507.70   15.88
  -9   1  -5  314.95   12.70
   9  -1   6  120.08    7.28
  -9   1  -6   76.48    6.11
   9  -1   7    9.86    3.24
  -9   1  -7    6.88    2.55
   9  -1   8   13.33    3.48
  -9   1  -8    9.03    2.87
   9  -1   9  183.89    9.58
   9  -1   9   99.96    7.65
   9  -1  10  136.20    8.37
   9  -1  10   77.96    6.38
   9  -1  11    8.13    3.09
   9  -1  11    4.42    2.61
   9  -1  12    6.45    3.35
   9  -1  12    4.91    2.88
   9   0  -6  297.01   12.88
  -9   0   6  158.61    9.29
   9   0  -5  290.83   12.16
  -9   0   5  150.51    8.62
   9   0  -4  119.15    8.12
  -9   0   4   64.81    6.04
   9   0  -3   18.22    3.75
  -9   0   3    9.84    2.72
   9   0  -2  106.35    7.59
  -9   0   2   56.30    5.21
   9   0  -1  336.25   13.06
  -9   0   1  186.93    9.24
  -9   0   0  199.59   10.86
  -9   0  -1  231.16   10.54
   9   0   2   36.35    4.51
  -9   0  -2   19.91    3.53
   9   0   3    1.92    2.60
  -9   0  -3    0.18    2.05
   9   0   4   60.52    5.57
  -9   0  -4   37.74    4.48
   9   0   5   55.42    5.48
  -9   0  -5   33.11    4.50
   9   0   6   91.95    6.98
  -9   0  -6   58.69    5.45
   9   0   7  115.86    7.53
  -9   0  -7   78.31    6.33
   9   0   8  113.48    7.56
  -9   0  -8   80.05    6.51
   9   0   9  612.15   17.99
   9   0   9  340.92   13.26
   9   0  10   19.32    3.82
   9   0  10   11.17    3.13
   9   0  11   12.69    3.26
   9   0  11    8.53    2.85
   9   0  12    1.49    3.13
   9   0  12    1.38    2.87
   9   1  -6   78.40    6.17
  -9  -1   6   38.28    4.57
   9   1  -5    8.41    3.63
  -9  -1   5    5.26    2.75
   9   1  -4   19.22    3.71
  -9  -1   4   10.36    3.08
   9   1  -3   63.33    5.80
  -9  -1   3   32.87    4.51
   9   1  -2  226.99   10.94
  -9  -1   2  117.90    7.68
   9   1  -1  376.10   13.31
  -9  -1   1  199.07    9.62
   9   1   0  392.43   14.75
  -9  -1   0  209.48   10.17
   9   1   1    1.36    2.30
  -9  -1  -1    1.18    2.14
  -9  -1  -2   34.59    4.32
   9   1   3   54.98    5.55
  -9  -1  -3   32.71    4.42
   9   1   4  319.25   15.04
  -9  -1  -4  190.96   10.80
   9   1   5  143.70    8.66
  -9  -1  -5   86.23    6.33
   9   1   6   13.59    3.27
  -9  -1  -6    9.25    2.83
   9   1   7   66.72    5.78
  -9  -1  -7   45.66    4.81
   9   1   8    6.57    2.57
  -9  -1  -8    5.25    2.96
   9   1   9    6.69    2.80
   9   1  10   87.45    6.80
   9   1  10   48.94    5.35
   9   1  11   53.13    5.27
   9   1  11   31.49    4.21
   9   1  12  135.39    8.85
   9   1  12   82.66    7.00
   9   2  -6  268.76   11.94
  -9  -2   6  128.77    8.20
   9   2  -5  309.46   12.61
  -9  -2   5  143.42    7.92
   9   2  -4  163.07    9.29
  -9  -2   4   80.48    6.54
   9   2  -3   78.52    6.23
  -9  -2   3   40.13    4.63
   9   2  -2    2.99    2.65
  -9  -2   2    1.52    2.42
   9   2  -1    9.40    3.02
  -9  -2   1    4.16    2.71
   9   2   0    1.70    2.30
  -9  -2   0    0.82    2.32
   9   2   1  106.36    8.09
  -9  -2  -1   58.29    5.95
   9   2   2   13.70    3.00
  -9  -2  -2    6.82    2.54
  -9  -2  -3  175.81   10.33
  -9  -2  -4  274.94   13.23
   9   2   5    1.04    2.41
  -9  -2  -5    0.33    2.27
   9   2   6    3.10    2.58
  -9  -2  -6    1.63    2.23
   9   2   7    0.72    2.57
  -9  -2  -7    1.09    2.13
   9   2   8  189.33    9.62
  -9  -2  -8  131.36    8.51
   9   2   9    9.02    3.34
  -9  -2  -9    6.58    2.87
   9   2  10   18.26    3.77
   9   2  10   13.10    3.03
   9   2  11    1.40    2.66
   9   2  11    0.62    2.66
   9   2  12   11.59    3.59
   9   2  12    6.85    2.89
   9   2  13   46.15    5.54
   9   2  13   29.44    4.61
   9   3  -5   66.82    6.02
  -9  -3   5   30.39    4.27
   9   3  -4   50.10    5.44
  -9  -3   4   26.26    4.05
   9   3  -3   20.71    3.57
  -9  -3   3   10.38    3.09
   9   3  -2  157.60    9.06
  -9  -3   2   82.46    6.36
   9   3  -1  452.92   14.91
  -9  -3   1  236.19   10.53
   9   3   0   48.54    5.21
  -9  -3   0   25.16    3.83
   9   3   1   89.15    6.94
  -9  -3  -1   48.36    4.88
   9   3   2  126.60    7.91
  -9  -3  -2   69.50    5.79
   9   3   3    0.48    2.55
  -9  -3  -3    0.16    2.20
  -9  -3  -4  118.67    7.48
  -9  -3  -5   92.01    6.83
   9   3   6   26.62    4.13
  -9  -3  -6   17.08    3.33
   9   3   7  140.86    8.36
  -9  -3  -7   89.63    6.82
   9   3   8   46.19    4.98
  -9  -3  -8   31.16    4.29
   9   3   9    1.34    2.34
  -9  -3  -9    0.94    2.08
   9   3  10    1.23    2.60
   9   3  10    1.36    2.26
   9   3  11   14.67    3.28
   9   3  11    7.06    2.88
   9   3  12   14.62    3.57
   9   3  12    7.80    2.69
   9   4  -5   53.06    5.68
  -9  -4   5   24.42    4.08
   9   4  -4   13.45    3.56
  -9  -4   4    6.70    3.20
   9   4  -3    1.40    2.75
  -9  -4   3    0.69    2.50
   9   4  -2  174.57    9.47
  -9  -4   2   86.68    6.58
   9   4  -1   33.42    4.32
  -9  -4   1   16.36    3.42
   9   4   0   90.44    6.94
  -9  -4   0   50.30    5.05
   9   4   1    1.50    2.57
  -9  -4  -1    0.81    2.37
   9   4   2   87.09    6.99
  -9  -4  -2   48.92    4.93
   9   4   3  143.64    8.50
  -9  -4  -3   82.85    6.29
   9   4   4   42.79    5.04
  -9  -4  -4   25.64    3.75
   9   4   5   17.57    3.41
  -9  -4  -5   11.23    2.83
  -9  -4  -6   44.01    4.59
   9   4   7   86.08    6.27
  -9  -4  -7   56.68    5.43
   9   4   8  139.08    8.46
  -9  -4  -8   90.36    6.68
   9   4   9   95.55    7.15
  -9  -4  -9   66.93    5.90
   9   4  10  326.11   12.38
  -9  -4 -10  242.15   11.08
   9   4  11   10.68    3.45
   9   4  11    6.75    2.75
   9   4  12    3.11    3.22
   9   5  -4  155.99    8.65
  -9  -5   4   70.37    5.90
   9   5  -3   15.53    3.50
  -9  -5   3    6.89    2.92
   9   5  -2   48.89    5.26
  -9  -5   2   23.86    3.90
   9   5  -1  144.49    8.76
  -9  -5   1   73.57    5.82
   9   5   0   98.76    7.60
  -9  -5   0   50.34    4.94
   9   5   1    2.47    2.45
  -9  -5  -1    1.44    1.92
   9   5   2   56.86    5.61
  -9  -5  -2   30.76    3.98
   9   5   3    6.88    3.52
  -9  -5  -3    4.46    2.81
   9   5   4   13.60    3.37
  -9  -5  -4    8.60    2.62
   9   5   5   65.26    5.96
  -9  -5  -5   38.22    4.70
   9   5   6   12.60    3.16
   9   5   8    0.56    1.99
   9   5   9    0.53    2.71
   9   5  10    0.89    3.00
   9   5  11  230.64   11.04
   9   5  12   69.27    5.92
   9   6  -3  133.21    8.11
   9   6  -2   69.75    6.52
   9   6  -1    2.54    2.78
   9   6   0  141.28    8.62
   9   6   1   20.46    3.58
   9   6   2  189.20    9.94
   9   6   3  196.65   10.02
   9   6   4  329.38   13.30
   9   6   5   70.26    5.79
   9   6   6    0.59    2.54
   9   6   7    6.01    2.99
   9   6  10    3.64    2.93
   9   6  11    1.05    3.00
   9   7  -2   38.50    4.78
   9   7  -1  157.68    8.98
   9   7   0   63.60    6.64
   9   7   1    6.59    2.97
   9   7   2    5.55    2.93
   9   7   3    7.60    3.14
   9   7   4   16.45    3.61
   9   7   5   61.17    5.37
   9   7   6  197.03   10.35
   9   7   7  152.61    8.93
   9   7   8  450.23   15.27
   9   8  -1  121.11    8.71
   9   8   0   12.64    3.29
   9   8   1   35.62    4.62
   9   8   2   39.00    5.08
   9   8   3  203.58   10.65
   9   8   4  148.94   10.03
   9   8   5    4.22    3.17
   9   8   6    2.11    3.11
   9   8   7   13.42    3.88
   9   8   8   29.07    4.62
   9   9   3  419.30   14.64
   9   9   4   32.69    4.51
   9   9   5   14.63    3.52
  10  -4   1   80.40    7.24
  10  -4   2   18.39    4.15
  10  -4   3    0.41    2.85
  10  -4   4   19.07    3.76
  10  -4   5    6.54    3.74
  10  -3  -1   26.06    4.15
 -10   3   1   12.98    3.49
  10  -3   0    1.63    3.18
 -10   3   0   -0.26    2.88
  10  -3   1   30.94    4.51
 -10   3  -1   16.70    3.73
  10  -3   2  148.42    8.56
 -10   3  -2   83.55    7.29
  10  -3   3   11.27    3.61
 -10   3  -3    5.71    2.98
  10  -3   4   49.79    5.13
 -10   3  -4   29.28    4.09
  10  -3   5   29.16    4.79
 -10   3  -5   20.40    4.06
  10  -3   6   46.23    5.05
 -10   3  -6   27.74    4.35
  10  -3   7    4.03    3.27
 -10   3  -7    2.43    2.47
  10  -3   8    7.95    3.63
 -10   3  -8    6.45    3.61
 -10   2   2    0.48    2.61
 -10   2   1   33.95    4.47
  10  -2   0    3.28    2.98
 -10   2   0    1.66    2.60
  10  -2   1  140.12    9.19
 -10   2  -1   77.98    6.61
  10  -2   2  125.13    8.40
 -10   2  -2   69.53    6.34
  10  -2   3    1.65    2.90
 -10   2  -3    0.52    2.43
  10  -2   4    0.86    2.72
 -10   2  -4    0.29    2.45
  10  -2   5  140.54    9.62
 -10   2  -5   78.07    6.50
  10  -2   6  155.88   10.06
 -10   2  -6   90.43    7.42
  10  -2   7  176.46    9.24
 -10   2  -7  108.96    7.21
  10  -2   8   76.98    6.84
 -10   2  -8   51.23    5.29
  10  -2   9    7.50    3.21
 -10   2  -9    4.63    2.91
  10  -1  -3  186.93    9.53
 -10   1   3   88.59    7.31
  10  -1  -2   15.08    3.76
 -10   1   2    7.51    3.15
 -10   1   1   46.21    5.08
 -10   1   0    0.21    2.80
  10  -1   1   43.09    4.73
 -10   1  -1   26.47    4.12
  10  -1   2   13.37    3.50
 -10   1  -2    7.32    3.02
  10  -1   3   10.85    3.32
 -10   1  -3    5.79    2.99
  10  -1   4  185.20   10.03
 -10   1  -4  106.60    8.11
  10  -1   5   97.61    7.10
 -10   1  -5   59.22    5.35
  10  -1   6  242.82   11.78
 -10   1  -6  143.04    8.12
  10  -1   7  260.35   11.83
 -10   1  -7  161.37    9.69
  10  -1   8    1.92    2.99
 -10   1  -8    0.69    2.53
  10  -1   9   66.35    6.61
 -10   1  -9   42.84    4.73
  10  -1  10  101.23    7.68
 -10   1 -10   69.86    6.27
  10   0  -3   34.84    4.76
 -10   0   3   17.91    3.85
  10   0  -2    3.23    3.27
 -10   0   2    0.70    2.79
  10   0  -1   77.46    6.03
 -10   0   1   42.52    5.29
  10   0   0  393.24   14.39
 -10   0   0  207.59   10.29
 -10   0  -1  213.74   10.68
  10   0   2  176.77    9.14
 -10   0  -2   97.66    6.93
  10   0   3   96.36    7.04
 -10   0  -3   53.26    5.24
  10   0   4    7.38    3.18
 -10   0  -4    3.99    3.03
  10   0   5   15.06    3.58
 -10   0  -5    8.20    3.01
  10   0   6  180.78    9.89
 -10   0  -6  113.27    7.52
  10   0   7    1.60    2.63
 -10   0  -7    1.11    2.09
  10   0   8   86.10    6.77
 -10   0  -8   55.06    5.36
  10   0   9   84.40    6.79
 -10   0  -9   55.88    5.33
  10   0  10  365.05   13.57
 -10   0 -10  253.20   11.25
  10   1  -3   21.54    4.05
 -10  -1   3   10.70    3.28
  10   1  -2   18.48    3.75
 -10  -1   2    8.36    3.41
  10   1  -1   50.39    5.34
 -10  -1   1   25.27    3.75
  10   1   0  130.90    8.56
 -10  -1   0   69.43    6.32
  10   1   1  340.06   12.87
 -10  -1  -1  178.58    8.97
 -10  -1  -2  103.75    7.46
  10   1   3  183.29    9.75
 -10  -1  -3  115.94    7.47
  10   1   4  148.04    8.66
 -10  -1  -4   85.39    6.27
  10   1   5  623.96   17.27
 -10  -1  -5  365.80   13.58
  10   1   6  769.69   20.41
 -10  -1  -6  457.77   14.88
  10   1   7  115.83    7.88
 -10  -1  -7   71.74    6.29
  10   1   8    1.66    2.59
 -10  -1  -8    0.97    2.69
  10   1   9   13.42    3.61
 -10  -1  -9    6.84    2.71
  10   1  10  176.79   11.70
 -10  -1 -10  124.58    7.90
  10   1  11   46.14    5.43
  10   2  -3  207.30   10.23
 -10  -2   3  102.77    7.29
  10   2  -2   22.16    3.90
 -10  -2   2   12.64    3.60
  10   2  -1   20.77    3.91
 -10  -2   1   10.91    3.35
  10   2   0   84.02    6.70
 -10  -2   0   43.28    5.10
  10   2   1  214.45   10.31
 -10  -2  -1  118.16    7.65
  10   2   2   21.41    3.55
 -10  -2  -2   11.37    3.39
 -10  -2  -3   51.91    5.50
 -10  -2  -4   44.33    5.08
  10   2   5  711.37   20.19
 -10  -2  -5  418.82   14.06
  10   2   6  121.16    7.75
 -10  -2  -6   74.50    5.92
  10   2   7    1.75    2.59
 -10  -2  -7    1.84    2.33
  10   2   8   81.91    6.95
 -10  -2  -8   52.20    5.10
  10   2   9  421.06   14.99
 -10  -2  -9  286.50   12.00
  10   2  10  414.31   13.80
 -10  -2 -10  295.54   12.57
  10   2  11  316.96   13.57
 -10  -2 -11  223.09   10.54
  10   3  -3   10.30    3.63
 -10  -3   3    4.76    2.88
  10   3  -2  117.05    7.85
 -10  -3   2   58.60    5.49
  10   3  -1  372.68   13.95
 -10  -3   1  187.53   10.28
  10   3   0  956.18   21.33
 -10  -3   0  482.36   15.19
  10   3   1  602.71   18.14
 -10  -3  -1  316.39   12.25
  10   3   2   96.48    7.57
 -10  -3  -2   50.56    5.32
  10   3   3    7.15    2.71
 -10  -3  -3    3.79    2.51
 -10  -3  -4   77.40    6.38
 -10  -3  -5  150.75    8.75
  10   3   6   21.28    3.92
 -10  -3  -6   12.40    3.17
  10   3   7   12.67    3.34
 -10  -3  -7    7.26    2.91
  10   3   8  236.25   11.25
 -10  -3  -8  150.97    8.40
  10   3   9  359.83   13.78
 -10  -3  -9  243.08   10.42
  10   3  10  258.29   11.54
 -10  -3 -10  179.54    9.50
  10   3  11   35.04    4.59
 -10  -3 -11   23.80    4.08
  10   4  -3    4.75    3.09
 -10  -4   3    2.89    2.94
  10   4  -2   16.54    3.56
 -10  -4   2    7.45    2.95
  10   4  -1  128.44    8.08
 -10  -4   1   68.31    5.97
  10   4   0  413.07   15.12
 -10  -4   0  213.91   10.03
  10   4   1   16.43    3.60
 -10  -4  -1    8.95    3.01
  10   4   2   41.28    4.81
 -10  -4  -2   23.78    3.69
  10   4   3  250.92   11.47
 -10  -4  -3  136.20    8.23
  10   4   4 1058.35   23.12
 -10  -4  -4  592.52   16.76
  10   4   5  501.95   15.74
 -10  -4  -5  289.45   11.65
 -10  -4  -6  227.80   10.60
  10   4   7    3.33    2.77
 -10  -4  -7    2.13    2.64
  10   4   8   25.96    4.01
  10   4   9   60.47    6.10
  10   4  10  120.86    7.91
  10   5  -2    4.56    3.29
  10   5  -1  231.16   11.09
  10   5   0  199.50   10.97
  10   5   1    8.16    2.90
  10   5   2   11.57    3.64
  10   5   3  172.12    9.32
  10   5   4  221.32   11.13
  10   5   5  207.63   10.14
  10   5   6    1.69    2.57
  10   5   9  630.96   17.38
  10   5  10  397.01   13.51
  10   6  -1  539.52   17.01
  10   6   0  493.28   16.21
  10   6   1  234.19   11.25
  10   6   2   10.58    3.38
  10   6   3   43.87    4.89
  10   6   4  173.13    9.81
  10   6   5  144.88    8.71
  10   6   6   52.47    5.33
  10   6   7   87.09    6.71
  10   7   1   23.74    4.27
  10   7   2  306.75   12.63
  10   7   3  327.53   12.79
  10   7   4  623.45   18.23
  10   7   5  217.51   11.37
  10   7   6    1.99    2.93
  10   7   7    0.91    3.43
  11  -1   2  533.19   16.33
 -11   1  -2  287.16   12.60
  11  -1   3  106.64    7.54
 -11   1  -3   57.99    5.59
  11  -1   4   22.90    4.20
 -11   1  -4   13.47    3.48
  11  -1   5   23.43    4.45
 -11   1  -5   14.41    3.45
  11  -1   6   97.93    7.35
 -11   1  -6   57.32    5.91
 -11   0  -1    6.47    3.35
  11   0   2  105.98    7.41
 -11   0  -2   58.70    5.77
  11   0   3    1.71    3.11
 -11   0  -3    0.09    2.94
  11   0   4  111.50    8.22
 -11   0  -4   62.79    5.68
  11   0   5   57.02    5.81
 -11   0  -5   33.11    4.36
  11   0   6  407.84   15.28
 -11   0  -6  239.26   10.49
  11   0   7  177.07    9.26
 -11   0  -7   99.92    7.56
  11   1   0   14.62    3.97
 -11  -1   0    7.15    3.25
  11   1   1  328.22   13.00
 -11  -1  -1  171.55    9.53
 -11  -1  -2  153.02    9.16
 -11  -1  -3   16.32    3.77
  11   1   4   18.39    4.05
 -11  -1  -4    9.89    3.31
  11   1   5    4.49    3.23
 -11  -1  -5    2.91    2.91
  11   1   6   81.49    6.60
 -11  -1  -6   47.44    4.95
  11   1   7   12.46    3.77
 -11  -1  -7    7.34    3.32
  11   1   8   12.71    3.46
 -11  -1  -8    8.67    3.44
  11   2   0   98.45    7.15
 -11  -2   0   50.57    5.47
  11   2   1  377.19   14.88
 -11  -2  -1  199.62   11.06
  11   2   2   13.75    4.14
 -11  -2  -2    7.79    3.16
 -11  -2  -3    0.91    2.36
 -11  -2  -4    0.33    2.97
  11   2   5  153.77    9.01
 -11  -2  -5   90.19    6.61
  11   2   6   92.60    7.29
 -11  -2  -6   54.69    5.34
  11   2   7    5.45    3.25
 -11  -2  -7    2.43    2.65
  11   2   8   21.59    4.35
 -11  -2  -8   13.24    3.50
  11   3   1   15.39    3.73
 -11  -3  -1    8.51    3.59
  11   3   2   72.72    6.41
 -11  -3  -2   40.40    4.81
  11   3   3    9.93    3.39
 -11  -3  -3    4.91    3.46
  11   3   4   96.90    7.11
 -11  -3  -4   56.22    5.62
 -11  -3  -5   83.53    6.50
  11   3   6   26.61    4.31
 -11  -3  -6   14.81    3.34
  11   3   7   22.72    4.08
 -11  -3  -7   15.21    3.67
  11   3   8   22.07    4.01
 -11  -3  -8   12.64    3.35
  11   4   1   44.69    5.01
 -11  -4  -1   22.38    4.12
  11   4   2   77.22    6.80
 -11  -4  -2   40.00    4.61
  11   4   3   13.55    3.60
  11   4   4    8.22    3.46
  11   4   5   25.30    4.31
  11   4   7  131.23    9.08
  11   5   3   39.22    5.04
  11   5   4    1.24    3.28
  11   5   5   33.20    4.70
  11   5   6   32.61    4.54
   0   0   0    0.00    0.00

_computing_structure_solution     'SHELXT 2014/5 (Sheldrick, 2014)'
;
_shelx_hkl_checksum              90856
loop_
_space_group_symop_id
_space_group_symop_operation_xyz
1 +X,+Y,+Z
2 -X,-Y,-Z
loop_
_atom_site_label
_atom_site_type_symbol
_atom_site_fract_x
_atom_site_fract_y
_atom_site_fract_z
_atom_site_U_iso_or_equiv
_atom_site_adp_type
_atom_site_occupancy
_atom_site_site_symmetry_order
_atom_site_calc_flag
_atom_site_refinement_flags_posn
_atom_site_refinement_flags_adp
I1 I 0.62895(5) 0.55364(4) 0.11167(3) 0.01713(17) Uani 1 1 d . .
I2 I 0.84317(5) 0.49835(5) -0.09966(4) 0.02596(18) Uani 1 1 d . .
I3 I 0.96202(6) 0.14102(6) -0.02899(4) 0.0359(2) Uani 1 1 d . .
S4 S 0.4122(2) 0.58887(17) 0.31003(14) 0.0202(3) Uani 1 1 d . .
P5 P 0.46071(19) 0.75713(16) 0.37295(13) 0.0136(3) Uani 1 1 d . .
C6 C 0.7891(8) 0.7106(7) 0.3281(6) 0.0203(13) Uani 1 1 d . .
H6 H 0.788307 0.714898 0.251563 0.024 Uiso 1 1 calc R U
C7 C 0.2114(8) 0.9200(6) 0.5171(5) 0.0177(12) Uani 1 1 d . .
H7 H 0.230049 0.997057 0.463199 0.021 Uiso 1 1 calc R U
C8 C 0.6469(7) 0.7296(6) 0.4114(5) 0.0150(11) Uani 1 1 d . .
C9 C 0.3652(8) 0.9281(7) 0.2041(6) 0.0222(13) Uani 1 1 d . .
H9 H 0.299680 0.858339 0.203680 0.027 Uiso 1 1 calc R U
C10 C 0.3050(8) 0.7899(7) 0.4982(5) 0.0166(12) Uani 1 1 d . .
C11 C 0.1576(9) 0.6952(7) 0.6755(6) 0.0231(14) Uani 1 1 d . .
H11 H 0.137678 0.618655 0.729750 0.028 Uiso 1 1 calc R U
C12 C 0.3663(9) 1.0467(7) 0.1316(6) 0.0252(14) Uani 1 1 d . .
H12 H 0.301486 1.058423 0.080730 0.030 Uiso 1 1 calc R U
C13 C 0.2774(8) 0.6746(7) 0.5789(5) 0.0186(12) Uani 1 1 d . .
H13 H 0.340471 0.584782 0.566523 0.022 Uiso 1 1 calc R U
C14 C 0.4618(9) 1.1499(7) 0.1322(6) 0.0266(15) Uani 1 1 d . .
H14 H 0.459567 1.232517 0.083349 0.032 Uiso 1 1 calc R U
C15 C 0.4615(8) 0.9118(6) 0.2779(5) 0.0166(12) Uani 1 1 d . .
C16 C 0.0649(8) 0.8277(8) 0.6946(6) 0.0248(14) Uani 1 1 d . .
H16 H -0.015418 0.841955 0.762258 0.030 Uiso 1 1 calc R U
C17 C 0.9315(9) 0.6855(7) 0.3582(6) 0.0252(15) Uani 1 1 d . .
H17 H 1.028386 0.675386 0.301715 0.030 Uiso 1 1 calc R U
C18 C 0.6497(8) 0.7212(7) 0.5232(5) 0.0193(12) Uani 1 1 d . .
H18 H 0.553176 0.732153 0.580010 0.023 Uiso 1 1 calc R U
C19 C 0.0917(8) 0.9380(7) 0.6134(6) 0.0215(13) Uani 1 1 d . .
H19 H 0.026503 1.026927 0.624715 0.026 Uiso 1 1 calc R U
C20 C 0.9341(8) 0.6750(7) 0.4688(6) 0.0250(15) Uani 1 1 d . .
H20 H 1.032080 0.652777 0.488497 0.030 Uiso 1 1 calc R U
C21 C 0.5588(8) 1.0125(7) 0.2778(5) 0.0205(13) Uani 1 1 d . .
H21 H 0.624853 1.000373 0.327804 0.025 Uiso 1 1 calc R U
C22 C 0.5590(9) 1.1320(7) 0.2034(6) 0.0247(14) Uani 1 1 d . .
H22 H 0.626424 1.200724 0.202165 0.030 Uiso 1 1 calc R U
C23 C 0.7930(9) 0.6970(7) 0.5519(6) 0.0242(14) Uani 1 1 d . .
H23 H 0.794870 0.695499 0.628006 0.029 Uiso 1 1 calc R U
loop_
_atom_site_aniso_label
_atom_site_aniso_U_11
_atom_site_aniso_U_22
_atom_site_aniso_U_33
_atom_site_aniso_U_23
_atom_site_aniso_U_13
_atom_site_aniso_U_12
I1 0.0195(3) 0.0142(3) 0.0199(3) 0.00016(17) -0.00726(19) -0.00563(17)
I2 0.0238(3) 0.0304(3) 0.0221(3) -0.00409(19) -0.0017(2) -0.0044(2)
I3 0.0352(4) 0.0530(4) 0.0231(3) 0.0038(2) -0.0057(2) -0.0238(2)
S4 0.0238(9) 0.0182(7) 0.0199(8) -0.0023(6) -0.0033(6) -0.0106(6)
P5 0.0138(8) 0.0123(7) 0.0160(7) 0.0015(6) -0.0045(6) -0.0062(5)
C6 0.018(3) 0.020(3) 0.022(3) -0.004(2) 0.000(3) -0.007(2)
C7 0.019(3) 0.014(3) 0.023(3) -0.001(2) -0.007(3) -0.008(2)
C8 0.012(3) 0.010(3) 0.024(3) 0.002(2) -0.006(2) -0.003(2)
C9 0.022(3) 0.028(3) 0.020(3) 0.001(3) -0.009(3) -0.009(3)
C10 0.014(3) 0.018(3) 0.018(3) 0.003(2) -0.004(2) -0.006(2)
C11 0.025(4) 0.026(3) 0.020(3) 0.010(3) -0.009(3) -0.012(3)
C12 0.031(4) 0.017(3) 0.030(4) 0.006(3) -0.018(3) 0.003(3)
C13 0.018(3) 0.015(3) 0.024(3) 0.007(2) -0.007(3) -0.006(2)
C14 0.037(4) 0.011(3) 0.027(4) 0.009(3) -0.003(3) -0.004(3)
C15 0.019(3) 0.015(3) 0.014(3) 0.002(2) 0.000(2) -0.005(2)
C16 0.017(3) 0.041(4) 0.019(3) -0.001(3) -0.004(3) -0.012(3)
C17 0.019(3) 0.019(3) 0.037(4) -0.009(3) -0.004(3) -0.002(2)
C18 0.020(3) 0.018(3) 0.022(3) 0.004(2) -0.007(3) -0.007(2)
C19 0.018(3) 0.019(3) 0.029(4) -0.006(3) -0.006(3) -0.002(2)
C20 0.019(3) 0.018(3) 0.042(4) 0.002(3) -0.013(3) -0.007(3)
C21 0.022(3) 0.022(3) 0.021(3) 0.007(2) -0.012(3) -0.009(2)
C22 0.036(4) 0.013(3) 0.026(3) 0.006(3) -0.008(3) -0.013(3)
C23 0.027(4) 0.026(3) 0.027(3) 0.009(3) -0.017(3) -0.015(3)
loop_
_atom_type_symbol
_atom_type_description
_atom_type_scat_dispersion_real
_atom_type_scat_dispersion_imag
_atom_type_scat_source
C C 0.0033 0.0016
;
International Tables for Crystallography
(Vol. C, Tables 4.2.6.8 and 6.1.1.4)
;
H H 0.0000 0.0000
;
International Tables for Crystallography
(Vol. C, Table 6.1.1.4)
;
I I -0.4742 1.8119
;
International Tables for Crystallography
(Vol. C, Tables 4.2.6.8 and 6.1.1.4)
;
P P 0.1023 0.0942
;
International Tables for Crystallography
(Vol. C, Tables 4.2.6.8 and 6.1.1.4)
;
S S 0.1246 0.1234
;
International Tables for Crystallography
(Vol. C, Tables 4.2.6.8 and 6.1.1.4)
;
loop_
_geom_angle_atom_site_label_1
_geom_angle_atom_site_label_2
_geom_angle_atom_site_label_3
_geom_angle
S4 I1 I2 175.21(4)
P5 S4 I1 105.85(8)
C10 P5 C15 109.4(3)
C10 P5 C8 107.6(3)
C15 P5 C8 107.7(3)
C10 P5 S4 105.5(2)
C15 P5 S4 112.0(2)
C8 P5 S4 114.5(2)
C17 C6 C8 119.3(6)
C17 C6 H6 120.3
C8 C6 H6 120.3
C19 C7 C10 120.3(6)
C19 C7 H7 119.9
C10 C7 H7 119.9
C18 C8 C6 119.7(6)
C18 C8 P5 120.7(5)
C6 C8 P5 119.5(5)
C12 C9 C15 119.1(6)
C12 C9 H9 120.4
C15 C9 H9 120.4
C7 C10 C13 119.9(6)
C7 C10 P5 122.8(5)
C13 C10 P5 117.3(5)
C13 C11 C16 120.8(6)
C13 C11 H11 119.6
C16 C11 H11 119.6
C9 C12 C14 120.6(6)
C9 C12 H12 119.7
C14 C12 H12 119.7
C11 C13 C10 118.9(6)
C11 C13 H13 120.5
C10 C13 H13 120.5
C22 C14 C12 120.0(6)
C22 C14 H14 120.0
C12 C14 H14 120.0
C21 C15 C9 120.6(6)
C21 C15 P5 120.0(5)
C9 C15 P5 119.4(5)
C19 C16 C11 119.3(7)
C19 C16 H16 120.4
C11 C16 H16 120.4
C20 C17 C6 120.9(7)
C20 C17 H17 119.5
C6 C17 H17 119.5
C23 C18 C8 120.2(6)
C23 C18 H18 119.9
C8 C18 H18 119.9
C7 C19 C16 120.8(6)
C7 C19 H19 119.6
C16 C19 H19 119.6
C17 C20 C23 119.9(6)
C17 C20 H20 120.1
C23 C20 H20 120.1
C15 C21 C22 119.6(6)
C15 C21 H21 120.2
C22 C21 H21 120.2
C14 C22 C21 120.0(6)
C14 C22 H22 120.0
C21 C22 H22 120.0
C18 C23 C20 119.8(6)
C18 C23 H23 120.1
C20 C23 H23 120.1
loop_
_geom_bond_atom_site_label_1
_geom_bond_atom_site_label_2
_geom_bond_distance
_geom_bond_site_symmetry_2
I1 S4 2.7011(18) .
I1 I2 2.8389(8) .
I3 I3 2.7501(13) 2_755
S4 P5 2.005(2) .
P5 C10 1.797(7) .
P5 C15 1.801(6) .
P5 C8 1.810(6) .
C6 C17 1.388(10) .
C6 C8 1.398(9) .
C6 H6 0.9500 .
C7 C19 1.374(10) .
C7 C10 1.385(9) .
C7 H7 0.9500 .
C8 C18 1.391(9) .
C9 C12 1.378(9) .
C9 C15 1.395(9) .
C9 H9 0.9500 .
C10 C13 1.421(8) .
C11 C13 1.379(10) .
C11 C16 1.401(10) .
C11 H11 0.9500 .
C12 C14 1.397(10) .
C12 H12 0.9500 .
C13 H13 0.9500 .
C14 C22 1.374(10) .
C14 H14 0.9500 .
C15 C21 1.387(9) .
C16 C19 1.389(10) .
C16 H16 0.9500 .
C17 C20 1.376(10) .
C17 H17 0.9500 .
C18 C23 1.388(9) .
C18 H18 0.9500 .
C19 H19 0.9500 .
C20 C23 1.392(10) .
C20 H20 0.9500 .
C21 C22 1.398(9) .
C21 H21 0.9500 .
C22 H22 0.9500 .
C23 H23 0.9500 .
loop_
_geom_torsion_atom_site_label_1
_geom_torsion_atom_site_label_2
_geom_torsion_atom_site_label_3
_geom_torsion_atom_site_label_4
_geom_torsion
C17 C6 C8 C18 -0.8(9)
C17 C6 C8 P5 -178.2(5)
C10 P5 C8 C18 6.7(6)
C15 P5 C8 C18 124.6(5)
S4 P5 C8 C18 -110.2(5)
C10 P5 C8 C6 -176.0(5)
C15 P5 C8 C6 -58.1(5)
S4 P5 C8 C6 67.1(5)
C19 C7 C10 C13 -0.1(9)
C19 C7 C10 P5 178.6(5)
C15 P5 C10 C7 -4.2(6)
C8 P5 C10 C7 112.5(5)
S4 P5 C10 C7 -124.8(5)
C15 P5 C10 C13 174.5(5)
C8 P5 C10 C13 -68.8(5)
S4 P5 C10 C13 53.9(5)
C15 C9 C12 C14 -0.3(11)
C16 C11 C13 C10 -0.4(10)
C7 C10 C13 C11 -0.4(10)
P5 C10 C13 C11 -179.2(5)
C9 C12 C14 C22 1.7(12)
C12 C9 C15 C21 -0.8(10)
C12 C9 C15 P5 180.0(6)
C10 P5 C15 C21 93.7(6)
C8 P5 C15 C21 -22.9(6)
S4 P5 C15 C21 -149.7(5)
C10 P5 C15 C9 -87.1(6)
C8 P5 C15 C9 156.3(5)
S4 P5 C15 C9 29.5(6)
C13 C11 C16 C19 1.8(10)
C8 C6 C17 C20 1.9(10)
C6 C8 C18 C23 1.3(9)
P5 C8 C18 C23 178.6(5)
C10 C7 C19 C16 1.6(10)
C11 C16 C19 C7 -2.4(10)
C6 C17 C20 C23 -3.4(10)
C9 C15 C21 C22 0.6(10)
P5 C15 C21 C22 179.8(5)
C12 C14 C22 C21 -2.0(11)
C15 C21 C22 C14 0.8(11)
C8 C18 C23 C20 -2.7(10)
C17 C20 C23 C18 3.8(10)
