#------------------------------------------------------------------------------
#$Date: 2019-11-26 03:38:48 +0200 (Tue, 26 Nov 2019) $
#$Revision: 242524 $
#$URL: file:///home/coder/svn-repositories/cod/cif/4/13/25/4132567.cif $
#------------------------------------------------------------------------------
#
# This file is available in the Crystallography Open Database (COD),
# http://www.crystallography.net/
#
# All data on this site have been placed in the public domain by the
# contributors.
#
data_4132567
loop_
_publ_author_name
'Yuan, Shuai'
'Zhang, Peng'
'Zhang, Liangliang'
'Garcia-Esparza, Angel T'
'Sokaras, Dimosthenis'
'Qin, Jun-Sheng'
'Feng, Liang'
'Day, Gregory S.'
'Chen, Wenmiao'
'Drake, Hannah F.'
'Elumalai, Palani'
'Madrahimov, Sherzod T.'
'Sun, Daofeng'
'Zhou, Hong-Cai'
_publ_section_title
;
 Exposed Equatorial Positions of Metal Centers via Sequential Ligand
 Elimination and Installation in MOFs.
;
_journal_issue                   34
_journal_name_full               'Journal of the American Chemical Society'
_journal_page_first              10814
_journal_page_last               10819
_journal_paper_doi               10.1021/jacs.8b04886
_journal_volume                  140
_journal_year                    2018
_chemical_formula_moiety         'C12 H16 N2 Ni O8'
_chemical_formula_sum            'C12 H16 N2 Ni O8'
_chemical_formula_weight         374.98
_space_group_crystal_system      triclinic
_space_group_IT_number           2
_space_group_name_Hall           '-P 1'
_space_group_name_H-M_alt        'P -1'
_atom_sites_solution_hydrogens   mixed
_atom_sites_solution_primary     dual
_audit_creation_date             2018-05-04
_audit_creation_method
;
Olex2 1.2
(compiled 2018.04.26 svn.r3504 for OlexSys, GUI svn.r5492)
;
_cell_angle_alpha                96.319(2)
_cell_angle_beta                 105.067(2)
_cell_angle_gamma                113.408(2)
_cell_formula_units_Z            1
_cell_length_a                   6.2763(4)
_cell_length_b                   6.8351(4)
_cell_length_c                   9.2430(6)
_cell_measurement_reflns_used    4879
_cell_measurement_temperature    293(2)
_cell_measurement_theta_max      27.556
_cell_measurement_theta_min      2.351
_cell_volume                     341.04(4)
_computing_cell_refinement       'SAINT v8.37A (Bruker, 2015)'
_computing_data_reduction        'SAINT v8.37A (Bruker, 2015)'
_computing_molecular_graphics    'Olex2 (Dolomanov et al., 2009)'
_computing_publication_material  'Olex2 (Dolomanov et al., 2009)'
_computing_structure_refinement  'XL (Sheldrick, 2008)'
_computing_structure_solution    'XT (Sheldrick, 2015)'
_diffrn_ambient_temperature      293(2)
_diffrn_detector                 'Bruker APEX2 area detector'
_diffrn_detector_area_resol_mean 7.9
_diffrn_detector_type            'CCD area detector'
_diffrn_measured_fraction_theta_full 1.000
_diffrn_measured_fraction_theta_max 0.999
_diffrn_measurement_device       'three-circle diffractometer'
_diffrn_measurement_device_type  'Bruker SMART APEX2 area detector'
_diffrn_measurement_method       '\w and \f scans'
_diffrn_radiation_monochromator  'mirror optics'
_diffrn_radiation_probe          x-ray
_diffrn_radiation_type           MoK\a
_diffrn_radiation_wavelength     0.71073
_diffrn_reflns_av_R_equivalents  0.0337
_diffrn_reflns_av_unetI/netI     0.0352
_diffrn_reflns_Laue_measured_fraction_full 1.000
_diffrn_reflns_Laue_measured_fraction_max 0.999
_diffrn_reflns_limit_h_max       8
_diffrn_reflns_limit_h_min       -8
_diffrn_reflns_limit_k_max       8
_diffrn_reflns_limit_k_min       -8
_diffrn_reflns_limit_l_max       11
_diffrn_reflns_limit_l_min       -12
_diffrn_reflns_number            6949
_diffrn_reflns_point_group_measured_fraction_full 1.000
_diffrn_reflns_point_group_measured_fraction_max 0.999
_diffrn_reflns_theta_full        26.000
_diffrn_reflns_theta_max         27.556
_diffrn_reflns_theta_min         2.351
_diffrn_source                   'microfocus sealed X-ray tube'
_diffrn_source_type              'Incoatec I\ms'
_exptl_absorpt_coefficient_mu    1.471
_exptl_absorpt_correction_T_max  0.7456
_exptl_absorpt_correction_T_min  0.6890
_exptl_absorpt_correction_type   multi-scan
_exptl_crystal_colour            greenish
_exptl_crystal_colour_modifier   greenish
_exptl_crystal_density_diffrn    1.826
_exptl_crystal_description       needle
_exptl_crystal_F_000             194
_exptl_crystal_size_max          0.1
_exptl_crystal_size_mid          0.04
_exptl_crystal_size_min          0.04
_refine_diff_density_max         0.836
_refine_diff_density_min         -0.823
_refine_diff_density_rms         0.103
_refine_ls_extinction_method     none
_refine_ls_goodness_of_fit_ref   1.127
_refine_ls_hydrogen_treatment    constr
_refine_ls_matrix_type           full
_refine_ls_number_parameters     108
_refine_ls_number_reflns         1582
_refine_ls_number_restraints     0
_refine_ls_restrained_S_all      1.127
_refine_ls_R_factor_all          0.0487
_refine_ls_R_factor_gt           0.0401
_refine_ls_shift/su_max          0.000
_refine_ls_shift/su_mean         0.000
_refine_ls_structure_factor_coef Fsqd
_refine_ls_weighting_details
'w=1/[\s^2^(Fo^2^)+(0.0291P)^2^+0.7105P] where P=(Fo^2^+2Fc^2^)/3'
_refine_ls_weighting_scheme      calc
_refine_ls_wR_factor_gt          0.0841
_refine_ls_wR_factor_ref         0.0875
_reflns_Friedel_coverage         0.000
_reflns_number_gt                1440
_reflns_number_total             1582
_reflns_threshold_expression     'I > 2\s(I)'
_cod_data_source_file            ja8b04886_si_002.cif
_cod_data_source_block           NiINA2O
_cod_database_code               4132567
_shelx_shelxl_version_number     2014/7
_shelx_space_group_comment
;
The symmetry employed for this shelxl refinement is uniquely defined
by the following loop, which should always be used as a source of
symmetry information in preference to the above space-group names.
They are only intended as comments.
;
_shelx_estimated_absorpt_t_max   0.943
_shelx_estimated_absorpt_t_min   0.867
_olex2_refinement_description
;
1. Fixed Uiso
 At 1.2 times of:
  All C(H) groups
 At 1.5 times of:
  All O(H) groups, All O(H,H) groups
2.a Rotating group:
 O3(H3a,H3b)
2.b Aromatic/amide H refined with riding coordinates:
 C3(H3), C4(H4a), C6(H6), C5(H5)
2.c Tetrahedral OH refined with riding coordinates:
 O1(H1)
2.d Idealised tetrahedral OH refined as rotating group:
 O4(H4)
;
_shelx_res_file
;
    NiINA2O.res created by SHELXL-2014/7

TITL NiINA2O_a.res in P-1
REM Old TITL NiINA2O in P-1 #2
REM SHELXT solution in P-1
REM R1 0.059, Rweak 0.021, Alpha 0.034, Orientation as input
REM Formula found by SHELXT: C12 N2 Ni O8
CELL 0.71073 6.2763 6.8351 9.243 96.319 105.067 113.408
ZERR 1 0.0004 0.0004 0.0006 0.002 0.002 0.002
LATT 1
SFAC C H N Ni O
UNIT 12 16 2 1 8

L.S. 99
PLAN  10
SIZE 0.04 0.04 0.1
BOND $H
list 4
fmap 2
acta 52
REM <olex2.extras>
REM <HklSrc "%.\\NiINA2O.hkl">
REM </olex2.extras>

WGHT    0.029100    0.710500
FVAR       1.15682
NI1   4    1.000000    0.500000    1.000000    10.50000    0.00840    0.01195 =
         0.00728    0.00171    0.00197    0.00497
O2    5    0.077664    0.083852    0.262955    11.00000    0.01187    0.01641 =
         0.01343    0.00248    0.00170    0.00528
O3    5    1.221449    0.763684    0.927554    11.00000    0.01176    0.01724 =
         0.01349    0.00554    0.00527    0.00755
AFIX   7
H3A   2    1.131539    0.808003    0.863142    11.00000   -1.50000
H3B   2    1.296712    0.721975    0.872295    11.00000   -1.50000
AFIX   0
O4    5    0.820419    0.684780    1.041847    11.00000    0.01114    0.01301 =
         0.01083   -0.00079    0.00188    0.00507
AFIX 147
H4    2    0.920619    0.803790    1.100890    11.00000   -1.50000
AFIX   0
O1    5    0.422289    0.230134    0.202234    11.00000    0.01589    0.02543 =
         0.00968    0.00521    0.00329    0.01156
AFIX  83
H1    2    0.323787    0.193803    0.114685    11.00000   -1.50000
AFIX   0
N1    3    0.761873    0.360760    0.772563    11.00000    0.01343    0.01033 =
         0.00966    0.00213    0.00359    0.00635
C3    1    0.716578    0.295356    0.503795    11.00000    0.01337    0.01227 =
         0.01195    0.00361    0.00624    0.00576
AFIX  43
H3    2    0.789398    0.296156    0.428009    11.00000   -1.20000
AFIX   0
C1    1    0.307396    0.174575    0.295167    11.00000    0.01524    0.01023 =
         0.01374    0.00284    0.00426    0.00857
C4    1    0.856521    0.358511    0.657478    11.00000    0.01105    0.01290 =
         0.01276    0.00274    0.00479    0.00555
AFIX  43
H4A   2    1.024782    0.401811    0.683291    11.00000   -1.20000
AFIX   0
C6    1    0.363802    0.222248    0.580990    11.00000    0.01052    0.01149 =
         0.01322    0.00106    0.00247    0.00629
AFIX  43
H6    2    0.194883    0.172386    0.557872    11.00000   -1.20000
AFIX   0
C5    1    0.516838    0.288996    0.732356    11.00000    0.01162    0.01529 =
         0.01438    0.00250    0.00625    0.00741
AFIX  43
H5    2    0.447415    0.284158    0.810166    11.00000   -1.20000
AFIX   0
C2    1    0.464933    0.230332    0.463241    11.00000    0.01139    0.00687 =
         0.01302    0.00354    0.00354    0.00563
HKLF 4

REM  NiINA2O_a.res in P-1
REM R1 =  0.0401 for    1440 Fo > 4sig(Fo)  and  0.0487 for all    1582 data
REM    108 parameters refined using      0 restraints

END

WGHT      0.0291      0.7105

REM Highest difference peak  0.836,  deepest hole -0.823,  1-sigma level  0.103
Q1    1   0.7219  0.7028  0.9579  11.00000  0.05    0.84
Q2    1   1.3655  0.8099  0.9064  11.00000  0.05    0.50
Q3    1   0.8456  0.4009  0.8575  11.00000  0.05    0.48
Q4    1   0.4116  0.1999  0.5205  11.00000  0.05    0.39
Q5    1   0.4005  0.2191  0.3972  11.00000  0.05    0.38
Q6    1   0.7806  0.2631  0.5754  11.00000  0.05    0.35
Q7    1   0.1765  0.1037  0.6208  11.00000  0.05    0.33
Q8    1   0.1657  0.2472  0.4774  11.00000  0.05    0.32
Q9    1   0.8012  0.3606  0.7260  11.00000  0.05    0.31
Q10   1   0.8461  0.6047  1.0148  11.00000  0.05    0.31
;
_shelx_res_checksum              10333
_shelx_hkl_file
;
  -1   0   0  208.39    6.73
  -1   0   0  201.82    7.51
  -1   0   0  195.51    6.45
   1   0   0  187.56    7.18
   1   0   0  201.53    5.91
   1   0   0  191.42    7.35
   1   0   0  201.03    6.53
   1   0   0  207.17    6.83
  -2   0   0   51.11    4.78
  -2   0   0   45.83    4.38
  -2   0   0   50.81    6.31
   2   0   0   39.33    4.71
   2   0   0   48.88    4.71
   2   0   0   39.00    5.56
   2   0   0   46.88    5.20
   2   0   0   44.55    4.22
  -3   0   0    5.05    3.08
   3   0   0   11.34    3.86
   3   0   0    4.21    3.02
   3   0   0    2.43    4.27
   3   0   0    7.13    4.19
   3   0   0    6.03    4.47
   3   0   0    2.90    3.84
   3   0   0    6.79    3.52
  -4   0   0  541.18   20.99
   4   0   0  527.21   23.44
   4   0   0  529.03   22.06
   4   0   0  522.04   20.97
   4   0   0  529.23   20.41
   4   0   0  533.20   18.87
   4   0   0  535.61   23.89
   4   0   0  515.34   25.25
  -5   0   0  248.86   16.48
   5   0   0  196.24   15.68
   5   0   0  216.37   19.40
   5   0   0  243.15   20.64
   5   0   0  182.75   16.76
  -6   0   0  106.96   17.84
   6   0   0  129.68   21.55
   6   0   0  129.74   20.96
   6   0   0  158.05   24.86
   7   0   0   24.64   21.31
   7   0   0  -11.21   22.21
   7  -1   0   76.85   19.04
   7  -1   0   47.26   21.91
   7  -1   0   42.50   20.15
   6  -1   0  313.09   25.20
   6  -1   0  287.72   28.50
   6  -1   0  238.03   21.46
   6  -1   0  276.10   26.55
  -6   1   0  248.13   18.07
   5  -1   0  655.79   30.04
   5  -1   0  614.73   24.09
   5  -1   0  631.13   24.06
   5  -1   0  699.93   30.60
  -5   1   0  660.18   26.32
  -5   1   0  677.92   24.04
   4  -1   0  654.66   23.47
   4  -1   0  720.35   25.01
   4  -1   0  738.02   27.86
   4  -1   0  729.63   27.42
   4  -1   0  744.18   23.47
   4  -1   0  688.88   22.29
  -4   1   0  695.14   23.88
  -4   1   0  678.80   21.63
   3  -1   0  727.74   19.05
   3  -1   0  754.04   21.59
   3  -1   0  717.95   21.66
   3  -1   0  722.61   24.78
   3  -1   0  719.07   24.51
  -3   1   0  721.21   19.12
  -3   1   0  710.16   21.45
  -3   1   0  713.60   26.00
   2  -1   0 1001.99   25.86
   2  -1   0 1033.75   22.96
   2  -1   0 1026.13   26.68
   2  -1   0 1018.65   19.61
  -2   1   0 1021.84   27.19
  -2   1   0  974.78   19.33
  -2   1   0 1001.51   22.48
   1  -1   0  740.17   15.57
   1  -1   0  706.82   17.34
   1  -1   0  762.02   15.24
  -1   1   0  749.41   18.05
   0  -1   0 1104.99   19.90
   0  -1   0 1105.41   20.37
   0   1   0 1111.78   20.45
   0   1   0 1082.64   19.64
   0   1   0 1099.82   19.85
  -1  -1   0  664.11   17.35
  -1  -1   0  659.72   18.33
  -1  -1   0  663.37   13.71
  -1  -1   0  668.90   14.69
   1   1   0  675.61   13.76
   1   1   0  649.77   17.67
   1   1   0  643.41   13.61
   1   1   0  652.28   17.21
  -2  -1   0   37.35    3.71
  -2  -1   0   29.29    5.18
  -2  -1   0   42.86    6.34
   2   1   0   35.31    6.43
   2   1   0   47.56    5.74
   2   1   0   36.24    5.11
   2   1   0   40.67    4.39
  -3  -1   0 1383.88   36.81
   3   1   0 1356.33   36.63
   3   1   0 1466.80   34.78
   3   1   0 1452.57   32.08
   3   1   0 1395.89   35.79
   3   1   0 1389.60   30.04
   3   1   0 1431.43   37.05
   3   1   0 1422.77   39.79
  -4  -1   0  392.27   20.33
   4   1   0  383.98   20.69
   4   1   0  376.80   22.90
   4   1   0  357.28   15.67
   4   1   0  381.09   19.21
   4   1   0  353.82   19.76
   4   1   0  369.03   17.18
  -5  -1   0  140.43   17.60
   5   1   0  187.50   15.57
   5   1   0  169.72   21.16
   5   1   0  146.09   18.89
   5   1   0  165.25   21.89
   5   1   0  124.50   18.27
  -6  -1   0  184.45   24.29
   6   1   0  143.01   26.39
   6   1   0  209.61   31.16
   7  -2   0   56.75   17.29
   7  -2   0   76.28   19.41
   6  -2   0   12.23   11.60
   6  -2   0   11.47   12.43
   6  -2   0   29.39    9.82
  -6   2   0    5.87    8.42
  -6   2   0   20.64    7.24
   5  -2   0  267.02   21.42
   5  -2   0  256.55   13.93
   5  -2   0  282.32   20.38
  -5   2   0  278.81   16.89
  -5   2   0  259.93   12.80
   4  -2   0  444.35   14.50
   4  -2   0  436.34   21.65
   4  -2   0  449.30   22.30
   4  -2   0  442.88   19.08
   4  -2   0  409.96   17.78
  -4   2   0  434.59   18.07
  -4   2   0  435.56   23.99
  -4   2   0  438.81   14.02
   3  -2   0 2076.30   43.28
   3  -2   0 2088.25   49.26
   3  -2   0 2040.22   34.84
   3  -2   0 2031.44   48.24
   3  -2   0 2106.85   43.12
  -3   2   0 2076.39   42.63
  -3   2   0 2106.94   51.22
  -3   2   0 2039.98   34.67
   2  -2   0 1554.87   31.32
   2  -2   0 1579.52   36.47
   2  -2   0 1608.44   32.65
   2  -2   0 1526.29   35.90
  -2   2   0 1634.02   38.83
  -2   2   0 1541.11   32.19
   1  -2   0 9729.81  140.29
   1  -2   0 9948.62  147.43
   1  -2   0 9999.00  144.31
  -1   2   0 9998.66  144.75
  -1   2   0 9808.03  147.73
  -1   2   0 9648.72  138.28
  -1   2   0 9931.95  141.00
   0  -2   0 2968.37   51.20
   0  -2   0 2888.76   49.21
   0  -2   0 2936.94   50.00
   0   2   0 2911.44   49.80
   0   2   0 2932.56   49.96
   0   2   0 2939.64   50.98
  -1  -2   0  859.55   24.47
  -1  -2   0  817.92   18.55
  -1  -2   0  871.34   23.85
   1   2   0  869.30   24.23
   1   2   0  868.26   19.70
  -2  -2   0 1017.55   29.82
  -2  -2   0  999.22   31.83
  -2  -2   0  988.57   22.26
   2   2   0 1003.59   22.61
   2   2   0 1004.42   30.17
   2   2   0  959.18   24.32
  -3  -2   0  489.09   22.22
   3   2   0  480.89   22.52
   3   2   0  457.06   21.63
   3   2   0  468.29   15.70
   3   2   0  480.10   16.07
   3   2   0  432.63   20.24
   3   2   0  511.79   17.50
  -4  -2   0    0.38    6.94
   4   2   0    3.62    5.89
   4   2   0    5.82    8.82
   4   2   0    2.12    7.32
   4   2   0   -5.73    9.47
   4   2   0    4.99    6.71
  -5  -2   0   -2.26   11.06
   5   2   0    7.34   13.87
   5   2   0   33.03   11.92
   5   2   0   37.59   13.35
   6   2   0   99.77   20.77
   7  -3   0  155.29   26.15
   7  -3   0  108.43   18.30
   7  -3   0  166.87   28.71
  -7   3   0  107.56   19.15
   6  -3   0   44.49    7.98
   6  -3   0   57.67   12.84
   6  -3   0   62.68   16.43
  -6   3   0   83.75   14.39
   5  -3   0   67.25   12.11
   5  -3   0   81.21   14.63
   5  -3   0   66.91    7.57
  -5   3   0   48.80    6.48
  -5   3   0   63.38   13.92
  -5   3   0   63.59   10.88
   4  -3   0    8.45    5.54
   4  -3   0   17.27    5.72
   4  -3   0   18.10    6.80
   4  -3   0   20.52    7.11
  -4   3   0   16.33    4.60
  -4   3   0   25.08    9.24
   3  -3   0 2850.43   54.67
   3  -3   0 2865.91   62.61
   3  -3   0 2774.62   55.53
   3  -3   0 2916.94   62.99
  -3   3   0 2842.85   65.34
  -3   3   0 2897.78   56.40
   2  -3   0  198.27   12.82
   2  -3   0  199.73   11.61
   2  -3   0  214.07   11.09
  -2   3   0  187.47   13.27
  -2   3   0  195.82   10.71
  -2   3   0  189.04    6.31
   1  -3   0  169.54    9.95
   1  -3   0  156.94    6.78
   1  -3   0  144.32    9.58
  -1   3   0  151.54    9.18
  -1   3   0  154.72   10.84
  -1   3   0  146.12    7.05
   0  -3   0   83.01    8.02
   0  -3   0   88.01    7.20
   0  -3   0   83.53    6.77
   0   3   0   82.35    7.58
   0   3   0   98.90    7.95
   0   3   0   79.37    6.66
  -1  -3   0   95.93   10.32
  -1  -3   0  100.94    9.18
  -1  -3   0   94.68    6.66
   1   3   0   89.56    8.22
   1   3   0   98.73    9.08
   1   3   0  101.64    9.90
  -2  -3   0 1387.72   39.37
  -2  -3   0 1365.74   29.64
  -2  -3   0 1354.08   41.71
   2   3   0 1364.26   31.12
   2   3   0 1426.79   40.12
   2   3   0 1372.12   39.35
  -3  -3   0  383.90   13.96
   3   3   0  415.06   23.56
   3   3   0  367.92   24.44
   3   3   0  367.61   14.27
  -4  -3   0  281.68   22.35
   4   3   0  242.96   23.29
   4   3   0  268.12   23.57
   4   3   0  276.99   15.97
  -5  -3   0  199.03   26.97
   5   3   0  192.05   28.12
   7  -4   0  102.30   19.55
   7  -4   0   73.35   20.24
  -7   4   0   74.39   13.92
   6  -4   0  542.96   32.27
   6  -4   0  489.92   30.47
  -6   4   0  521.78   26.08
   5  -4   0  339.12   23.52
   5  -4   0  317.52   22.85
  -5   4   0  313.64   18.93
   4  -4   0  382.52   22.29
   4  -4   0  351.09   18.83
   4  -4   0  367.89   21.64
   4  -4   0  369.29   17.95
  -4   4   0  386.08   25.78
  -4   4   0  368.02   18.36
   3  -4   0  352.71   18.84
   3  -4   0  351.04   19.74
   3  -4   0  343.27   16.36
   3  -4   0  367.60   15.25
  -3   4   0  360.18   16.98
  -3   4   0  352.79   21.37
   2  -4   0 2914.68   53.06
   2  -4   0 3071.91   60.27
   2  -4   0 2939.84   58.92
   2  -4   0 2947.09   63.34
  -2   4   0 2970.93   60.02
  -2   4   0 2899.11   49.17
  -2   4   0 2988.55   65.93
   1  -4   0  120.41   10.00
   1  -4   0  108.09   10.59
   1  -4   0  123.58    6.26
  -1   4   0  109.20    9.66
  -1   4   0  135.74   12.74
  -1   4   0  112.21    8.20
   0  -4   0  885.29   29.29
   0  -4   0  894.56   25.94
   0  -4   0  900.52   27.57
   0   4   0  858.47   28.00
   0   4   0  882.86   26.67
   0   4   0  886.90   28.21
  -1  -4   0   10.48    5.36
  -1  -4   0   16.19    7.22
  -1  -4   0   18.26    4.28
   1   4   0    7.89    6.28
   1   4   0   16.39    5.97
   1   4   0    4.73    5.83
  -2  -4   0   25.58    7.63
  -2  -4   0   21.53    5.02
   2   4   0   17.05    7.43
   2   4   0   28.62    9.07
  -3  -4   0   78.72   13.52
  -3  -4   0  100.13   10.01
  -4  -4   0  237.59   26.75
   4   4   0  217.27   29.50
   7  -5   0  144.20   27.97
   7  -5   0  163.05   30.18
  -7   5   0  165.32   22.05
   6  -5   0  271.63   26.49
   6  -5   0  269.91   26.14
  -6   5   0  334.52   22.16
   5  -5   0    6.36    8.58
  -5   5   0   24.19    8.20
   4  -5   0  488.18   25.34
   4  -5   0  491.51   26.75
   4  -5   0  490.78   21.42
  -4   5   0  525.12   23.34
   3  -5   0   23.34    8.55
   3  -5   0   44.93    8.44
   3  -5   0   34.73    8.87
   3  -5   0   40.76    6.78
  -3   5   0   23.36    5.80
  -3   5   0   37.65    9.57
   2  -5   0  498.07   23.31
   2  -5   0  462.57   21.37
   2  -5   0  501.43   19.47
   2  -5   0  478.32   16.28
  -2   5   0  452.80   25.52
  -2   5   0  471.13   21.37
  -2   5   0  490.18   16.16
  -2   5   0  455.89   18.92
   1  -5   0  519.70   22.59
   1  -5   0  508.73   23.31
  -1   5   0  523.09   19.59
  -1   5   0  543.03   23.21
  -1   5   0  525.70   24.61
  -1   5   0  510.58   25.38
   0  -5   0  276.26   15.16
   0  -5   0  290.71   17.09
   0   5   0  256.80   16.29
   0   5   0  272.07   19.42
   0   5   0  309.95   18.82
  -1  -5   0  503.72   19.39
  -1  -5   0  536.47   26.15
   1   5   0  528.07   24.94
   1   5   0  515.25   25.92
  -2  -5   0  139.75   11.94
  -2  -5   0  148.48   19.02
   2   5   0  157.05   19.65
   3   5   0  227.19   25.83
   7  -6   0  332.24   37.00
   7  -6   0  420.48   37.04
  -7   6   0  383.02   27.88
   6  -6   0  213.64   24.26
   6  -6   0  163.94   26.99
  -6   6   0  141.96   20.65
   5  -6   0  242.66   23.04
   5  -6   0  231.25   24.29
  -5   6   0  213.30   18.61
   4  -6   0  319.44   24.06
   4  -6   0  337.98   22.01
   4  -6   0  309.93   21.07
  -4   6   0  341.59   21.10
   3  -6   0  582.05   29.13
   3  -6   0  544.95   23.72
   3  -6   0  554.82   20.87
  -3   6   0  543.03   16.11
  -3   6   0  579.47   18.22
   2  -6   0  165.97   12.18
   2  -6   0  161.80   10.33
   2  -6   0  176.40   15.83
  -2   6   0  157.89   11.46
  -2   6   0  187.50   15.32
   1  -6   0  255.56   17.72
  -1   6   0  256.57   21.25
  -1   6   0  257.47   19.26
  -1   6   0  235.22   23.77
  -1   6   0  238.01   15.87
   0   6   0   59.46   13.88
   0   6   0   99.35   20.45
   0   6   0   56.77   11.54
  -1  -6   0  226.11   16.32
   1   6   0  263.55   22.43
   2   6   0  161.51   24.25
   7  -7   0   16.96   18.50
   7  -7   0   20.08   25.69
   6  -7   0  -23.55   15.73
   6  -7   0   -8.34   15.42
  -6   7   0   10.17   12.38
   5  -7   0  459.52   34.44
   5  -7   0  463.31   28.84
  -5   7   0  442.35   27.16
   4  -7   0   63.48   11.83
  -4   7   0   47.44   11.01
   3  -7   0  443.62   27.17
   3  -7   0  426.11   21.32
   3  -7   0  407.36   19.53
  -3   7   0  400.25   25.35
  -3   7   0  408.97   18.99
  -3   7   0  397.39   16.38
   2  -7   0   51.92   11.17
  -2   7   0   56.96   10.54
  -2   7   0   38.04    8.72
  -2   7   0   57.26   11.26
   1  -7   0   66.56   14.18
  -1   7   0   30.53   14.74
  -1   7   0   49.50   11.37
   0  -7   0  421.18   22.52
   0   7   0  416.46   34.95
   0   7   0  409.18   28.60
   1   7   0  196.68   27.63
   1   7   0  224.53   37.97
   6  -8   0   40.88   17.47
  -6   8   0   27.45   15.70
   5  -8   0  152.57   24.27
   5  -8   0  124.32   21.36
  -5   8   0  150.02   23.41
   4  -8   0  147.64   20.51
   4  -8   0  156.28   24.38
  -4   8   0  134.95   22.02
   3  -8   0   25.61   13.72
  -3   8   0   -9.83   11.22
   2  -8   0  214.96   23.66
  -2   8   0  261.32   26.46
  -2   8   0  253.05   26.97
   1  -8   0   24.81   12.16
  -1   8   0   57.99   18.84
  -1   8   0   50.24   14.96
   0   8  -1  195.18   39.39
  -1   8  -1  172.57   25.23
  -1   8  -1  194.44   30.64
   1  -8   1  162.24   19.45
  -2   8  -1   30.78   11.66
  -2   8  -1   32.83   14.07
   2  -8   1   49.02   12.89
  -3   8  -1  312.19   24.85
   3  -8   1  211.53   27.49
   3  -8   1  272.58   25.30
  -4   8  -1  294.01   27.38
   4  -8   1  356.01   26.72
   4  -8   1  367.58   31.35
  -5   8  -1  205.39   24.01
   5  -8   1  162.70   32.26
   5  -8   1  148.26   27.27
  -6   8  -1   23.58   15.69
   6  -8   1   23.35   18.27
   1   7  -1  414.42   31.45
   0   7  -1  117.79   19.64
   0  -7   1  111.16   15.28
  -1   7  -1  -12.79    9.40
  -1   7  -1  -15.03   12.05
   1  -7   1   -3.83    8.31
  -2   7  -1   33.17    8.68
   2  -7   1   31.55    8.62
   2  -7   1   20.27    6.21
   2  -7   1   13.70    9.77
  -3   7  -1   85.98   11.44
  -3   7  -1   98.42   15.42
  -3   7  -1   63.39   10.31
   3  -7   1  110.99   16.63
   3  -7   1  114.89   18.39
   3  -7   1   71.15   10.12
  -4   7  -1  615.05   31.11
   4  -7   1  561.11   31.95
   4  -7   1  626.09   35.88
  -5   7  -1   85.93   13.47
   5  -7   1   52.56   17.18
   5  -7   1   86.37   17.35
  -6   7  -1  -15.14   12.13
   6  -7   1  -21.81   15.78
   6  -7   1   38.91   16.52
  -3  -6   1   28.16   21.09
   2   6  -1  190.98   24.44
  -2  -6   1  159.14   24.04
   1   6  -1  224.86   22.54
  -1  -6   1  221.51   21.51
  -1  -6   1  264.07   15.08
   0   6  -1  180.63   23.18
   0   6  -1  202.44   18.18
   0  -6   1  238.31   18.96
   0  -6   1  240.22   14.94
  -1   6  -1   71.05   13.36
  -1   6  -1   82.64   11.56
  -1   6  -1   93.30   13.34
   1  -6   1   76.77   10.13
  -2   6  -1 1138.32   33.69
  -2   6  -1 1136.78   37.79
  -2   6  -1 1069.05   43.62
  -2   6  -1 1057.41   27.85
   2  -6   1 1135.85   38.98
   2  -6   1 1108.96   28.53
   2  -6   1 1054.17   33.11
  -3   6  -1  679.57   30.58
   3  -6   1  674.87   24.23
   3  -6   1  763.42   33.85
   3  -6   1  692.17   29.63
  -4   6  -1  212.91   17.81
   4  -6   1  166.84   20.42
   4  -6   1  185.86   20.07
  -5   6  -1  158.19   17.66
   5  -6   1  177.45   23.48
   5  -6   1  153.64   21.89
  -6   6  -1  292.13   23.14
   6  -6   1  288.82   30.43
   6  -6   1  252.96   29.37
  -7   6  -1   31.90   13.44
   7  -6   1   43.79   20.89
   7  -6   1   37.75   19.12
   4   5  -1  120.76   26.48
   3   5  -1  280.66   26.30
  -3  -5   1  257.48   24.55
   2   5  -1  296.31   22.76
   2   5  -1  284.59   19.91
  -2  -5   1  290.66   12.65
  -2  -5   1  340.92   22.94
   1   5  -1    0.84    8.67
  -1  -5   1    5.22    4.42
  -1  -5   1   15.21    6.78
   0   5  -1   33.87    7.43
   0   5  -1   34.16    6.87
   0   5  -1   35.49    9.44
   0  -5   1   55.55    9.08
   0  -5   1   35.34    6.29
  -1   5  -1  526.94   16.23
  -1   5  -1  548.65   23.54
  -1   5  -1  532.40   18.94
  -1   5  -1  524.52   26.31
   1  -5   1  549.82   20.10
   1  -5   1  515.52   23.20
   1  -5   1  530.09   22.21
  -2   5  -1  443.29   20.54
  -2   5  -1  466.10   26.23
  -2   5  -1  445.08   14.18
  -2   5  -1  479.37   17.68
   2  -5   1  457.32   21.25
   2  -5   1  452.58   22.59
   2  -5   1  427.86   16.36
  -3   5  -1  226.60   15.33
  -3   5  -1  225.87   22.61
   3  -5   1  234.04   18.34
   3  -5   1  229.09   13.61
   3  -5   1  242.85   16.45
   3  -5   1  223.43   17.60
  -4   5  -1   27.74    6.89
   4  -5   1   18.40    7.91
   4  -5   1    9.03    8.38
   4  -5   1   28.46    7.07
  -5   5  -1   62.63   12.31
   5  -5   1   66.93   13.37
   5  -5   1   70.81   16.31
  -6   5  -1  728.96   31.48
   6  -5   1  731.92   39.89
   6  -5   1  722.13   39.97
  -7   5  -1  136.45   20.64
   7  -5   1  108.91   21.06
   7  -5   1  132.06   24.29
   4   4  -1   31.28   14.36
  -4  -4   1   17.07   11.13
   3   4  -1  519.12   29.22
  -3  -4   1  519.71   27.50
   2   4  -1   31.33    6.54
   2   4  -1   25.07    8.61
  -2  -4   1   25.92    4.24
  -2  -4   1   18.76    6.33
   1   4  -1   54.49    9.46
   1   4  -1   64.77   10.28
   1   4  -1   64.34   10.05
  -1  -4   1   58.75    6.32
  -1  -4   1   60.58    9.65
  -1  -4   1   47.05    9.04
   0   4  -1   63.16   10.53
   0   4  -1   71.13    7.47
   0   4  -1   64.84    8.87
   0   4  -1   66.97    5.24
   0  -4   1   76.63    7.49
   0  -4   1   61.71   10.07
   0  -4   1   76.93    4.97
   0  -4   1   67.23    7.87
  -1   4  -1 6683.03  101.73
  -1   4  -1 6758.67  111.60
  -1   4  -1 6589.86  115.60
   1  -4   1 6463.84  103.60
   1  -4   1 6602.07  101.17
   1  -4   1 6751.27  111.49
   1  -4   1 6634.70  112.26
  -2   4  -1 1184.85   31.99
  -2   4  -1 1128.40   27.99
  -2   4  -1 1133.55   21.80
  -2   4  -1 1129.45   37.96
   2  -4   1 1158.59   28.15
   2  -4   1 1128.37   34.91
   2  -4   1 1119.42   31.29
  -3   4  -1   32.20    9.69
  -3   4  -1   20.20    4.69
   3  -4   1   22.61    5.01
   3  -4   1   24.26    5.32
   3  -4   1   35.41    8.57
  -4   4  -1  140.77   11.90
  -4   4  -1  122.93   21.47
   4  -4   1  119.50   12.38
   4  -4   1  134.23   13.86
   4  -4   1  161.12   16.28
   4  -4   1  139.71   15.71
  -5   4  -1  232.90   15.45
   5  -4   1  243.21   21.24
  -6   4  -1   80.73   14.81
   6  -4   1   70.49   14.93
   6  -4   1   79.61   16.99
  -7   4  -1   37.56   11.55
   7  -4   1   56.50   20.89
   7  -4   1   43.52   18.60
   5   3  -1  102.90   18.77
  -5  -3   1  111.90   16.51
   4   3  -1  225.01   16.79
   4   3  -1  289.40   23.11
   4   3  -1  236.68   15.23
  -4  -3   1  268.64   21.93
   3   3  -1  330.98   13.76
   3   3  -1  341.98   21.51
  -3  -3   1  326.59   20.08
  -3  -3   1  348.45   17.66
   2   3  -1   13.07    5.27
   2   3  -1    1.61    5.17
   2   3  -1    4.46    3.53
  -2  -3   1    1.60    6.88
  -2  -3   1    5.84    2.49
  -2  -3   1    5.17    4.15
  -2  -3   1    1.42    4.46
   1   3  -1  238.88   10.75
   1   3  -1  226.07   13.30
   1   3  -1  237.72   12.71
  -1  -3   1  226.19    8.07
  -1  -3   1  225.86   14.38
  -1  -3   1  219.72   12.35
   0   3  -1  479.57   12.30
   0   3  -1  474.42   16.31
   0   3  -1  501.16   17.41
   0   3  -1  496.36   17.72
   0  -3   1  474.40   15.50
   0  -3   1  470.62   17.44
   0  -3   1  494.67   16.28
   0  -3   1  496.06   12.02
  -1   3  -1  223.00    9.16
  -1   3  -1  233.48    8.45
  -1   3  -1  234.15   11.13
   1  -3   1  221.65    8.32
   1  -3   1  234.98   12.18
   1  -3   1  243.93   11.51
   1  -3   1  229.52    9.18
  -2   3  -1  554.70   23.66
  -2   3  -1  569.32   17.71
  -2   3  -1  546.62   18.03
   2  -3   1  567.97   17.35
   2  -3   1  544.91   21.97
   2  -3   1  551.31   18.22
  -3   3  -1  347.97   21.80
  -3   3  -1  358.83   15.15
   3  -3   1  363.58   19.75
   3  -3   1  356.25   15.26
   3  -3   1  333.04   15.04
  -4   3  -1  587.21   30.82
  -4   3  -1  598.30   22.18
   4  -3   1  614.38   23.62
   4  -3   1  560.23   22.82
   4  -3   1  617.95   28.31
   4  -3   1  619.39   28.86
  -5   3  -1  500.86   22.13
   5  -3   1  547.59   29.43
   5  -3   1  489.10   18.84
   5  -3   1  492.54   15.86
   5  -3   1  518.66   29.62
  -6   3  -1   21.58    8.52
   6  -3   1    1.89   13.66
   6  -3   1    9.66    8.09
   6  -3   1    5.15    9.47
   6  -3   1   17.80   13.18
  -7   3  -1  274.16   23.58
   7  -3   1  283.02   34.08
   7  -3   1  274.11   33.10
   6   2  -1  216.85   31.74
   6   2  -1  172.35   29.63
  -6  -2   1  190.39   26.87
   5   2  -1   35.12   11.22
   5   2  -1    3.96   11.80
   5   2  -1   38.56   12.60
  -5  -2   1   28.20   10.79
   4   2  -1  284.83   11.38
   4   2  -1  264.19   15.95
  -4  -2   1  263.43   20.66
   3   2  -1  234.58   15.46
   3   2  -1  263.13   17.07
   3   2  -1  262.64   12.71
   3   2  -1  243.06    8.84
   3   2  -1  249.77   15.44
  -3  -2   1  245.38   14.99
  -3  -2   1  265.45   14.87
   2   2  -1 2003.42   46.54
   2   2  -1 2003.50   33.09
   2   2  -1 2054.64   45.61
   2   2  -1 2008.70   36.81
  -2  -2   1 2006.95   45.45
  -2  -2   1 2000.85   48.66
  -2  -2   1 2026.23   39.37
   1   2  -1 1482.17   33.61
   1   2  -1 1478.78   26.16
   1   2  -1 1430.51   25.70
  -1  -2   1 1460.14   26.51
  -1  -2   1 1458.64   32.65
  -1  -2   1 1431.28   24.79
  -1  -2   1 1472.29   34.02
   0   2  -1 6120.09   93.15
   0   2  -1 6078.71   88.23
   0   2  -1 6179.98   93.60
   0   2  -1 6008.21   91.75
   0  -2   1 5973.20   87.75
   0  -2   1 6236.89   93.91
   0  -2   1 5887.07   91.76
  -1   2  -1  138.53    6.90
  -1   2  -1  139.84    4.62
  -1   2  -1  135.46    7.62
  -1   2  -1  150.25    9.71
   1  -2   1  138.08    8.64
   1  -2   1  146.80    6.60
   1  -2   1  145.24    7.23
   1  -2   1  140.41    4.54
  -2   2  -1   45.52    4.61
  -2   2  -1   53.25    8.60
  -2   2  -1   44.77    4.80
   2  -2   1   59.43    5.42
   2  -2   1   57.36    7.55
   2  -2   1   45.28    5.06
  -3   2  -1 1267.68   40.30
  -3   2  -1 1293.57   30.76
   3  -2   1 1325.69   27.75
   3  -2   1 1313.51   32.17
   3  -2   1 1313.76   39.10
   3  -2   1 1283.45   38.43
   3  -2   1 1311.93   31.47
   3  -2   1 1336.93   25.05
  -4   2  -1  323.20   15.76
   4  -2   1  309.98   16.78
   4  -2   1  321.48   16.87
   4  -2   1  331.40   21.31
   4  -2   1  323.75   15.88
   4  -2   1  346.76   21.04
   4  -2   1  319.16   14.85
  -5   2  -1   64.25   10.87
   5  -2   1   58.63   10.55
   5  -2   1   72.36   13.52
   5  -2   1   51.70   12.03
   5  -2   1   63.38   10.53
   5  -2   1   76.44   10.45
  -6   2  -1   31.18    9.30
   6  -2   1   44.81   10.34
   6  -2   1   52.60   13.77
   6  -2   1   74.95   14.22
   7  -2   1   81.16   21.05
   7  -2   1   97.69   23.28
   6   1  -1  221.22   26.15
   6   1  -1  224.98   30.61
  -6  -1   1  197.60   22.69
   5   1  -1   93.63   15.78
   5   1  -1   89.08   16.82
   5   1  -1   82.91   10.95
   5   1  -1   86.46   16.05
   5   1  -1   68.00   10.49
  -5  -1   1   85.15   14.99
   4   1  -1  146.43    9.14
   4   1  -1  135.34   15.92
   4   1  -1  127.45   12.71
   4   1  -1  136.94   14.65
   4   1  -1  168.44   11.41
   4   1  -1  126.14   13.81
  -4  -1   1  150.33   13.43
  -4  -1   1  156.82   16.58
   3   1  -1    3.85    4.57
   3   1  -1   10.04    3.87
   3   1  -1    9.03    4.32
   3   1  -1   20.43    4.96
   3   1  -1   16.29    4.69
   3   1  -1   11.89    2.90
  -3  -1   1   11.43    4.20
  -3  -1   1   14.11    5.71
   2   1  -1  877.41   21.19
   2   1  -1  863.87   25.80
   2   1  -1  896.46   23.47
   2   1  -1  868.70   18.05
   2   1  -1  917.79   24.27
   2   1  -1  878.25   15.94
  -2  -1   1  886.90   22.48
  -2  -1   1  879.49   24.07
   1   1  -1 1071.05   23.59
   1   1  -1 1049.50   20.24
   1   1  -1 1095.19   24.36
  -1  -1   1 1098.37   23.89
  -1  -1   1 1093.68   20.99
  -1  -1   1 1129.14   25.34
   0   1  -1  867.55   16.50
   0   1  -1  876.84   18.20
   0   1  -1  859.57   16.58
   0   1  -1  867.55   16.05
   0  -1   1  871.15   16.63
   0  -1   1  891.95   16.08
   0  -1   1  859.13   16.46
  -1   1  -1  781.74   15.00
  -1   1  -1  748.30   16.89
  -1   1  -1  802.68   21.99
  -1   1  -1  768.91   15.68
   1  -1   1  776.08   17.07
   1  -1   1  773.92   15.81
   1  -1   1  752.33   21.11
   1  -1   1  774.22   14.62
  -2   1  -1   92.88    6.17
  -2   1  -1  109.44    6.25
   2  -1   1  108.76    6.43
   2  -1   1  104.89    6.65
   2  -1   1  113.10    9.35
   2  -1   1   94.80    6.43
   2  -1   1  102.01    5.29
  -3   1  -1  450.78   16.41
  -3   1  -1  456.06   15.20
   3  -1   1  462.72   16.94
   3  -1   1  465.80   16.89
   3  -1   1  464.38   20.62
   3  -1   1  481.38   22.34
   3  -1   1  470.76   17.52
   3  -1   1  477.90   15.88
  -4   1  -1  965.42   29.21
  -4   1  -1  984.95   27.59
   4  -1   1 1000.96   37.08
   4  -1   1  980.62   29.49
   4  -1   1  998.72   28.03
   4  -1   1  932.93   34.35
   4  -1   1  973.04   29.45
   4  -1   1  982.68   30.06
   5  -1   1  435.99   21.51
   5  -1   1  504.48   30.90
   5  -1   1  550.31   28.33
   5  -1   1  483.34   23.08
   6  -1   1  655.31   38.99
   6  -1   1  680.89   38.29
   6  -1   1  639.82   36.35
   6  -1   1  709.91   37.97
   7  -1   1   49.52   22.93
   7  -1   1   26.01   19.04
   7  -1   1   63.70   24.62
   7  -1   1   20.57   21.42
   7   0  -1   40.22   20.45
   7   0  -1   42.86   18.61
  -7   0   1   33.55   14.18
   6   0  -1   18.17   12.67
   6   0  -1    3.27   11.50
   6   0  -1   31.73   14.72
   5   0  -1 1286.20   32.34
   5   0  -1 1281.20   37.14
   5   0  -1 1305.28   40.92
   5   0  -1 1220.36   38.41
   5   0  -1 1269.91   52.38
   5   0  -1 1286.92   38.25
  -5   0   1 1330.00   39.29
   4   0  -1  549.94   25.91
   4   0  -1  549.14   22.61
   4   0  -1  533.01   20.92
   4   0  -1  555.51   20.32
   4   0  -1  517.54   22.03
  -4   0   1  539.97   24.96
  -4   0   1  529.90   20.96
   3   0  -1  529.77   14.85
   3   0  -1  500.30   18.72
   3   0  -1  492.40   17.44
   3   0  -1  496.71   16.55
   3   0  -1  480.01   17.81
  -3   0   1  506.76   20.51
  -3   0   1  509.77   17.75
   2   0  -1   91.77    6.65
   2   0  -1   88.02    5.46
   2   0  -1   95.62    5.99
   2   0  -1   92.48    6.59
  -2   0   1   96.10    6.10
  -2   0   1   85.59    6.62
  -2   0   1   92.49    6.29
  -2   0   1   97.13    6.28
   1   0  -1 6673.91   95.00
   1   0  -1 6459.43   94.81
   1   0  -1 6489.73   94.16
   1   0  -1 6538.04   91.93
  -1   0   1 6588.86   92.33
  -1   0   1 6417.79   94.18
  -1   0   1 6458.90   94.63
  -1   0   1 6543.46   95.17
   0   0  -1  579.19   13.98
   0   0  -1  480.75   11.09
   0   0   1  578.73   10.70
   0   0   1  590.64   12.34
  -1   0  -1  458.18   12.46
  -1   0  -1  443.97   11.22
   1   0   1  489.20   11.54
   1   0   1  450.03   12.74
   1   0   1  470.86   12.43
   1   0   1  462.29   14.39
   1   0   1  464.04   11.41
   1   0   1  463.49   12.51
  -2   0  -1  111.95    7.21
   2   0   1  116.73    8.44
   2   0   1  114.47    7.20
   2   0   1  131.45    7.48
   2   0   1  107.34    8.51
   2   0   1  113.15    7.15
   2   0   1  119.15    6.75
  -3   0  -1   31.12    6.41
   3   0   1   28.04    6.49
   3   0   1   40.72    7.14
   3   0   1   38.76    7.06
   3   0   1   31.67    6.47
   3   0   1   54.29   10.15
   3   0   1   29.87    5.49
   3   0   1   46.37    7.15
  -4   0  -1  294.30   16.84
   4   0   1  294.22   19.96
   4   0   1  322.27   16.89
   4   0   1  266.33   21.26
   4   0   1  310.15   18.55
   4   0   1  321.74   17.98
   4   0   1  310.72   16.18
   4   0   1  298.29   17.06
   5   0   1  292.68   19.49
   5   0   1  308.95   27.19
   5   0   1  305.53   25.49
   5   0   1  297.01   22.96
   6   0   1  280.34   35.42
   6   0   1  359.89   34.93
   6   0   1  246.86   28.57
   6   0   1  312.18   33.33
   7  -1  -1   63.21   18.04
   7  -1  -1   66.11   17.33
   7  -1  -1  106.91   20.96
  -7   1   1   73.04   12.75
   6  -1  -1  135.13   19.43
   6  -1  -1  145.56   24.18
   6  -1  -1  122.62   16.79
   6  -1  -1  143.09   19.12
  -6   1   1  125.76   14.89
   5  -1  -1  487.16   19.89
   5  -1  -1  432.01   21.92
   5  -1  -1  453.30   24.10
   5  -1  -1  423.54   21.86
   5  -1  -1  420.76   19.94
  -5   1   1  472.24   19.66
  -5   1   1  440.84   21.47
   4  -1  -1   29.87    5.01
   4  -1  -1   20.44    5.69
   4  -1  -1   30.56    7.28
   4  -1  -1   20.91    5.57
  -4   1   1   29.36    6.12
  -4   1   1   24.54    5.48
  -4   1   1   11.90    7.39
  -4   1   1   16.22    7.03
   3  -1  -1  458.59   17.08
   3  -1  -1  470.44   18.81
   3  -1  -1  478.50   14.87
   3  -1  -1  487.12   17.28
  -3   1   1  488.23   20.04
  -3   1   1  472.85   19.12
  -3   1   1  481.87   16.87
  -3   1   1  475.59   14.92
   2  -1  -1  150.18    6.33
   2  -1  -1  157.61    8.60
  -2   1   1  147.52    5.98
  -2   1   1  153.31    9.25
  -2   1   1  146.13    8.32
  -2   1   1  148.34    7.33
   1  -1  -1  602.09   13.45
   1  -1  -1  596.35   13.96
   1  -1  -1  585.87   14.87
   1  -1  -1  592.04   13.53
  -1   1   1  572.66   12.95
  -1   1   1  595.17   13.64
  -1   1   1  611.39   14.46
  -1   1   1  596.59   15.09
   0  -1  -1 1383.05   29.06
   0  -1  -1 1339.38   24.28
   0  -1  -1 1308.68   25.06
   0   1   1 1342.24   28.39
   0   1   1 1376.69   25.56
   0   1   1 1332.60   24.26
  -1  -1  -1  527.22   16.41
  -1  -1  -1  564.87   16.82
   1   1   1  563.26   16.66
   1   1   1  541.69   11.92
   1   1   1  576.82   15.01
   1   1   1  552.20   16.09
  -2  -1  -1 1344.78   33.33
  -2  -1  -1 1337.49   29.55
   2   1   1 1294.38   30.14
   2   1   1 1365.38   33.43
   2   1   1 1301.50   33.18
   2   1   1 1335.08   27.01
   2   1   1 1349.44   29.54
  -3  -1  -1 1178.30   34.32
   3   1   1 1115.69   31.99
   3   1   1 1115.93   28.98
   3   1   1 1153.03   35.09
   3   1   1 1158.00   28.16
   3   1   1 1149.75   33.67
   3   1   1 1161.62   31.24
  -4  -1  -1  350.77   20.52
   4   1   1  341.16   23.08
   4   1   1  357.93   18.18
   4   1   1  344.94   22.15
   4   1   1  359.70   17.83
   4   1   1  331.55   19.97
   5   1   1  150.67   19.80
   5   1   1  106.11   19.94
   5   1   1  145.99   22.45
   5   1   1  119.96   25.80
   5   1   1  159.56   19.18
   6   1   1   10.26   16.64
   6   1   1   37.79   23.03
   6   1   1  -12.96   17.38
   7  -2  -1   75.89   16.99
  -7   2   1   60.72   11.06
   6  -2  -1  818.91   34.91
   6  -2  -1  772.71   35.53
   6  -2  -1  786.34   28.39
  -6   2   1  781.91   31.27
  -6   2   1  784.93   26.14
   5  -2  -1   97.89   14.32
   5  -2  -1  127.64   14.65
   5  -2  -1  113.32   10.50
  -5   2   1  117.02    9.17
  -5   2   1  106.35   11.87
  -5   2   1   92.34   17.76
   4  -2  -1  755.54   27.06
   4  -2  -1  738.01   20.23
   4  -2  -1  753.21   25.70
   4  -2  -1  751.47   28.33
  -4   2   1  774.79   20.32
  -4   2   1  779.38   30.21
  -4   2   1  770.00   25.14
   3  -2  -1 1671.13   37.29
   3  -2  -1 1639.54   40.18
   3  -2  -1 1666.04   40.17
   3  -2  -1 1666.95   31.47
  -3   2   1 1628.87   30.22
  -3   2   1 1653.45   41.51
  -3   2   1 1686.22   36.97
  -3   2   1 1682.24   42.55
   2  -2  -1 3297.28   58.48
   2  -2  -1 3254.70   59.93
   2  -2  -1 3123.86   60.15
   2  -2  -1 3251.08   51.48
  -2   2   1 3178.04   50.70
  -2   2   1 3230.95   56.51
  -2   2   1 3336.30   61.90
  -2   2   1 3310.78   60.20
   1  -2  -1  690.07   19.17
   1  -2  -1  719.25   19.04
   1  -2  -1  705.15   18.04
   1  -2  -1  704.10   16.02
  -1   2   1  695.61   16.97
  -1   2   1  698.14   19.89
  -1   2   1  719.19   18.44
  -1   2   1  688.90   18.02
   0  -2  -1  490.43   15.22
   0  -2  -1  487.16   14.85
   0   2   1  469.07   18.19
   0   2   1  510.51   15.68
   0   2   1  478.46   15.18
   0   2   1  494.61   15.19
  -1  -2  -1  376.40   15.66
  -1  -2  -1  378.17   13.17
  -1  -2  -1  379.30   15.72
   1   2   1  365.71   14.89
   1   2   1  380.53   13.57
   1   2   1  388.03   15.79
  -2  -2  -1  557.31   17.86
  -2  -2  -1  576.52   22.56
  -2  -2  -1  529.32   23.39
   2   2   1  549.42   17.92
   2   2   1  527.31   21.34
   2   2   1  564.96   14.41
  -3  -2  -1  872.99   24.78
  -3  -2  -1  892.13   32.08
   3   2   1  921.63   32.29
   3   2   1  853.01   25.45
   3   2   1  856.90   29.23
   3   2   1  931.71   25.06
   3   2   1  893.57   23.06
  -4  -2  -1   25.18    9.06
   4   2   1   21.90    8.38
   4   2   1   25.33   13.52
   4   2   1   27.70    8.43
   4   2   1   27.74    8.67
   4   2   1   32.19   10.73
   5   2   1   52.83   15.70
   5   2   1   50.40   13.60
   7  -3  -1  126.14   24.36
   7  -3  -1   94.69   19.57
  -7   3   1  131.66   19.91
  -7   3   1  118.14   14.47
   6  -3  -1   28.19   10.63
  -6   3   1   28.00    5.84
  -6   3   1   31.99    8.23
   5  -3  -1   14.21    5.52
   5  -3  -1   -3.50    6.52
   5  -3  -1    9.50    7.01
  -5   3   1   10.04    3.59
  -5   3   1   10.99    5.55
  -5   3   1   -0.05   11.68
   4  -3  -1  762.90   29.37
   4  -3  -1  780.48   18.72
   4  -3  -1  806.68   25.86
   4  -3  -1  759.95   28.57
  -4   3   1  763.91   31.79
  -4   3   1  757.43   17.18
  -4   3   1  764.32   25.97
   3  -3  -1 1109.48   31.86
   3  -3  -1 1158.50   34.10
   3  -3  -1 1142.81   28.72
   3  -3  -1 1143.65   30.26
   3  -3  -1 1139.69   23.10
  -3   3   1 1098.29   34.79
  -3   3   1 1117.59   30.09
  -3   3   1 1103.67   21.08
   2  -3  -1  946.61   22.22
   2  -3  -1  922.21   25.02
   2  -3  -1  887.56   27.29
   2  -3  -1  891.92   24.16
  -2   3   1  927.11   25.10
  -2   3   1  894.12   21.04
  -2   3   1  929.19   28.75
   1  -3  -1  568.15   14.19
   1  -3  -1  588.43   19.00
   1  -3  -1  560.01   19.60
   1  -3  -1  538.44   12.72
  -1   3   1  575.20   16.78
  -1   3   1  578.22   20.43
  -1   3   1  565.51   18.77
  -1   3   1  556.57   19.42
   0  -3  -1  172.82    9.85
   0  -3  -1  175.71   10.57
   0   3   1  179.22   10.75
   0   3   1  182.81   11.32
   0   3   1  178.77   13.40
   0   3   1  176.99   10.29
  -1  -3  -1 1190.30   29.10
  -1  -3  -1 1135.29   33.26
  -1  -3  -1 1193.14   33.86
   1   3   1 1158.39   33.36
   1   3   1 1179.13   30.61
   1   3   1 1188.13   32.81
  -2  -3  -1  758.73   30.88
  -2  -3  -1  812.06   29.93
  -2  -3  -1  776.87   23.17
   2   3   1  790.27   24.60
   2   3   1  788.71   29.16
  -3  -3  -1  321.01   15.10
   3   3   1  322.39   17.81
   4   3   1   42.67   18.66
   4   3   1    8.58   12.04
   5   3   1   54.99   23.05
   8  -4  -1  168.56   28.71
  -8   4   1  233.97   29.49
   7  -4  -1  590.52   38.18
   7  -4  -1  664.34   37.96
  -7   4   1  598.79   31.07
   6  -4  -1  107.54   17.16
   6  -4  -1  137.40   19.85
  -6   4   1  118.57   16.26
  -6   4   1  136.48    8.28
   5  -4  -1  391.96   23.63
   5  -4  -1  396.41   24.90
  -5   4   1  406.44   21.22
   4  -4  -1  134.80   14.78
   4  -4  -1  182.97   14.65
   4  -4  -1  148.93   12.01
   4  -4  -1  122.32   12.74
  -4   4   1  164.19   12.69
  -4   4   1  132.92   17.22
   3  -4  -1  126.24    9.21
   3  -4  -1  138.84   12.46
   3  -4  -1  130.27   11.42
   3  -4  -1  132.75   11.18
  -3   4   1  127.44    6.09
  -3   4   1  138.25   15.31
  -3   4   1  147.75    6.94
  -3   4   1  122.91   10.33
   2  -4  -1   15.99    5.37
   2  -4  -1   12.67    4.77
   2  -4  -1   17.43    4.18
  -2   4   1   23.77    4.76
  -2   4   1   27.03    7.17
  -2   4   1   15.51    4.34
  -2   4   1   23.70    4.40
   1  -4  -1  417.62   18.41
   1  -4  -1  421.21   18.51
  -1   4   1  453.59   20.98
  -1   4   1  410.33   18.14
  -1   4   1  414.48   16.15
  -1   4   1  420.91   19.65
   0  -4  -1  860.80   26.43
   0  -4  -1  865.42   28.96
   0   4   1  846.08   33.45
   0   4   1  842.84   27.77
   0   4   1  815.31   27.11
   0   4   1  872.15   28.43
  -1  -4  -1   83.78    8.93
  -1  -4  -1   92.40   14.26
   1   4   1   69.02   11.68
   1   4   1  101.26   12.37
   1   4   1   75.65   11.77
  -2  -4  -1  138.31   11.39
   2   4   1  124.32   15.46
  -3  -4  -1   19.49    7.29
   3   4   1   13.15   11.03
   4   4   1  264.09   43.19
   4   4   1  361.98   31.96
   7  -5  -1  108.35   21.57
   7  -5  -1  137.62   26.08
  -7   5   1  124.03   21.15
   6  -5  -1  274.17   25.84
   6  -5  -1  277.91   24.67
  -6   5   1  287.23   21.38
   5  -5  -1  677.41   31.17
   5  -5  -1  676.56   33.06
  -5   5   1  657.79   28.37
   4  -5  -1   77.17   12.38
   4  -5  -1   86.54   14.37
   4  -5  -1   78.35   11.04
  -4   5   1   81.53   11.19
   3  -5  -1   94.10   12.25
   3  -5  -1   79.93   11.68
   3  -5  -1   65.77    9.59
   3  -5  -1   59.63    8.39
  -3   5   1   54.58    6.10
  -3   5   1   60.09   12.12
  -3   5   1   70.69   10.17
  -3   5   1   73.17    7.34
   2  -5  -1  716.02   19.53
   2  -5  -1  697.51   27.92
   2  -5  -1  691.17   20.91
   2  -5  -1  623.51   25.85
  -2   5   1  674.85   24.51
  -2   5   1  677.35   21.30
  -2   5   1  681.43   26.53
  -2   5   1  706.75   31.33
   1  -5  -1  669.78   25.82
   1  -5  -1  615.10   25.89
  -1   5   1  647.69   29.52
  -1   5   1  648.40   28.39
  -1   5   1  676.44   26.60
  -1   5   1  656.53   23.11
   0  -5  -1  937.99   29.70
   0   5   1  885.24   32.71
   0   5   1  783.22   29.13
   0   5   1  889.99   32.93
   0   5   1  892.13   38.57
  -1  -5  -1  127.37   12.14
   1   5   1  109.11   18.15
   1   5   1  110.35   15.89
   1   5   1  141.12   22.32
  -2  -5  -1   57.19   12.05
   2   5   1   30.61   16.64
   2   5   1   47.81   11.20
   3   5   1   -5.04   13.88
   3   5   1  -15.15   20.13
   7  -6  -1   28.61   18.17
   7  -6  -1   -3.95   17.59
  -7   6   1   58.71   14.43
   6  -6  -1  137.31   25.50
   6  -6  -1  125.34   22.50
  -6   6   1  135.83   18.67
   5  -6  -1   80.02   14.51
   5  -6  -1   69.23   13.97
  -5   6   1   57.71   11.19
   4  -6  -1  145.76   13.92
   4  -6  -1  170.58   16.01
   4  -6  -1  189.58   18.80
  -4   6   1  142.51   15.49
   3  -6  -1   53.22   11.01
   3  -6  -1   33.02    7.28
   3  -6  -1   52.10    8.42
  -3   6   1   41.54    8.51
  -3   6   1   59.86    9.94
  -3   6   1   43.19    8.10
   2  -6  -1  127.86   15.45
   2  -6  -1  128.58    9.72
  -2   6   1  140.67   15.30
  -2   6   1  141.51   12.51
  -2   6   1  145.51   15.40
   1  -6  -1  156.51   14.53
  -1   6   1  197.78   20.76
  -1   6   1  156.51   16.74
  -1   6   1  128.43   13.53
   0  -6  -1  161.66   14.45
   0   6   1  117.70   19.86
   0   6   1  178.47   23.52
  -1  -6  -1  342.25   20.83
   1   6   1  349.27   26.30
   1   6   1  403.65   35.96
   2   6   1  -14.78   14.87
   2   6   1   15.41   19.44
   7  -7  -1   39.16   18.85
   7  -7  -1   60.08   20.39
  -7   7   1   22.23   16.31
   6  -7  -1   32.69   15.19
   6  -7  -1   63.47   16.61
  -6   7   1   42.57   12.40
   5  -7  -1   83.80   14.62
   5  -7  -1   83.52   16.57
  -5   7   1   85.45   14.04
   4  -7  -1  472.17   24.62
   4  -7  -1  457.09   24.56
   4  -7  -1  474.10   29.84
  -4   7   1  471.34   27.09
  -4   7   1  460.02   16.35
   3  -7  -1  612.23   21.95
   3  -7  -1  599.62   23.37
   3  -7  -1  633.63   33.38
  -3   7   1  598.54   22.22
  -3   7   1  638.22   25.43
  -3   7   1  633.05   30.63
  -2   7   1   42.50   10.51
  -2   7   1   23.20   11.19
  -2   7   1   40.34    9.42
   1  -7  -1   86.09   16.28
  -1   7   1   90.77   16.21
  -1   7   1   83.23   14.58
   0  -7  -1   26.05   10.82
   0   7   1    6.76   12.75
   1   7   1   81.93   18.87
   1   7   1  100.56   24.09
   6  -8  -1  -31.92   16.82
   5  -8  -1   82.98   17.09
   5  -8  -1   99.95   15.25
  -5   8   1   95.12   16.86
   4  -8  -1   73.78   16.44
   4  -8  -1   80.43   13.99
  -4   8   1   81.89   15.80
   3  -8  -1  108.08   22.86
  -3   8   1  129.97   22.02
  -3   8   1   98.06   13.59
   2  -8  -1  131.67   19.39
  -2   8   1  157.61   27.07
  -2   8   1  137.57   24.06
   1  -8  -1  104.25   21.12
  -1   8   1  168.00   26.98
  -1   8   1  112.88   21.44
   0   8  -2   14.90   13.56
  -1   8  -2   35.51   13.16
  -1   8  -2    9.49   16.91
   1  -8   2   -2.01   11.51
  -2   8  -2  498.65   30.77
  -2   8  -2  518.85   32.20
   2  -8   2  528.33   30.09
  -3   8  -2  233.58   23.20
   3  -8   2  258.03   25.34
   3  -8   2  168.90   24.38
  -4   8  -2  125.03   21.83
   4  -8   2  166.38   27.47
  -5   8  -2   31.18   14.47
   5  -8   2   45.44   17.81
   5  -8   2    1.04   18.61
   1   7  -2   35.30   15.22
  -1  -7   2   14.72   13.07
   0   7  -2  137.93   20.24
   0  -7   2  156.89   14.68
   0  -7   2  139.17   19.17
  -1   7  -2   -2.43    8.79
   1  -7   2   -0.92    8.34
   1  -7   2    9.35    8.65
  -2   7  -2  149.07   18.63
  -2   7  -2  183.73   19.23
  -2   7  -2  185.78   13.90
   2  -7   2  188.42   13.94
  -3   7  -2   33.24    9.72
   3  -7   2   38.66   11.64
   3  -7   2   25.21   11.29
  -4   7  -2  335.35   23.82
   4  -7   2  316.43   27.28
   4  -7   2  288.80   28.07
   5  -7   2   94.15   17.60
   5  -7   2  153.63   23.28
  -6   7  -2   85.05   14.25
   6  -7   2  101.19   20.38
   6  -7   2   66.64   21.91
   3   6  -2   92.79   18.76
  -3  -6   2  130.45   26.01
   2   6  -2  223.00   23.90
  -2  -6   2  260.47   23.87
   1   6  -2  108.34   18.93
  -1  -6   2  130.09   11.53
  -1  -6   2  170.27   17.87
   0   6  -2  316.50   26.23
   0   6  -2  346.56   22.44
   0  -6   2  368.05   17.52
   0  -6   2  351.76   20.54
  -1   6  -2  720.58   22.04
  -1   6  -2  763.52   36.58
  -1   6  -2  704.29   24.55
   1  -6   2  752.91   28.57
   1  -6   2  718.21   21.15
   1  -6   2  735.02   25.51
  -2   6  -2  214.36   11.93
  -2   6  -2  215.48   14.14
  -2   6  -2  237.33   17.36
  -2   6  -2  175.81   26.04
   2  -6   2  223.89   19.08
   2  -6   2  196.49   12.96
  -3   6  -2  126.95   14.17
   3  -6   2   83.54   12.95
   3  -6   2  103.64   17.23
  -4   6  -2   56.01   10.42
   4  -6   2   34.45   10.19
   4  -6   2   68.69   18.05
  -5   6  -2  166.99   18.11
   5  -6   2  167.96   24.52
   5  -6   2  150.61   25.02
   6  -6   2  -13.85   15.13
   6  -6   2   30.36   17.52
  -7   6  -2   41.56   14.47
   7  -6   2   60.28   25.80
   7  -6   2   73.12   21.42
   4   5  -2   88.00   19.20
   3   5  -2  104.54   16.74
  -3  -5   2  120.40   20.57
   2   5  -2   -0.23    9.06
  -2  -5   2  -11.61    7.33
   1   5  -2   91.03   15.26
   1   5  -2   66.94   11.15
  -1  -5   2   66.46   11.69
  -1  -5   2   66.06    7.86
   0   5  -2  107.01    8.24
   0   5  -2  104.65   11.81
   0   5  -2   80.60   15.00
   0   5  -2   84.10   10.48
   0  -5   2   78.26   12.90
   0  -5   2   95.04   10.68
   0  -5   2  100.20    9.51
   0  -5   2   92.00   10.50
  -1   5  -2 1237.27   41.24
  -1   5  -2 1258.91   30.27
  -1   5  -2 1204.03   30.47
  -1   5  -2 1221.76   36.41
   1  -5   2 1238.55   36.49
   1  -5   2 1221.50   31.25
   1  -5   2 1221.42   36.39
   1  -5   2 1241.85   28.89
  -2   5  -2  226.15   12.89
  -2   5  -2  224.26   14.89
  -2   5  -2  235.19   22.25
  -2   5  -2  230.13    9.71
   2  -5   2  237.64   17.17
   2  -5   2  214.50    9.74
   2  -5   2  235.79   16.73
   2  -5   2  239.43   12.82
  -3   5  -2  328.83   17.68
  -3   5  -2  292.60   16.39
  -3   5  -2  281.18   25.29
   3  -5   2  300.43   16.13
   3  -5   2  334.45   18.71
   3  -5   2  281.68   20.90
  -4   5  -2    8.75    6.00
   4  -5   2   22.64    8.70
   4  -5   2   -9.58    9.85
  -5   5  -2  214.47   18.53
   5  -5   2  220.56   23.76
   5  -5   2  228.01   23.70
  -6   5  -2  614.91   28.43
   6  -5   2  604.59   38.11
   6  -5   2  621.91   40.07
  -7   5  -2  286.58   25.12
   7  -5   2  346.50   38.41
   7  -5   2  242.13   38.91
   5   4  -2  -43.87   30.90
  -5  -4   2   50.24   23.14
   4   4  -2  538.36   33.65
   4   4  -2  549.26   21.77
  -4  -4   2  563.35   31.15
   3   4  -2  590.46   18.72
   3   4  -2  560.39   29.27
  -3  -4   2  574.28   28.40
  -3  -4   2  531.62   22.57
   2   4  -2   42.94    8.93
   2   4  -2   38.56    6.94
  -2  -4   2   55.30   10.91
   1   4  -2  315.01   15.13
   1   4  -2  313.08   17.07
   1   4  -2  307.99   11.56
   1   4  -2  297.83   16.30
  -1  -4   2  307.70   11.81
  -1  -4   2  322.37   19.55
  -1  -4   2  313.53   16.55
  -1  -4   2  302.35   11.60
   0   4  -2  989.38   29.18
   0   4  -2  961.26   26.81
   0   4  -2  964.58   29.66
   0   4  -2  960.96   22.93
   0  -4   2  945.76   26.20
   0  -4   2  932.37   27.02
   0  -4   2  965.94   22.35
   0  -4   2  925.99   29.54
  -1   4  -2 1084.64   25.55
  -1   4  -2 1087.23   30.24
  -1   4  -2 1075.91   26.71
  -1   4  -2 1126.99   36.03
   1  -4   2 1074.83   30.14
   1  -4   2 1041.43   31.39
   1  -4   2 1087.83   25.65
   1  -4   2 1087.46   26.02
  -2   4  -2  159.22    6.89
  -2   4  -2  167.62   17.37
  -2   4  -2  162.55   10.46
  -2   4  -2  159.28   10.79
   2  -4   2  159.01   13.74
   2  -4   2  155.93    6.15
   2  -4   2  143.44    9.99
   2  -4   2  163.69   11.94
  -3   4  -2    4.93    4.22
  -3   4  -2    4.01    4.18
  -3   4  -2    8.89    8.96
   3  -4   2    9.11    6.15
   3  -4   2    5.38    5.23
   3  -4   2   10.89    5.26
  -4   4  -2  100.81   10.69
   4  -4   2   94.20   16.34
   4  -4   2   90.37   12.96
  -5   4  -2   70.48   11.54
   5  -4   2   75.36   14.78
   5  -4   2  113.67   19.91
  -6   4  -2  207.81   17.36
   6  -4   2  193.26   29.55
   6  -4   2  197.32   28.68
  -7   4  -2  195.71   21.60
   7  -4   2  278.50   39.78
   7  -4   2  240.92   34.31
   5   3  -2  105.25   18.91
  -5  -3   2  111.17   16.68
   4   3  -2   65.52   12.36
   4   3  -2   98.24   17.84
  -4  -3   2   63.89   12.90
  -4  -3   2   68.81   13.29
   3   3  -2   34.98    7.80
   3   3  -2   37.26    5.86
  -3  -3   2   42.31    8.19
  -3  -3   2   54.68   10.85
   2   3  -2  327.24   12.19
   2   3  -2  314.32   17.97
   2   3  -2  314.25   16.77
  -2  -3   2  298.55   19.63
  -2  -3   2  328.87   17.51
   1   3  -2  511.98   14.37
   1   3  -2  512.53   15.77
   1   3  -2  494.07   19.26
   1   3  -2  499.82   18.64
  -1  -3   2  488.54   14.37
  -1  -3   2  519.50   20.52
  -1  -3   2  505.58   19.10
  -1  -3   2  495.34   13.28
   0   3  -2 1198.95   29.46
   0   3  -2 1256.59   25.94
   0   3  -2 1227.85   31.14
   0   3  -2 1095.28   31.03
   0  -3   2 1197.21   28.11
   0  -3   2 1185.28   28.19
   0  -3   2 1198.34   29.80
   0  -3   2 1203.44   25.01
  -1   3  -2    1.80    2.15
  -1   3  -2    3.07    2.97
  -1   3  -2    0.59    2.40
  -1   3  -2    4.41    4.36
   1  -3   2   -3.25    2.56
   1  -3   2    6.02    3.18
   1  -3   2    7.21    3.75
   1  -3   2    3.56    1.92
  -2   3  -2  921.08   24.43
  -2   3  -2  905.47   25.10
  -2   3  -2  937.08   33.52
   2  -3   2  935.86   24.55
   2  -3   2  933.68   31.42
   2  -3   2  898.09   24.46
  -3   3  -2  696.66   32.10
  -3   3  -2  682.68   21.48
  -3   3  -2  698.84   23.53
   3  -3   2  694.99   23.28
   3  -3   2  701.63   22.22
   3  -3   2  677.69   30.05
  -4   3  -2 1319.41   34.62
   4  -3   2 1305.01   36.64
   4  -3   2 1325.42   46.40
   4  -3   2 1137.44   32.61
   4  -3   2 1320.25   45.80
   4  -3   2 1333.91   36.48
   4  -3   2 1344.05   25.80
  -5   3  -2  602.47   24.50
   5  -3   2  581.04   35.18
   5  -3   2  641.81   22.53
   5  -3   2  613.37   19.93
   5  -3   2  672.18   35.54
  -6   3  -2   10.42    8.44
   6  -3   2   32.39   10.66
   6  -3   2   29.30   15.57
   6  -3   2   33.79   16.83
  -7   3  -2    8.55   12.59
   7  -3   2   -5.95   22.56
   7  -3   2   65.23   20.53
   6   2  -2   73.96   19.61
   6   2  -2   72.84   16.80
  -6  -2   2   50.52   15.73
   5   2  -2  432.98   30.31
   5   2  -2  464.49   24.52
  -5  -2   2  434.26   26.60
   4   2  -2  143.39   13.30
   4   2  -2  108.89   18.23
  -4  -2   2  144.64   14.36
  -4  -2   2   92.45   16.53
   3   2  -2  140.88    9.52
   3   2  -2  120.82   11.97
   3   2  -2  131.06   12.29
   3   2  -2  115.05   12.96
  -3  -2   2  125.61   11.79
  -3  -2   2  122.41   11.01
   2   2  -2 2888.58   50.02
   2   2  -2 2765.49   57.93
   2   2  -2 2769.27   56.66
  -2  -2   2 2783.39   55.00
  -2  -2   2 2820.22   60.54
  -2  -2   2 2840.34   57.35
   1   2  -2 1451.84   32.79
   1   2  -2 1506.05   28.61
   1   2  -2 1515.19   33.48
  -1  -2   2 1420.86   24.67
  -1  -2   2 1476.69   28.76
  -1  -2   2 1467.45   33.18
  -1  -2   2 1504.20   34.36
   0   2  -2   33.69    5.54
   0   2  -2   39.24    4.04
   0   2  -2   36.34    3.83
   0   2  -2   47.18    4.51
   0  -2   2   34.91    4.08
   0  -2   2   42.43    3.89
   0  -2   2   37.87    4.52
   0  -2   2   33.95    4.80
  -1   2  -2 1255.94   33.94
  -1   2  -2 1189.79   27.57
  -1   2  -2 1210.81   26.85
  -1   2  -2 1240.58   23.51
   1  -2   2 1202.15   22.77
   1  -2   2 1233.34   32.69
   1  -2   2 1235.85   24.98
   1  -2   2 1226.26   26.39
  -2   2  -2   22.20    4.02
  -2   2  -2   26.32    4.67
   2  -2   2   25.27    4.64
   2  -2   2   24.98    4.53
   2  -2   2   21.15    3.42
   2  -2   2   25.31    5.86
  -3   2  -2 1079.90   27.01
  -3   2  -2 1035.57   29.04
   3  -2   2 1050.11   30.54
   3  -2   2 1059.88   23.32
   3  -2   2 1053.40   25.89
   3  -2   2 1048.00   37.60
   3  -2   2 1052.12   29.13
   3  -2   2 1084.11   27.76
  -4   2  -2  579.52   21.68
   4  -2   2  548.93   17.96
   4  -2   2  566.35   30.51
   4  -2   2  545.35   21.69
   4  -2   2  538.22   23.07
   4  -2   2  547.31   22.16
   4  -2   2  578.18   28.42
   4  -2   2  527.62   21.21
  -5   2  -2  230.14   15.46
   5  -2   2  238.80   14.93
   5  -2   2  218.69   18.15
   5  -2   2  247.83   24.87
   5  -2   2  273.88   26.18
   6  -2   2  147.83   31.63
   6  -2   2   78.99   16.59
   6  -2   2   89.98   15.67
   7  -2   2   53.01   22.11
   7  -2   2   63.25   22.69
   7  -2   2   73.88   26.20
   6   1  -2  132.59   22.68
  -6  -1   2  147.52   20.70
   5   1  -2   12.35    9.16
   5   1  -2   17.20    5.20
   5   1  -2   14.78   11.28
   5   1  -2   17.03    6.20
  -5  -1   2   13.84   13.80
   4   1  -2   68.72    5.89
   4   1  -2   60.29    8.81
   4   1  -2   63.00    9.78
   4   1  -2   47.12    9.01
   4   1  -2   70.99   12.12
  -4  -1   2   59.18   10.54
  -4  -1   2   62.72   10.30
   3   1  -2  441.18   16.63
   3   1  -2  432.74   20.66
   3   1  -2  436.64   18.21
   3   1  -2  438.62   18.07
  -3  -1   2  420.97   17.80
  -3  -1   2  448.83   18.64
   2   1  -2 1484.98   32.21
   2   1  -2 1407.68   34.72
   2   1  -2 1451.72   30.31
   2   1  -2 1390.94   32.66
  -2  -1   2 1454.21   31.47
  -2  -1   2 1436.82   33.31
   1   1  -2 1419.97   22.98
   1   1  -2 1464.55   30.57
   1   1  -2 1430.35   31.97
   1   1  -2 1508.96   30.52
  -1  -1   2 1485.75   23.08
  -1  -1   2 1457.39   27.81
  -1  -1   2 1516.85   30.92
  -1  -1   2 1459.89   30.05
   0   1  -2  300.11    9.44
   0   1  -2  310.41   10.23
   0   1  -2  305.75    9.47
   0   1  -2  301.41    7.77
   0  -1   2  315.93    8.03
   0  -1   2  305.00    9.37
   0  -1   2  307.83    9.92
   0  -1   2  302.05    9.42
  -1   1  -2 2522.52   44.53
  -1   1  -2 2517.95   44.09
  -1   1  -2 2447.47   39.61
   1  -1   2 2519.88   43.55
   1  -1   2 2659.43   46.15
   1  -1   2 2496.98   39.98
   1  -1   2 2569.05   44.34
  -2   1  -2  513.06   16.59
  -2   1  -2  519.05   14.64
   2  -1   2  523.76   15.25
   2  -1   2  521.68   23.16
   2  -1   2  516.38   17.26
   2  -1   2  533.32   15.31
   2  -1   2  554.41   18.18
   2  -1   2  547.99   17.06
  -3   1  -2  788.85   22.45
   3  -1   2  789.69   25.19
   3  -1   2  798.44   26.59
   3  -1   2  809.35   32.52
   3  -1   2  805.70   23.46
   3  -1   2  780.99   23.81
   3  -1   2  806.73   22.61
   4  -1   2  582.48   23.13
   4  -1   2  587.97   27.83
   4  -1   2  574.56   31.33
   4  -1   2  573.19   22.85
   4  -1   2  569.42   23.87
   4  -1   2  600.64   22.09
   4  -1   2  585.99   26.85
   5  -1   2   39.17   11.10
   5  -1   2   27.40   12.19
   5  -1   2   42.44    9.78
   5  -1   2   32.58   14.83
   6  -1   2  142.21   27.36
   6  -1   2   96.91   24.41
   6  -1   2  100.55   19.49
   6  -1   2  158.02   29.78
   7   0  -2   67.85   17.31
   7   0  -2   57.89   20.83
   6   0  -2  499.71   23.61
   6   0  -2  502.01   30.93
   6   0  -2  540.33   35.55
  -6   0   2  525.23   26.71
   5   0  -2  527.09   23.69
   5   0  -2  585.27   26.66
   5   0  -2  551.41   30.38
   5   0  -2  542.05   18.59
   5   0  -2  584.54   21.63
  -5   0   2  495.55   28.23
  -5   0   2  581.74   25.38
   4   0  -2  599.99   18.91
   4   0  -2  604.51   22.46
   4   0  -2  640.73   24.15
   4   0  -2  615.11   27.39
   4   0  -2  609.89   23.75
  -4   0   2  569.57   25.38
  -4   0   2  624.69   22.72
   3   0  -2  601.47   16.43
   3   0  -2  636.21   20.91
   3   0  -2  583.64   19.75
   3   0  -2  608.21   19.74
  -3   0   2  613.27   18.51
  -3   0   2  641.40   20.51
  -3   0   2  605.34   21.66
  -3   0   2  613.70   20.07
   2   0  -2  755.20   19.02
   2   0  -2  697.23   15.72
   2   0  -2  742.74   19.65
   2   0  -2  713.47   19.26
  -2   0   2  732.49   19.46
  -2   0   2  712.22   18.57
  -2   0   2  696.89   16.49
  -2   0   2  737.11   20.25
   1   0  -2   64.88    4.51
   1   0  -2   71.22    4.00
   1   0  -2   75.41    5.45
   1   0  -2   63.23    3.96
  -1   0   2   62.06    4.55
  -1   0   2   68.15    4.10
  -1   0   2   67.70    3.88
  -1   0   2   68.53    4.98
   0   0  -2  236.71    7.63
   0   0  -2  245.95    9.90
   0   0  -2  246.30    8.92
   0   0   2  236.68    9.41
   0   0   2  245.02    8.92
   0   0   2  246.13    7.80
  -1   0  -2 1898.49   38.75
  -1   0  -2 1961.99   38.31
  -1   0  -2 2051.19   42.13
   1   0   2 2036.84   33.52
   1   0   2 2045.13   35.79
   1   0   2 2031.40   38.64
   1   0   2 1999.47   35.32
   1   0   2 1967.50   40.96
  -2   0  -2  519.48   17.81
  -2   0  -2  507.03   15.76
   2   0   2  495.61   18.36
   2   0   2  517.96   20.73
   2   0   2  519.24   17.95
   2   0   2  573.78   17.02
   2   0   2  530.25   17.89
   2   0   2  537.79   17.54
   3   0   2   70.70    8.62
   3   0   2   85.24   10.91
   3   0   2   76.08   10.43
   3   0   2   87.96    9.33
   3   0   2   69.70   11.68
   3   0   2   67.20   12.79
   3   0   2   80.47    9.29
   3   0   2   73.01    8.29
   4   0   2  192.64   15.46
   4   0   2  195.90   14.91
   4   0   2  208.12   19.06
   4   0   2  183.43   19.86
   4   0   2  215.23   22.07
   4   0   2  213.66   18.21
   4   0   2  188.88   15.85
   4   0   2  212.53   15.22
   5   0   2  348.86   31.89
   5   0   2  425.98   27.62
   5   0   2  346.12   27.60
   6   0   2  121.55   25.73
   6   0   2  151.46   23.89
   6   0   2  161.18   28.56
   6   0   2  146.81   22.60
   7  -1  -2   22.13   14.84
   7  -1  -2  -12.84   17.64
   7  -1  -2   -9.29   14.76
  -7   1   2   -5.22   10.92
   6  -1  -2   62.39   13.75
   6  -1  -2   79.39   14.77
   6  -1  -2   66.80   12.02
  -6   1   2   84.54   13.33
   5  -1  -2  859.80   29.05
   5  -1  -2  849.92   32.03
   5  -1  -2  807.15   27.57
  -5   1   2  878.25   27.91
  -5   1   2  778.76   31.62
  -5   1   2  820.62   29.68
  -5   1   2  861.09   37.79
   4  -1  -2  766.29   24.38
   4  -1  -2  755.83   23.44
   4  -1  -2  744.16   25.71
   4  -1  -2  779.72   26.95
  -4   1   2  784.49   23.78
  -4   1   2  722.50   29.24
  -4   1   2  750.37   24.82
  -4   1   2  782.95   27.10
   3  -1  -2  740.12   21.80
   3  -1  -2  697.00   22.58
   3  -1  -2  713.43   20.69
   3  -1  -2  691.41   20.77
  -3   1   2  731.29   22.39
  -3   1   2  744.04   21.59
  -3   1   2  700.45   23.95
  -3   1   2  703.06   19.71
   2  -1  -2  143.00    7.75
   2  -1  -2  134.42    7.86
   2  -1  -2  148.72    7.48
   2  -1  -2  145.82    7.70
  -2   1   2  146.43    8.75
  -2   1   2  131.28    7.22
  -2   1   2  153.82    8.33
  -2   1   2  145.63    7.42
   1  -1  -2 1281.27   27.01
   1  -1  -2 1278.21   23.66
   1  -1  -2 1250.95   24.01
   1  -1  -2 1254.77   26.71
  -1   1   2 1124.01   28.79
  -1   1   2 1295.58   26.93
  -1   1   2 1243.67   23.54
  -1   1   2 1287.15   24.66
   0  -1  -2 2956.67   47.36
   0  -1  -2 3000.41   51.54
   0  -1  -2 2945.26   55.67
   0  -1  -2 2946.09   45.62
   0   1   2 2904.79   47.06
   0   1   2 2986.95   45.62
   0   1   2 3100.51   51.73
   0   1   2 2939.99   55.23
  -1  -1  -2  754.81   20.48
  -1  -1  -2  723.25   20.22
  -1  -1  -2  693.99   15.90
   1   1   2  733.28   16.13
   1   1   2  713.77   19.06
   1   1   2  730.55   24.90
   1   1   2  700.61   22.82
   1   1   2  736.43   21.49
  -2  -1  -2  967.05   26.59
   2   1   2  996.98   27.16
   2   1   2  959.70   27.13
   2   1   2  974.54   27.51
   2   1   2 1001.58   29.03
   2   1   2  977.63   33.79
   2   1   2 1008.54   25.97
   2   1   2 1000.57   23.03
  -3  -1  -2  472.28   19.11
   3   1   2  507.32   27.54
   3   1   2  517.00   22.23
   3   1   2  484.78   20.17
   3   1   2  479.19   21.76
   3   1   2  474.96   17.74
   3   1   2  472.96   19.90
   3   1   2  486.77   21.42
   4   1   2   36.40   13.22
   4   1   2   32.80   13.07
   4   1   2   32.28    9.35
   4   1   2   48.94    9.90
   4   1   2   35.87    8.51
   5   1   2   29.93   18.64
   5   1   2   38.41   13.29
   5   1   2   28.87   16.58
   6   1   2   12.73   24.56
   6   1   2   60.50   23.51
   6   1   2   52.66   18.70
   7  -2  -2  520.51   32.52
   7  -2  -2  462.18   32.48
  -7   2   2  496.07   24.08
  -7   2   2  440.81   28.20
   6  -2  -2  138.54   18.59
   6  -2  -2  165.69   16.55
   6  -2  -2  183.50   19.78
  -6   2   2  143.46   13.32
  -6   2   2  162.36   16.64
  -6   2   2  113.29   18.04
   5  -2  -2   40.65    9.01
   5  -2  -2   41.28    9.56
  -5   2   2   42.60    7.40
  -5   2   2   42.11   11.00
  -5   2   2   47.84    8.21
   4  -2  -2  142.95    9.93
   4  -2  -2  140.58   11.75
   4  -2  -2  139.10   12.08
   4  -2  -2  142.47   11.73
  -4   2   2  134.92   11.06
  -4   2   2  158.47   14.31
  -4   2   2  152.09    9.02
  -4   2   2  140.30   15.58
   3  -2  -2  181.03   10.55
   3  -2  -2  182.77   11.31
   3  -2  -2  179.11   11.41
   3  -2  -2  181.94    9.43
  -3   2   2  179.82   12.70
  -3   2   2  182.41    8.65
  -3   2   2  196.25   12.36
  -3   2   2  170.93   10.23
   2  -2  -2 2358.00   44.44
   2  -2  -2 2253.90   46.33
   2  -2  -2 2331.45   43.80
  -2   2   2 2326.26   47.90
  -2   2   2 2275.95   43.70
  -2   2   2 2354.54   45.87
  -2   2   2 2405.03   43.15
   1  -2  -2   14.72    2.78
   1  -2  -2   18.20    3.90
   1  -2  -2   25.71    4.28
   1  -2  -2   13.08    3.52
  -1   2   2   24.43    4.49
  -1   2   2   19.23    3.36
  -1   2   2   15.50    3.05
   0  -2  -2   45.70    5.53
   0  -2  -2   55.12    5.76
   0   2   2   40.21    5.10
   0   2   2   48.31    7.41
   0   2   2   45.87    5.77
   0   2   2   48.91    6.30
  -1  -2  -2  588.79   19.14
  -1  -2  -2  580.94   20.21
   1   2   2  598.66   19.86
   1   2   2  579.26   20.96
   1   2   2  598.63   25.45
   1   2   2  596.56   19.59
  -2  -2  -2 1003.66   28.45
  -2  -2  -2  987.31   32.67
   2   2   2 1015.49   28.77
   2   2   2 1042.25   25.10
   2   2   2 1040.01   22.20
   2   2   2 1058.39   39.42
   2   2   2 1033.98   32.33
   2   2   2 1012.69   30.82
  -3  -2  -2  594.68   22.33
   3   2   2  565.57   32.49
   3   2   2  609.33   26.46
   3   2   2  601.27   18.71
   3   2   2  586.90   21.42
   3   2   2  567.59   23.26
   3   2   2  584.60   24.50
   4   2   2  142.40   20.02
   4   2   2  143.67   16.20
   4   2   2  160.71   15.46
   4   2   2  123.93   25.58
   4   2   2  104.55   13.85
   5   2   2   16.75   15.49
   5   2   2    3.37   21.63
   5   2   2   31.64   20.69
   8  -3  -2  136.82   22.83
   8  -3  -2  149.53   26.20
  -8   3   2  163.97   26.93
   7  -3  -2  324.44   27.72
   7  -3  -2  326.00   29.25
  -7   3   2  280.71   17.14
  -7   3   2  263.24   22.71
   6  -3  -2  262.89   23.54
   6  -3  -2  224.58   21.40
   6  -3  -2  250.21   17.49
  -6   3   2  280.32   19.74
  -6   3   2  279.92   14.13
   5  -3  -2   14.52    5.53
   5  -3  -2    9.27    7.53
   5  -3  -2    5.30    6.89
  -5   3   2    1.75    4.00
  -5   3   2  -12.01   10.10
  -5   3   2    7.97    5.49
   4  -3  -2  608.62   18.44
   4  -3  -2  567.20   24.11
   4  -3  -2  577.98   22.97
   4  -3  -2  625.43   25.36
  -4   3   2  577.98   16.46
  -4   3   2  584.46   22.32
  -4   3   2  613.45   27.76
  -4   3   2  577.32   26.78
   3  -3  -2 1284.65   34.01
   3  -3  -2 1253.10   32.60
   3  -3  -2 1260.61   35.59
   3  -3  -2 1291.71   29.45
  -3   3   2 1264.66   37.24
  -3   3   2 1282.51   28.10
  -3   3   2 1254.99   36.22
  -3   3   2 1275.74   32.90
   2  -3  -2 2746.55   57.01
   2  -3  -2 2720.79   53.57
   2  -3  -2 2761.08   50.49
   2  -3  -2 2690.79   52.90
  -2   3   2 2689.57   53.10
  -2   3   2 2795.17   58.60
  -2   3   2 2824.95   54.14
  -2   3   2 2751.73   52.24
   1  -3  -2  468.72   17.13
   1  -3  -2  469.46   18.26
  -1   3   2  466.09   18.95
  -1   3   2  453.69   16.87
  -1   3   2  456.64   16.35
  -1   3   2  463.82   13.86
  -1   3   2  455.88   19.03
   0  -3  -2   67.42    8.16
   0  -3  -2   60.64    6.98
   0   3   2   43.92    7.78
   0   3   2   52.92    7.16
   0   3   2   58.68    7.44
   0   3   2   60.38    9.93
  -1  -3  -2  489.10   21.10
  -1  -3  -2  483.02   18.89
   1   3   2  480.60   19.99
   1   3   2  497.71   26.34
   1   3   2  497.95   21.48
   1   3   2  500.94   20.58
  -2  -3  -2  263.80   15.22
  -2  -3  -2  296.92   20.28
   2   3   2  286.03   18.06
   2   3   2  278.19   16.58
   2   3   2  294.26   24.19
  -3  -3  -2   46.81    8.19
   3   3   2   36.33   10.46
   3   3   2   39.99   14.68
   3   3   2   60.86   11.82
   4   3   2  195.96   32.64
   4   3   2  209.97   25.57
   8  -4  -2  285.23   35.19
   8  -4  -2  335.70   40.12
  -8   4   2  272.35   31.03
   7  -4  -2   30.98   15.85
   7  -4  -2   34.64   15.70
  -7   4   2   43.00   12.27
  -7   4   2   58.41   12.01
   6  -4  -2   52.94   13.10
   6  -4  -2   41.24   11.89
  -6   4   2   50.25    8.54
  -6   4   2   50.24    9.81
   5  -4  -2   82.40    9.16
   5  -4  -2   86.45   14.58
   5  -4  -2   68.88   11.69
  -5   4   2   66.10   11.78
  -5   4   2   86.01    6.80
   4  -4  -2  132.01   14.17
   4  -4  -2   96.41   12.27
   4  -4  -2  115.12   11.80
   4  -4  -2  120.74    9.30
  -4   4   2  137.44    7.27
  -4   4   2  105.22   11.14
  -4   4   2  102.45   15.78
   3  -4  -2  427.98   18.35
   3  -4  -2  437.51   21.06
   3  -4  -2  442.35   19.20
   3  -4  -2  435.07   17.52
  -3   4   2  434.68   19.31
  -3   4   2  442.52   15.32
  -3   4   2  409.14   23.00
   2  -4  -2    4.37    3.62
   2  -4  -2   10.95    5.21
   2  -4  -2    3.11    3.18
   2  -4  -2   -1.73    3.75
  -2   4   2    2.82    3.24
  -2   4   2    4.81    4.13
  -2   4   2   -7.88    5.72
  -2   4   2    4.02    3.96
   1  -4  -2 1121.08   33.02
   1  -4  -2 1086.95   31.62
  -1   4   2 1117.54   35.54
  -1   4   2 1115.88   32.26
  -1   4   2 1072.16   30.21
  -1   4   2 1080.74   34.63
   0  -4  -2 1403.75   37.78
   0  -4  -2 1429.86   39.46
   0   4   2 1392.89   38.36
   0   4   2 1388.94   39.69
   0   4   2 1422.57   46.08
   0   4   2 1438.96   39.45
  -1  -4  -2  257.05   28.02
  -1  -4  -2  223.89   14.74
   1   4   2  256.57   22.70
   1   4   2  229.13   17.85
   1   4   2  274.88   17.37
  -2  -4  -2   28.16    7.21
   2   4   2   27.72   10.92
   2   4   2   46.60   13.35
   2   4   2   33.14   10.31
  -3  -4  -2   75.47   15.17
   3   4   2   62.76   13.95
   4   4   2  225.01   30.68
   4   4   2  189.78   30.98
   8  -5  -2   17.39   21.70
   7  -5  -2  148.12   29.71
   7  -5  -2  138.33   21.05
  -7   5   2  121.89   22.53
   6  -5  -2  180.95   23.87
   6  -5  -2  120.40   19.85
  -6   5   2  150.04   18.49
   5  -5  -2 1027.42   38.14
   5  -5  -2 1012.53   39.79
  -5   5   2 1009.04   36.00
   4  -5  -2  202.98   18.71
   4  -5  -2  224.52   16.04
   4  -5  -2  235.57   14.40
  -4   5   2  211.57   11.20
  -4   5   2  217.38    9.86
  -4   5   2  214.87   16.02
   3  -5  -2  296.55   19.10
   3  -5  -2  240.41   14.42
   3  -5  -2  257.76   13.21
  -3   5   2  268.03   17.20
  -3   5   2  252.96   12.20
  -3   5   2  255.22   33.24
  -3   5   2  254.58   13.46
   2  -5  -2   14.77    7.62
   2  -5  -2   33.28    6.27
   2  -5  -2   23.90    4.63
   2  -5  -2   31.20    7.72
  -2   5   2   18.78    6.31
  -2   5   2   12.35    5.46
  -2   5   2   17.37   10.11
   1  -5  -2  430.77   21.88
  -1   5   2  404.38   19.57
  -1   5   2  427.78   21.89
  -1   5   2  413.68   25.08
  -1   5   2  423.32   24.40
   0  -5  -2  457.28   21.99
   0   5   2  490.13   28.94
   0   5   2  456.10   23.66
   0   5   2  383.94   24.24
  -1  -5  -2    8.86    6.81
   1   5   2   20.53    9.39
   1   5   2   33.62   13.66
  -2  -5  -2   86.55   12.05
   2   5   2  120.76   20.64
   2   5   2   85.58   19.22
   3   5   2  277.62   30.07
   3   5   2  209.43   41.61
   7  -6  -2   -1.93   15.60
   7  -6  -2   16.77   16.81
  -7   6   2   49.91   14.15
   6  -6  -2   55.06   13.53
   6  -6  -2   67.91   15.29
  -6   6   2   79.66   14.14
   5  -6  -2  314.36   26.25
  -5   6   2  347.10   22.36
   4  -6  -2  319.04   19.32
   4  -6  -2  342.06   23.00
   4  -6  -2  312.44   17.89
  -4   6   2  318.59   14.51
  -4   6   2  326.25   13.32
  -4   6   2  308.50   21.13
   3  -6  -2   31.64    7.35
   3  -6  -2   20.70    6.12
   3  -6  -2   14.92    8.59
  -3   6   2   26.14    6.98
  -3   6   2   31.30    8.61
  -3   6   2   26.71    6.19
   2  -6  -2  511.20   32.50
  -2   6   2  502.41   21.92
  -2   6   2  528.40   26.07
  -2   6   2  527.88   26.44
   1  -6  -2  312.09   20.64
  -1   6   2  363.34   26.49
  -1   6   2  321.36   21.74
   0  -6  -2   23.08    8.36
   0   6   2   44.63   13.15
   0   6   2   23.71   10.87
  -1  -6  -2  130.48   21.66
   1   6   2  197.49   23.25
   1   6   2  192.64   33.17
   2   6   2  186.02   29.45
   2   6   2  177.06   28.26
   7  -7  -2    5.75   18.55
   7  -7  -2   -8.49   16.66
  -7   7   2   -2.05   26.50
   6  -7  -2  179.35   25.59
   6  -7  -2  211.99   28.57
  -6   7   2  234.96   24.53
   5  -7  -2   22.96   11.79
   5  -7  -2   27.78   12.16
  -5   7   2   38.25   12.45
   4  -7  -2  382.31   21.33
   4  -7  -2  427.70   21.64
   4  -7  -2  427.38   29.62
  -4   7   2  439.88   27.01
  -4   7   2  415.76   19.07
   3  -7  -2   60.21   11.22
   3  -7  -2   66.45   13.77
  -3   7   2   56.73   10.60
  -3   7   2   46.18   11.11
   2  -7  -2   95.43   18.37
  -2   7   2  133.09   21.38
  -2   7   2  110.51   19.53
   1  -7  -2   19.78   10.12
  -1   7   2    0.09   14.14
  -1   7   2    6.96   11.63
   0  -7  -2  -13.52   11.38
   0   7   2  -12.20   12.55
   0   7   2    3.95   18.70
   6  -8  -2  172.23   28.06
   5  -8  -2  114.25   21.55
   5  -8  -2   81.15   15.50
  -5   8   2   65.30   15.01
   4  -8  -2   17.26   14.09
  -4   8   2   37.81   14.02
   3  -8  -2  355.72   29.60
  -3   8   2  294.41   26.10
  -3   8   2  364.40   29.32
   2  -8  -2  145.42   22.64
  -2   8   2  145.45   20.18
  -2   8   2  174.84   25.86
   0   8  -3   18.29   15.19
   0  -8   3   33.10   15.79
  -1   8  -3  242.01   26.14
   1  -8   3  263.67   24.07
   1  -8   3  241.46   22.77
  -2   8  -3   89.99   15.85
  -2   8  -3  150.60   25.74
   2  -8   3  111.49   21.21
  -3   8  -3   72.58   13.42
   3  -8   3   75.20   16.57
   3  -8   3   82.99   16.29
  -4   8  -3   -5.34   11.98
   4  -8   3  -22.66   14.91
   4  -8   3   12.29   16.97
  -5   8  -3   99.64   17.90
   5  -8   3  127.77   25.45
  -2  -7   3   30.73   15.20
   1   7  -3  183.94   24.84
  -1  -7   3  174.41   23.54
   0   7  -3  192.36   22.61
   0   7  -3  209.42   16.29
   0  -7   3  206.58   16.32
   0  -7   3  204.87   19.63
  -1   7  -3  323.45   17.65
  -1   7  -3  332.67   23.69
  -1   7  -3  271.05   19.58
   1  -7   3  331.54   21.62
   1  -7   3  310.37   19.86
  -2   7  -3    3.23    8.40
  -2   7  -3   -4.22    7.31
  -2   7  -3    7.83    7.77
   2  -7   3   -2.85   10.12
   2  -7   3   -4.72    6.81
   2  -7   3   25.29    8.49
  -3   7  -3   90.37   13.66
  -3   7  -3  109.09   16.02
   3  -7   3   66.10   13.37
  -4   7  -3  364.40   23.72
   4  -7   3  350.61   31.22
   4  -7   3  377.54   29.52
  -5   7  -3  101.28   14.73
   5  -7   3  117.08   20.62
  -6   7  -3  644.93   34.47
   6  -7   3  522.71   47.91
   6  -7   3  561.18   41.85
   3   6  -3   77.43   17.00
  -3  -6   3   74.81   17.54
   2   6  -3   51.98   12.41
  -2  -6   3   54.46   13.38
   1   6  -3  398.43   26.82
   1   6  -3  427.94   17.11
  -1  -6   3  385.70   16.24
  -1  -6   3  413.39   25.33
   0   6  -3  448.76   18.11
   0   6  -3  440.73   29.89
   0   6  -3  419.39   24.22
   0  -6   3  434.67   16.76
   0  -6   3  408.23   21.92
   0  -6   3  411.09   18.91
  -1   6  -3   51.47   15.39
  -1   6  -3   47.24   11.54
  -1   6  -3   46.70    7.39
  -1   6  -3   58.89   10.61
   1  -6   3   53.81    9.88
   1  -6   3   52.34    9.65
   1  -6   3   71.79   10.31
  -2   6  -3   15.17    7.16
  -2   6  -3   25.29    7.42
   2  -6   3   19.14    9.15
   2  -6   3   12.72    4.59
   2  -6   3   18.14    6.98
  -3   6  -3   13.60    7.26
  -3   6  -3   12.87    6.66
  -4   6  -3  325.95   20.16
   4  -6   3  283.25   27.06
  -5   6  -3  167.03   18.09
   5  -6   3  175.39   28.39
   5  -6   3  181.11   25.86
  -6   6  -3   90.90   12.96
   6  -6   3  112.83   24.16
   6  -6   3   81.71   21.52
   4   5  -3   98.32   19.90
  -4  -5   3   90.47   16.30
   3   5  -3   27.66    7.67
   3   5  -3   52.74   13.43
  -3  -5   3   23.42   11.11
   2   5  -3  354.16   23.43
   2   5  -3  321.31   14.86
  -2  -5   3  312.67   16.35
  -2  -5   3  346.53   22.00
   1   5  -3  130.97   14.39
   1   5  -3  147.75   11.01
  -1  -5   3  130.32    9.07
  -1  -5   3  142.23   13.55
  -1  -5   3  133.86   10.52
   0   5  -3  338.56   22.24
   0   5  -3  276.32   15.59
   0   5  -3  316.36   18.45
   0   5  -3  306.10   14.75
   0  -5   3  321.46   13.72
   0  -5   3  316.32   15.68
   0  -5   3  296.79   20.35
   0  -5   3  321.36   17.21
  -1   5  -3  316.03   24.03
  -1   5  -3  303.89   15.56
  -1   5  -3  315.27   14.30
  -1   5  -3  308.62   17.24
   1  -5   3  315.92   14.38
   1  -5   3  310.07   18.03
   1  -5   3  308.32   18.22
   1  -5   3  313.44   14.10
  -2   5  -3  929.14   29.10
  -2   5  -3  913.81   40.58
  -2   5  -3  972.36   31.06
  -2   5  -3  949.43   23.38
   2  -5   3  915.42   34.74
   2  -5   3  907.24   27.68
   2  -5   3  917.94   22.02
   2  -5   3  928.31   30.88
  -3   5  -3  407.45   19.45
  -3   5  -3  375.84   18.88
   3  -5   3  393.70   25.71
   3  -5   3  348.32   18.67
   3  -5   3  407.81   21.92
  -4   5  -3    4.37    6.48
   4  -5   3    4.46    9.95
  -5   5  -3  791.43   33.23
   5  -5   3  767.04   41.85
   5  -5   3  760.94   41.13
  -6   5  -3   30.66   10.09
   6  -5   3   11.81   17.68
   6  -5   3  -21.99   18.38
  -7   5  -3  199.74   24.00
   7  -5   3  239.82   41.85
   5   4  -3   65.80   19.49
  -5  -4   3   86.36   16.85
   4   4  -3  442.80   32.34
   4   4  -3  455.05   21.74
  -4  -4   3  460.69   29.13
   3   4  -3  378.55   24.85
   3   4  -3  385.49   17.00
  -3  -4   3  364.00   19.59
  -3  -4   3  375.04   22.97
   2   4  -3  234.78   11.96
   2   4  -3  247.64   18.25
  -2  -4   3  227.85   16.79
  -2  -4   3  251.15   13.78
   1   4  -3   20.06    5.79
   1   4  -3    6.71    6.16
   1   4  -3    5.87    5.37
  -1  -4   3    4.40    6.86
  -1  -4   3    7.64    4.61
  -1  -4   3    6.51    4.06
   0   4  -3   18.01    4.80
   0   4  -3   16.08    5.06
   0   4  -3   24.40    5.05
   0   4  -3   12.41    6.79
   0  -4   3   23.11    4.83
   0  -4   3   20.11    4.53
   0  -4   3   20.54    4.10
   0  -4   3   20.07    6.45
  -1   4  -3  441.63   17.16
  -1   4  -3  436.37   23.43
  -1   4  -3  431.48   17.49
   1  -4   3  434.01   18.18
   1  -4   3  457.41   15.42
   1  -4   3  436.96   20.82
   1  -4   3  424.00   16.12
  -2   4  -3   72.71    5.99
  -2   4  -3   65.06    7.87
  -2   4  -3   80.26   15.62
  -2   4  -3   70.92    8.51
   2  -4   3   72.52    9.87
   2  -4   3   70.38    8.75
   2  -4   3   63.68    5.12
   2  -4   3   66.57   11.91
  -3   4  -3  769.94   24.66
  -3   4  -3  730.48   26.28
  -3   4  -3  663.94   36.13
   3  -4   3  748.16   26.04
   3  -4   3  783.63   34.19
   3  -4   3  730.31   25.07
  -4   4  -3  133.64   11.49
  -4   4  -3  117.82   13.52
   4  -4   3  144.28   14.81
  -5   4  -3  195.83   15.85
   5  -4   3  206.90   24.47
   5  -4   3  169.92   25.23
  -6   4  -3  343.38   21.86
   6  -4   3  367.55   38.45
   6  -4   3  312.98   34.33
  -7   4  -3    7.23   12.98
   7  -4   3   32.67   25.05
   7  -4   3   64.29   23.76
   5   3  -3  103.26   18.55
   5   3  -3  130.18   24.81
  -5  -3   3  142.50   22.26
   4   3  -3  227.57   15.99
   4   3  -3  241.95   22.00
  -4  -3   3  236.36   20.73
  -4  -3   3  215.57   20.45
   3   3  -3  527.29   25.82
   3   3  -3  537.02   20.02
  -3  -3   3  534.49   21.64
  -3  -3   3  564.11   25.58
   2   3  -3  290.81   15.85
   2   3  -3  287.04   16.73
   2   3  -3  301.84   12.84
  -2  -3   3  284.61   13.30
  -2  -3   3  281.92   16.07
  -2  -3   3  298.14   20.02
   1   3  -3  659.64   22.37
   1   3  -3  679.10   18.87
   1   3  -3  648.57   22.03
  -1  -3   3  633.94   16.58
  -1  -3   3  658.91   22.43
  -1  -3   3  662.42   19.07
  -1  -3   3  650.04   23.26
  -1  -3   3  635.88   15.44
   0   3  -3  709.28   20.61
   0   3  -3  690.39   19.72
   0   3  -3  687.35   20.58
   0  -3   3  730.80   21.87
   0  -3   3  711.89   20.88
   0  -3   3  716.17   19.56
   0  -3   3  695.15   21.92
  -1   3  -3  658.16   20.47
  -1   3  -3  647.38   19.08
  -1   3  -3  667.53   27.82
  -1   3  -3  654.58   18.30
   1  -3   3  666.38   17.45
   1  -3   3  650.02   19.19
   1  -3   3  663.52   19.84
   1  -3   3  641.08   25.05
  -2   3  -3  264.58   13.78
  -2   3  -3  244.68   11.11
  -2   3  -3  251.85    9.89
   2  -3   3  269.64   12.20
   2  -3   3  261.28   18.40
   2  -3   3  265.25    9.35
  -3   3  -3  347.43   14.68
  -3   3  -3  349.87   17.00
   3  -3   3  352.54   18.81
   3  -3   3  357.13   17.45
   3  -3   3  349.30   15.75
   3  -3   3  345.20   10.99
   3  -3   3  358.12   23.74
  -4   3  -3 2176.18   47.90
  -4   3  -3 2197.60   53.33
   4  -3   3 2095.34   40.38
   4  -3   3 2140.07   43.28
   4  -3   3 2062.61   48.97
   4  -3   3 2167.95   65.76
  -5   3  -3   97.68   12.23
   5  -3   3   99.30   11.72
   5  -3   3   83.74   17.82
   5  -3   3  126.79   22.15
   5  -3   3  104.65   13.04
  -6   3  -3    6.73    9.16
   6  -3   3   40.11   20.03
   6  -3   3   15.02   11.10
   6  -3   3   29.42   18.49
   7  -3   3   72.44   27.50
   7  -3   3   14.99   22.94
   6   2  -3  268.67   33.64
   6   2  -3  262.24   26.12
  -6  -2   3  273.47   28.19
   5   2  -3  291.33   26.84
   5   2  -3  381.53   21.69
  -5  -2   3  318.77   23.66
   4   2  -3   -5.06    5.80
   4   2  -3   -7.07    7.98
  -4  -2   3   11.18    8.95
   3   2  -3   21.73    5.88
   3   2  -3   26.37    6.31
   3   2  -3   21.49    5.68
   3   2  -3   18.97    6.95
  -3  -2   3   19.53    6.07
  -3  -2   3   26.49    6.54
   2   2  -3  358.58   16.39
   2   2  -3  339.93   15.74
   2   2  -3  347.71   13.65
  -2  -2   3  334.80   16.07
  -2  -2   3  360.52   14.22
  -2  -2   3  348.86   18.10
   1   2  -3 1634.38   34.96
   1   2  -3 1636.53   36.22
   1   2  -3 1615.88   32.79
  -1  -2   3 1573.09   35.65
  -1  -2   3 1604.05   36.80
  -1  -2   3 1535.85   31.09
  -1  -2   3 1627.37   28.45
  -1  -2   3 1608.73   33.65
   0   2  -3  201.11    9.37
   0   2  -3  188.56    9.65
   0   2  -3  201.40    8.39
   0  -2   3  206.32    9.61
   0  -2   3  199.16   11.65
   0  -2   3  169.75   10.18
   0  -2   3  205.50    8.86
   0  -2   3  202.96    9.27
  -1   2  -3  548.72   15.96
  -1   2  -3  469.14   15.03
  -1   2  -3  536.96   17.11
   1  -2   3  561.82   23.16
   1  -2   3  519.43   15.66
   1  -2   3  546.06   17.10
   1  -2   3  541.12   17.63
   1  -2   3  562.28   14.51
  -2   2  -3 1619.45   37.41
  -2   2  -3 1586.45   31.75
  -2   2  -3 1613.41   34.99
   2  -2   3 1615.86   36.86
   2  -2   3 1572.41   37.98
   2  -2   3 1617.32   33.40
   2  -2   3 1589.38   31.97
   2  -2   3 1604.21   47.33
  -3   2  -3  808.60   22.44
  -3   2  -3  806.45   25.91
   3  -2   3  810.91   27.76
   3  -2   3  783.20   25.76
   3  -2   3  816.55   35.44
   3  -2   3  790.43   23.22
   3  -2   3  835.56   24.77
  -4   2  -3  895.86   26.98
   4  -2   3  886.19   41.13
   4  -2   3  872.85   25.89
   4  -2   3  814.01   29.83
   4  -2   3  855.64   29.16
   4  -2   3  817.30   30.85
   4  -2   3  832.13   27.43
  -5   2  -3  229.21   16.02
   5  -2   3  195.20   28.00
   5  -2   3  225.69   16.78
   5  -2   3  241.38   20.23
   5  -2   3  256.72   26.10
   6  -2   3   18.18   16.69
   6  -2   3    3.23   17.59
   6  -2   3  -22.05   21.02
   6  -2   3   34.46   15.56
   7   1  -3  274.38   32.91
  -7  -1   3  212.92   28.40
   6   1  -3  275.16   30.72
   6   1  -3  275.01   25.13
  -6  -1   3  326.49   24.30
   5   1  -3  266.46   24.41
   5   1  -3  270.10   19.78
  -5  -1   3  206.57   26.97
   4   1  -3  146.15   13.21
   4   1  -3  157.09   13.12
   4   1  -3  137.61   16.02
   4   1  -3  129.21   13.46
  -4  -1   3  109.43   14.77
  -4  -1   3  148.22   13.56
   3   1  -3  341.70   18.30
   3   1  -3  338.67   15.70
   3   1  -3  334.72   16.47
   3   1  -3  333.92   14.97
  -3  -1   3  372.39   17.18
  -3  -1   3  343.10   16.40
   2   1  -3 1734.45   39.55
   2   1  -3 1759.44   36.30
   2   1  -3 1746.22   38.92
   2   1  -3 1751.27   35.99
  -2  -1   3 1696.87   38.52
  -2  -1   3 1783.55   37.33
   1   1  -3 2380.49   46.34
   1   1  -3 2278.42   38.96
  -1  -1   3 2334.34   42.44
  -1  -1   3 2343.46   39.03
  -1  -1   3 2292.67   44.43
  -1  -1   3 2319.01   42.92
   0   1  -3  970.39   16.86
   0   1  -3  945.59   22.08
   0   1  -3  974.28   22.85
   0   1  -3  963.32   23.40
   0  -1   3  945.35   17.17
   0  -1   3  972.37   22.25
   0  -1   3  993.90   22.95
   0  -1   3  955.51   23.48
  -1   1  -3  444.70   14.76
  -1   1  -3  442.09   15.73
  -1   1  -3  455.23   10.27
   1  -1   3  447.18   15.37
   1  -1   3  466.22   14.92
   1  -1   3  441.16   10.36
   1  -1   3  456.12   16.20
  -2   1  -3  444.25   13.23
  -2   1  -3  436.69   16.42
   2  -1   3  449.54   17.91
   2  -1   3  440.07   17.52
   2  -1   3  452.88   13.67
   2  -1   3  456.84   16.68
  -3   1  -3  873.93   26.83
   3  -1   3  854.38   26.44
   3  -1   3  928.47   26.34
   3  -1   3  876.86   24.82
   3  -1   3  911.14   38.27
   3  -1   3  862.11   28.75
   3  -1   3  872.25   29.63
   4  -1   3  585.69   27.89
   4  -1   3  600.90   27.05
   4  -1   3  590.87   30.40
   4  -1   3  574.17   23.15
   4  -1   3  578.28   23.07
   4  -1   3  588.68   24.21
   4  -1   3  582.69   34.44
   4  -1   3  555.12   26.33
   5  -1   3  356.22   27.18
   5  -1   3  337.95   27.86
   5  -1   3  397.78   30.16
   6  -1   3  209.63   31.57
   6  -1   3  262.85   33.89
   6  -1   3  199.06   32.53
   6  -1   3  170.58   32.54
   7   0  -3   45.20   23.58
   7   0  -3   64.18   19.67
  -7   0   3   72.66   14.91
   6   0  -3  156.47   14.71
   6   0  -3  172.28   20.51
   6   0  -3  152.89   26.11
  -6   0   3  164.44   18.84
   5   0  -3   67.15   11.31
   5   0  -3   87.42   12.26
   5   0  -3   72.93   10.22
   5   0  -3  106.57   17.52
   5   0  -3   96.87   13.51
  -5   0   3   92.25   13.04
   4   0  -3  238.95   14.92
   4   0  -3  256.77   15.11
   4   0  -3  243.07   14.62
   4   0  -3  264.32   11.11
  -4   0   3  247.05   14.42
  -4   0   3  248.72   13.78
  -4   0   3  245.40   17.41
   3   0  -3  244.39   12.83
   3   0  -3  237.07   12.41
   3   0  -3  248.85   12.52
  -3   0   3  220.67   10.28
  -3   0   3  233.83   13.74
  -3   0   3  238.25   12.53
  -3   0   3  244.93   12.26
   2   0  -3   79.94    5.19
   2   0  -3   81.04    6.28
   2   0  -3   77.61    5.89
   2   0  -3   83.10    7.11
  -2   0   3   86.13    5.89
  -2   0   3   84.90    6.93
  -2   0   3   78.75    5.53
  -2   0   3   81.96    7.11
   1   0  -3    8.08    1.82
   1   0  -3    8.05    2.07
   1   0  -3    6.28    2.03
   1   0  -3    7.44    2.23
  -1   0   3    9.34    2.19
  -1   0   3    9.00    2.37
  -1   0   3    6.97    2.09
  -1   0   3    8.55    1.68
   0   0  -3  678.31   17.02
   0   0  -3  687.33   19.12
   0   0  -3  706.34   20.78
   0   0   3  694.27   19.19
   0   0   3  679.93   17.02
   0   0   3  679.74   20.35
  -1   0  -3 9097.15  142.21
  -1   0  -3 8899.14  131.90
  -1   0  -3 8728.89  136.46
   1   0   3 8854.33  131.52
   1   0   3 8659.90  140.33
   1   0   3 8898.73  126.05
   1   0   3 8760.59  136.23
   1   0   3 8563.06  126.97
  -2   0  -3  385.34   16.94
  -2   0  -3  381.90   14.57
   2   0   3  386.82   14.85
   2   0   3  386.07   16.28
   2   0   3  374.29   14.93
   2   0   3  396.18   17.06
   2   0   3  383.14   19.14
   2   0   3  384.74   15.73
  -3   0  -3  135.10   12.53
   3   0   3  141.28   11.13
   3   0   3  157.68   11.76
   3   0   3  159.95   15.63
   3   0   3  156.36   12.59
   3   0   3  147.13   13.34
   3   0   3  147.09   13.10
   4   0   3   39.18   11.90
   4   0   3   31.63    8.29
   4   0   3   30.68    9.16
   4   0   3   48.54   12.49
   4   0   3   40.93   11.27
   4   0   3   40.07   15.10
   4   0   3   30.57    9.38
   5   0   3  228.44   29.51
   5   0   3  244.49   25.64
   5   0   3  168.40   33.45
   6   0   3  625.49   54.02
   6   0   3  686.79   40.71
   6   0   3  567.87   42.62
   6   0   3  574.54   49.44
   7  -1  -3   68.24   15.95
   7  -1  -3   46.50   17.39
   7  -1  -3   54.99   13.44
   6  -1  -3  225.44   17.78
   6  -1  -3  154.14   19.90
  -6   1   3  207.47   17.03
   5  -1  -3  494.41   20.69
   5  -1  -3  454.20   21.37
   5  -1  -3  477.36   23.69
  -5   1   3  473.20   20.70
  -5   1   3  471.79   23.94
  -5   1   3  492.95   22.47
   4  -1  -3 1291.58   33.88
   4  -1  -3 1266.53   36.05
   4  -1  -3 1208.34   33.88
   4  -1  -3 1250.82   31.65
  -4   1   3 1155.41   37.02
  -4   1   3 1206.79   33.69
  -4   1   3 1237.92   33.69
  -4   1   3 1237.73   32.48
   3  -1  -3 1084.23   28.89
   3  -1  -3 1081.84   27.32
   3  -1  -3 1084.54   29.33
   3  -1  -3 1100.50   28.21
  -3   1   3 1078.68   31.40
  -3   1   3 1086.88   27.60
  -3   1   3 1131.27   28.24
   2  -1  -3  424.57   14.80
   2  -1  -3  444.89   13.74
   2  -1  -3  443.81   15.06
   2  -1  -3  447.58   16.15
  -2   1   3  452.04   13.77
  -2   1   3  445.16   15.85
  -2   1   3  449.98   15.98
  -2   1   3  454.86   15.63
   1  -1  -3  135.68    8.04
   1  -1  -3  127.94    5.87
   1  -1  -3  134.04    6.75
   1  -1  -3  132.02    9.05
  -1   1   3  137.61    7.06
  -1   1   3  130.77    8.30
  -1   1   3  129.69    5.89
  -1   1   3  136.65    8.52
   0  -1  -3  595.78   18.78
   0  -1  -3  590.25   15.08
   0  -1  -3  591.65   14.27
   0  -1  -3  573.48   21.59
   0   1   3  615.67   15.11
   0   1   3  601.79   14.32
   0   1   3  605.20   19.07
  -1  -1  -3  695.77   17.88
  -1  -1  -3  704.01   22.30
  -1  -1  -3  731.58   20.54
   1   1   3  687.84   18.74
   1   1   3  696.21   26.22
   1   1   3  717.49   22.62
   1   1   3  728.82   17.91
  -2  -1  -3  424.48   14.71
  -2  -1  -3  443.26   18.53
   2   1   3  437.62   19.27
   2   1   3  430.12   16.48
   2   1   3  440.16   18.88
   2   1   3  415.04   22.72
   2   1   3  427.02   15.04
   2   1   3  428.60   17.15
  -3  -1  -3  363.49   18.21
   3   1   3  356.66   16.40
   3   1   3  344.44   20.14
   3   1   3  357.59   21.26
   3   1   3  378.34   25.47
   3   1   3  374.45   18.56
   3   1   3  366.35   19.26
   3   1   3  353.92   20.12
   4   1   3  791.39   39.81
   4   1   3  757.77   32.43
   4   1   3  763.36   31.80
   4   1   3  683.80   26.73
   4   1   3  797.43   44.16
   5   1   3  140.22   19.30
   5   1   3   93.17   26.68
   5   1   3  103.96   23.62
   5   1   3   90.09   16.73
   8  -2  -3   74.37   20.66
  -8   2   3   40.28   14.59
   7  -2  -3   90.66   16.97
   7  -2  -3  152.21   23.00
  -7   2   3  111.08   17.94
  -7   2   3  112.56   18.87
   6  -2  -3   -0.94    9.72
   6  -2  -3   -8.40    8.77
   6  -2  -3   10.33    9.41
  -6   2   3    4.26    6.79
  -6   2   3   11.91   14.51
  -6   2   3   -4.83    7.40
   5  -2  -3    0.37    6.30
   5  -2  -3   13.20    6.95
   5  -2  -3   15.33    6.72
  -5   2   3   -0.08    4.78
  -5   2   3    3.55    9.41
   4  -2  -3  339.15   16.68
   4  -2  -3  323.73   16.93
   4  -2  -3  333.87   16.01
   4  -2  -3  336.21   18.06
  -4   2   3  325.96   16.20
  -4   2   3  328.77   18.51
  -4   2   3  367.51   20.56
  -4   2   3  318.16   14.09
   3  -2  -3 1197.01   31.70
   3  -2  -3 1195.49   32.20
   3  -2  -3 1207.46   30.34
   3  -2  -3 1196.99   29.93
  -3   2   3 1208.80   30.36
  -3   2   3 1228.84   33.96
  -3   2   3 1193.99   29.49
  -3   2   3 1220.21   34.00
   2  -2  -3 1051.25   25.51
   2  -2  -3  966.73   32.82
   2  -2  -3 1093.65   25.79
   2  -2  -3 1062.98   28.71
  -2   2   3 1085.40   29.63
  -2   2   3 1066.28   27.95
  -2   2   3 1076.86   27.66
  -2   2   3 1065.75   25.63
   1  -2  -3  995.90   29.72
   1  -2  -3  960.25   26.63
   1  -2  -3 1015.24   21.75
   1  -2  -3  998.47   23.30
  -1   2   3  996.40   29.15
  -1   2   3  990.77   22.36
  -1   2   3  993.77   23.61
  -1   2   3 1010.36   27.87
   0  -2  -3 2331.40   39.21
   0  -2  -3 2431.32   57.44
   0  -2  -3 2389.29   49.40
   0   2   3 2328.03   44.38
   0   2   3 2309.00   54.52
   0   2   3 2417.35   49.92
   0   2   3 2409.48   39.61
  -1  -2  -3   36.94    6.40
  -1  -2  -3   31.93    6.30
   1   2   3   25.59    4.72
   1   2   3   27.33    5.60
   1   2   3   26.85    7.46
   1   2   3   16.13    4.83
   1   2   3   24.88    5.95
  -2  -2  -3  645.89   26.33
  -2  -2  -3  675.80   24.93
   2   2   3  705.03   22.43
   2   2   3  700.47   24.84
   2   2   3  647.16   24.82
   2   2   3  719.89   33.40
   2   2   3  655.52   26.72
   2   2   3  680.30   18.39
  -3  -2  -3  414.22   20.26
   3   2   3  410.87   23.15
   3   2   3  371.45   16.20
   3   2   3  400.52   28.93
   3   2   3  391.77   23.72
   3   2   3  405.31   19.74
   3   2   3  360.70   22.63
   4   2   3  297.64   22.16
   4   2   3  267.25   24.95
   4   2   3  361.90   33.64
   5   2   3   77.26   19.09
   5   2   3  121.86   38.19
   5   2   3  143.00   26.19
   8  -3  -3  169.33   30.78
  -8   3   3  122.39   18.38
   7  -3  -3  461.75   30.35
   7  -3  -3  356.86   29.66
  -7   3   3  381.21   20.28
  -7   3   3  391.49   25.61
   6  -3  -3  120.28   16.86
   6  -3  -3   86.31   15.81
  -6   3   3  107.17   12.34
  -6   3   3  122.32   15.16
   5  -3  -3  161.06   13.24
   5  -3  -3  156.75   15.58
   5  -3  -3  157.87   15.14
  -5   3   3  146.32   10.42
  -5   3   3  182.21   14.62
   4  -3  -3  252.93   16.40
   4  -3  -3  261.13   14.10
   4  -3  -3  257.95   15.95
   4  -3  -3  254.88   15.50
  -4   3   3  252.60   19.22
  -4   3   3  247.87   14.67
  -4   3   3  252.70   11.87
  -4   3   3  263.73   18.41
   3  -3  -3  984.30   28.20
   3  -3  -3 1033.99   28.68
   3  -3  -3  982.55   31.58
   3  -3  -3 1016.42   28.56
  -3   3   3 1002.94   32.89
  -3   3   3 1006.07   31.26
  -3   3   3 1007.12   27.21
  -3   3   3 1004.78   28.76
   2  -3  -3  532.35   18.59
   2  -3  -3  485.38   20.54
   2  -3  -3  504.57   20.64
   2  -3  -3  530.08   16.45
  -2   3   3  490.72   21.62
  -2   3   3  515.23   18.34
  -2   3   3  510.29   19.61
  -2   3   3  492.93   21.65
   1  -3  -3  121.64   10.08
   1  -3  -3  126.41    9.64
   1  -3  -3  134.36   13.56
  -1   3   3  127.83   11.80
  -1   3   3  119.72    9.04
  -1   3   3  131.45    8.03
  -1   3   3  123.12   11.71
   0  -3  -3   45.12    7.31
   0  -3  -3   46.49    7.58
   0   3   3   54.25   10.69
   0   3   3   43.42    8.55
   0   3   3   39.51    7.69
   0   3   3   29.56    5.55
  -1  -3  -3   61.66    9.30
  -1  -3  -3   73.58   12.02
   1   3   3   57.15   11.51
   1   3   3   72.99   12.84
   1   3   3   53.16   10.03
   1   3   3   66.44   11.27
  -2  -3  -3    5.29   10.55
  -2  -3  -3   26.72    7.81
   2   3   3   17.25    8.65
   2   3   3   10.01    7.61
   2   3   3   28.65   10.36
  -3  -3  -3 1205.79   37.56
   3   3   3 1216.88   42.27
   3   3   3 1243.13   53.28
   4   3   3  211.14   39.36
   4   3   3  196.33   27.54
   8  -4  -3   76.44   21.52
   8  -4  -3   76.75   20.54
  -8   4   3   62.39   16.92
   7  -4  -3   15.69   12.97
   7  -4  -3   14.29   13.82
  -7   4   3   21.01   11.64
  -7   4   3   31.90    8.06
   6  -4  -3   46.69    9.27
   6  -4  -3   52.80   12.12
   6  -4  -3   51.57   10.67
  -6   4   3   39.51    6.20
  -6   4   3   70.49   13.94
   5  -4  -3  860.97   27.06
   5  -4  -3  826.90   32.88
   5  -4  -3  887.51   34.83
  -5   4   3  868.22   23.46
  -5   4   3  848.08   31.35
   4  -4  -3  432.26   22.50
   4  -4  -3  422.98   19.79
   4  -4  -3  430.69   20.85
   4  -4  -3  412.45   18.55
  -4   4   3  463.66   26.21
  -4   4   3  423.11   24.97
  -4   4   3  454.89   20.90
  -4   4   3  423.55   16.65
   3  -4  -3  123.84   10.51
   3  -4  -3   95.24   12.14
   3  -4  -3  112.16   11.76
   3  -4  -3  104.53   12.00
  -3   4   3   96.13    9.39
  -3   4   3  100.67   10.24
  -3   4   3   96.29   15.72
  -3   4   3  111.85   13.58
   2  -4  -3  397.91   20.08
   2  -4  -3  419.85   14.19
   2  -4  -3  394.85   17.99
  -2   4   3  408.74   22.34
  -2   4   3  418.56   20.08
  -2   4   3  416.07   18.72
   1  -4  -3 1567.18   42.13
   1  -4  -3 1492.71   39.20
  -1   4   3 1500.63   43.69
  -1   4   3 1527.28   45.29
  -1   4   3 1574.47   40.12
  -1   4   3 1513.74   39.96
   0  -4  -3   25.80    8.41
   0   4   3   30.78    6.96
   0   4   3   49.97   10.08
   0   4   3   39.07    8.42
   0   4   3   43.49   10.27
  -1  -4  -3  540.59   23.91
   1   4   3  541.91   27.30
   1   4   3  534.66   25.15
   1   4   3  547.42   33.28
   2   4   3   38.41   14.72
   2   4   3   24.97   10.73
   3   4   3  168.33   35.00
   3   4   3  123.19   23.61
   8  -5  -3  -19.36   20.75
   7  -5  -3    5.84   15.45
   7  -5  -3   17.25   14.35
  -7   5   3    6.00   12.59
   6  -5  -3  517.87   31.47
   6  -5  -3  515.12   29.44
  -6   5   3  500.71   16.40
  -6   5   3  502.94   27.67
   5  -5  -3  554.66   29.16
   5  -5  -3  533.25   26.01
   5  -5  -3  507.17   22.08
  -5   5   3  541.57   17.96
  -5   5   3  538.85   26.13
   4  -5  -3  229.52   19.58
   4  -5  -3  230.56   16.13
   4  -5  -3  209.85   16.17
  -4   5   3  215.08   16.53
  -4   5   3  229.19   13.28
   3  -5  -3   65.78    8.94
   3  -5  -3   60.20    8.86
   3  -5  -3   48.90    9.27
  -3   5   3   47.66    8.94
  -3   5   3   57.76    9.86
  -3   5   3   72.26   11.82
   2  -5  -3    4.74    6.48
   2  -5  -3   -1.03    3.97
   2  -5  -3   13.53    3.60
  -2   5   3   11.38    6.53
  -2   5   3    5.18    5.82
  -2   5   3    6.05    5.69
   1  -5  -3  376.57   21.03
  -1   5   3  364.42   20.42
  -1   5   3  368.15   25.15
   0  -5  -3  263.94   18.30
   0   5   3  291.24   26.39
  -1  -5  -3   19.47    8.86
   1   5   3   28.50   11.58
   1   5   3   42.02   14.99
  -2  -5  -3  550.18   28.12
   2   5   3  524.85   32.78
   2   5   3  564.44   45.75
   7  -6  -3   75.28   18.80
   7  -6  -3   83.47   18.45
  -7   6   3   83.29   16.06
   6  -6  -3  824.79   36.87
   6  -6  -3  819.40   39.90
  -6   6   3  848.43   37.31
   5  -6  -3   92.73   18.62
  -5   6   3  105.55   11.85
   4  -6  -3   86.58   13.80
   4  -6  -3   74.23   13.27
  -4   6   3   75.25   10.90
  -4   6   3   94.37   12.55
  -4   6   3   86.68   15.39
   3  -6  -3  296.86   14.80
   3  -6  -3  293.88   14.92
   3  -6  -3  301.45   22.52
  -3   6   3  319.67   21.19
  -3   6   3  299.49   16.65
  -3   6   3  283.30   19.19
   2  -6  -3  435.50   25.15
  -2   6   3  406.96   25.43
  -2   6   3  409.40   24.10
   1  -6  -3   10.13    7.86
  -1   6   3    4.58    9.09
  -1   6   3   -3.16   11.07
   0  -6  -3  320.58   22.93
   0   6   3  308.50   33.62
   0   6   3  259.52   24.80
  -1  -6  -3   48.82   12.25
   1   6   3   39.44   15.38
   1   6   3   45.55   19.67
   7  -7  -3  224.91   30.98
   6  -7  -3   -4.44   13.81
   6  -7  -3   10.93   14.32
  -6   7   3   30.65   12.95
   5  -7  -3    4.49   10.94
   5  -7  -3  -12.94   12.89
  -5   7   3   25.15   12.03
   4  -7  -3    0.08    8.60
   4  -7  -3   25.96   11.76
  -4   7   3    7.62    8.95
  -4   7   3   -6.52   10.88
   3  -7  -3  283.74   23.70
  -3   7   3  293.45   22.70
  -3   7   3  331.73   24.70
   2  -7  -3  242.39   23.17
  -2   7   3  179.71   23.28
  -2   7   3  184.58   26.17
   1  -7  -3   -0.91   10.97
  -1   7   3    2.16   15.56
  -1   7   3   -2.36   12.11
   0  -7  -3    7.98   13.87
   0   7   3   11.74   19.83
   0   7   3   20.90   16.24
   5  -8  -3   68.58   17.78
  -5   8   3   27.93   14.26
   4  -8  -3  195.10   27.61
  -4   8   3  181.13   26.75
   3  -8  -3  154.28   26.17
  -3   8   3  223.59   26.52
  -3   8   3  170.19   25.83
   2  -8  -3   -2.71   13.30
  -2   8   3   -9.60   15.70
  -2   8   3   14.82   18.02
   0   8  -4    9.83   15.06
   0  -8   4   18.49   15.44
  -1   8  -4   11.51   12.91
   1  -8   4   33.26   12.28
   1  -8   4   22.02   12.57
  -2   8  -4   53.84   13.15
  -2   8  -4   45.11   12.75
   2  -8   4   48.00   14.58
  -3   8  -4    9.32   12.55
  -3   8  -4    1.49   11.16
   3  -8   4   -5.23   14.57
  -4   8  -4  130.17   22.43
   4  -8   4   97.54   19.50
   2   7  -4   56.33   23.87
  -2  -7   4   91.96   18.27
  -1  -7   4  185.42   23.95
   0   7  -4  113.63   16.97
   0   7  -4   98.77   19.39
   0  -7   4  108.41   18.18
   0  -7   4   71.09   10.38
  -1   7  -4  357.82   21.94
  -1   7  -4  412.71   22.19
  -1   7  -4  428.22   26.33
   1  -7   4  422.25   22.63
   1  -7   4  411.05   24.32
   1  -7   4  351.41   20.37
  -2   7  -4   24.29    8.96
  -2   7  -4   20.23    9.26
   2  -7   4   24.20   10.53
   2  -7   4   20.27    7.13
  -3   7  -4   98.83   15.76
  -3   7  -4   63.91   13.49
   3  -7   4   63.37   13.88
  -4   7  -4   44.58   12.94
  -4   7  -4   56.63   11.70
   4  -7   4   34.83   16.36
  -5   7  -4 1018.32   39.57
   5  -7   4  893.68   52.59
   5  -7   4  969.14   51.73
  -3  -6   4   61.75   15.88
   2   6  -4   21.15   10.38
   2   6  -4   28.72   12.16
  -2  -6   4   16.52   11.52
   1   6  -4  144.19   18.34
   1   6  -4  186.06   14.57
  -1  -6   4  117.62   14.51
  -1  -6   4  159.67   11.09
  -1  -6   4  162.51   18.10
   0   6  -4  250.14   27.67
   0   6  -4  218.81   16.26
   0   6  -4  191.59   18.11
   0  -6   4  254.24   15.29
   0  -6   4  242.80   18.15
   0  -6   4  243.42   15.89
  -1   6  -4  104.06   19.72
  -1   6  -4  127.63   13.43
  -1   6  -4  107.75   13.83
  -1   6  -4  135.44   13.99
   1  -6   4  115.79   15.24
   1  -6   4  117.20   13.16
   1  -6   4  100.08   12.19
  -2   6  -4   12.20    6.69
  -2   6  -4   10.58    7.67
  -2   6  -4    5.53    7.01
   2  -6   4   -7.70    8.38
   2  -6   4   10.23    5.03
  -3   6  -4  339.14   25.10
  -3   6  -4  361.96   20.73
   3  -6   4  361.23   27.41
  -4   6  -4  462.55   25.17
  -4   6  -4  442.77   24.40
   4  -6   4  423.98   34.29
  -5   6  -4  240.91   19.85
   5  -6   4  207.22   33.22
  -6   6  -4  159.40   20.66
   6  -6   4  194.29   38.23
   6  -6   4  144.31   26.04
   4   5  -4   29.59   18.96
  -4  -5   4   60.73   15.26
   3   5  -4  231.16   26.64
   3   5  -4  185.20   16.41
  -3  -5   4  177.38   21.65
   2   5  -4  314.08   22.34
   2   5  -4  274.76   16.17
  -2  -5   4  257.32   17.38
  -2  -5   4  280.82   20.92
   1   5  -4   50.33    9.22
   1   5  -4   50.29    7.54
  -1  -5   4   46.26    7.51
  -1  -5   4   51.24    9.02
  -1  -5   4   54.73   10.10
  -1  -5   4   65.14    7.91
   0   5  -4  671.07   24.39
   0   5  -4  677.09   26.44
   0   5  -4  710.43   23.85
   0  -5   4  651.62   24.12
   0  -5   4  654.08   27.84
   0  -5   4  635.30   21.89
   0  -5   4  702.39   25.52
  -1   5  -4  124.52   11.88
  -1   5  -4  112.42   11.57
  -1   5  -4  122.61   10.98
  -1   5  -4   94.11   17.12
   1  -5   4  121.35   10.53
   1  -5   4  139.83   13.96
   1  -5   4  108.94   10.59
   1  -5   4   88.03   14.19
  -2   5  -4  565.49   35.99
  -2   5  -4  567.67   24.30
  -2   5  -4  611.60   23.22
   2  -5   4  571.04   23.00
   2  -5   4  634.74   30.51
   2  -5   4  623.57   25.03
   2  -5   4  626.04   18.63
  -3   5  -4  175.33   15.59
  -3   5  -4  184.51   13.60
   3  -5   4  189.64   21.27
   3  -5   4  146.94   16.04
  -4   5  -4  534.84   26.18
  -4   5  -4  513.58   22.77
   4  -5   4  521.43   34.64
  -5   5  -4  283.72   20.99
   5  -5   4  279.61   31.51
  -6   5  -4   47.44   11.23
   6  -5   4  103.94   23.28
   6  -5   4   15.01   20.26
   5   4  -4   20.56   18.75
  -5  -4   4   44.35   15.45
   4   4  -4  234.93   18.94
   4   4  -4  279.65   28.04
  -4  -4   4  284.75   24.73
   3   4  -4    5.29    6.53
  -3  -4   4    7.72    9.55
  -3  -4   4   11.59    8.31
   2   4  -4  381.35   17.23
   2   4  -4  407.73   22.40
  -2  -4   4  399.93   21.76
  -2  -4   4  419.18   18.11
   1   4  -4   13.94    4.82
   1   4  -4   24.81    6.34
   1   4  -4    5.28    5.26
  -1  -4   4   15.72    7.77
  -1  -4   4    0.28    4.63
  -1  -4   4   12.51    4.33
  -1  -4   4    7.11    3.57
  -1  -4   4   10.62    5.11
   0   4  -4   49.31    8.70
   0   4  -4   60.84    8.36
   0   4  -4   44.88    7.86
   0  -4   4   74.98   10.90
   0  -4   4   66.09    7.67
   0  -4   4   69.85    8.20
   0  -4   4   78.58    9.76
   0  -4   4   59.44    8.13
  -1   4  -4  210.63   13.06
  -1   4  -4  229.86   12.52
  -1   4  -4  228.99   12.55
   1  -4   4  218.24   16.79
   1  -4   4  214.72   11.62
   1  -4   4  229.95   13.87
   1  -4   4  230.89   12.62
   1  -4   4  214.57   13.58
  -2   4  -4 2655.24   49.46
  -2   4  -4 2597.23   52.90
  -2   4  -4 2669.19   57.62
   2  -4   4 2606.45   47.15
   2  -4   4 2628.96   59.34
   2  -4   4 2552.58   55.47
   2  -4   4 2590.63   52.53
   2  -4   4 2561.90   67.71
  -3   4  -4  625.39   18.67
  -3   4  -4  674.57   26.31
  -3   4  -4  603.72   21.53
   3  -4   4  634.19   23.30
   3  -4   4  657.56   33.88
   3  -4   4  589.44   19.84
  -4   4  -4   99.27   10.77
  -4   4  -4  101.38   14.16
   4  -4   4   83.18   14.01
   4  -4   4   96.09    7.40
   4  -4   4   73.87   15.87
  -5   4  -4   45.77    8.86
   5  -4   4   46.31    7.55
   5  -4   4   80.24   19.49
  -6   4  -4   55.81   11.79
   6  -4   4   65.63   21.65
   6  -4   4   81.14   22.77
   5   3  -4   94.01   15.86
  -5  -3   4   70.48   14.74
   4   3  -4  312.20   18.63
   4   3  -4  298.15   23.85
  -4  -3   4  291.60   22.90
  -4  -3   4  345.84   23.14
   3   3  -4  435.76   23.17
   3   3  -4  412.95   18.01
  -3  -3   4  392.33   22.01
  -3  -3   4  441.21   20.54
   2   3  -4  236.85   12.57
   2   3  -4  223.45   14.84
   2   3  -4  238.16   15.84
  -2  -3   4  203.97   18.53
  -2  -3   4  228.16   15.13
  -2  -3   4  217.29   12.92
   1   3  -4 1466.10   35.45
   1   3  -4 1449.46   33.67
   1   3  -4 1430.77   37.17
  -1  -3   4 1460.96   37.42
  -1  -3   4 1486.73   38.05
  -1  -3   4 1451.14   29.26
  -1  -3   4 1434.37   32.24
  -1  -3   4 1467.96   33.90
   0   3  -4   24.60    4.61
   0   3  -4   32.58    5.70
   0   3  -4   26.70    5.28
   0  -3   4   30.60    5.76
   0  -3   4   23.29    4.99
   0  -3   4   24.19    6.35
   0  -3   4   26.32    5.17
   0  -3   4   35.10    5.89
  -1   3  -4  374.27   15.98
  -1   3  -4  355.14   13.19
   1  -3   4  344.55   20.87
   1  -3   4  366.37   15.30
   1  -3   4  361.85   15.70
   1  -3   4  376.80   14.21
  -2   3  -4   46.89    7.85
  -2   3  -4   36.07    6.95
  -2   3  -4   34.65    5.47
   2  -3   4   43.97    6.85
   2  -3   4   41.98    7.24
   2  -3   4   38.30    9.70
   2  -3   4   36.61    6.35
  -3   3  -4  685.36   20.80
  -3   3  -4  686.89   26.06
   3  -3   4  698.07   35.45
   3  -3   4  709.42   21.24
   3  -3   4  671.00   22.23
   3  -3   4  656.42   27.43
  -4   3  -4   45.26   10.23
  -4   3  -4   34.78    6.03
   4  -3   4   32.56    8.16
   4  -3   4   33.36    7.37
   4  -3   4   44.98   22.40
   4  -3   4   34.27    6.85
  -5   3  -4  330.29   18.56
   5  -3   4  335.78   21.20
   5  -3   4  385.98   34.66
   5  -3   4  337.79   19.22
   5  -3   4  281.20   30.32
   6  -3   4  148.10   25.63
   6  -3   4  167.45   29.74
   6   2  -4  249.01   26.89
   6   2  -4  211.00   32.06
  -6  -2   4  260.88   26.53
   5   2  -4  133.75   18.22
   5   2  -4  137.36   19.40
  -5  -2   4  159.95   20.48
   4   2  -4  296.15   17.30
   4   2  -4  279.86   20.96
  -4  -2   4  231.15   20.07
  -4  -2   4  281.86   20.04
   3   2  -4  471.80   18.91
   3   2  -4  448.28   19.82
   3   2  -4  469.62   22.58
   3   2  -4  467.20   22.06
  -3  -2   4  475.90   21.53
  -3  -2   4  462.06   20.46
   2   2  -4  460.93   18.61
   2   2  -4  430.34   18.59
   2   2  -4  490.78   17.38
  -2  -2   4  456.83   19.51
  -2  -2   4  490.95   18.20
   1   2  -4 2306.37   44.58
   1   2  -4 2288.61   45.63
   1   2  -4 2427.91   50.60
  -1  -2   4 2328.85   48.92
  -1  -2   4 2357.69   49.01
  -1  -2   4 2374.65   42.23
  -1  -2   4 2350.04   46.22
   0   2  -4  756.69   23.53
   0   2  -4  750.94   21.83
   0  -2   4  770.04   18.64
   0  -2   4  758.48   21.50
   0  -2   4  745.94   21.34
   0  -2   4  751.66   22.09
  -1   2  -4 1823.99   32.69
   1  -2   4 1947.33   40.38
   1  -2   4 1833.73   52.38
   1  -2   4 1864.99   32.94
   1  -2   4 1864.85   41.62
   1  -2   4 1877.38   40.47
  -2   2  -4   46.38    8.16
  -2   2  -4   44.36    4.85
  -2   2  -4   41.60    6.84
   2  -2   4   44.30    9.39
   2  -2   4   44.00    6.71
   2  -2   4   46.50    9.10
   2  -2   4   45.59    6.62
   2  -2   4   44.51    5.76
  -3   2  -4  314.42   13.13
  -3   2  -4  326.64   17.62
   3  -2   4  327.18   19.26
   3  -2   4  327.07   17.34
   3  -2   4  346.89   15.28
   3  -2   4  318.16   14.59
   3  -2   4  337.10   17.32
   3  -2   4  325.67   25.21
  -4   2  -4  474.84   18.89
  -4   2  -4  483.08   22.96
   4  -2   4  495.23   20.69
   4  -2   4  537.22   35.91
   4  -2   4  432.03   20.69
   4  -2   4  536.29   23.64
   5  -2   4  247.82   26.36
   5  -2   4  246.07   27.62
   5  -2   4  222.61   31.79
   5  -2   4  258.83   23.56
   5  -2   4  236.15   20.05
   6  -2   4  189.03   32.90
   6  -2   4  122.93   23.78
   6  -2   4  185.43   31.67
   6  -2   4  157.65   25.91
   7   1  -4  456.54   35.35
  -7  -1   4  360.46   32.82
   6   1  -4  197.76   23.69
   6   1  -4  232.98   30.92
  -6  -1   4  204.62   22.69
   5   1  -4  280.98   19.59
   5   1  -4  246.28   23.72
  -5  -1   4  218.79   19.00
   4   1  -4   77.02   14.44
   4   1  -4   77.97   10.89
   4   1  -4   85.04   12.85
   4   1  -4   80.17   12.34
  -4  -1   4   88.84   14.73
  -4  -1   4   74.82   11.45
   3   1  -4  210.85   15.05
   3   1  -4  223.89   12.80
   3   1  -4  230.31   14.33
   3   1  -4  241.26   13.65
  -3  -1   4  226.95   13.80
  -3  -1   4  221.12   14.51
   2   1  -4 2052.17   36.60
   2   1  -4 2033.67   40.55
   2   1  -4 2123.69   43.45
   2   1  -4 2103.75   47.28
   2   1  -4 2044.72   43.91
  -2  -1   4 2095.22   43.78
  -2  -1   4 2066.33   45.42
  -2  -1   4 2088.16   36.87
   1   1  -4    8.76    2.20
   1   1  -4   12.91    3.12
   1   1  -4   11.05    2.23
   1   1  -4   15.85    4.36
   1   1  -4    9.74    3.10
  -1  -1   4    8.60    3.27
  -1  -1   4   13.76    3.54
  -1  -1   4   16.05    3.19
   0   1  -4  582.47   19.61
   0   1  -4  565.30   18.52
   0   1  -4  590.06   18.14
   0  -1   4  587.30   19.79
   0  -1   4  606.70   18.92
   0  -1   4  598.46   17.99
  -1   1  -4  124.39   10.05
  -1   1  -4  137.86    9.94
  -1   1  -4  123.70    8.58
   1  -1   4  130.31    9.59
   1  -1   4  141.58    8.96
   1  -1   4  148.12   10.25
  -2   1  -4  517.51   21.47
  -2   1  -4  514.85   19.44
  -2   1  -4  556.44   23.00
   2  -1   4  536.01   21.72
   2  -1   4  525.56   15.01
   2  -1   4  552.64   22.14
   2  -1   4  527.86   19.37
  -3   1  -4   72.99   10.13
   3  -1   4   62.00   11.30
   3  -1   4   49.89    9.78
   3  -1   4   82.85   12.47
   3  -1   4   81.52   12.59
   3  -1   4   61.07    8.80
   3  -1   4   71.51   14.78
   4  -1   4  490.76   22.04
   4  -1   4  551.73   25.53
   4  -1   4  540.88   35.70
   4  -1   4  506.30   23.78
   4  -1   4  502.98   28.24
   5  -1   4  322.49   33.34
   5  -1   4  413.19   47.95
   5  -1   4  410.13   32.91
   5  -1   4  365.65   38.61
   6  -1   4  214.27   27.54
   6  -1   4  208.57   38.64
   6  -1   4  243.43   39.53
   6  -1   4  272.72   48.11
   7   0  -4   55.05   19.52
   7   0  -4   85.29   19.31
  -7   0   4   62.23   14.81
   6   0  -4    2.63    6.96
   6   0  -4  -10.22   12.94
  -6   0   4    9.10   10.38
   5   0  -4   24.54    7.35
   5   0  -4   24.47    9.51
   5   0  -4   21.92    5.52
  -5   0   4   31.57    8.43
  -5   0   4    8.14    7.07
   4   0  -4 2820.11   62.47
   4   0  -4 2849.03   50.68
   4   0  -4 2849.48   61.04
   4   0  -4 2735.56   59.19
  -4   0   4 2824.56   54.27
  -4   0   4 2919.32   62.15
  -4   0   4 2885.06   65.39
   3   0  -4  555.09   21.42
   3   0  -4  536.78   15.77
   3   0  -4  531.00   19.50
   3   0  -4  553.93   18.73
  -3   0   4  558.41   19.01
  -3   0   4  538.78   20.49
  -3   0   4  537.41   21.30
  -3   0   4  583.24   17.59
   2   0  -4  478.20   16.60
   2   0  -4  466.22   14.77
   2   0  -4  488.88   14.46
   2   0  -4  490.47   19.18
  -2   0   4  478.98   15.39
  -2   0   4  474.23   17.32
  -2   0   4  490.49   14.68
  -2   0   4  487.66   18.32
   1   0  -4    8.26    2.55
   1   0  -4   10.91    3.53
   1   0  -4   12.13    2.97
   1   0  -4   18.52    2.45
  -1   0   4   16.69    2.52
  -1   0   4   12.39    3.36
  -1   0   4   14.96    4.02
   0   0  -4 3606.10   66.30
   0   0  -4 3575.20   62.38
   0   0  -4 3683.41   69.97
   0   0   4 3727.53   66.64
   0   0   4 3650.07   69.05
   0   0   4 3705.97   62.69
  -1   0  -4  744.85   21.17
  -1   0  -4  743.95   27.04
  -1   0  -4  769.59   24.81
   1   0   4  783.21   21.62
   1   0   4  759.80   26.93
   1   0   4  758.25   16.52
   1   0   4  756.19   24.48
   1   0   4  754.38   15.87
  -2   0  -4  556.44   22.53
  -2   0  -4  570.06   19.80
   2   0   4  565.20   18.27
   2   0   4  592.81   22.18
   2   0   4  547.11   22.61
   2   0   4  596.05   20.10
   2   0   4  536.63   21.04
   2   0   4  594.49   25.68
  -3   0  -4   80.45    9.88
  -3   0  -4   76.41   11.80
   3   0   4   63.83   12.15
   3   0   4   78.43   11.66
   3   0   4   62.86   13.23
   3   0   4   84.60   12.61
   3   0   4   77.95    9.63
   3   0   4   64.39   12.37
   4   0   4   43.72   10.01
   4   0   4   48.43   17.40
   4   0   4   67.97   14.36
   4   0   4   86.89   16.21
   4   0   4   64.76   25.77
   5   0   4  144.94   22.35
   5   0   4  204.15   31.68
   5   0   4  174.30   28.94
   7  -1  -4   29.25   18.20
   7  -1  -4    5.54   14.02
  -7   1   4    1.72   11.50
   6  -1  -4   70.34   13.30
   6  -1  -4   73.55   13.97
  -6   1   4  118.25   22.24
  -6   1   4   73.60   11.43
   5  -1  -4  369.95   21.47
   5  -1  -4  415.84   22.08
   5  -1  -4  419.08   18.57
  -5   1   4  404.56   20.47
  -5   1   4  436.13   20.90
  -5   1   4  382.23   21.44
   4  -1  -4 1254.30   35.95
   4  -1  -4 1244.82   31.68
   4  -1  -4 1162.60   33.38
   4  -1  -4 1215.08   35.47
  -4   1   4 1227.82   33.76
  -4   1   4 1261.28   34.21
  -4   1   4 1224.08   33.57
  -4   1   4 1217.44   38.61
   3  -1  -4  924.51   25.36
   3  -1  -4  941.77   25.42
   3  -1  -4  925.04   27.14
   3  -1  -4  974.34   29.08
  -3   1   4  945.52   27.01
  -3   1   4  900.36   28.19
  -3   1   4  933.58   25.05
  -3   1   4  906.61   27.00
   2  -1  -4  708.41   23.40
   2  -1  -4  741.50   21.80
   2  -1  -4  739.75   21.42
   2  -1  -4  723.66   18.73
  -2   1   4  719.03   18.47
  -2   1   4  709.86   23.82
  -2   1   4  763.96   22.88
  -2   1   4  739.84   22.08
   1  -1  -4   85.78    8.92
   1  -1  -4  102.26    6.90
   1  -1  -4  100.21    5.36
   1  -1  -4   97.12    7.74
  -1   1   4   97.60    5.35
  -1   1   4   88.88    7.98
  -1   1   4   92.20    8.69
  -1   1   4  102.37    7.14
   0  -1  -4  315.14   11.79
   0  -1  -4  312.19   10.18
   0  -1  -4  351.23   18.36
   0  -1  -4  312.53   14.75
   0   1   4  312.28    9.68
  -1  -1  -4  741.85   20.31
  -1  -1  -4  686.72   29.49
  -1  -1  -4  733.04   20.88
  -1  -1  -4  741.27   25.43
   1   1   4  717.49   28.51
   1   1   4  712.77   25.09
   1   1   4  733.85   19.25
   1   1   4  721.96   19.96
  -2  -1  -4   30.55    6.25
  -2  -1  -4   27.37    5.04
   2   1   4   23.18    5.89
   2   1   4   25.15    7.66
   2   1   4   21.98    5.71
   2   1   4   32.76    5.85
   2   1   4   30.00    8.34
   2   1   4   28.25    7.04
  -3  -1  -4  891.63   32.01
   3   1   4  929.38   29.37
   3   1   4  894.99   34.58
   3   1   4  913.65   27.60
   3   1   4  926.88   31.31
   3   1   4  903.98   40.07
   4   1   4  304.37   23.51
   4   1   4  351.39   28.11
   4   1   4  325.98   31.72
   4   1   4  320.57   22.57
   5   1   4   74.56   26.79
   5   1   4   90.41   18.30
   5   1   4  101.36   19.56
   8  -2  -4   45.43   21.85
  -8   2   4   54.74   15.10
   7  -2  -4   36.13   13.08
   7  -2  -4   33.42   13.92
  -7   2   4   13.56   12.29
  -7   2   4   16.16   11.59
   6  -2  -4   23.82    8.86
   6  -2  -4   10.95    8.74
   6  -2  -4   -6.79   10.38
  -6   2   4   10.96    7.59
  -6   2   4   36.32   14.90
  -6   2   4   18.68    8.20
   5  -2  -4 2049.16   53.47
   5  -2  -4 1990.06   50.17
   5  -2  -4 2115.37   50.85
  -5   2   4 2101.66   48.36
  -5   2   4 2040.04   54.38
  -5   2   4 2051.40   50.68
   4  -2  -4   28.49    6.43
   4  -2  -4   30.72    7.16
   4  -2  -4   52.12   10.47
   4  -2  -4   30.15    6.32
  -4   2   4   33.51    6.79
  -4   2   4   42.52    9.18
  -4   2   4   33.44    6.46
  -4   2   4   42.21    9.42
   3  -2  -4  876.07   27.51
   3  -2  -4  883.57   26.43
   3  -2  -4  942.77   28.35
   3  -2  -4  907.07   25.39
  -3   2   4  882.82   25.17
  -3   2   4  892.41   28.48
  -3   2   4  883.67   29.01
  -3   2   4  876.93   27.01
   2  -2  -4  871.41   28.03
   2  -2  -4  885.54   23.64
   2  -2  -4  868.34   26.84
   2  -2  -4  884.51   22.83
  -2   2   4  866.16   26.97
  -2   2   4  895.94   23.09
  -2   2   4  864.29   27.46
  -2   2   4  907.77   25.55
   1  -2  -4 2396.90   43.32
   1  -2  -4 2315.32   50.51
   1  -2  -4 2445.05   44.28
   1  -2  -4 2377.38   55.31
  -1   2   4 2186.58   46.83
  -1   2   4 2386.09   44.07
  -1   2   4 2300.60   53.73
  -1   2   4 2359.17   51.71
   0  -2  -4   15.04    4.11
   0  -2  -4   14.68    7.20
   0  -2  -4   10.40    4.09
   0  -2  -4   15.24    2.79
   0   2   4    8.46    3.27
   0   2   4   15.99    5.51
   0   2   4    7.27    3.64
   0   2   4    9.86    5.26
  -1  -2  -4   51.48    9.49
  -1  -2  -4   68.99    6.64
  -1  -2  -4   66.27    9.52
   1   2   4   67.45   10.27
   1   2   4   55.75    8.48
   1   2   4   75.41   13.07
   1   2   4   64.18   10.81
   1   2   4   70.19    6.99
  -2  -2  -4  236.72   16.53
   2   2   4  239.31   16.30
   2   2   4  242.57   12.26
   2   2   4  282.25   22.73
   2   2   4  204.75   17.52
  -3  -2  -4  376.85   21.39
   3   2   4  360.73   22.56
   3   2   4  413.66   31.87
   3   2   4  411.42   22.65
   3   2   4  388.37   17.96
  -4  -2  -4  132.31   20.18
   4   2   4  162.56   26.29
   4   2   4  151.97   24.45
   8  -3  -4    4.26   16.67
   8  -3  -4   37.37   18.58
  -8   3   4    2.09   16.25
   7  -3  -4  580.66   31.70
   7  -3  -4  548.76   33.54
  -7   3   4  634.95   31.28
  -7   3   4  536.13   24.89
   6  -3  -4  296.10   23.03
   6  -3  -4  328.75   22.24
   6  -3  -4  259.69   20.65
  -6   3   4  259.81   16.39
  -6   3   4  291.96   20.38
   5  -3  -4  111.72   14.03
   5  -3  -4   81.98   13.46
   5  -3  -4   87.89   13.53
  -5   3   4   99.50   11.83
  -5   3   4   74.81   10.23
  -5   3   4   88.61   13.65
   4  -3  -4    3.45    6.24
   4  -3  -4    4.82    5.57
   4  -3  -4   15.68    5.47
   4  -3  -4    6.00    5.67
  -4   3   4   -4.33    4.35
  -4   3   4    0.23    4.63
  -4   3   4   18.07    8.21
  -4   3   4    0.07    7.58
   3  -3  -4    6.46    4.20
   3  -3  -4   13.71    4.69
   3  -3  -4    3.14    5.38
   3  -3  -4    6.08    4.60
  -3   3   4    6.91    4.09
  -3   3   4    3.49    5.96
  -3   3   4   12.07    6.56
   2  -3  -4 1333.39   30.48
   2  -3  -4 1337.13   32.73
   2  -3  -4 1334.64   39.27
   2  -3  -4 1320.21   37.32
  -2   3   4 1334.45   37.54
  -2   3   4 1224.06   37.70
  -2   3   4 1334.50   33.21
  -2   3   4 1355.72   33.38
   1  -3  -4  423.09   12.99
   1  -3  -4  436.36   17.31
   1  -3  -4  428.53   19.78
   1  -3  -4  433.12   23.95
  -1   3   4  438.44   17.24
  -1   3   4  443.04   15.17
  -1   3   4  429.90   21.25
  -1   3   4  432.15   22.05
   0  -3  -4  147.87   11.81
   0  -3  -4  135.32   12.62
   0   3   4  113.54   10.73
   0   3   4  150.24   15.98
   0   3   4  130.59   14.65
   0   3   4  132.62   12.68
  -1  -3  -4   40.95    9.28
  -1  -3  -4   45.59    9.03
   1   3   4   36.47    9.87
   1   3   4   38.95    8.60
   1   3   4   35.51    9.83
  -2  -3  -4  850.14   32.29
   2   3   4  838.38   32.09
   2   3   4  862.95   42.76
  -3  -3  -4  271.19   20.70
   3   3   4  249.61   23.38
   3   3   4  251.17   32.73
  -4  -3  -4   88.19   15.35
   4   3   4  101.20   26.46
   4   3   4  155.56   28.28
   8  -4  -4   80.54   20.50
  -8   4   4   70.99   22.79
   7  -4  -4  166.06   24.98
   7  -4  -4  181.10   23.64
  -7   4   4  195.30   22.55
  -7   4   4  147.68   17.00
   6  -4  -4 1654.50   51.70
   6  -4  -4 1592.01   51.03
   6  -4  -4 1586.04   44.11
  -6   4   4 1544.16   47.28
  -6   4   4 1626.76   39.39
   5  -4  -4    2.04    8.03
   5  -4  -4    5.87    7.61
   5  -4  -4   -5.93    7.46
  -5   4   4    1.21    5.60
  -5   4   4   -2.23    6.89
   4  -4  -4  482.70   21.47
   4  -4  -4  477.69   23.94
   4  -4  -4  407.25   20.35
   4  -4  -4  461.95   22.33
  -4   4   4  426.82   26.37
  -4   4   4  439.23   19.54
  -4   4   4  482.04   21.82
   3  -4  -4  148.04   14.41
   3  -4  -4  161.80   11.32
   3  -4  -4  161.59   13.60
   3  -4  -4  153.47   15.91
  -3   4   4  160.03   12.94
  -3   4   4  153.74   15.06
  -3   4   4  135.06   16.90
  -3   4   4  147.13   12.47
   2  -4  -4  501.83   23.41
   2  -4  -4  520.17   16.27
   2  -4  -4  521.61   21.41
   2  -4  -4  511.20   27.00
  -2   4   4  462.83   25.10
  -2   4   4  494.50   19.43
  -2   4   4  514.24   21.32
  -2   4   4  503.13   23.89
   1  -4  -4   14.28    5.82
   1  -4  -4    9.22    6.77
  -1   4   4   18.64    6.26
  -1   4   4    5.52    8.16
  -1   4   4   16.03    7.25
  -1   4   4   21.93    6.36
   0  -4  -4  493.72   24.05
   0  -4  -4  483.97   23.68
   0   4   4  490.56   22.85
   0   4   4  476.85   29.72
  -1  -4  -4  249.91   18.37
   1   4   4  267.99   26.81
   1   4   4  215.43   18.57
  -2  -4  -4   10.29   10.05
   2   4   4   59.39   17.75
   2   4   4   26.82   11.78
  -3  -4  -4   31.35   13.36
   3   4   4   39.63   21.99
   3   4   4   13.17   16.25
   7  -5  -4  -10.30   13.47
   7  -5  -4   43.81   16.04
  -7   5   4   17.71   13.31
   6  -5  -4  145.97   21.47
   6  -5  -4  123.32   20.31
  -6   5   4  140.78   19.45
  -6   5   4  142.28   13.05
   5  -5  -4  217.02   17.89
   5  -5  -4  209.42   19.24
   5  -5  -4  191.82   20.12
  -5   5   4  241.46   18.53
  -5   5   4  177.12   13.91
   4  -5  -4   69.22   11.62
   4  -5  -4   53.18    8.64
   4  -5  -4   71.19   13.85
  -4   5   4   33.88   13.13
  -4   5   4   68.97   11.92
  -4   5   4   41.97    8.00
   3  -5  -4  185.84   12.37
  -3   5   4  182.53   15.31
  -3   5   4  170.90   15.36
  -3   5   4  183.78   18.46
  -2   5   4   81.28   14.27
  -2   5   4   69.26   12.46
  -2   5   4   69.94   12.77
   1  -5  -4  336.36   34.15
  -1   5   4  400.79   22.40
  -1   5   4  387.32   39.98
   0  -5  -4  503.74   26.54
   0   5   4  435.46   25.34
   0   5   4  510.21   32.44
  -1  -5  -4  539.60   27.53
   1   5   4  505.63   40.98
   1   5   4  491.00   28.86
  -2  -5  -4   18.57   13.60
   2   5   4   15.77   15.15
   2   5   4   66.89   23.28
   7  -6  -4  429.69   34.39
   7  -6  -4  514.82   36.33
  -7   6   4  536.91   33.53
   6  -6  -4    4.74   11.69
   6  -6  -4    2.90   12.22
  -6   6   4   -1.06   11.53
   5  -6  -4  377.45   26.00
   5  -6  -4  366.19   27.29
  -5   6   4  384.45   19.20
  -5   6   4  388.39   25.05
   4  -6  -4  109.39   13.85
   4  -6  -4  135.69   15.18
   4  -6  -4   91.53   18.88
  -4   6   4  102.55   14.31
  -4   6   4  119.22   17.90
  -4   6   4   73.75   13.89
   3  -6  -4  210.10   13.67
   3  -6  -4  241.38   13.05
   3  -6  -4  201.92   21.21
  -3   6   4  228.88   19.95
  -3   6   4  230.90   20.18
   2  -6  -4   31.86    9.48
  -2   6   4   31.61   10.28
  -2   6   4   28.84   11.16
   1  -6  -4  197.52   20.23
  -1   6   4  132.17   25.48
  -1   6   4  179.07   21.38
   0  -6  -4   22.88   11.66
   0   6   4   37.07   14.23
  -1  -6  -4   25.61   14.34
   1   6   4  -18.87   15.53
   1   6   4   12.14   22.89
   6  -7  -4   21.75   13.39
   6  -7  -4  -11.68   13.76
  -6   7   4   14.86   13.54
   5  -7  -4    2.51   12.94
   5  -7  -4  -12.37   10.76
  -5   7   4    8.73   13.44
   4  -7  -4  264.36   18.26
   4  -7  -4  275.89   26.12
  -4   7   4  244.38   21.75
  -4   7   4  278.76   25.26
   3  -7  -4  373.22   28.79
  -3   7   4  447.19   29.49
  -3   7   4  374.69   27.88
   2  -7  -4  363.03   26.99
  -2   7   4  312.79   30.16
  -2   7   4  421.51   30.64
   1  -7  -4   40.98   13.59
  -1   7   4   53.55   18.70
  -1   7   4   52.40   16.87
   4  -8  -4  108.13   21.46
   0   8  -5   47.48   16.22
   0  -8   5   78.11   16.65
  -1   8  -5   26.48   15.55
  -1   8  -5   26.41   13.00
   1  -8   5    9.27   19.47
  -2   8  -5   54.62   13.82
  -2   8  -5   48.07   13.49
   2  -8   5   45.67   15.30
  -3   8  -5  364.22   26.58
  -3   8  -5  339.75   29.49
   3  -8   5  402.73   33.42
  -4   8  -5  181.15   24.87
  -4   8  -5  149.43   28.57
   4  -8   5  200.45   32.69
  -1  -7   5   -5.18   12.16
   0   7  -5  520.34   26.25
   0   7  -5  515.40   29.80
   0  -7   5  520.78   23.94
   0  -7   5  515.12   29.11
  -1   7  -5   97.10   16.62
  -1   7  -5  102.68   17.57
   1  -7   5   88.14   15.45
   1  -7   5   85.07   14.38
  -2   7  -5   23.22   10.18
  -2   7  -5    6.64    8.94
   2  -7   5   11.36    7.57
   2  -7   5   -0.80   11.19
  -3   7  -5   30.83   10.00
   3  -7   5   42.50   15.54
  -4   7  -5  129.06   22.39
  -4   7  -5  146.20   19.71
   4  -7   5  167.96   29.67
  -5   7  -5    2.94   12.83
   5  -7   5   32.33   21.31
   3   6  -5  150.61   27.25
  -3  -6   5  172.28   26.46
   2   6  -5   51.57   11.75
   2   6  -5   48.52   13.43
   1   6  -5  221.47   20.33
   1   6  -5  251.78   17.80
  -1  -6   5  188.24   17.74
  -1  -6   5  260.27   21.51
  -1  -6   5  205.85   12.80
   0   6  -5  325.16   20.17
   0   6  -5  303.94   20.74
   0  -6   5  324.78   19.09
   0  -6   5  342.49   21.43
   0  -6   5  305.00   19.16
   0  -6   5  307.95   17.61
  -1   6  -5  255.54   18.96
  -1   6  -5  288.26   18.78
  -1   6  -5  257.40   18.14
   1  -6   5  262.38   17.09
   1  -6   5  208.22   17.04
   1  -6   5  253.94   20.31
  -2   6  -5  425.25   21.80
  -2   6  -5  368.30   18.47
   2  -6   5  384.51   17.22
   2  -6   5  374.70   33.26
  -3   6  -5  124.49   15.18
  -3   6  -5  132.42   17.50
   3  -6   5  182.83   24.28
  -4   6  -5  125.06   18.59
  -4   6  -5  169.56   21.34
   4  -6   5  172.50   29.60
  -5   6  -5   32.25   10.91
   5  -6   5   57.01   19.06
   4   5  -5   66.68   19.35
  -4  -5   5   35.89   14.54
   3   5  -5  120.56   16.97
   3   5  -5  157.16   23.70
  -3  -5   5  129.22   21.47
   2   5  -5   50.20   11.66
   2   5  -5   57.71   10.28
  -2  -5   5   62.11   10.70
  -2  -5   5   57.25   11.35
   1   5  -5  640.04   27.26
   1   5  -5  656.68   24.75
  -1  -5   5  625.17   24.62
  -1  -5   5  656.72   27.93
  -1  -5   5  615.81   19.74
  -1  -5   5  628.68   21.06
   0   5  -5   -6.06    5.62
   0   5  -5    8.33    7.50
   0   5  -5    1.60    6.20
   0  -5   5   10.87    5.67
   0  -5   5    3.85    9.37
   0  -5   5   11.85    6.37
   0  -5   5   -7.88    5.61
  -1   5  -5   70.00   11.84
  -1   5  -5   60.94   10.23
  -1   5  -5   83.39   11.53
   1  -5   5   58.16   10.84
   1  -5   5   57.58    9.74
   1  -5   5   79.21   13.29
   1  -5   5   53.89    8.59
   1  -5   5   56.46   10.80
  -2   5  -5  558.15   22.16
  -2   5  -5  549.99   20.11
  -2   5  -5  553.44   25.04
   2  -5   5  583.29   31.70
   2  -5   5  564.03   19.50
   2  -5   5  559.03   24.53
  -3   5  -5  167.64   12.31
  -3   5  -5  230.31   17.88
  -3   5  -5  198.13   13.91
   3  -5   5  203.33   10.52
   3  -5   5  203.28   25.19
   3  -5   5  211.88   17.23
  -4   5  -5   10.64    7.49
  -4   5  -5    0.91    9.18
   4  -5   5   10.12   14.40
   4  -5   5   16.20   12.92
  -5   5  -5   15.78   12.03
  -5   5  -5   25.41   10.63
   5  -5   5   46.10   18.57
  -6   5  -5  213.41   21.76
   6  -5   5  271.10   41.90
   5   4  -5   25.61   14.04
   5   4  -5   37.97   19.38
  -5  -4   5   14.91   15.21
   4   4  -5   86.36   16.26
   4   4  -5  124.77   17.14
   3   4  -5 1235.69   43.09
   3   4  -5 1224.32   35.33
  -3  -4   5 1159.89   37.39
  -3  -4   5 1229.71   42.99
   2   4  -5  601.68   26.67
   2   4  -5  584.25   22.35
  -2  -4   5  565.29   23.14
  -2  -4   5  602.72   27.07
   1   4  -5  109.96   11.12
   1   4  -5  147.08   14.22
   1   4  -5  135.18   12.25
  -1  -4   5  117.36    9.00
  -1  -4   5  108.53   11.58
  -1  -4   5  138.49   16.18
  -1  -4   5  131.35   12.60
  -1  -4   5  109.32   10.66
   0   4  -5  118.46   11.97
   0   4  -5  116.88   11.15
   0  -4   5  105.27   12.83
   0  -4   5  112.54   13.49
   0  -4   5  122.37   11.43
   0  -4   5  120.46   10.79
   0  -4   5  133.46   10.12
  -1   4  -5  923.01   27.66
  -1   4  -5  919.00   29.39
  -1   4  -5  911.59   25.86
   1  -4   5  854.88   26.05
   1  -4   5  838.45   27.51
   1  -4   5  831.81   28.40
   1  -4   5  869.16   25.82
   1  -4   5  860.82   35.65
  -2   4  -5  819.46   24.09
  -2   4  -5  820.48   25.08
  -2   4  -5  810.20   29.05
   2  -4   5  786.93   37.50
   2  -4   5  795.75   24.64
   2  -4   5  798.89   32.76
   2  -4   5  778.69   23.30
   2  -4   5  753.94   29.03
  -3   4  -5  227.39   20.15
  -3   4  -5  259.55   13.41
  -3   4  -5  260.12   14.53
   3  -4   5  251.29   13.52
   3  -4   5  249.80   25.74
   3  -4   5  260.84   16.65
  -4   4  -5   26.32    6.28
  -4   4  -5   25.47    8.95
   4  -4   5   21.21   14.52
   4  -4   5   10.91    6.47
   4  -4   5   22.05    5.90
  -5   4  -5  159.30   15.28
   5  -4   5  168.65   34.04
  -6   4  -5   25.09   11.27
   6  -4   5    6.33   26.59
   6  -4   5   44.60   23.30
   5   3  -5   19.75   12.51
   5   3  -5   20.04   14.10
  -5  -3   5   32.99   13.03
   4   3  -5  234.64   17.84
   4   3  -5  259.69   22.44
  -4  -3   5  240.04   21.11
   3   3  -5  257.99   18.72
   3   3  -5  241.14   15.85
  -3  -3   5  209.64   17.56
  -3  -3   5  258.63   19.22
   2   3  -5  771.40   28.76
   2   3  -5  854.03   26.41
   2   3  -5  852.13   28.54
  -2  -3   5  844.06   30.21
  -2  -3   5  806.08   31.31
  -2  -3   5  797.45   26.52
   1   3  -5   29.39    5.72
   1   3  -5   25.32    6.55
   1   3  -5   27.49    5.35
  -1  -3   5   35.80    6.45
  -1  -3   5   40.44    6.62
  -1  -3   5   40.96    8.06
  -1  -3   5   47.13    8.84
   0   3  -5  159.22   10.97
   0   3  -5  141.45    8.96
   0   3  -5  164.99   12.27
   0  -3   5  162.86   10.69
   0  -3   5  167.09   10.73
   0  -3   5  175.16   11.67
   0  -3   5  155.61   11.81
   0  -3   5  169.51   15.24
  -1   3  -5  411.12   17.34
  -1   3  -5  418.22   18.64
  -1   3  -5  415.94   13.57
   1  -3   5  402.71   14.31
   1  -3   5  396.71   24.39
   1  -3   5  407.43   18.57
   1  -3   5  432.40   17.44
   1  -3   5  396.74   17.57
  -2   3  -5   19.68    3.58
  -2   3  -5   15.98    5.78
   2  -3   5   25.12    5.98
   2  -3   5   20.97    5.57
   2  -3   5   13.22    6.54
   2  -3   5   22.59    6.60
   2  -3   5   40.17   11.01
  -3   3  -5  177.51    9.87
  -3   3  -5  150.00   14.81
  -3   3  -5  182.71   14.84
   3  -3   5  150.86   12.26
   3  -3   5  162.82   12.71
   3  -3   5  138.75   22.35
  -4   3  -5  414.25   17.83
  -4   3  -5  466.81   24.47
   4  -3   5  422.61   19.17
   4  -3   5  403.85   34.38
   4  -3   5  392.47   19.99
   4  -3   5  471.36   21.90
  -5   3  -5  714.46   26.09
   5  -3   5  726.21   31.15
   5  -3   5  767.45   49.41
   6  -3   5  276.98   39.61
   6  -3   5  171.97   27.93
   6  -3   5  200.52   34.15
   6   2  -5  113.76   17.49
   6   2  -5  165.31   24.17
  -6  -2   5  129.53   26.93
   5   2  -5   10.44   12.48
   5   2  -5   22.77    9.80
  -5  -2   5    5.34   10.70
   4   2  -5 1438.27   45.18
   4   2  -5 1410.90   40.09
  -4  -2   5 1411.64   45.51
   3   2  -5  107.13   10.39
   3   2  -5   92.68   11.16
   3   2  -5  105.06   12.75
   3   2  -5   67.61   10.88
  -3  -2   5   95.83   12.30
  -3  -2   5  100.57   11.96
   2   2  -5  408.96   15.94
   2   2  -5  367.52   19.17
   2   2  -5  412.38   17.18
   2   2  -5  395.70   17.09
  -2  -2   5  394.25   12.06
  -2  -2   5  392.07   18.36
   1   2  -5 1671.90   38.62
   1   2  -5 1638.06   35.55
   1   2  -5 1662.31   42.04
   1   2  -5 1656.84   33.96
  -1  -2   5 1658.67   36.03
  -1  -2   5 1673.19   38.76
  -1  -2   5 1672.38   37.10
  -1  -2   5 1658.70   41.02
   0   2  -5 1460.81   37.36
   0   2  -5 1480.25   35.98
   0   2  -5 1476.92   27.49
   0   2  -5 1470.08   36.11
   0  -2   5 1461.30   35.46
   0  -2   5 1483.00   37.09
   0  -2   5 1494.53   28.82
   0  -2   5 1444.32   35.24
  -1   2  -5  106.39    9.33
  -1   2  -5  106.75    4.98
  -1   2  -5   93.58   10.46
   1  -2   5   99.83    9.99
   1  -2   5  100.77    5.80
   1  -2   5  109.52    9.92
   1  -2   5   94.72    9.16
  -2   2  -5   16.51    2.82
  -2   2  -5   14.55    6.46
  -2   2  -5   12.19    5.13
   2  -2   5   28.64    7.34
   2  -2   5   12.80    3.90
   2  -2   5   20.19    6.25
   2  -2   5   12.35    5.18
  -3   2  -5  147.05   13.75
  -3   2  -5  166.05    9.22
   3  -2   5  150.97   12.47
   3  -2   5  163.27   14.64
   3  -2   5  138.34   11.31
   3  -2   5  207.33   24.28
  -4   2  -5  617.40   27.07
   4  -2   5  591.29   40.30
   4  -2   5  607.49   28.09
   4  -2   5  569.65   23.31
   4  -2   5  571.42   24.87
   4  -2   5  595.08   27.37
   5  -2   5  126.23   24.03
   5  -2   5   73.83   20.64
   5  -2   5   99.72   25.01
   5  -2   5   69.05   16.20
   6  -2   5   80.10   27.96
   6  -2   5   18.12   30.77
   6  -2   5   98.04   24.01
   7   1  -5   -4.14   37.71
   7   1  -5  -24.38   16.14
  -7  -1   5   31.23   16.98
   6   1  -5  320.92   34.04
   6   1  -5  294.51   24.41
  -6  -1   5  289.19   26.92
   5   1  -5  336.52   26.25
   5   1  -5  279.79   21.45
  -5  -1   5  320.44   23.18
   4   1  -5   48.83    9.19
   4   1  -5   56.36   10.64
   4   1  -5   56.84    8.33
  -4  -1   5   39.50   10.11
  -4  -1   5   76.70   12.14
   3   1  -5  213.45   14.18
   3   1  -5  179.07    9.20
   3   1  -5  201.74   12.86
   3   1  -5  176.16   11.73
   3   1  -5  197.39   14.89
  -3  -1   5  173.94   13.03
  -3  -1   5  183.94   13.27
  -3  -1   5  176.28    9.35
   2   1  -5   77.12    7.83
   2   1  -5   68.61   10.03
   2   1  -5   88.65    6.71
   2   1  -5   89.20    8.34
   2   1  -5   72.72    6.92
  -2  -1   5   89.07    6.48
  -2  -1   5   74.14    8.77
  -2  -1   5   74.04    8.70
   1   1  -5  883.95   27.75
   1   1  -5  891.79   24.66
   1   1  -5  862.24   18.81
   1   1  -5  885.65   18.19
   1   1  -5  879.79   24.84
  -1  -1   5  875.93   24.10
  -1  -1   5  862.15   25.21
  -1  -1   5  877.07   27.77
   0   1  -5  677.91   22.71
   0   1  -5  672.31   21.39
   0   1  -5  640.03   23.46
   0  -1   5  696.20   22.79
   0  -1   5  681.03   21.60
   0  -1   5  696.95   24.20
  -1   1  -5  174.42   11.23
  -1   1  -5  151.37   12.98
  -1   1  -5  158.00   12.04
   1  -1   5  161.56   12.48
   1  -1   5  170.80   11.96
   1  -1   5  172.64   11.20
  -2   1  -5  660.30   28.29
  -2   1  -5  696.64   24.34
  -2   1  -5  719.18   27.64
   2  -1   5  704.84   27.25
   2  -1   5  707.10   24.60
   2  -1   5  682.71   17.10
   2  -1   5  708.86   19.13
   2  -1   5  713.12   27.70
  -3   1  -5  389.93   20.16
   3  -1   5  362.72   20.38
   3  -1   5  408.34   24.53
   3  -1   5  376.29   20.48
   3  -1   5  393.43   18.11
   3  -1   5  383.79   15.64
  -4   1  -5  410.54   27.25
   4  -1   5  491.56   25.91
   4  -1   5  494.30   23.01
   4  -1   5  577.74   40.89
   4  -1   5  546.44   31.28
   5  -1   5   81.83   27.23
   5  -1   5   92.51   20.39
   7   0  -5  100.13   23.24
   7   0  -5  101.35   20.44
  -7   0   5  133.61   24.29
   6   0  -5    3.98   14.25
   6   0  -5    8.87    6.53
   6   0  -5    3.70   11.17
  -6   0   5  -10.22    9.89
   5   0  -5 2050.14   60.05
   5   0  -5 1924.50   61.54
   5   0  -5 2014.23   40.20
  -5   0   5 1928.29   55.44
  -5   0   5 2130.04   54.61
   4   0  -5  380.77   14.37
   4   0  -5  329.98   17.30
   4   0  -5  313.16   20.37
   4   0  -5  358.39   17.98
  -4   0   5  327.93   18.36
  -4   0   5  340.02   20.16
  -4   0   5  356.71   19.30
   3   0  -5  783.35   21.70
   3   0  -5  786.02   22.96
   3   0  -5  758.89   25.23
   3   0  -5  798.92   28.58
  -3   0   5  784.99   27.08
  -3   0   5  821.67   27.55
  -3   0   5  791.36   23.01
   2   0  -5  330.70   11.61
   2   0  -5  323.41   13.76
   2   0  -5  312.50   16.31
  -2   0   5  315.71   14.88
  -2   0   5  302.98   15.97
  -2   0   5  316.84   13.68
  -2   0   5  318.99   11.54
   1   0  -5   19.26    4.20
   1   0  -5   14.42    2.48
   1   0  -5   11.65    3.26
   1   0  -5   24.43    5.92
  -1   0   5   13.26    4.61
  -1   0   5   11.68    4.32
  -1   0   5   14.50    3.93
   0   0  -5  206.86   12.88
   0   0  -5  195.66   10.74
   0   0  -5  205.90   14.37
   0   0   5  211.33   11.58
   0   0   5  202.60   13.42
   0   0   5  205.87   12.87
  -1   0  -5  406.30   21.46
  -1   0  -5  402.50   16.36
  -1   0  -5  406.78   19.55
   1   0   5  412.18   19.75
   1   0   5  412.82   16.52
   1   0   5  412.25   20.96
  -2   0  -5  755.52   24.77
  -2   0  -5  734.20   28.53
   2   0   5  692.06   19.65
   2   0   5  754.62   31.15
   2   0   5  681.55   27.67
   2   0   5  706.58   23.78
   2   0   5  748.86   20.54
  -3   0  -5   85.39   13.52
  -3   0  -5   65.57    9.74
   3   0   5   79.27   11.00
   3   0   5   94.84   14.37
   3   0   5   88.68   17.88
   3   0   5   87.92   12.06
   4   0   5    6.93   11.27
   4   0   5   -4.74   19.43
   4   0   5   -3.89   12.64
   4   0   5   28.59   10.52
   4   0   5   -1.98   14.83
   5   0   5  107.57   18.35
   5   0   5   71.72   22.17
   5   0   5  114.84   24.57
   5   0   5   81.70   27.07
   7  -1  -5  120.72   20.43
   7  -1  -5  131.24   21.99
  -7   1   5  130.99   21.79
   6  -1  -5   24.81    9.74
   6  -1  -5   18.41    8.21
  -6   1   5   42.16   14.68
   5  -1  -5  187.71   13.60
   5  -1  -5  184.25   16.11
   5  -1  -5  142.35   17.30
  -5   1   5  180.36   17.14
  -5   1   5  172.33   14.66
  -5   1   5  195.29   16.28
   4  -1  -5  712.29   24.89
   4  -1  -5  787.29   24.80
   4  -1  -5  762.72   27.18
   4  -1  -5  744.85   29.07
  -4   1   5  765.84   26.43
  -4   1   5  764.55   27.20
  -4   1   5  751.64   30.45
  -4   1   5  756.50   25.29
   3  -1  -5   15.87    4.27
   3  -1  -5   21.81    6.12
   3  -1  -5   14.32    4.54
   3  -1  -5   14.29    4.34
  -3   1   5   10.36    5.21
  -3   1   5   20.15    6.64
  -3   1   5   13.91    4.24
  -3   1   5   17.84    5.16
   2  -1  -5  418.47   16.54
   2  -1  -5  398.60   13.05
   2  -1  -5  402.96   16.71
   2  -1  -5  433.06   19.82
  -2   1   5  426.50   17.98
  -2   1   5  399.84   13.02
  -2   1   5  404.19   19.06
  -2   1   5  406.88   16.76
   1  -1  -5  139.43    8.90
   1  -1  -5  142.46   12.45
   1  -1  -5  158.29    6.60
   1  -1  -5  137.66   10.76
  -1   1   5  141.86   11.65
  -1   1   5  146.85    6.55
  -1   1   5  140.16   10.83
  -1   1   5  154.97    9.89
   0  -1  -5  637.48   15.54
   0  -1  -5  629.63   27.19
   0  -1  -5  642.90   23.91
   0  -1  -5  630.35   19.42
   0   1   5  618.62   23.82
   0   1   5  632.98   26.16
   0   1   5  639.09   19.93
   0   1   5  632.70   14.95
  -1  -1  -5 1434.64   46.34
  -1  -1  -5 1398.02   33.14
  -1  -1  -5 1411.97   40.43
   1   1   5 1374.63   32.68
   1   1   5 1364.08   29.25
   1   1   5 1375.43   43.92
   1   1   5 1416.80   28.79
   1   1   5 1281.59   38.40
  -2  -1  -5  343.06   16.14
  -2  -1  -5  381.26   20.75
   2   1   5  371.84   15.79
   2   1   5  373.11   16.15
   2   1   5  347.92   16.73
   2   1   5  364.44   24.83
  -3  -1  -5  420.28   23.28
   3   1   5  469.74   32.60
   3   1   5  409.89   20.50
   3   1   5  433.45   21.87
   3   1   5  431.04   21.25
   4   1   5   49.84   18.59
   4   1   5   50.97   18.44
   4   1   5   50.29   16.81
   7  -2  -5  102.40   17.06
   7  -2  -5  103.28   21.24
  -7   2   5  102.44   15.41
  -7   2   5   80.10   13.44
   6  -2  -5 1538.31   43.79
   6  -2  -5 1491.22   47.97
  -6   2   5 1524.57   43.73
  -6   2   5 1333.07   47.83
  -6   2   5 1506.67   45.79
   5  -2  -5    6.61    6.54
   5  -2  -5    7.52    6.55
   5  -2  -5   14.84    9.46
  -5   2   5    2.26    6.01
  -5   2   5    0.03    9.73
  -5   2   5   -5.50    6.06
   4  -2  -5  202.53   16.13
   4  -2  -5  194.40   14.07
   4  -2  -5  203.63   14.23
   4  -2  -5  212.07   14.43
  -4   2   5  207.91   16.33
  -4   2   5  174.72   17.40
  -4   2   5  196.68   13.42
  -4   2   5  192.52   14.07
   3  -2  -5  246.86   12.61
   3  -2  -5  259.50   13.98
   3  -2  -5  227.36   16.11
   3  -2  -5  250.50   15.17
  -3   2   5  238.70   12.44
  -3   2   5  245.06   16.19
  -3   2   5  253.79   16.03
  -3   2   5  253.64   15.41
   2  -2  -5  460.14   17.27
   2  -2  -5  453.26   21.71
   2  -2  -5  450.93   19.75
   2  -2  -5  454.73   15.38
  -2   2   5  465.47   16.05
  -2   2   5  445.72   20.52
  -2   2   5  455.18   20.86
  -2   2   5  473.50   18.57
   1  -2  -5  764.89   21.30
   1  -2  -5  766.30   23.31
   1  -2  -5  742.20   30.16
   1  -2  -5  773.36   26.92
  -1   2   5  786.38   22.45
  -1   2   5  746.14   27.61
  -1   2   5  756.00   20.42
  -1   2   5  765.93   29.23
   0  -2  -5   47.61    8.69
   0  -2  -5   50.82    9.95
   0  -2  -5   36.96    5.99
   0  -2  -5   46.12    5.98
   0   2   5   44.84    7.01
   0   2   5   37.88    9.11
   0   2   5   47.13    7.66
  -1  -2  -5  102.69   12.51
  -1  -2  -5   97.84   11.90
  -1  -2  -5   87.42    9.00
   1   2   5   77.50    9.89
   1   2   5   98.60    9.87
   1   2   5   99.20   16.09
   1   2   5   86.96   16.85
  -2  -2  -5    7.71    5.53
   2   2   5   26.72    8.27
   2   2   5   15.38    7.52
   2   2   5    9.44   11.14
   2   2   5    5.99    7.15
  -3  -2  -5  218.17   20.53
   3   2   5  184.44   23.58
   3   2   5  301.03   30.69
   3   2   5  253.72   21.47
  -4  -2  -5  201.74   25.59
   4   2   5  235.95   39.03
   4   2   5  209.65   27.55
   8  -3  -5  209.56   34.19
  -8   3   5  219.97   32.27
  -8   3   5  266.75   39.18
   7  -3  -5  167.57   23.88
   7  -3  -5  164.70   23.00
  -7   3   5  154.01   19.70
  -7   3   5  190.04   21.72
   6  -3  -5  247.69   21.65
   6  -3  -5  255.49   21.99
   6  -3  -5  323.24   23.56
  -6   3   5  255.07   17.87
  -6   3   5  266.46   20.20
   5  -3  -5   33.29    9.87
   5  -3  -5   32.13    9.84
   5  -3  -5   31.24    8.71
  -5   3   5   30.27    7.17
   4  -3  -5   68.37   13.82
   4  -3  -5   40.85    7.91
  -4   3   5   45.77   10.01
  -4   3   5   49.93    8.10
  -4   3   5   53.89    9.97
  -4   3   5   39.20   10.09
   3  -3  -5  769.41   28.72
   3  -3  -5  717.59   23.45
   3  -3  -5  695.83   29.25
   3  -3  -5  760.03   24.50
  -3   3   5  663.49   28.53
  -3   3   5  769.59   24.91
  -3   3   5  739.84   27.95
  -3   3   5  769.46   28.23
   2  -3  -5 1209.28   40.35
   2  -3  -5 1291.64   31.13
   2  -3  -5 1205.26   31.13
   2  -3  -5 1239.97   37.40
  -2   3   5 1235.41   31.89
  -2   3   5 1161.86   38.44
  -2   3   5 1236.21   38.82
  -2   3   5 1229.31   32.65
   1  -3  -5 1305.36   32.66
   1  -3  -5 1311.79   28.88
   1  -3  -5 1326.55   39.39
   1  -3  -5 1234.80   44.23
  -1   3   5 1298.76   30.66
  -1   3   5 1265.93   42.15
  -1   3   5 1293.75   32.91
  -1   3   5 1206.61   39.67
   0  -3  -5  306.11   11.71
   0  -3  -5  324.18   16.89
   0  -3  -5  319.96   19.20
   0   3   5  301.64   14.74
   0   3   5  330.46   22.54
   0   3   5  320.68   16.38
  -1  -3  -5   19.10   10.18
  -1  -3  -5   24.06    7.98
   1   3   5   14.99    7.35
   1   3   5   17.80    9.91
  -2  -3  -5  315.75   22.53
   2   3   5  358.98   32.33
   2   3   5  260.01   20.89
  -3  -3  -5   56.13   13.21
   3   3   5   58.26   15.54
   8  -4  -5  124.65   23.88
   7  -4  -5  753.81   37.81
   7  -4  -5  683.29   37.09
  -7   4   5  759.48   28.56
  -7   4   5  743.92   35.43
   6  -4  -5   -6.53    9.81
   6  -4  -5   22.03   13.09
   6  -4  -5  -16.21    9.33
  -6   4   5    1.24    8.12
   5  -4  -5  182.16   19.49
   5  -4  -5  215.27   19.17
  -5   4   5  211.81   15.76
   4  -4  -5  162.06   15.45
   4  -4  -5  133.94   12.71
   4  -4  -5  116.92   17.44
  -4   4   5  129.57   13.87
  -4   4   5  164.83   14.28
  -4   4   5  143.01   19.76
   3  -4  -5  149.71   19.21
   3  -4  -5  178.74   14.61
   3  -4  -5  153.13   15.12
   3  -4  -5  147.51   11.43
  -3   4   5  170.40   14.38
  -3   4   5  128.50   15.73
  -3   4   5  174.86   13.61
   2  -4  -5  292.70   17.49
   2  -4  -5  287.44   18.67
   2  -4  -5  222.15   23.36
   2  -4  -5  284.10   12.43
  -2   4   5  293.42   16.98
  -2   4   5  287.56   17.07
  -2   4   5  308.40   20.87
   1  -4  -5   27.73    8.81
   1  -4  -5   28.51    8.23
  -1   4   5   28.36    7.59
  -1   4   5   34.15   10.37
   0  -4  -5  277.32   20.63
   0  -4  -5  325.34   21.50
   0   4   5  301.28   19.48
   0   4   5  339.77   27.62
  -1  -4  -5   76.98   16.23
   1   4   5   55.59   12.76
   1   4   5   76.30   16.80
  -2  -4  -5  152.65   22.24
   2   4   5  251.26   36.19
   2   4   5  177.94   23.16
   7  -5  -5    7.67   14.47
   7  -5  -5   20.16   14.81
  -7   5   5   31.27   14.47
   6  -5  -5   53.46   12.05
   6  -5  -5   59.37   13.56
  -6   5   5   42.41   12.61
  -6   5   5   70.17   10.23
   5  -5  -5  282.17   20.45
   5  -5  -5  260.36   23.24
   5  -5  -5  258.20   21.97
  -5   5   5  244.63   20.82
  -5   5   5  254.48   17.70
   4  -5  -5  806.01   36.26
   4  -5  -5  857.01   29.22
   4  -5  -5  854.49   36.26
  -4   5   5  886.53   37.80
  -4   5   5  875.47   43.47
  -4   5   5  862.12   32.20
   3  -5  -5  229.29   13.53
   3  -5  -5  223.92   20.45
  -3   5   5  248.53   19.20
  -3   5   5  229.93   21.96
  -3   5   5  264.26   19.63
   2  -5  -5  225.91   19.04
   2  -5  -5  194.65   10.17
  -2   5   5  212.80   24.36
  -2   5   5  211.89   17.70
  -2   5   5  200.65   17.51
   1  -5  -5   61.00   11.12
  -1   5   5   50.31   12.45
  -1   5   5   93.59   16.54
   0  -5  -5  144.15   19.85
   0   5   5  114.50   19.58
  -1  -5  -5  379.78   27.12
   1   5   5  414.36   38.85
   1   5   5  355.74   28.40
   7  -6  -5    0.42   16.29
   7  -6  -5   24.66   15.72
  -7   6   5   50.94   16.30
   6  -6  -5  128.93   20.96
   6  -6  -5  131.34   22.58
  -6   6   5  171.48   23.26
   5  -6  -5  132.71   17.98
   5  -6  -5  111.87   23.21
  -5   6   5  114.64   14.29
  -5   6   5   77.57   14.68
   4  -6  -5  161.93   14.51
   4  -6  -5  136.68   21.31
  -4   6   5  195.44   19.21
   3  -6  -5  161.82   12.77
   3  -6  -5  216.87   22.98
  -3   6   5  199.59   20.20
  -3   6   5  206.03   21.26
   2  -6  -5   10.34   10.19
  -2   6   5   38.18   12.22
   1  -6  -5  119.27   21.53
  -1   6   5  205.68   27.62
  -1   6   5  175.37   22.61
   0  -6  -5   28.44   13.71
   0   6   5   -9.27   15.12
   0   6   5   49.86   19.94
   6  -7  -5   61.19   19.52
   6  -7  -5   77.67   16.31
   5  -7  -5  135.65   21.41
   5  -7  -5  157.71   20.87
  -5   7   5  147.47   25.36
   4  -7  -5  132.41   20.14
  -4   7   5  134.30   21.86
  -4   7   5  116.91   19.63
   3  -7  -5  401.74   30.60
  -3   7   5  397.16   31.39
  -3   7   5  436.03   30.40
   2  -7  -5   21.77   13.41
  -2   7   5   22.62   14.67
  -2   7   5   36.42   16.27
  -1   8  -6    5.06   14.26
  -1   8  -6  -11.99   15.32
   1  -8   6   -7.25   18.64
  -2   8  -6  237.41   25.23
  -2   8  -6  243.83   29.14
   2  -8   6  287.88   30.95
  -3   8  -6  149.61   27.34
  -3   8  -6   90.88   16.30
   3  -8   6   82.40   19.71
   1   7  -6   33.76   14.56
   1   7  -6   70.07   15.43
  -1  -7   6  120.03   24.71
   0   7  -6   83.17   14.65
   0   7  -6   86.48   14.79
   0  -7   6   58.06   13.07
   0  -7   6   95.32   16.05
  -1   7  -6   64.64   14.29
  -1   7  -6   57.21   11.85
   1  -7   6   51.75   13.44
   1  -7   6   40.64   11.14
  -2   7  -6  158.43   21.83
  -2   7  -6  151.70   17.91
   2  -7   6  138.12   25.54
   2  -7   6  153.71   24.20
  -3   7  -6   -4.09   10.81
  -3   7  -6   -3.45   12.82
   3  -7   6   11.26   15.71
  -4   7  -6   37.36   15.83
   4  -7   6   52.54   22.10
   3   6  -6  217.78   29.23
  -3  -6   6  268.15   31.05
   2   6  -6  123.65   20.99
  -2  -6   6  124.74   23.80
   1   6  -6  184.48   19.36
   1   6  -6  166.16   17.99
  -1  -6   6  155.22   21.18
  -1  -6   6  153.77   14.44
   0   6  -6  293.53   19.82
   0   6  -6  255.44   29.61
   0  -6   6  298.91   21.24
   0  -6   6  228.91   17.41
   0  -6   6  260.55   19.79
  -1   6  -6  529.99   25.72
  -1   6  -6  541.95   27.45
  -1   6  -6  568.67   25.28
   1  -6   6  582.97   25.62
   1  -6   6  611.27   31.72
  -2   6  -6   23.88    8.22
  -2   6  -6   41.05   11.73
  -2   6  -6   32.57   10.19
   2  -6   6   34.11    8.15
   2  -6   6   29.49   13.76
  -3   6  -6   25.21    8.09
  -3   6  -6   24.39   10.90
   3  -6   6    6.50   14.74
   3  -6   6   19.88    8.21
  -4   6  -6   16.74   12.05
   4  -6   6   32.16   18.90
  -5   6  -6  283.38   29.34
  -5   6  -6  337.21   21.94
   5  -6   6  241.34   40.21
   4   5  -6   50.31   15.15
  -4  -5   6   44.44   16.75
  -3  -5   6  112.40   22.52
   2   5  -6  109.50   17.57
   2   5  -6  106.19   15.42
  -2  -5   6   88.43   16.97
   1   5  -6   63.74   10.15
   1   5  -6   62.22   10.23
  -1  -5   6   87.64   10.69
  -1  -5   6   56.27   10.33
  -1  -5   6   62.53    8.37
   0   5  -6   13.30    6.71
   0   5  -6   14.89    7.35
   0   5  -6   28.33    9.68
   0  -5   6   11.27    8.80
   0  -5   6   27.34   10.56
   0  -5   6   -1.77    6.78
   0  -5   6   11.15    7.33
  -1   5  -6  231.14   14.80
  -1   5  -6  232.94   17.64
  -1   5  -6  230.46   17.16
   1  -5   6  247.96   16.97
   1  -5   6  208.89   18.02
   1  -5   6  226.06   15.71
   1  -5   6  218.11   23.01
  -2   5  -6  145.21   12.47
  -2   5  -6  174.26   15.29
  -2   5  -6  156.71   16.08
   2  -5   6  156.85   13.30
   2  -5   6  127.49   16.39
  -3   5  -6  525.73   21.67
  -3   5  -6  515.37   21.62
  -3   5  -6  568.89   28.03
   3  -5   6  541.38   38.17
   3  -5   6  572.35   25.47
   3  -5   6  540.33   19.90
  -4   5  -6  277.36   23.77
  -4   5  -6  203.37   15.45
   4  -5   6  235.75   35.92
  -5   5  -6  172.85   24.33
   5  -5   6  132.07   28.15
   5   4  -6    9.29   14.97
  -5  -4   6  -30.57   26.83
   4   4  -6  514.38   27.31
   4   4  -6  587.89   34.40
  -4  -4   6  514.19   33.91
   3   4  -6  584.46   25.57
   3   4  -6  615.31   30.13
  -3  -4   6  575.83   30.34
   2   4  -6  422.29   21.40
   2   4  -6  362.34   19.79
   1   4  -6  118.40   14.92
   1   4  -6  130.57   11.69
   1   4  -6  119.91   12.73
  -1  -4   6  147.70   10.82
  -1  -4   6  118.75   14.03
  -1  -4   6  103.65   13.16
  -1  -4   6  135.81   12.86
  -1  -4   6  116.04   16.08
   0   4  -6   28.77    6.62
   0   4  -6   30.51    7.90
   0   4  -6   34.16    5.99
   0  -4   6   31.43    6.57
   0  -4   6   31.50    9.69
   0  -4   6   46.53    8.64
   0  -4   6   31.69    7.33
  -1   4  -6   49.53    7.58
  -1   4  -6   34.83    7.92
  -1   4  -6   54.85    9.87
   1  -4   6   33.87   11.06
   1  -4   6   29.62    6.99
   1  -4   6   31.96    7.63
  -2   4  -6  331.04   23.48
  -2   4  -6  330.25   18.21
  -2   4  -6  338.10   14.12
   2  -4   6  347.93   28.86
   2  -4   6  344.41   17.28
   2  -4   6  346.13   16.78
  -3   4  -6  287.45   20.59
  -3   4  -6  246.86   17.86
  -3   4  -6  267.29   13.47
   3  -4   6  307.07   17.84
   3  -4   6  262.50   16.43
   3  -4   6  275.81   29.74
  -4   4  -6  146.14   12.13
  -4   4  -6  171.48   20.22
   4  -4   6  185.97   16.45
   4  -4   6  197.13   31.76
  -5   4  -6  -13.01   12.07
  -5   4  -6    0.42    8.77
   5   3  -6   66.02   15.78
  -5  -3   6   63.02   15.08
   4   3  -6  216.21   20.35
   4   3  -6  213.30   21.53
  -4  -3   6  234.14   21.90
   3   3  -6  187.63   16.46
   3   3  -6  144.79   13.78
  -3  -3   6  165.42   16.95
   2   3  -6  173.83   13.58
   2   3  -6  162.05   12.84
  -2  -3   6  188.32   14.92
  -2  -3   6  161.37    9.20
  -2  -3   6  163.99   12.29
  -2  -3   6  170.55   13.86
   1   3  -6   64.79    9.01
   1   3  -6   63.31   12.47
   1   3  -6   50.01    8.05
  -1  -3   6   49.37    8.14
  -1  -3   6   51.00    8.52
  -1  -3   6   56.02    9.33
  -1  -3   6   65.73   12.23
  -1  -3   6   55.23   10.24
   0   3  -6  504.17   15.99
   0   3  -6  518.23   22.24
   0   3  -6  510.66   21.18
   0  -3   6  512.52   27.22
   0  -3   6  521.09   21.75
   0  -3   6  538.59   20.71
  -1   3  -6  310.63   17.34
  -1   3  -6  328.89   11.39
  -1   3  -6  319.33   17.54
   1  -3   6  335.32   17.70
   1  -3   6  348.83   13.04
   1  -3   6  310.21   17.03
   1  -3   6  325.93   24.95
   1  -3   6  338.04   18.71
  -2   3  -6  626.78   25.78
  -2   3  -6  656.34   26.64
  -2   3  -6  596.55   16.31
   2  -3   6  631.03   36.90
   2  -3   6  654.46   18.22
   2  -3   6  637.19   24.70
  -3   3  -6  194.22   17.04
  -3   3  -6  170.71    9.86
  -3   3  -6  173.17   18.06
   3  -3   6  185.94   26.38
   3  -3   6  173.96   14.78
   3  -3   6  161.83   12.84
  -4   3  -6  353.53   16.27
  -4   3  -6  414.69   25.53
   4  -3   6  396.19   37.73
   4  -3   6  400.26   23.06
   4  -3   6  328.23   21.04
   5  -3   6  430.13   32.58
   5  -3   6  398.99   44.25
   5  -3   6  472.94   29.13
   6   2  -6  149.81   24.80
  -6  -2   6  136.96   28.06
   5   2  -6  896.36   40.39
   5   2  -6  980.30   36.48
  -5  -2   6  985.07   40.85
   4   2  -6  242.04   17.69
   4   2  -6  252.12   20.25
  -4  -2   6  244.41   20.47
   3   2  -6    8.78    5.67
   3   2  -6   11.63    6.20
   3   2  -6    5.46    6.00
  -3  -2   6   12.26    7.92
  -3  -2   6   -1.21    5.92
  -3  -2   6    2.51    3.82
   2   2  -6  100.29   12.98
   2   2  -6  106.36    9.73
   2   2  -6  108.27    8.93
   2   2  -6  110.47   10.34
   2   2  -6  117.77    8.99
  -2  -2   6  121.57    8.36
  -2  -2   6  113.80   11.29
  -2  -2   6  113.07   11.69
   1   2  -6  546.92   20.80
   1   2  -6  523.53   15.10
   1   2  -6  524.80   23.30
   1   2  -6  508.38   19.21
   1   2  -6  546.99   15.69
  -1  -2   6  539.07   19.47
  -1  -2   6  532.37   21.92
   0   2  -6  750.88   15.47
   0   2  -6  757.94   27.25
   0   2  -6  771.18   26.20
   0   2  -6  750.95   25.45
   0  -2   6  756.05   26.68
   0  -2   6  727.35   25.30
   0  -2   6  759.30   25.44
  -1   2  -6  144.50   13.22
  -1   2  -6  132.57   10.95
  -1   2  -6  115.70   12.20
   1  -2   6  151.72   12.79
   1  -2   6  130.42   12.41
   1  -2   6  134.92   12.49
  -2   2  -6   -0.25    8.05
  -2   2  -6    8.99    5.50
   2  -2   6   11.59    6.33
   3  -2   6   84.43   10.52
   3  -2   6   71.78   17.21
   3  -2   6  105.58   12.34
   3  -2   6   73.37   14.93
  -4   2  -6  211.19   19.09
   4  -2   6  206.13   33.57
   4  -2   6  201.45   22.00
   4  -2   6  180.95   19.55
   5  -2   6  403.99   42.22
   5  -2   6  303.63   45.31
   5  -2   6  399.86   34.35
   6   1  -6  334.37   33.26
   6   1  -6  356.47   27.79
  -6  -1   6  293.91   27.34
   5   1  -6  322.09   25.96
   5   1  -6  315.39   21.47
  -5  -1   6  350.68   23.67
   4   1  -6   13.65    4.69
   4   1  -6   23.98    7.85
   4   1  -6   24.74    8.89
   4   1  -6   22.13    6.39
  -4  -1   6   22.01    7.18
  -4  -1   6   28.25    5.80
   3   1  -6   14.77    5.32
   3   1  -6   29.63    6.96
   3   1  -6   29.17    6.02
   3   1  -6   19.04    7.76
   3   1  -6   26.45    5.34
  -3  -1   6   26.16    5.38
  -3  -1   6   29.61    7.40
  -3  -1   6   27.15    7.25
   2   1  -6  158.77   11.34
   2   1  -6  180.47   14.62
   2   1  -6  170.07   10.26
   2   1  -6  169.39   11.13
   2   1  -6  169.19    8.95
  -2  -1   6  156.20   10.42
  -2  -1   6  179.01   13.28
   1   1  -6 1516.86   26.45
   1   1  -6 1514.33   26.74
   1   1  -6 1554.48   38.26
   1   1  -6 1510.12   41.83
   1   1  -6 1536.88   38.05
  -1  -1   6 1549.90   38.38
  -1  -1   6 1549.57   42.06
  -1  -1   6 1525.59   37.36
   0   1  -6 1226.62   33.12
   0   1  -6 1147.03   36.75
   0   1  -6 1214.65   34.90
   0  -1   6 1183.06   34.39
   0  -1   6 1252.75   37.07
   0  -1   6 1180.44   32.78
  -1   1  -6  790.57   29.65
  -1   1  -6  807.41   27.01
  -1   1  -6  790.36   30.67
   1  -1   6  764.34   29.02
   1  -1   6  794.23   28.82
   1  -1   6  813.75   26.74
  -2   1  -6  130.06   14.09
  -2   1  -6   96.92   13.36
  -2   1  -6  127.44   11.91
   2  -1   6  117.93    7.91
   2  -1   6  121.27   13.29
   2  -1   6  115.05   15.06
  -3   1  -6  318.48   19.33
   3  -1   6  314.64   15.54
   3  -1   6  291.70   14.50
   3  -1   6  303.82   24.55
   4  -1   6  179.46   37.49
   4  -1   6  196.41   19.52
   4  -1   6  225.41   26.34
   5  -1   6   11.43   23.93
   5  -1   6   50.90   21.73
   5  -1   6   40.30   28.79
   7   0  -6  188.51   37.31
   7   0  -6  227.18   27.32
  -7   0   6  274.97   28.35
   6   0  -6  284.65   23.81
   6   0  -6  350.43   19.07
   6   0  -6  314.59   31.35
  -6   0   6  357.75   24.70
   5   0  -6  114.72   15.42
   5   0  -6  128.34   10.63
   5   0  -6  132.58   20.17
  -5   0   6   84.89   15.45
  -5   0   6  107.83   15.65
   4   0  -6  104.09   11.51
   4   0  -6   88.20    9.44
   4   0  -6   99.56   11.99
   4   0  -6   96.12   14.25
  -4   0   6   80.83   13.47
  -4   0   6   98.87   12.19
   3   0  -6  595.36   25.82
   3   0  -6  561.24   18.92
   3   0  -6  573.06   20.31
   3   0  -6  554.72   21.99
  -3   0   6  541.46   23.42
  -3   0   6  554.86   23.61
  -3   0   6  557.66   20.81
   2   0  -6  181.27   11.44
   2   0  -6  170.60   13.71
   2   0  -6  174.50   11.66
   2   0  -6  186.12    8.39
  -2   0   6  203.01   12.51
  -2   0   6  181.24   12.96
  -2   0   6  190.98   14.42
   1   0  -6  113.95    9.32
   1   0  -6  115.47   10.47
   1   0  -6  112.11   12.87
  -1   0   6  118.77   11.02
  -1   0   6  115.95   11.76
  -1   0   6  102.85   10.42
   0   0  -6   39.54    7.85
   0   0  -6   26.79    5.37
   0   0  -6   24.59    7.58
   0   0   6   19.32    5.99
   0   0   6   23.45    6.10
   0   0   6   17.71    6.11
  -1   0  -6  450.19   18.83
  -1   0  -6  458.55   22.34
  -1   0  -6  434.37   25.73
   1   0   6  451.18   19.72
   1   0   6  446.65   23.61
   1   0   6  426.89   22.24
  -2   0  -6  441.62   24.03
  -2   0  -6  426.94   20.03
   2   0   6  470.99   26.39
   2   0   6  452.16   14.64
   2   0   6  438.46   15.04
   2   0   6  457.97   20.88
  -3   0  -6  143.08   15.17
  -3   0  -6  157.43   18.31
   3   0   6  137.90   13.95
   3   0   6  135.60   22.97
   3   0   6  130.29   13.86
   4   0   6   98.04   28.71
   4   0   6   77.50   18.74
   4   0   6   73.56   14.14
   7  -1  -6   97.28   20.48
   7  -1  -6   65.75   17.60
   6  -1  -6   15.25    8.15
   6  -1  -6   -3.07    9.94
  -6   1   6  -10.25    9.81
  -6   1   6   23.11   14.30
   5  -1  -6   80.81   13.56
   5  -1  -6   84.26   11.70
  -5   1   6   61.79   11.06
  -5   1   6   95.29   13.71
  -5   1   6   59.45    9.99
   4  -1  -6  750.21   25.33
   4  -1  -6  772.22   28.87
   4  -1  -6  788.98   26.37
   4  -1  -6  762.68   31.04
  -4   1   6  804.69   29.87
  -4   1   6  757.76   28.19
  -4   1   6  795.52   26.12
   3  -1  -6  881.98   28.08
   3  -1  -6  924.25   24.87
   3  -1  -6  905.85   28.80
   3  -1  -6  874.35   31.92
  -3   1   6  907.21   25.14
  -3   1   6  922.57   29.78
  -3   1   6  853.14   29.64
  -3   1   6  910.62   32.04
   2  -1  -6 1062.21   29.65
   2  -1  -6 1010.42   35.00
   2  -1  -6 1059.49   31.96
   2  -1  -6 1052.64   23.60
  -2   1   6 1026.45   34.39
  -2   1   6 1024.51   31.97
  -2   1   6 1027.52   23.18
  -2   1   6 1018.93   30.53
   1  -1  -6  455.96   12.05
   1  -1  -6  478.01   24.57
   1  -1  -6  489.73   18.34
   1  -1  -6  472.36   21.08
  -1   1   6  471.34   21.37
  -1   1   6  460.05   22.59
  -1   1   6  495.20   19.16
  -1   1   6  463.18   11.98
   0  -1  -6  270.94   20.74
   0  -1  -6  270.50   13.60
   0  -1  -6  271.91   16.77
   0   1   6  277.98   15.09
   0   1   6  292.52   19.71
   0   1   6  275.88   17.94
  -1  -1  -6  165.94   12.16
  -1  -1  -6  158.46   15.12
   1   1   6  161.23   16.83
   1   1   6  161.11    9.44
   1   1   6  164.86    8.71
   1   1   6  161.76   13.00
  -2  -1  -6  395.45   19.26
  -2  -1  -6  454.98   24.73
   2   1   6  409.52   17.15
   2   1   6  427.50   28.19
   2   1   6  418.72   17.81
   2   1   6  413.63   20.88
  -3  -1  -6  120.92   17.91
  -3  -1  -6   86.96   14.80
   3   1   6   93.26   16.93
   3   1   6  125.28   16.34
   4   1   6   29.59   20.46
   4   1   6   43.69   20.55
   7  -2  -6  103.96   16.85
   7  -2  -6  148.61   23.84
  -7   2   6  134.87   22.11
  -7   2   6   87.64   15.63
   6  -2  -6   82.87   12.96
   6  -2  -6   95.57   17.54
  -6   2   6   52.45   16.47
  -6   2   6   73.06   11.89
   5  -2  -6   13.99    8.21
   5  -2  -6   34.78    7.68
  -5   2   6   16.11   10.82
  -5   2   6   25.69    7.60
  -5   2   6   31.59    8.25
   4  -2  -6  204.62   15.57
   4  -2  -6  201.53   15.15
   4  -2  -6  157.36   17.53
   4  -2  -6  191.71   14.02
  -4   2   6  205.63   17.30
  -4   2   6  206.66   13.58
  -4   2   6  165.49   15.68
   3  -2  -6  121.03   10.41
   3  -2  -6   98.19   14.89
   3  -2  -6  104.37   11.50
   3  -2  -6  112.64    9.78
  -3   2   6  106.63   13.24
  -3   2   6  109.93   12.80
  -3   2   6   92.77   13.69
  -3   2   6  131.12   10.12
   2  -2  -6  589.04   28.02
   2  -2  -6  632.05   25.27
   2  -2  -6  641.30   19.08
   2  -2  -6  630.35   21.57
  -2   2   6  597.22   23.23
  -2   2   6  643.35   27.57
  -2   2   6  624.33   18.91
  -2   2   6  629.72   26.26
   1  -2  -6  229.97   12.17
   1  -2  -6  226.89   19.79
   1  -2  -6  221.04   15.78
  -1   2   6  215.70   10.76
  -1   2   6  205.38   17.25
  -1   2   6  209.32   13.42
  -1   2   6  208.99   17.19
   0  -2  -6  271.19   13.07
   0  -2  -6  256.58   13.24
   0  -2  -6  282.62   18.50
   0   2   6  265.03   14.83
   0   2   6  271.05   20.50
   0   2   6  275.84   12.80
  -1  -2  -6   33.88    6.21
  -1  -2  -6   21.63    9.12
   1   2   6   44.38   10.80
   1   2   6   27.66    8.14
   1   2   6   27.56    6.40
  -2  -2  -6  222.09   14.54
  -2  -2  -6  194.53   19.96
   2   2   6  159.71   15.60
   2   2   6  168.00   25.92
   2   2   6  158.44   16.84
   2   2   6  225.91   24.33
  -3  -2  -6  375.75   26.81
   3   2   6  304.14   37.07
   3   2   6  336.58   25.59
   7  -3  -6  119.52   23.80
   7  -3  -6  120.10   23.41
  -7   3   6  137.95   22.89
  -7   3   6   96.66   14.54
   6  -3  -6  453.81   28.36
   6  -3  -6  461.25   31.78
  -6   3   6  425.61   25.28
  -6   3   6  476.18   24.61
   5  -3  -6  241.76   19.85
   5  -3  -6  233.19   18.55
   5  -3  -6  182.31   20.94
  -5   3   6  251.09   17.90
  -5   3   6  229.40   18.21
   4  -3  -6   71.03   11.06
   4  -3  -6   66.14    9.61
   4  -3  -6   65.20   12.61
   4  -3  -6   76.46   14.32
  -4   3   6   67.46   12.14
  -4   3   6   75.40   13.11
   3  -3  -6  590.68   21.72
   3  -3  -6  495.09   27.52
   3  -3  -6  553.76   20.86
   3  -3  -6  568.09   25.60
  -3   3   6  536.16   25.43
  -3   3   6  561.45   21.55
  -3   3   6  542.08   25.59
   2  -3  -6 1105.43   29.49
   2  -3  -6 1029.80   46.35
   2  -3  -6 1112.03   37.19
   2  -3  -6 1127.42   29.79
  -2   3   6 1068.97   32.42
  -2   3   6 1090.63   30.16
  -2   3   6 1072.47   38.50
   1  -3  -6  179.55   16.06
   1  -3  -6  185.13   10.84
   1  -3  -6  194.87   13.83
  -1   3   6  169.69   12.34
  -1   3   6  187.81   14.10
  -1   3   6  203.70   18.91
   0  -3  -6   19.49    8.40
   0  -3  -6   37.42    9.56
   0  -3  -6   27.09    5.34
   0   3   6   19.11    7.62
   0   3   6   32.16    7.54
   0   3   6   28.02   10.33
  -1  -3  -6   92.64   16.98
  -1  -3  -6   73.86   13.73
   1   3   6   73.83   14.32
   1   3   6   86.63   15.70
  -2  -3  -6   37.24   12.48
   2   3   6   27.48   16.16
   2   3   6   14.68   11.20
  -3  -3  -6   -7.57   14.32
   7  -4  -6  140.44   24.15
   7  -4  -6  133.29   25.74
  -7   4   6  122.63   17.70
   6  -4  -6   16.80   11.22
  -6   4   6   32.45    9.83
  -6   4   6   52.07   11.43
   5  -4  -6  170.63   19.62
   5  -4  -6  182.99   18.02
  -5   4   6  162.28   18.08
  -5   4   6  173.25   17.93
   4  -4  -6  135.09   16.87
   4  -4  -6  139.68   13.25
  -4   4   6  122.62   15.60
  -4   4   6  144.22   15.54
   3  -4  -6  335.78   16.47
   3  -4  -6  352.99   22.28
   3  -4  -6  305.45   19.12
  -3   4   6  321.64   18.61
  -3   4   6  320.04   22.10
  -3   4   6  347.33   21.64
   2  -4  -6   14.49    7.47
   2  -4  -6   23.70    5.53
   2  -4  -6   23.27    9.23
  -2   4   6   28.35    7.63
  -2   4   6   17.16    9.15
  -2   4   6   18.31   10.59
   1  -4  -6  208.41   11.10
   1  -4  -6  181.54   18.67
   1  -4  -6  196.18   18.25
  -1   4   6  206.22   16.16
  -1   4   6  218.17   16.28
  -1   4   6  213.66   22.06
   0  -4  -6  183.15   19.76
   0  -4  -6  162.63   22.50
   0   4   6  124.30   22.93
   0   4   6  134.46   17.17
  -1  -4  -6  461.68   28.96
   1   4   6  564.09   39.33
  -2  -4  -6  151.27   26.51
   2   4   6  134.73   26.71
   7  -5  -6  136.25   28.77
  -7   5   6  115.38   18.06
   6  -5  -6   59.99   13.15
   6  -5  -6   78.85   14.84
  -6   5   6   55.08   11.39
  -6   5   6   66.92   14.41
   5  -5  -6  428.25   23.19
   5  -5  -6  386.08   28.04
  -5   5   6  377.87   23.66
  -5   5   6  415.40   25.99
   4  -5  -6  699.21   33.60
   4  -5  -6  651.23   25.61
  -4   5   6  633.29   29.99
  -4   5   6  657.47   29.84
   3  -5  -6  248.18   21.55
   3  -5  -6  193.58   13.48
  -3   5   6  214.35   23.62
  -3   5   6  222.76   21.23
  -3   5   6  169.99   19.36
   2  -5  -6   98.51    9.88
   2  -5  -6  109.34   17.88
  -2   5   6  102.00   20.07
  -2   5   6  140.32   17.90
   1  -5  -6    1.69   10.28
  -1   5   6   31.29   12.58
  -1   5   6    4.37   12.76
   0  -5  -6  358.93   27.54
   0   5   6  320.50   33.91
   0   5   6  361.60   26.61
  -1  -5  -6   98.96   17.68
   1   5   6   65.92   18.87
   6  -6  -6  128.45   25.64
   6  -6  -6  100.13   16.14
  -6   6   6  115.72   19.34
  -6   6   6  124.49   19.52
   5  -6  -6  190.51   19.03
  -5   6   6  218.26   24.60
   4  -6  -6  196.38   16.34
   4  -6  -6  259.96   26.94
  -4   6   6  214.97   22.16
  -4   6   6  209.72   22.15
   3  -6  -6   18.85   12.53
  -3   6   6   17.42   12.03
  -3   6   6   18.67   12.73
   2  -6  -6  154.39   22.98
  -2   6   6  109.36   18.71
  -2   6   6  171.90   24.60
   1  -6  -6   72.62   17.49
  -1   6   6   73.81   19.02
  -1   6   6   95.26   18.10
  -5   7   6   42.79   18.01
   4  -7  -6   -2.92   15.01
  -4   7   6   22.61   14.95
  -4   7   6   39.55   16.56
   3  -7  -6   32.38   15.77
  -3   7   6  -14.78   14.68
  -3   7   6   30.14   16.85
   1   7  -7   66.64   14.94
   1   7  -7   51.53   16.96
  -1  -7   7   70.97   17.76
   0   7  -7   78.35   16.49
   0   7  -7   89.03   13.97
   0  -7   7   83.03   15.48
  -1   7  -7   62.85   15.24
   1  -7   7   71.77   15.35
  -2   7  -7  282.57   20.82
  -2   7  -7  316.60   29.63
   2  -7   7  321.01   33.42
  -3   7  -7   52.67   16.34
  -3   7  -7   75.20   12.74
   2   6  -7   27.69   13.19
  -2  -6   7   25.62   14.47
   1   6  -7   13.53   11.30
   1   6  -7  -18.85   10.23
  -1  -6   7    2.01   10.97
   0   6  -7  281.75   22.48
   0   6  -7  233.76   19.30
   0  -6   7  257.13   22.35
   0  -6   7  287.16   22.55
  -1   6  -7  141.48   20.33
  -1   6  -7  162.83   16.09
   1  -6   7  168.82   24.23
   1  -6   7  162.63   17.80
  -2   6  -7   35.39    8.78
  -2   6  -7   37.51   13.27
   2  -6   7   36.58   10.25
  -3   6  -7  102.68   14.61
  -3   6  -7   82.39   15.89
  -4   6  -7   14.11   14.96
   4  -6   7   64.30   22.42
   4   5  -7  146.30   27.01
   3   5  -7   16.81   13.18
   3   5  -7   13.03   11.18
  -3  -5   7    0.55   12.31
   2   5  -7  134.68   17.90
   2   5  -7  166.94   17.45
  -2  -5   7  157.43   20.65
   1   5  -7  107.62   14.71
   1   5  -7   91.50   15.81
  -1  -5   7   86.13   17.55
  -1  -5   7   78.17   10.92
  -1  -5   7   62.40   12.70
   0   5  -7   63.86    9.11
   0  -5   7   64.26   13.95
   0  -5   7   64.12   14.20
   0  -5   7   80.77   15.48
   0  -5   7   93.20   14.55
  -1   5  -7  696.08   24.14
  -1   5  -7  686.41   28.68
  -1   5  -7  714.43   30.53
   1  -5   7  687.43   27.72
   1  -5   7  723.99   37.73
   1  -5   7  690.81   27.76
  -2   5  -7  247.56   19.77
  -2   5  -7  213.23   13.40
  -2   5  -7  224.16   20.53
   2  -5   7  223.23   16.86
   2  -5   7  204.36   28.25
   2  -5   7  203.25   18.54
  -3   5  -7  350.31   16.96
  -3   5  -7  328.91   26.05
   3  -5   7  319.43   19.93
   3  -5   7  289.34   35.09
  -4   5  -7  157.65   23.76
  -4   5  -7  151.34   13.95
   4  -5   7   99.74   24.72
   4   4  -7   61.65   13.74
  -4  -4   7   73.46   15.46
   3   4  -7  136.31   17.58
   3   4  -7  150.94   19.82
  -3  -4   7  141.02   19.92
   2   4  -7   88.72   14.08
  -2  -4   7   92.81    9.77
  -2  -4   7   97.73   12.61
  -2  -4   7   79.21   15.73
   1   4  -7  249.25   17.37
   1   4  -7  253.83   14.94
  -1  -4   7  237.80   15.08
  -1  -4   7  217.26   19.34
  -1  -4   7  261.70   20.82
  -1  -4   7  258.05   18.64
   0   4  -7   -0.75    5.22
   0   4  -7   -4.05    8.93
   0   4  -7    8.56    7.83
   0  -4   7   12.41    8.61
   0  -4   7   -2.13    7.12
   0  -4   7    8.30    9.98
   0  -4   7   -5.62    7.04
  -1   4  -7   56.45    7.97
  -1   4  -7   36.11    9.58
  -1   4  -7   40.71    8.55
   1  -4   7   41.01   10.37
   1  -4   7   54.58    9.04
   1  -4   7   44.65   13.89
  -2   4  -7  404.50   23.53
  -2   4  -7  425.78   15.15
  -2   4  -7  430.50   24.33
   2  -4   7  435.35   22.24
   2  -4   7  410.92   34.16
   2  -4   7  402.77   17.50
  -3   4  -7  157.40   10.57
  -3   4  -7  140.30   20.51
  -3   4  -7  182.97   20.29
   3  -4   7  157.10   25.25
   3  -4   7  150.02   16.70
  -4   4  -7  241.26   24.80
  -4   4  -7  209.33   14.04
   4  -4   7  223.16   38.32
   4  -4   7  209.71   21.87
  -5   4  -7   61.00   17.02
   5  -4   7   37.26   26.52
   5   3  -7   27.32   13.79
   5   3  -7   37.99   16.38
  -5  -3   7   45.10   15.11
   4   3  -7   -8.37    9.18
   4   3  -7    9.02   11.26
  -4  -3   7   30.91   10.87
   3   3  -7  475.38   24.54
   3   3  -7  527.86   24.71
  -3  -3   7  547.86   28.26
   2   3  -7  243.78   16.35
   2   3  -7  278.08   14.99
   2   3  -7  268.04   15.28
  -2  -3   7  253.83   17.72
  -2  -3   7  252.62   18.39
  -2  -3   7  244.44   13.14
   1   3  -7  335.05   18.41
   1   3  -7  334.73   14.23
   1   3  -7  339.31   22.96
  -1  -3   7  389.98   24.09
  -1  -3   7  337.08   20.23
  -1  -3   7  343.55   16.83
   0   3  -7 1480.81   41.35
   0   3  -7 1392.57   41.95
   0   3  -7 1454.94   29.77
   0  -3   7 1419.00   32.15
   0  -3   7 1409.82   40.11
   0  -3   7 1539.53   53.78
   0  -3   7 1441.14   41.38
  -1   3  -7   64.20   10.54
  -1   3  -7   63.91   11.78
   1  -3   7   63.63   12.90
   1  -3   7  106.13   20.47
   1  -3   7   81.54    8.13
  -2   3  -7  149.19   15.51
  -2   3  -7  163.69   18.74
   2  -3   7  144.49    9.60
   2  -3   7  153.75   16.31
   2  -3   7  130.95   26.95
  -3   3  -7   44.01   13.72
  -3   3  -7   47.18   11.33
   3  -3   7   55.25   17.54
   3  -3   7   30.01   10.28
  -4   3  -7  273.25   25.21
   4  -3   7  250.75   40.94
   4  -3   7  261.59   23.86
  -5   3  -7  -24.01   15.03
   5  -3   7  -18.76   26.82
   6   2  -7   75.52   16.22
   6   2  -7   42.58   17.71
  -6  -2   7   60.13   17.19
   5   2  -7  271.33   26.00
   5   2  -7  233.44   22.33
  -5  -2   7  262.21   24.89
   4   2  -7   77.81   13.62
   4   2  -7   55.18   10.95
  -4  -2   7   48.12   10.66
   3   2  -7   -2.71    6.84
   3   2  -7    2.68    6.58
   3   2  -7    8.26    5.28
   3   2  -7    7.37    6.82
  -3  -2   7   16.60    5.55
   2   2  -7  177.21   10.96
   2   2  -7  178.12   13.43
   2   2  -7  154.82   11.10
   2   2  -7  191.27   12.75
  -2  -2   7  157.12   11.40
  -2  -2   7  186.18   16.19
   1   2  -7  328.79   16.92
   1   2  -7  328.84   19.63
   1   2  -7  301.68   10.44
   1   2  -7  303.16   10.73
  -1  -2   7  300.19   19.68
  -1  -2   7  315.33   16.78
  -1  -2   7  306.38   18.66
   0   2  -7  861.78   30.28
   0   2  -7  852.60   29.41
   0   2  -7  851.69   32.17
   0  -2   7  838.31   31.46
   0  -2   7  840.75   29.64
  -1   2  -7  350.74   19.48
  -1   2  -7  341.21   22.13
   1  -2   7  363.92   21.56
  -2   2  -7    0.38    7.96
  -2   2  -7   -1.29   11.32
   2  -2   7   17.56    7.79
  -3   2  -7  194.08   19.33
   3  -2   7  231.67   35.15
   3  -2   7  248.80   21.48
   3  -2   7  214.93   13.45
  -4   2  -7  311.77   24.36
   4  -2   7  324.58   28.54
   4  -2   7  216.86   39.29
   6   1  -7  196.59   29.53
   6   1  -7  198.35   22.93
  -6  -1   7  179.02   26.77
   5   1  -7  286.98   21.43
   5   1  -7  247.16   24.46
  -5  -1   7  355.59   25.96
   4   1  -7  444.27   23.36
   4   1  -7  453.55   17.45
   4   1  -7  455.17   24.43
   4   1  -7  401.11   19.74
  -4  -1   7  476.46   24.74
  -4  -1   7  449.43   18.63
   3   1  -7   20.93    6.12
   3   1  -7   27.21    6.41
   3   1  -7   30.42    5.92
   3   1  -7   29.92    6.58
  -3  -1   7   33.18    6.70
  -3  -1   7   24.97    7.84
   2   1  -7  454.17   19.65
   2   1  -7  447.32   15.17
   2   1  -7  379.74   22.24
   2   1  -7  468.42   20.64
  -2  -1   7  408.08   20.26
  -2  -1   7  431.82   18.36
  -2  -1   7  436.49   22.54
   1   1  -7 2029.17   49.03
   1   1  -7 1927.20   52.66
   1   1  -7 2035.44   48.22
  -1  -1   7 1999.50   48.18
  -1  -1   7 2077.78   54.04
  -1  -1   7 1924.79   47.58
   0   1  -7   13.17    7.58
   0   1  -7   15.40    5.43
   0   1  -7   23.08    6.42
   0  -1   7   25.24    7.66
   0  -1   7   24.50    7.29
   0  -1   7   11.43    6.43
  -1   1  -7  177.87   16.38
  -1   1  -7  170.53   19.51
  -1   1  -7  190.04   14.58
   1  -1   7  214.84   17.04
  -2   1  -7   66.33   14.01
  -2   1  -7   81.47   12.57
   2  -1   7   93.61   16.66
  -3   1  -7  273.85   20.21
   3  -1   7  190.13   13.84
   3  -1   7  251.84   25.73
  -4   1  -7   14.04   11.45
   4  -1   7  -17.72   16.07
   7   0  -7   33.74   16.66
   7   0  -7  -35.60   21.11
  -7   0   7  -12.76   17.10
   6   0  -7  139.97   26.91
  -6   0   7  174.01   24.31
   5   0  -7    8.43   12.84
   5   0  -7    1.29    6.48
   5   0  -7   12.36    9.24
  -5   0   7   -2.01    9.64
  -5   0   7    8.01   10.22
   4   0  -7   49.79   15.96
   4   0  -7   61.99    8.95
   4   0  -7   95.24   14.88
   4   0  -7   67.12   10.45
  -4   0   7   84.71   14.52
  -4   0   7   47.32    9.14
   3   0  -7  832.13   23.47
   3   0  -7  800.38   28.75
   3   0  -7  808.96   26.95
   3   0  -7  834.81   26.81
  -3   0   7  811.02   31.14
  -3   0   7  813.98   27.82
   2   0  -7  298.10   17.08
   2   0  -7  300.73   16.21
   2   0  -7  308.84   12.35
   2   0  -7  298.38   20.13
   2   0  -7  303.67   10.71
  -2   0   7  312.44   17.16
  -2   0   7  281.02   16.58
  -2   0   7  324.37   20.01
   1   0  -7  151.99   16.80
   1   0  -7  174.01   14.04
   1   0  -7  176.44   12.51
  -1   0   7  194.80   14.91
  -1   0   7  188.25   16.28
  -1   0   7  150.13   13.60
   0   0  -7   50.34    9.09
   0   0  -7   28.48   10.28
   0   0  -7   51.21   10.93
   0   0   7   63.55   11.63
   0   0   7   41.68    8.37
  -1   0  -7  292.79   16.99
   1   0   7  320.26   22.18
   1   0   7  258.56   18.36
  -2   0  -7 1051.89   40.10
  -2   0  -7 1040.45   34.19
   2   0   7 1048.33   42.69
  -3   0  -7  244.16   23.95
  -3   0  -7  251.01   20.39
   3   0   7  263.17   30.46
   4   0   7   89.18   20.72
   4   0   7   46.07   30.43
   7  -1  -7   82.44   17.23
   7  -1  -7   98.45   22.29
  -7   1   7   60.79   15.67
   6  -1  -7   49.36   13.11
   6  -1  -7   75.28   15.45
  -6   1   7   82.89   13.14
   5  -1  -7  222.77   18.43
   5  -1  -7  210.44   15.81
  -5   1   7  191.46   21.30
  -5   1   7  216.07   20.11
  -5   1   7  212.99   16.83
   4  -1  -7  332.84   20.58
   4  -1  -7  344.19   18.55
   4  -1  -7  326.10   17.36
  -4   1   7  347.34   21.82
  -4   1   7  375.16   17.64
  -4   1   7  298.96   20.67
   3  -1  -7 1391.42   39.14
   3  -1  -7 1333.49   32.13
   3  -1  -7 1390.65   39.51
  -3   1   7 1375.75   40.37
  -3   1   7 1339.75   32.03
  -3   1   7 1408.17   43.90
   2  -1  -7  931.34   40.83
   2  -1  -7  960.18   32.19
   2  -1  -7  961.48   21.94
   2  -1  -7  963.71   29.98
  -2   1   7  969.62   22.02
  -2   1   7  909.28   31.82
  -2   1   7  985.37   36.43
  -2   1   7  936.18   30.98
   1  -1  -7  441.23   19.11
   1  -1  -7  436.35   22.27
  -1   1   7  417.57   23.34
  -1   1   7  455.32   21.07
   0  -1  -7   92.02   13.09
   0  -1  -7  110.68   10.55
   0   1   7  104.78   13.42
   0   1   7  130.74   17.11
  -1  -1  -7  164.20   13.35
  -1  -1  -7  173.61   17.49
   1   1   7  115.20   15.05
   1   1   7  121.78   18.67
  -2  -1  -7  304.20   24.25
  -2  -1  -7  384.61   20.91
   2   1   7  430.03   30.05
   2   1   7  332.66   16.11
   3   1   7   14.10   17.16
   7  -2  -7  204.91   26.70
   7  -2  -7  201.87   26.34
  -7   2   7  236.85   25.64
  -7   2   7  161.37   26.12
   6  -2  -7   13.45   10.05
   6  -2  -7    6.85    9.77
  -6   2   7   13.08    9.82
  -6   2   7   -2.70   10.11
   5  -2  -7  130.08   16.77
   5  -2  -7  124.84   15.46
  -5   2   7   86.33   14.13
   4  -2  -7  563.07   25.85
   4  -2  -7  556.61   24.67
   4  -2  -7  520.99   21.24
  -4   2   7  528.95   21.74
  -4   2   7  549.82   26.83
   3  -2  -7  124.41   10.80
   3  -2  -7  112.34   12.45
   3  -2  -7  140.69   12.67
  -3   2   7  139.21   10.30
  -3   2   7  116.64   15.96
  -3   2   7  123.87   15.23
   2  -2  -7  323.92   13.68
   2  -2  -7  306.70   19.38
   2  -2  -7  333.61   16.51
  -2   2   7  320.40   21.48
  -2   2   7  315.45   18.93
  -2   2   7  318.89   13.33
   1  -2  -7  279.80   21.10
   1  -2  -7  281.61   15.19
   1  -2  -7  262.73   12.19
  -1   2   7  244.53   17.12
  -1   2   7  264.51   21.84
  -1   2   7  255.82   11.49
   0  -2  -7  404.18   17.45
   0  -2  -7  373.90   22.97
   0   2   7  335.48   19.50
   0   2   7  378.72   25.61
   0   2   7  362.61   14.10
  -1  -2  -7  370.19   25.96
  -1  -2  -7  377.22   18.48
   1   2   7  352.93   16.70
   1   2   7  399.26   29.38
   1   2   7  337.75   20.68
  -2  -2  -7   94.92   20.20
  -2  -2  -7   51.70    9.98
   2   2   7   70.53   12.71
   2   2   7   49.54   16.25
  -3  -2  -7  116.28   24.70
   3   2   7   92.99   22.26
   7  -3  -7  363.62   29.78
   7  -3  -7  399.89   29.98
  -7   3   7  390.65   30.01
  -7   3   7  362.88   27.62
   6  -3  -7  444.87   27.32
   6  -3  -7  437.64   27.86
  -6   3   7  374.52   24.75
  -6   3   7  463.22   26.50
   5  -3  -7  181.47   17.74
   5  -3  -7  199.70   19.85
  -5   3   7  202.80   17.17
   4  -3  -7  173.05   14.83
   4  -3  -7  139.54   15.58
   4  -3  -7  186.36   17.25
  -4   3   7  164.47   18.21
  -4   3   7  182.13   15.08
   3  -3  -7   95.85   13.85
   3  -3  -7   89.02   11.14
  -3   3   7  105.34   16.67
  -3   3   7   86.46   15.34
  -3   3   7   70.07   11.28
   2  -3  -7   89.56   14.23
   2  -3  -7   92.53   12.88
   2  -3  -7   95.38   10.51
  -2   3   7  104.41   15.32
  -2   3   7  111.90   11.73
   1  -3  -7  780.86   25.54
   1  -3  -7  858.42   25.86
   1  -3  -7  862.39   35.01
  -1   3   7  823.44   25.42
  -1   3   7  773.17   37.57
  -1   3   7  813.41   27.99
   0  -3  -7  163.41   19.29
   0  -3  -7  126.38   13.06
   0  -3  -7  166.44   17.13
   0   3   7  149.75   14.26
   0   3   7  147.33   17.66
   0   3   7  180.32   23.46
  -1  -3  -7   53.90   13.59
   1   3   7   64.16   11.67
  -2  -3  -7    3.72   13.93
   2   3   7    5.33   18.33
   7  -4  -7    6.80   16.00
   7  -4  -7   -3.74   15.14
  -7   4   7   -7.45   13.39
  -7   4   7   -6.11   13.46
   6  -4  -7  242.13   22.69
   6  -4  -7  233.89   26.08
  -6   4   7  206.78   22.12
  -6   4   7  304.16   25.20
   5  -4  -7  422.33   27.35
   5  -4  -7  439.26   24.52
  -5   4   7  478.37   26.15
  -5   4   7  460.19   26.62
   4  -4  -7   33.80    7.93
   4  -4  -7   29.88   10.40
  -4   4   7   18.17   10.23
  -4   4   7   32.46    9.27
   3  -4  -7  207.92   18.17
   3  -4  -7  183.36   18.35
   3  -4  -7  164.42   13.65
  -3   4   7  172.52   22.94
  -3   4   7  216.40   16.74
  -3   4   7  146.04   19.66
   2  -4  -7  108.87   13.44
   2  -4  -7  129.73   11.83
   2  -4  -7  131.22   18.32
  -2   4   7  187.22   21.86
  -2   4   7  150.18   15.38
  -2   4   7  158.30   20.07
   1  -4  -7  305.67   14.63
   1  -4  -7  294.60   21.93
   1  -4  -7  344.66   26.19
  -1   4   7  358.29   29.75
  -1   4   7  323.89   20.19
   0  -4  -7  370.96   28.44
   0   4   7  377.81   23.65
   0   4   7  388.74   32.58
  -1  -4  -7  111.26   18.96
   1   4   7   64.18   19.56
   7  -5  -7   -4.53   17.93
   7  -5  -7   36.29   16.07
  -7   5   7   24.88   17.35
   6  -5  -7   16.90   12.02
   6  -5  -7   13.66   14.82
  -6   5   7   48.44   15.14
  -6   5   7   44.80   13.59
   5  -5  -7  229.00   20.35
   5  -5  -7  264.88   26.23
  -5   5   7  191.23   22.85
  -5   5   7  214.38   22.91
   4  -5  -7  145.70   15.81
  -4   5   7  123.94   21.00
  -4   5   7  171.21   20.69
   3  -5  -7   27.79   10.94
   3  -5  -7   33.27    8.28
  -3   5   7   33.94   12.33
  -3   5   7   16.31   11.91
   2  -5  -7  306.48   25.98
   2  -5  -7  267.62   22.28
  -2   5   7  299.56   29.75
   1  -5  -7   27.08   13.19
  -1   5   7   20.97   13.03
  -1   5   7    5.10   15.65
   0  -5  -7  151.36   27.16
   0   5   7  195.13   26.48
   0   5   7  202.99   34.95
   6  -6  -7  182.62   24.47
   6  -6  -7  148.52   29.15
  -6   6   7  144.77   24.11
  -6   6   7  180.50   22.96
   5  -6  -7   25.71   11.72
   5  -6  -7    4.71   15.76
  -5   6   7    1.70   14.21
  -5   6   7   35.81   15.42
   4  -6  -7  301.35   28.60
   4  -6  -7  324.43   19.41
  -4   6   7  301.22   27.45
  -4   6   7  271.31   28.04
   3  -6  -7  149.61   25.17
  -3   6   7  100.12   17.53
  -3   6   7  109.53   18.22
   2  -6  -7  139.48   26.73
  -2   6   7  160.18   32.75
   0   7  -8  -15.10   16.25
   0  -7   8  -24.25   14.86
  -1   7  -8  803.78   33.76
  -1   7  -8  853.54   41.16
   1  -7   8  931.43   43.09
  -2   7  -8   56.56   17.93
   2  -7   8   93.60   21.45
   2   6  -8   14.85   14.20
   2   6  -8    4.11   15.84
  -2  -6   8   40.14   16.74
   1   6  -8   14.38   11.38
   1   6  -8   39.86   14.04
  -1  -6   8   38.75   13.57
   0   6  -8  167.73   21.50
   0  -6   8  203.78   25.41
   0  -6   8  165.89   22.26
  -1   6  -8  272.76   24.80
  -1   6  -8  229.62   17.76
   1  -6   8  211.52   27.17
  -2   6  -8  328.43   18.83
  -2   6  -8  293.38   27.90
   2  -6   8  249.45   36.55
   2  -6   8  335.69   23.85
  -3   6  -8    0.90   14.79
   3  -6   8  -24.26   22.36
   3   5  -8  118.82   16.98
   3   5  -8   89.12   15.60
  -3  -5   8   86.21   17.15
   2   5  -8  123.03   20.20
   2   5  -8  125.42   17.68
  -2  -5   8  172.25   22.96
  -1  -5   8   50.16   11.97
  -1  -5   8   60.13   12.70
   0   5  -8 1248.83   34.80
   0   5  -8 1229.46   42.31
   0  -5   8 1253.93   48.39
   0  -5   8 1162.22   41.35
  -1   5  -8    1.19    7.00
  -1   5  -8   -3.94    9.66
   1  -5   8   -3.52    9.06
   1  -5   8  -13.32   14.46
  -2   5  -8   49.48    7.70
  -2   5  -8   42.06   11.51
   2  -5   8   55.95   11.75
   2  -5   8   49.16   18.65
  -3   5  -8  112.99   17.92
   3  -5   8  179.81   37.58
   3  -5   8   96.98   17.49
  -4   5  -8  144.88   27.47
   4  -5   8  125.41   28.31
   4   4  -8   37.65   16.34
   4   4  -8    8.48   13.21
  -4  -4   8    4.15   14.95
   3   4  -8    9.64   11.58
   3   4  -8   10.40    9.84
  -3  -4   8  -14.37   11.84
   2   4  -8  540.48   26.56
   2   4  -8  501.95   23.69
   2   4  -8  452.92   25.03
  -2  -4   8  543.33   29.70
  -2  -4   8  548.90   24.92
   1   4  -8  291.58   16.18
   1   4  -8  313.42   21.11
  -1  -4   8  378.41   25.45
  -1  -4   8  274.38   18.87
  -1  -4   8  274.22   23.35
  -1  -4   8  343.56   21.92
   0   4  -8   60.91   10.28
   0   4  -8   51.97    9.38
   0  -4   8   58.50   15.53
   0  -4   8   87.10   15.09
   0  -4   8   55.86   11.35
  -1   4  -8   95.45   15.32
  -1   4  -8   78.42    8.03
   1  -4   8   85.73   18.68
   1  -4   8  108.61   16.70
  -2   4  -8   43.69   11.14
   2  -4   8   21.80   18.04
   2  -4   8   20.15   10.35
  -3   4  -8  892.18   39.03
   3  -4   8  824.90   54.26
   3  -4   8  794.44   33.87
  -4   4  -8  159.31   28.17
   4  -4   8  130.51   28.11
   5   3  -8  112.51   18.44
   5   3  -8  100.40   17.09
  -5  -3   8   80.54   19.41
   4   3  -8   53.97   12.83
   4   3  -8   55.39   12.58
  -4  -3   8   45.39   15.41
   3   3  -8  300.53   19.94
   3   3  -8  257.97   19.79
  -3  -3   8  256.86   17.98
  -3  -3   8  327.55   24.19
   2   3  -8  275.96   15.27
   2   3  -8  270.88   15.48
   2   3  -8  258.98   18.59
  -2  -3   8  282.59   22.09
  -2  -3   8  245.27   15.70
  -2  -3   8  285.49   21.04
   1   3  -8 1458.92   43.24
   1   3  -8 1412.51   31.79
   1   3  -8 1368.10   30.37
  -1  -3   8 1412.95   52.72
  -1  -3   8 1441.52   46.88
  -1  -3   8 1416.12   40.05
   0   3  -8  160.81   15.63
   0  -3   8  155.71   24.79
   0  -3   8  169.28   17.57
  -1   3  -8   95.13   14.75
   1  -3   8  123.52   16.27
   1  -3   8  145.73   28.50
  -2   3  -8   71.64   13.27
   2  -3   8   63.19   20.27
   2  -3   8   78.94   13.60
  -3   3  -8  124.46   21.56
   3  -3   8  183.07   36.44
   3  -3   8  160.51   21.69
  -4   3  -8   17.18   14.68
   4  -3   8   10.25   15.77
   4  -3   8   23.00   25.89
   6   2  -8   43.21   17.95
   6   2  -8   34.98   15.92
  -6  -2   8   51.35   30.59
   5   2  -8   86.30   14.68
   5   2  -8   99.50   16.28
  -5  -2   8  135.88   23.70
   4   2  -8   16.64    8.89
  -4  -2   8   39.74   11.57
   3   2  -8  370.53   18.40
   3   2  -8  437.25   23.31
   3   2  -8  432.70   18.79
   3   2  -8  424.87   20.15
  -3  -2   8  443.48   18.81
  -3  -2   8  478.24   25.95
   2   2  -8  105.21    9.28
   2   2  -8   89.42   12.24
   2   2  -8   80.59   11.60
   2   2  -8   76.90    9.12
  -2  -2   8   83.46   17.18
  -2  -2   8   67.17    9.39
   1   2  -8  249.11   17.60
  -1  -2   8  232.49   17.51
  -1  -2   8  256.44   19.57
   0   2  -8  552.67   32.25
   0   2  -8  605.33   27.26
   0  -2   8  590.33   28.31
  -1   2  -8  210.04   17.80
  -1   2  -8  221.27   19.29
   1  -2   8  241.97   20.23
  -2   2  -8  411.57   24.68
  -3   2  -8   10.95   11.32
   3  -2   8   22.02   12.27
   3  -2   8  -15.70   21.37
  -4   2  -8  139.04   24.17
   4  -2   8   94.85   20.76
   4  -2   8   96.53   27.34
   6   1  -8  376.28   32.81
   6   1  -8  361.06   28.77
  -6  -1   8  439.36   32.86
   5   1  -8  285.65   23.19
   5   1  -8  294.17   25.62
  -5  -1   8  348.91   27.82
   4   1  -8  285.58   20.27
   4   1  -8  294.20   16.75
   4   1  -8  279.63   20.48
   4   1  -8  306.55   18.17
  -4  -1   8  315.32   23.42
  -4  -1   8  247.08   17.65
   3   1  -8   52.13    8.07
   3   1  -8   48.17   10.17
   3   1  -8   48.42    7.37
   3   1  -8   47.42    8.60
  -3  -1   8   37.83    9.91
  -3  -1   8   65.68   13.03
   2   1  -8  510.18   23.44
   2   1  -8  500.64   14.70
   2   1  -8  552.57   25.15
   2   1  -8  511.59   15.11
  -2  -1   8  455.91   21.92
  -2  -1   8  534.28   27.48
   1   1  -8  282.68   17.11
   1   1  -8  284.20   19.07
  -1  -1   8  247.71   19.73
  -1  -1   8  247.20   20.66
   0   1  -8  519.41   26.26
   0   1  -8  517.60   23.61
   0  -1   8  519.71   27.47
  -1   1  -8  183.02   16.21
  -1   1  -8  198.37   18.37
  -2   1  -8  117.70   19.37
  -2   1  -8  181.78   17.33
   2  -1   8  142.00   21.37
  -3   1  -8   69.03   12.54
   3  -1   8   55.99   15.10
  -4   1  -8  135.08   18.26
   6   0  -8   79.99   17.96
   6   0  -8   74.32   14.89
  -6   0   8   71.03   16.75
   5   0  -8   12.49    7.98
   5   0  -8   36.23   11.59
  -5   0   8    8.47   10.86
  -5   0   8   27.25   18.91
   4   0  -8  766.62   26.39
   4   0  -8  821.83   28.89
   4   0  -8  802.37   31.13
   4   0  -8  843.08   32.05
  -4   0   8  844.72   35.32
  -4   0   8  789.44   30.19
   3   0  -8  250.86   17.41
   3   0  -8  252.73   12.71
   3   0  -8  218.40   14.35
   3   0  -8  221.88   18.07
  -3   0   8  251.94   20.46
  -3   0   8  210.38   17.42
   2   0  -8  423.33   20.75
   2   0  -8  399.84   21.41
  -2   0   8  419.90   25.87
  -2   0   8  386.23   21.01
   1   0  -8  135.58   15.13
   1   0  -8  142.74   12.89
  -1   0   8  135.37   17.13
   0   0  -8   88.95   14.21
   0   0  -8  102.68   12.68
   0   0   8  125.33   16.14
  -1   0  -8  585.50   29.67
  -1   0  -8  581.60   25.65
   1   0   8  642.61   32.84
  -2   0  -8  216.29   18.97
  -2   0  -8  235.50   22.91
   2   0   8  166.51   25.48
  -3   0  -8  162.23   22.42
  -3   0  -8  131.31   26.34
   3   0   8  158.35   30.20
   7  -1  -8  450.07   38.98
   7  -1  -8  415.05   30.58
  -7   1   8  408.02   34.24
   6  -1  -8   18.12   15.93
   6  -1  -8    4.84   11.13
  -6   1   8    9.76   13.00
   5  -1  -8   37.86   10.22
   5  -1  -8   32.93   10.27
  -5   1   8   29.85   14.35
  -5   1   8   41.93   10.96
   4  -1  -8  196.61   15.17
   4  -1  -8  147.34   16.39
   4  -1  -8  178.25   17.28
  -4   1   8  202.98   14.36
  -4   1   8  218.85   20.37
   3  -1  -8  701.38   21.34
   3  -1  -8  639.22   32.37
   3  -1  -8  755.40   29.81
  -3   1   8  742.52   33.37
  -3   1   8  713.51   21.21
   2  -1  -8  149.29   15.30
   2  -1  -8  162.22   13.70
   2  -1  -8  157.93    8.33
  -2   1   8  126.47   20.66
  -2   1   8  142.46    9.56
   1  -1  -8  410.53   20.05
   1  -1  -8  352.80   22.08
  -1   1   8  387.54   25.40
   0  -1  -8   52.33   11.80
   0  -1  -8   48.80    9.20
   0   1   8   57.28   12.50
  -1  -1  -8  256.72   22.69
  -1  -1  -8  239.87   18.85
   1   1   8  253.00   26.70
  -2  -1  -8  224.64   20.15
  -2  -1  -8  204.05   24.27
   2   1   8  250.82   29.72
  -3  -1  -8  218.76   27.67
  -3  -1  -8  157.73   28.73
   7  -2  -8   91.95   18.82
  -7   2   8  103.44   17.39
   6  -2  -8   45.66   11.95
   6  -2  -8   33.84   11.66
  -6   2   8   44.17   12.09
  -6   2   8   25.80   13.00
   5  -2  -8  701.48   31.06
  -5   2   8  694.66   28.59
  -5   2   8  704.31   32.66
   4  -2  -8   30.01    9.21
   4  -2  -8   35.11    8.56
  -4   2   8   58.65   12.23
  -4   2   8   40.52    7.86
   3  -2  -8  273.58   18.08
   3  -2  -8  287.15   20.02
   3  -2  -8  311.35   15.10
  -3   2   8  290.76   15.84
  -3   2   8  270.30   22.70
   2  -2  -8  216.93   15.08
   2  -2  -8  185.25   11.93
   2  -2  -8  200.24   18.19
  -2   2   8  189.59   20.33
  -2   2   8  193.66   10.67
   1  -2  -8  427.16   14.47
   1  -2  -8  455.83   20.67
   1  -2  -8  431.30   25.66
  -1   2   8  425.44   13.94
  -1   2   8  380.87   27.60
  -1   2   8  443.65   23.42
   0  -2  -8  474.81   28.37
   0  -2  -8  483.27   21.67
   0   2   8  466.79   31.85
   0   2   8  443.46   24.58
  -1  -2  -8   -1.13   11.96
   1   2   8   33.61   13.99
  -2  -2  -8   -8.60   14.49
   2   2   8   16.72   18.37
   7  -3  -8    4.28   14.51
   7  -3  -8   23.96   15.55
  -7   3   8    7.32   14.98
  -7   3   8   -4.47   14.54
   6  -3  -8  298.97   25.51
   6  -3  -8  330.01   26.04
  -6   3   8  254.44   24.39
  -6   3   8  252.99   25.12
   5  -3  -8  150.00   17.38
   5  -3  -8  177.34   20.95
  -5   3   8  163.84   21.14
   4  -3  -8   22.37    8.72
   4  -3  -8   37.24   10.04
   4  -3  -8   10.76    9.23
  -4   3   8   15.22   10.87
   3  -3  -8  166.12   15.12
   3  -3  -8  177.35   15.72
   3  -3  -8  162.69   18.16
  -3   3   8  157.39   20.78
  -3   3   8  158.03   14.26
   2  -3  -8  779.05   24.68
   2  -3  -8  833.97   36.19
   2  -3  -8  777.89   27.72
  -2   3   8  841.35   38.35
  -2   3   8  789.96   25.18
   1  -3  -8  371.61   26.19
   1  -3  -8  407.81   18.81
  -1   3   8  359.88   17.77
  -1   3   8  392.68   29.55
  -1   3   8  374.28   25.19
   0  -3  -8  329.73   18.92
   0  -3  -8  409.58   28.04
   0   3   8  332.62   30.96
  -1  -3  -8   16.46   15.04
   1   3   8   44.47   18.43
   7  -4  -8   65.95   17.18
   7  -4  -8   86.46   19.45
   6  -4  -8  574.01   35.56
   6  -4  -8  569.14   32.49
  -6   4   8  614.81   32.45
  -6   4   8  579.04   31.68
   5  -4  -8   17.53   12.40
   5  -4  -8   13.94   10.46
  -5   4   8   19.84   11.19
  -5   4   8    4.63   12.17
   4  -4  -8  247.95   19.52
   4  -4  -8  271.40   24.05
  -4   4   8  226.80   24.27
  -4   4   8  254.39   20.49
   3  -4  -8  103.55   14.55
   3  -4  -8  119.98   20.36
  -3   4   8  126.79   21.52
  -3   4   8  106.20   16.38
   2  -4  -8  221.65   16.17
   2  -4  -8  211.96   23.63
  -2   4   8  220.13   26.19
  -2   4   8  241.18   18.70
   1  -4  -8  172.00   23.74
  -1   4   8  133.29   18.54
  -1   4   8  132.85   20.70
   0  -4  -8   14.80   15.57
   0   4   8    5.58   17.07
   6  -5  -8    7.74   15.14
   6  -5  -8   27.88   14.52
  -6   5   8  -14.02   16.03
  -6   5   8  -21.61   15.49
   5  -5  -8   84.69   16.88
   5  -5  -8   70.62   12.80
   4  -5  -8   53.18   10.90
  -4   5   8   47.26   14.43
  -4   5   8   87.68   15.21
   3  -5  -8  677.33   26.06
   3  -5  -8  712.25   38.58
  -3   5   8  763.79   39.09
  -3   5   8  711.50   33.14
   2  -5  -8    7.78   15.32
  -2   5   8   59.51   16.70
  -2   5   8   33.93   13.94
   1  -5  -8   45.82   16.04
  -1   5   8  -10.79   18.94
   1   6  -9   98.13   19.06
  -1  -6   9   77.45   17.03
   0   6  -9  134.30   23.99
   0  -6   9   72.29   20.07
   0  -6   9  113.29   17.94
  -1   6  -9  184.85   24.93
   1  -6   9  206.34   26.80
   1  -6   9  129.32   24.47
  -2   6  -9  174.74   27.03
   2  -6   9  152.51   27.54
   3   5  -9  107.49   18.88
   3   5  -9  124.12   24.23
  -3  -5   9  112.26   19.72
   2   5  -9   38.81   12.04
   2   5  -9   57.15   14.89
  -2  -5   9   81.14   17.63
   1   5  -9  334.36   25.44
   1   5  -9  274.24   19.35
  -1  -5   9  316.35   28.00
  -1  -5   9  267.09   28.81
   0   5  -9   -7.34   10.78
   0   5  -9    5.30    8.51
   0  -5   9    4.51   11.51
   0  -5   9   16.21   16.92
  -1   5  -9   -2.26   10.88
   1  -5   9    3.53   12.36
   1  -5   9   21.33   18.30
  -2   5  -9   78.99   13.81
   2  -5   9   56.84   22.15
   2  -5   9   96.94   21.35
  -3   5  -9  179.21   26.25
   3  -5   9  134.69   27.96
   4   4  -9   11.65   14.07
   4   4  -9   26.83   17.31
  -4  -4   9   17.95   16.19
   3   4  -9  316.08   23.08
   3   4  -9  297.94   25.45
  -3  -4   9  245.70   28.20
   2   4  -9  421.35   25.95
   2   4  -9  380.40   20.73
  -2  -4   9  458.74   30.08
  -2  -4   9  385.49   26.67
   1   4  -9  220.09   14.44
   1   4  -9  251.46   20.96
  -1  -4   9  259.39   28.17
  -1  -4   9  244.74   23.64
   0   4  -9   48.13    8.58
   0  -4   9   29.90   16.90
   0  -4   9   40.46   13.33
  -1   4  -9   45.56   10.06
   1  -4   9   57.78   18.56
   1  -4   9   26.93   11.90
  -2   4  -9  173.06   22.86
   2  -4   9  177.78   37.29
   2  -4   9  137.47   23.21
  -3   4  -9  306.52   30.38
   3  -4   9  326.63   30.25
   3  -4   9  313.23   50.04
   5   3  -9  -12.43   17.25
   5   3  -9   -1.99   16.09
   4   3  -9   24.55   12.68
   4   3  -9   45.20   14.29
  -4  -3   9   47.43   16.73
   3   3  -9  155.28   17.24
  -3  -3   9  112.07   20.98
  -3  -3   9  129.86   18.39
   2   3  -9  297.23   21.69
   2   3  -9  335.20   15.73
  -2  -3   9  326.00   24.91
  -2  -3   9  301.17   19.59
  -2  -3   9  331.79   28.78
   1   3  -9   27.53   10.32
  -1  -3   9   31.86   11.19
  -1  -3   9    3.79   15.01
   0  -3   9   62.46   19.02
   0  -3   9   67.26   12.65
  -1   3  -9  244.89   20.30
   1  -3   9  246.46   38.84
   1  -3   9  263.70   23.81
  -2   3  -9  184.16   21.84
   2  -3   9  235.63   39.56
   2  -3   9  223.36   24.62
  -3   3  -9  143.82   24.66
   3  -3   9  122.43   27.38
   3  -3   9   93.45   18.31
   5   2  -9  102.75   16.91
   5   2  -9   55.34   16.07
  -5  -2   9   81.44   17.88
   4   2  -9  569.73   26.91
   4   2  -9  555.47   28.92
  -4  -2   9  523.58   32.06
   3   2  -9  110.77   14.24
   3   2  -9  150.57   15.46
   3   2  -9  134.83   13.65
   3   2  -9  144.30   16.67
  -3  -2   9  160.69   20.59
   2   2  -9   18.77    8.84
   2   2  -9   23.92    5.60
   2   2  -9   20.13    9.23
   2   2  -9   28.73    5.84
  -2  -2   9    8.00    9.33
  -2  -2   9   32.94   10.16
   1   2  -9  107.30   15.71
   1   2  -9   98.74   14.90
  -1  -2   9   93.01   17.98
   0   2  -9  551.18   28.65
   0   2  -9  547.90   26.99
   0  -2   9  574.30   30.58
  -1   2  -9  416.49   24.85
  -1   2  -9  453.23   28.68
   1  -2   9  402.52   29.03
  -2   2  -9  106.80   19.99
   2  -2   9   64.24   15.44
   3  -2   9   16.15   16.43
   3  -2   9   12.87   27.80
   6   1  -9    8.67   14.52
   6   1  -9    7.01   18.12
  -6  -1   9  -15.62   16.84
   5   1  -9  307.66   26.41
   5   1  -9  327.06   24.69
  -5  -1   9  350.52   29.50
   4   1  -9  193.06   18.17
   4   1  -9  203.64   17.29
   4   1  -9  166.25   16.95
   4   1  -9  173.51   19.03
  -4  -1   9  193.24   22.70
   3   1  -9   39.17    9.36
   3   1  -9   45.53    9.98
   3   1  -9   33.35    7.44
   3   1  -9   37.06    7.13
  -3  -1   9   39.73   10.47
  -3  -1   9   33.48   10.66
   2   1  -9   38.40    9.96
   2   1  -9   41.39   10.05
  -2  -1   9   28.92   10.89
   1   1  -9  215.55   17.22
   1   1  -9  230.11   19.37
  -1  -1   9  167.03   19.55
   0   1  -9  680.99   29.73
   0   1  -9  672.06   31.97
   0  -1   9  688.60   34.27
  -1   1  -9  335.62   21.65
  -1   1  -9  304.87   23.87
   1  -1   9  294.03   25.71
  -2   1  -9  143.53   21.08
  -2   1  -9  152.63   23.17
  -3   1  -9   64.42   15.12
   3  -1   9   49.66   19.06
   6   0  -9   87.05   19.53
   6   0  -9   64.34   15.94
  -6   0   9   79.47   17.33
   5   0  -9  397.84   23.72
   5   0  -9  404.31   26.11
  -5   0   9  422.39   30.61
   4   0  -9  106.31   16.64
   4   0  -9   94.67   16.72
   4   0  -9  124.61   15.07
   4   0  -9  128.29   17.15
  -4   0   9  120.53   19.99
   3   0  -9  140.48   11.28
   3   0  -9  133.13   15.91
   3   0  -9  123.38   12.24
  -3   0   9  148.80   20.08
   2   0  -9  368.73   21.91
  -2   0   9  376.62   26.64
   1   0  -9  240.48   20.26
   1   0  -9  226.97   17.79
  -1   0   9  259.82   23.25
   0   0  -9   59.92   10.37
   0   0  -9   58.54   12.32
   0   0   9   44.37   11.81
  -1   0  -9   47.76   10.28
  -1   0  -9   50.01   14.15
   1   0   9   33.34   14.65
  -2   0  -9   88.74   16.91
  -2   0  -9  134.62   20.83
   2   0   9   98.18   20.49
   6  -1  -9   39.41   13.64
  -6   1   9   55.24   14.82
   5  -1  -9    3.09   12.29
   5  -1  -9   31.83   14.14
   5  -1  -9   -0.18   11.77
   4  -1  -9   57.36   19.04
   4  -1  -9   50.53    9.23
  -4   1   9   77.49   14.58
   3  -1  -9  254.71   19.02
   3  -1  -9  239.06   20.15
   3  -1  -9  245.70   12.46
  -3   1   9  257.05   23.12
   2  -1  -9  599.43   26.67
   2  -1  -9  603.38   30.18
  -2   1   9  583.07   33.06
   1  -1  -9  382.79   26.02
   1  -1  -9  370.25   21.29
  -1   1   9  384.64   27.95
   0  -1  -9   92.26   15.48
   0   1   9  108.58   21.33
  -1  -1  -9  153.92   22.82
  -1  -1  -9  152.17   19.75
   1   1   9  193.56   26.91
  -2  -1  -9   83.02   15.21
  -2  -1  -9   99.65   18.55
   2   1   9   49.41   19.26
   6  -2  -9  202.08   25.16
   6  -2  -9  207.42   24.47
  -6   2   9  199.03   27.30
  -6   2   9  205.24   23.85
   5  -2  -9   45.31   13.57
   5  -2  -9   37.96   12.43
  -5   2   9   52.82   11.14
  -5   2   9   48.13   14.53
   4  -2  -9  140.55   16.58
   4  -2  -9  142.79   19.11
  -4   2   9  161.08   14.86
  -4   2   9  112.40   21.23
   3  -2  -9  298.28   22.68
   3  -2  -9  285.63   20.01
  -3   2   9  257.65   15.13
  -3   2   9  332.61   26.82
   2  -2  -9  144.38   18.69
   2  -2  -9  122.44   15.09
  -2   2   9  116.37   20.74
   1  -2  -9   98.24   20.43
   0  -2  -9   79.27   16.48
   0   2   9   67.41   16.55
  -1  -2  -9   -3.55   12.14
  -1  -2  -9   27.82   15.81
   1   2   9  -11.79   17.53
   6  -3  -9   87.16   15.37
   6  -3  -9  107.34   18.09
  -6   3   9   99.00   16.45
  -6   3   9   75.19   17.13
   5  -3  -9  286.60   25.70
   5  -3  -9  218.73   22.52
  -5   3   9  250.40   27.15
  -5   3   9  222.32   24.89
   4  -3  -9   93.98   19.90
   4  -3  -9  128.60   17.29
  -4   3   9  136.66   15.93
  -4   3   9   95.22   16.86
   3  -3  -9  104.10   20.72
   3  -3  -9   92.20   16.01
  -3   3   9  116.49   13.72
  -3   3   9   63.65   16.00
   2  -3  -9  290.54   26.21
   2  -3  -9  291.44   28.75
  -2   3   9  266.61   29.11
   1  -3  -9  238.12   27.05
   1  -3  -9  247.83   19.22
  -1   3   9  297.71   30.19
   0  -3  -9  145.47   28.29
   6  -4  -9  155.76   28.84
   6  -4  -9  144.64   24.22
  -6   4   9  173.78   26.68
  -6   4   9  140.93   26.53
   5  -4  -9  173.75   24.84
   5  -4  -9  148.95   22.06
  -5   4   9  164.44   25.51
  -5   4   9  136.49   23.16
   4  -4  -9  115.98   14.37
   4  -4  -9  181.26   23.99
  -4   4   9  128.67   20.02
  -4   4   9  151.80   20.87
   3  -4  -9   13.64   10.07
   3  -4  -9    2.50   13.47
  -3   4   9   -7.69   15.21
   2  -4  -9   21.76   14.01
   2  -4  -9   24.67   10.96
   1  -4  -9   24.75   15.98
   4  -5  -9  182.28   37.88
   4  -5  -9  198.59   22.42
  -4   5   9  152.89   29.57
  -3   5   9  318.00   34.35
   2   5 -10   29.78   14.77
  -2  -5  10   18.66   17.68
   1   5 -10   21.29   13.65
  -1  -5  10   10.90   15.32
  -1  -5  10   28.25   19.85
   0  -5  10   52.18   15.22
   0  -5  10   35.04   23.11
  -1   5 -10  127.18   23.94
   1  -5  10  168.79   28.67
   1  -5  10  116.19   25.69
  -3  -4  10   44.25   17.68
   2   4 -10  140.44   21.90
  -2  -4  10  126.39   24.85
  -2  -4  10  115.99   20.59
   1   4 -10   95.26   15.58
  -1  -4  10  155.62   31.93
   0   4 -10  297.13   26.46
   0  -4  10  267.59   28.66
  -1   4 -10   20.09   12.41
   1  -4  10    9.90   14.29
   1  -4  10   16.43   23.45
  -2   4 -10   32.20   14.83
   2  -4  10   47.02   17.52
   4   3 -10  -21.06   13.42
  -4  -3  10  -10.37   16.37
   3   3 -10   17.23   10.33
   3   3 -10    1.12   12.29
  -3  -3  10   46.33   14.30
   2   3 -10  299.18   22.81
  -2  -3  10  353.86   27.85
  -2  -3  10  288.99   34.99
   1   3 -10  144.25   19.29
  -1  -3  10  152.21   23.85
   0   3 -10  326.30   25.41
   0  -3  10  356.53   28.41
   0  -3  10  324.43   42.41
  -1   3 -10  353.44   25.88
   1  -3  10  292.83   27.91
   1  -3  10  255.53   44.15
  -2   3 -10   50.24   14.23
   2  -3  10   18.55   27.94
   2  -3  10   30.07   17.82
   5   2 -10   78.24   16.95
   5   2 -10  103.61   17.32
   4   2 -10  148.32   20.89
   4   2 -10  172.61   22.78
  -4  -2  10  175.44   25.26
   3   2 -10   69.45   12.96
   3   2 -10   50.57   11.84
   3   2 -10   87.93   13.97
  -3  -2  10   80.47   15.55
   2   2 -10   58.38   12.24
   2   2 -10   37.36   12.57
  -2  -2  10   44.67   12.71
   1   2 -10  195.09   21.30
   1   2 -10  160.02   19.37
  -1  -2  10  117.56   17.43
   0   2 -10  113.74   20.10
   0   2 -10   84.07   15.94
   0  -2  10   84.72   16.40
  -1   2 -10  272.44   28.09
  -1   2 -10  294.71   24.57
   1  -2  10  358.78   30.88
  -2   2 -10   62.34   15.08
   2  -2  10   58.94   18.19
   5   1 -10  221.13   25.33
   5   1 -10  162.43   23.77
  -5  -1  10  159.26   21.40
   4   1 -10  111.27   20.93
   4   1 -10  135.94   18.41
   4   1 -10  156.28   21.39
  -4  -1  10  136.35   20.12
   3   1 -10  305.55   22.83
   3   1 -10  277.05   16.29
   3   1 -10  260.91   38.92
  -3  -1  10  320.73   26.71
   2   1 -10   35.02   11.37
   2   1 -10   27.63   10.44
  -2  -1  10   35.59   11.50
   1   1 -10  405.64   26.85
   1   1 -10  411.94   25.26
  -1  -1  10  366.60   28.81
   0   1 -10  503.19   31.09
   0   1 -10  443.75   27.57
   0  -1  10  481.35   32.07
  -1   1 -10   86.33   14.18
  -1   1 -10  103.20   22.21
   1  -1  10   87.27   19.85
  -2   1 -10   61.82   16.25
  -2   1 -10   85.29   18.07
   2  -1  10   54.68   17.90
   5   0 -10  174.45   22.35
   5   0 -10  147.81   22.36
  -5   0  10  190.33   28.34
   4   0 -10   41.43   12.33
   4   0 -10   44.27   11.11
   4   0 -10   49.76   13.88
  -4   0  10   51.86   14.91
   3   0 -10  219.45   22.24
   3   0 -10  278.36   21.92
  -3   0  10  234.14   25.10
   2   0 -10  167.66   18.83
   2   0 -10  183.56   21.11
  -2   0  10  205.08   24.80
   1   0 -10   19.13    9.84
   1   0 -10   34.56   11.57
  -1   0  10   22.97   13.31
   0   0 -10  126.74   21.20
   0   0 -10  109.98   18.70
  -1   0 -10    0.67   14.16
  -1   0 -10   -8.22   13.30
   1   0  10   55.87   16.97
   6  -1 -10   66.75   19.80
  -6   1  10   72.57   18.10
   5  -1 -10   59.99   15.77
   5  -1 -10   54.82   13.90
   5  -1 -10   45.89   13.78
  -5   1  10   62.34   17.24
   4  -1 -10  272.89   20.33
   4  -1 -10  253.30   23.41
   4  -1 -10  254.76   22.07
  -4   1  10  285.77   28.62
   3  -1 -10  115.96   17.64
   3  -1 -10  125.48   21.46
  -3   1  10  157.73   23.70
   2  -1 -10  850.74   34.09
   2  -1 -10  793.78   38.20
  -2   1  10  808.28   41.29
   1  -1 -10  204.90   19.02
   1  -1 -10  157.31   23.69
  -1   1  10  133.49   25.15
   0  -1 -10   -5.44   11.72
   0  -1 -10   11.32   12.73
   0   1  10   33.40   15.63
  -1  -1 -10   48.24   15.23
  -1  -1 -10   19.26   19.69
   6  -2 -10  178.64   29.85
   6  -2 -10  124.80   22.11
  -6   2  10  130.21   20.74
   5  -2 -10   11.33   12.16
   5  -2 -10    2.06   13.69
  -5   2  10   42.05   13.38
  -5   2  10   -6.03   15.08
   4  -2 -10  146.85   20.68
   4  -2 -10  116.06   22.30
   3  -2 -10   28.17   13.18
   3  -2 -10   40.42   10.38
  -3   2  10   32.87   14.47
   2  -2 -10   62.15   15.01
   1  -2 -10  133.79   25.33
   1  -2 -10  145.49   19.68
  -1   2  10  143.63   28.20
   0  -2 -10   56.10   13.13
   0  -2 -10   42.73   17.74
   5  -3 -10  352.50   26.37
   5  -3 -10  297.23   31.11
  -5   3  10  296.37   32.87
   4  -3 -10   -3.43   11.84
   4  -3 -10   21.86   14.39
  -4   3  10    2.62   15.59
   3  -3 -10  183.55   26.24
   3  -3 -10  153.46   19.47
  -3   3  10  113.27   19.01
   2  -3 -10    7.56   11.70
   2  -3 -10   16.68   14.06
  -2   3  10   -0.66   16.81
  -1   3  10    7.71   27.59
   4  -4 -10   -5.10   13.73
   4  -4 -10   -7.91   15.72
  -4   4  10   -3.92   17.54
   3  -4 -10   81.34   14.85
  -3   4  10   78.51   20.11
   2   4 -11  182.39   32.16
  -2  -4  11  261.64   30.65
   1   4 -11  156.31   26.24
  -1  -4  11  195.43   31.66
  -1  -4  11  140.36   26.78
   0   4 -11   36.63   14.61
   0  -4  11   -8.99   26.13
   0  -4  11   35.08   18.27
   3   3 -11   85.51   15.51
   2   3 -11  130.58   20.09
  -2  -3  11  149.45   27.29
  -2  -3  11  153.05   21.57
   1   3 -11  241.06   25.74
  -1  -3  11  278.73   31.81
  -1  -3  11  198.70   31.03
   0   3 -11  445.05   31.60
   0  -3  11  384.82   51.35
   0  -3  11  456.07   35.18
   1  -3  11   79.09   28.80
   4   2 -11   70.04   17.31
  -4  -2  11  100.71   32.55
   3   2 -11  133.71   22.94
   3   2 -11  144.65   23.32
  -3  -2  11  101.25   20.02
   2   2 -11   22.89   13.29
   2   2 -11   33.44   13.83
  -2  -2  11   33.21   14.86
   1   2 -11   47.36   14.78
   1   2 -11   33.76   14.47
   0   2 -11   90.37   17.84
   0  -2  11  106.96   18.86
  -1   2 -11  208.87   27.06
   1  -2  11  233.29   32.28
   4   1 -11  280.32   26.85
  -4  -1  11  304.63   33.81
   3   1 -11  153.85   24.19
  -3  -1  11  129.14   26.16
   2   1 -11   48.97   14.75
  -2  -1  11   32.71   15.61
   1   1 -11  198.29   22.77
   1   1 -11  166.74   26.66
  -1  -1  11  215.74   27.89
   0   1 -11   -0.47   14.59
   0   1 -11   30.70   13.37
   0  -1  11   12.05   16.55
   4   0 -11   68.90   15.96
   4   0 -11   72.10   14.83
  -4   0  11   87.54   17.72
   3   0 -11   11.58   11.86
  -3   0  11   -2.51   15.48
   2   0 -11  213.10   23.13
   2   0 -11  165.57   25.46
  -2   0  11  190.16   28.05
   1   0 -11  160.01   22.10
   1   0 -11  153.06   27.20
  -1   0  11  141.97   27.94
   0   0 -11   38.42   15.19
   0   0 -11   49.93   15.45
   0   0  11   86.05   21.07
   5  -1 -11   14.05   17.60
   5  -1 -11   10.78   20.42
  -5   1  11    4.89   17.98
   4  -1 -11   -4.72   14.30
   4  -1 -11  -14.90   13.00
  -4   1  11  -27.86   15.84
   3  -1 -11  154.42   25.81
   3  -1 -11  204.83   22.56
  -3   1  11  207.97   28.65
   2  -1 -11  399.14   26.11
   2  -1 -11  349.67   30.58
  -2   1  11  338.40   34.81
   1  -1 -11    9.60   14.12
   1  -1 -11   29.94   15.76
  -1   1  11    9.03   17.92
   4  -2 -11   11.77   15.92
   4  -2 -11    6.68   13.57
  -4   2  11   27.69   17.92
   3  -2 -11  182.22   28.40
   3  -2 -11  216.46   24.83
  -3   2  11  219.91   31.99
   2  -2 -11  127.60   23.28
   2  -2 -11  177.13   28.43
  -2   2  11  129.14   23.74
   2   1 -12   84.11   19.84
   2   1 -12   49.50   18.91


 _exptl_absorpt_process_details
)
 SADABS 2016/2: Krause, L., Herbst-Irmer, R., Sheldrick G.M. & Stalke D.,
 J. Appl. Cryst. 48 (2015) 3-10
)
 _exptl_absorpt_correction_type   multi-scan
 _exptl_absorpt_correction_T_max  0.7456
 _exptl_absorpt_correction_T_min  0.6890
 _exptl_special_details
)
 The following wavelength and cell were deduced by SADABS from the
 direction cosines etc. They are given here for emergency use only:
 CELL 0.71140    6.291    6.854    9.268   96.324  105.054  113.412
)

_computing_structure_solution     'SHELXT 2014/4 (Sheldrick, 2014)'
;
_shelx_hkl_checksum              70763
_olex2_submission_special_instructions 'No special instructions were received'
loop_
_space_group_symop_operation_xyz
'x, y, z'
'-x, -y, -z'
loop_
_atom_site_label
_atom_site_type_symbol
_atom_site_fract_x
_atom_site_fract_y
_atom_site_fract_z
_atom_site_U_iso_or_equiv
_atom_site_adp_type
_atom_site_occupancy
_atom_site_site_symmetry_order
_atom_site_calc_flag
_atom_site_refinement_flags_posn
_atom_site_refinement_flags_adp
_atom_site_refinement_flags_occupancy
Ni1 Ni 1.0000 0.5000 1.0000 0.00925(15) Uani 1 2 d S T P
O2 O 0.0777(3) 0.0839(3) 0.2630(2) 0.0149(4) Uani 1 1 d . . .
O3 O 1.2214(3) 0.7637(3) 0.9276(2) 0.0134(4) Uani 1 1 d . . .
H3A H 1.1315 0.8080 0.8631 0.020 Uiso 1 1 d GR . .
H3B H 1.2967 0.7220 0.8723 0.020 Uiso 1 1 d GR . .
O4 O 0.8204(3) 0.6848(3) 1.0418(2) 0.0125(4) Uani 1 1 d . . .
H4 H 0.9206 0.8038 1.1009 0.019 Uiso 1 1 calc GR . .
O1 O 0.4223(4) 0.2301(3) 0.2022(2) 0.0163(4) Uani 1 1 d . . .
H1 H 0.3238 0.1938 0.1147 0.024 Uiso 1 1 calc R . .
N1 N 0.7619(4) 0.3608(4) 0.7726(2) 0.0108(4) Uani 1 1 d . . .
C3 C 0.7166(5) 0.2954(4) 0.5038(3) 0.0120(5) Uani 1 1 d . . .
H3 H 0.7894 0.2962 0.4280 0.014 Uiso 1 1 calc R . .
C1 C 0.3074(5) 0.1746(4) 0.2952(3) 0.0122(5) Uani 1 1 d . . .
C4 C 0.8565(5) 0.3585(4) 0.6575(3) 0.0120(5) Uani 1 1 d . . .
H4A H 1.0248 0.4018 0.6833 0.014 Uiso 1 1 calc R . .
C6 C 0.3638(5) 0.2222(4) 0.5810(3) 0.0117(5) Uani 1 1 d . . .
H6 H 0.1949 0.1724 0.5579 0.014 Uiso 1 1 calc R . .
C5 C 0.5168(5) 0.2890(4) 0.7324(3) 0.0130(5) Uani 1 1 d . . .
H5 H 0.4474 0.2842 0.8102 0.016 Uiso 1 1 calc R . .
C2 C 0.4649(5) 0.2303(4) 0.4632(3) 0.0099(5) Uani 1 1 d . . .
loop_
_atom_site_aniso_label
_atom_site_aniso_U_11
_atom_site_aniso_U_22
_atom_site_aniso_U_33
_atom_site_aniso_U_23
_atom_site_aniso_U_13
_atom_site_aniso_U_12
Ni1 0.0084(3) 0.0120(3) 0.0073(2) 0.00171(18) 0.00197(18) 0.0050(2)
O2 0.0119(10) 0.0164(10) 0.0134(10) 0.0025(8) 0.0017(8) 0.0053(8)
O3 0.0118(9) 0.0172(10) 0.0135(9) 0.0055(8) 0.0053(8) 0.0076(8)
O4 0.0111(9) 0.0130(9) 0.0108(9) -0.0008(7) 0.0019(7) 0.0051(8)
O1 0.0159(10) 0.0254(11) 0.0097(9) 0.0052(8) 0.0033(8) 0.0116(9)
N1 0.0134(11) 0.0103(11) 0.0097(10) 0.0021(8) 0.0036(9) 0.0063(9)
C3 0.0134(13) 0.0123(13) 0.0119(13) 0.0036(10) 0.0062(10) 0.0058(11)
C1 0.0152(13) 0.0102(12) 0.0137(13) 0.0028(10) 0.0043(11) 0.0086(11)
C4 0.0110(13) 0.0129(13) 0.0128(13) 0.0027(10) 0.0048(10) 0.0055(11)
C6 0.0105(12) 0.0115(12) 0.0132(13) 0.0011(10) 0.0025(10) 0.0063(11)
C5 0.0116(13) 0.0153(13) 0.0144(13) 0.0025(10) 0.0062(11) 0.0074(11)
C2 0.0114(12) 0.0069(11) 0.0130(13) 0.0035(10) 0.0035(10) 0.0056(10)
loop_
_atom_type_symbol
_atom_type_description
_atom_type_scat_dispersion_real
_atom_type_scat_dispersion_imag
_atom_type_scat_source
C C 0.0033 0.0016 'International Tables Vol C Tables 4.2.6.8 and 6.1.1.4'
H H 0.0000 0.0000 'International Tables Vol C Tables 4.2.6.8 and 6.1.1.4'
N N 0.0061 0.0033 'International Tables Vol C Tables 4.2.6.8 and 6.1.1.4'
Ni Ni 0.3393 1.1124 'International Tables Vol C Tables 4.2.6.8 and 6.1.1.4'
O O 0.0106 0.0060 'International Tables Vol C Tables 4.2.6.8 and 6.1.1.4'
loop_
_geom_angle_atom_site_label_1
_geom_angle_atom_site_label_2
_geom_angle_atom_site_label_3
_geom_angle
_geom_angle_site_symmetry_1
_geom_angle_site_symmetry_3
O3 Ni1 O3 180.00(11) 2_767 .
O4 Ni1 O3 86.81(7) 2_767 2_767
O4 Ni1 O3 93.19(7) 2_767 .
O4 Ni1 O3 93.19(7) . 2_767
O4 Ni1 O3 86.81(7) . .
O4 Ni1 O4 180.00(7) . 2_767
O4 Ni1 N1 88.14(8) . 2_767
O4 Ni1 N1 88.14(8) 2_767 .
O4 Ni1 N1 91.86(8) 2_767 2_767
O4 Ni1 N1 91.86(8) . .
N1 Ni1 O3 90.75(8) 2_767 .
N1 Ni1 O3 89.25(8) . .
N1 Ni1 O3 89.25(8) 2_767 2_767
N1 Ni1 O3 90.75(8) . 2_767
N1 Ni1 N1 180.00(13) 2_767 .
Ni1 O3 H3A 110.9 . .
Ni1 O3 H3B 110.8 . .
H3A O3 H3B 103.1 . .
Ni1 O4 H4 109.5 . .
C1 O1 H1 109.5 . .
C4 N1 Ni1 119.26(18) . .
C5 N1 Ni1 123.21(17) . .
C5 N1 C4 117.3(2) . .
C4 C3 H3 120.4 . .
C4 C3 C2 119.1(2) . .
C2 C3 H3 120.4 . .
O2 C1 O1 126.4(2) . .
O2 C1 C2 117.6(2) . .
O1 C1 C2 115.9(2) . .
N1 C4 C3 123.2(2) . .
N1 C4 H4A 118.4 . .
C3 C4 H4A 118.4 . .
C5 C6 H6 120.4 . .
C5 C6 C2 119.2(2) . .
C2 C6 H6 120.4 . .
N1 C5 C6 123.0(2) . .
N1 C5 H5 118.5 . .
C6 C5 H5 118.5 . .
C3 C2 C1 120.6(2) . .
C3 C2 C6 118.0(2) . .
C6 C2 C1 121.4(2) . .
loop_
_geom_bond_atom_site_label_1
_geom_bond_atom_site_label_2
_geom_bond_distance
_geom_bond_site_symmetry_2
Ni1 O3 2.0947(18) .
Ni1 O3 2.0947(18) 2_767
Ni1 O4 2.0653(18) 2_767
Ni1 O4 2.0653(18) .
Ni1 N1 2.087(2) 2_767
Ni1 N1 2.087(2) .
O2 C1 1.256(3) .
O3 H3A 0.8749 .
O3 H3B 0.8750 .
O4 H4 0.8200 .
O1 H1 0.8200 .
O1 C1 1.256(3) .
N1 C4 1.348(3) .
N1 C5 1.344(3) .
C3 H3 0.9300 .
C3 C4 1.375(4) .
C3 C2 1.389(4) .
C1 C2 1.519(4) .
C4 H4A 0.9300 .
C6 H6 0.9300 .
C6 C5 1.379(4) .
C6 C2 1.391(4) .
C5 H5 0.9300 .
