#------------------------------------------------------------------------------
#$Date: 2019-11-26 05:14:28 +0200 (Tue, 26 Nov 2019) $
#$Revision: 242681 $
#$URL: file:///home/coder/svn-repositories/cod/cif/4/13/27/4132779.cif $
#------------------------------------------------------------------------------
#
# This file is available in the Crystallography Open Database (COD),
# http://www.crystallography.net/
#
# All data on this site have been placed in the public domain by the
# contributors.
#
data_4132779
loop_
_publ_author_name
'Rudenko, Andrey E.'
'Clayman, Naomi E.'
'Walker, Katherine L.'
'Maclaren, Jana K.'
'Zimmerman, Paul M.'
'Waymouth, Robert M.'
_publ_section_title
;
 Ligand-Induced Reductive Elimination of Ethane from Azopyridine Palladium
 Dimethyl Complexes.
;
_journal_issue                   36
_journal_name_full               'Journal of the American Chemical Society'
_journal_page_first              11408
_journal_page_last               11415
_journal_paper_doi               10.1021/jacs.8b06398
_journal_volume                  140
_journal_year                    2018
_chemical_formula_moiety         'C15 H16 F3 N3 Pd'
_chemical_formula_sum            'C15 H16 F3 N3 Pd'
_chemical_formula_weight         401.71
_space_group_crystal_system      triclinic
_space_group_IT_number           2
_space_group_name_Hall           '-P 1'
_space_group_name_H-M_alt        'P -1'
_atom_sites_solution_hydrogens   geom
_atom_sites_solution_primary     dual
_audit_creation_date             2018-07-27
_audit_creation_method
;
Olex2 1.2
(compiled 2018.05.29 svn.r3508 for OlexSys, GUI svn.r5506)
;
_cell_angle_alpha                113.946(2)
_cell_angle_beta                 91.188(2)
_cell_angle_gamma                96.721(2)
_cell_formula_units_Z            2
_cell_length_a                   8.1493(5)
_cell_length_b                   10.1574(7)
_cell_length_c                   10.6196(8)
_cell_measurement_reflns_used    7209
_cell_measurement_temperature    100
_cell_measurement_theta_max      25.154
_cell_measurement_theta_min      2.345
_cell_volume                     795.61(10)
_computing_cell_refinement       'SAINT+ Ver. 8.34A (Bruker-AXS, 2014)'
_computing_data_collection       'APEX2 Ver. 2014.11-0 (Bruker-AXS, 2014)'
_computing_data_reduction        'SAINT+ Ver. 8.34A (Bruker-AXS, 2014)'
_computing_molecular_graphics    'Olex2 (Dolomanov et al., 2009)'
_computing_publication_material  'Olex2 (Dolomanov et al., 2009)'
_computing_structure_refinement  'XL (Sheldrick, 2008)'
_computing_structure_solution    'ShelXT (Sheldrick, 2015)'
_diffrn_ambient_temperature      100
_diffrn_detector                 'Bruker Photon100'
_diffrn_detector_area_resol_mean 10.4
_diffrn_detector_type            'CMOS area detector'
_diffrn_measured_fraction_theta_full 0.998
_diffrn_measured_fraction_theta_max 0.998
_diffrn_measurement_device       'four-circle diffractometer'
_diffrn_measurement_device_type  'D8 Venture'
_diffrn_measurement_method       '\w and \f scans'
_diffrn_radiation_collimation    'focusing mirrors'
_diffrn_radiation_monochromator  'mirror optics'
_diffrn_radiation_probe          x-ray
_diffrn_radiation_type           MoK\a
_diffrn_radiation_wavelength     0.71073
_diffrn_reflns_av_R_equivalents  0.0283
_diffrn_reflns_av_unetI/netI     0.0202
_diffrn_reflns_Laue_measured_fraction_full 0.998
_diffrn_reflns_Laue_measured_fraction_max 0.998
_diffrn_reflns_limit_h_max       9
_diffrn_reflns_limit_h_min       -9
_diffrn_reflns_limit_k_max       12
_diffrn_reflns_limit_k_min       -12
_diffrn_reflns_limit_l_max       13
_diffrn_reflns_limit_l_min       -13
_diffrn_reflns_number            17582
_diffrn_reflns_point_group_measured_fraction_full 0.998
_diffrn_reflns_point_group_measured_fraction_max 0.998
_diffrn_reflns_theta_full        25.887
_diffrn_reflns_theta_max         25.887
_diffrn_reflns_theta_min         2.215
_diffrn_source                   'microfocus sealed X-ray tube'
_diffrn_source_type              'Incoatec I\ms'
_diffrn_standards_number         0
_exptl_absorpt_coefficient_mu    1.196
_exptl_absorpt_correction_T_max  0.7453
_exptl_absorpt_correction_T_min  0.6956
_exptl_absorpt_correction_type   multi-scan
_exptl_absorpt_process_details
;
 'SADABS-2014/5 (Bruker,2014/5) was used for absorption correction. 
wR2(int) was 0.0492 before and 0.0392 after correction. 
The Ratio of minimum to maximum transmission is 0.9333. 
The \l/2 correction factor is 0.00150.'
;
_exptl_crystal_colour            'clear dark brown'
_exptl_crystal_colour_lustre     clear
_exptl_crystal_colour_modifier   dark
_exptl_crystal_colour_primary    brown
_exptl_crystal_density_diffrn    1.677
_exptl_crystal_description       block
_exptl_crystal_F_000             400
_exptl_crystal_size_max          0.116
_exptl_crystal_size_mid          0.054
_exptl_crystal_size_min          0.03
_refine_diff_density_max         0.399
_refine_diff_density_min         -0.290
_refine_diff_density_rms         0.064
_refine_ls_extinction_method     none
_refine_ls_goodness_of_fit_ref   1.071
_refine_ls_hydrogen_treatment    constr
_refine_ls_matrix_type           full
_refine_ls_number_parameters     229
_refine_ls_number_reflns         3070
_refine_ls_number_restraints     66
_refine_ls_restrained_S_all      1.086
_refine_ls_R_factor_all          0.0327
_refine_ls_R_factor_gt           0.0254
_refine_ls_shift/su_max          0.001
_refine_ls_shift/su_mean         0.000
_refine_ls_structure_factor_coef Fsqd
_refine_ls_weighting_details
'w=1/[\s^2^(Fo^2^)+(0.0397P)^2^+0.0908P] where P=(Fo^2^+2Fc^2^)/3'
_refine_ls_weighting_scheme      calc
_refine_ls_wR_factor_gt          0.0618
_refine_ls_wR_factor_ref         0.0652
_reflns_Friedel_coverage         0.000
_reflns_number_gt                2685
_reflns_number_total             3070
_reflns_threshold_expression     'I > 2\s(I)'
_cod_data_source_file            ja8b06398_si_004.cif
_cod_data_source_block           arda_a
_cod_original_cell_volume        795.60(10)
_cod_database_code               4132779
_shelx_space_group_comment
;
The symmetry employed for this shelxl refinement is uniquely defined
by the following loop, which should always be used as a source of
symmetry information in preference to the above space-group names.
They are only intended as comments.
;
_shelx_estimated_absorpt_t_max   0.965
_shelx_estimated_absorpt_t_min   0.874
_shelx_res_file
;
TITL ARDA_a.res in P-1
    arda_a.res
    created by SHELXL-2016/6 at 12:28:25 on 27-Jul-2018
REM Old TITL ARDA in P1
REM SHELXT solution in P-1
REM R1 0.106, Rweak 0.010, Alpha 0.073, Orientation as input
REM Formula found by SHELXT: C15 N3 Pd
CELL 0.71073 8.1493 10.1574 10.6196 113.946 91.188 96.721
ZERR 2 0.0005 0.0007 0.0008 0.002 0.002 0.002
LATT 1
SFAC C H F N Pd
UNIT 30 32 6 6 2
SADI F1 F2 F1 F3 F2 F3 F1A F2A F1A F3A F2A F3A
SADI F3A C13 F1 C13 F2A C13 F3 C13 F1A C13 F2 C13
SADI F3A F1 F1 F2A F2A F3 F3 F1A F1A F2 F2 F3A
RIGU F1 F1A F2 F2A F3 F3A C13

L.S. 20
PLAN  10
SIZE 0.116 0.054 0.03
TEMP -173.15
BOND $H
LIST 6
MORE -1
CONF
fmap 2
acta 52
REM <olex2.extras>
REM <HklSrc "%.\\ARDA_a.hkl">
REM </olex2.extras>

WGHT    0.039700    0.090800
FVAR       0.48490   0.50542
PD1   5    0.365264    0.834899    0.714832    11.00000    0.04541    0.04657 =
         0.05817    0.02354    0.00450    0.01169
PART 1
F1    3    1.027639    0.695385    0.193548    21.00000    0.15159    0.12583 =
         0.13364    0.02990    0.08694   -0.02875
PART 0
PART 2
F1A   3    0.883683    0.475179    0.111184   -21.00000    0.16543    0.13732 =
         0.07936   -0.02145    0.05770   -0.06393
PART 0
PART 1
F2    3    0.853488    0.513085    0.105614    21.00000    0.09127    0.13056 =
         0.04326    0.02207    0.00222    0.03580
PART 0
PART 2
F2A   3    1.105756    0.561767    0.225373   -21.00000    0.06932    0.18059 =
         0.10445    0.07392    0.04259    0.05476
PART 0
PART 1
F3    3    1.062445    0.506744    0.213398    21.00000    0.12847    0.24397 =
         0.10614    0.10144    0.07508    0.13461
PART 0
PART 2
F3A   3    0.980388    0.694037    0.169066   -21.00000    0.14272    0.14000 =
         0.10689    0.09005    0.08006    0.07357
PART 0
N1    4    0.416811    0.804741    0.906893    11.00000    0.04611    0.05264 =
         0.04843    0.01852    0.00581    0.00492
N2    4    0.586918    0.741194    0.688974    11.00000    0.04586    0.05215 =
         0.04945    0.02482    0.00544    0.01219
N3    4    0.631790    0.690440    0.772147    11.00000    0.05561    0.07218 =
         0.05690    0.03481    0.01095    0.02302
C1    1    0.727439    0.803685    0.518212    11.00000    0.06114    0.05101 =
         0.05513    0.02482    0.00873    0.01623
AFIX  43
H1    2    0.693661    0.897413    0.559989    11.00000   -1.20000
AFIX   0
C2    1    0.819597    0.768715    0.404302    11.00000    0.06291    0.06280 =
         0.05844    0.03353    0.00961    0.00879
AFIX  43
H2    2    0.851424    0.839008    0.368514    11.00000   -1.20000
AFIX   0
C3    1    0.864973    0.632687    0.343094    11.00000    0.04613    0.06766 =
         0.04899    0.02236    0.00567    0.00894
C4    1    0.822721    0.530849    0.396037    11.00000    0.06033    0.05317 =
         0.06274    0.01842    0.01393    0.01601
AFIX  43
H4    2    0.855305    0.436758    0.353105    11.00000   -1.20000
AFIX   0
C5    1    0.733158    0.565556    0.511316    11.00000    0.05835    0.05236 =
         0.06349    0.02910    0.01349    0.01532
AFIX  43
H5    2    0.705202    0.496365    0.549129    11.00000   -1.20000
AFIX   0
C6    1    0.684685    0.701910    0.571018    11.00000    0.04371    0.05139 =
         0.04649    0.02154    0.00616    0.01203
C7    1    0.541453    0.725859    0.890851    11.00000    0.05473    0.06678 =
         0.05129    0.02845    0.00762    0.01290
C8    1    0.597446    0.678345    0.985678    11.00000    0.07398    0.10613 =
         0.06561    0.05129    0.01254    0.02729
AFIX  43
H8    2    0.686333    0.622046    0.968114    11.00000   -1.20000
AFIX   0
C9    1    0.519741    0.715364    1.108215    11.00000    0.08572    0.11046 =
         0.06206    0.05056    0.00197    0.00899
AFIX  43
H9    2    0.552943    0.683617    1.176352    11.00000   -1.20000
AFIX   0
C10   1    0.395335    0.797914    1.128303    11.00000    0.07383    0.08602 =
         0.05014    0.02500    0.01090   -0.00181
AFIX  43
H10   2    0.343279    0.826822    1.212805    11.00000   -1.20000
AFIX   0
C11   1    0.342836    0.840857    1.027255    11.00000    0.05781    0.05593 =
         0.05333    0.01540    0.00853   -0.00391
C12   1    0.203499    0.926490    1.050519    11.00000    0.08161    0.08459 =
         0.07191    0.01894    0.03014    0.02431
AFIX 137
H12A  2    0.228973    1.004151    1.018706    11.00000   -1.50000
H12B  2    0.186135    0.969310    1.149331    11.00000   -1.50000
H12C  2    0.102807    0.862908    0.998977    11.00000   -1.50000
AFIX   0
C13   1    0.956637    0.589458    0.214180    11.00000    0.06342    0.08667 =
         0.06035    0.02674    0.01502    0.01550
C14   1    0.334589    0.836083    0.524726    11.00000    0.06761    0.08728 =
         0.07383    0.04838    0.00366    0.01928
AFIX  33
H14A  2    0.431308    0.804274    0.473050    11.00000   -1.50000
H14B  2    0.234840    0.769785    0.474634    11.00000   -1.50000
H14C  2    0.322842    0.934761    0.534906    11.00000   -1.50000
AFIX   0
C15   1    0.138410    0.905246    0.737210    11.00000    0.06406    0.12346 =
         0.09184    0.05214    0.01854    0.04563
AFIX 137
H15A  2    0.064898    0.847704    0.773567    11.00000   -1.50000
H15B  2    0.090814    0.893753    0.647242    11.00000   -1.50000
H15C  2    0.150706    1.008023    0.801554    11.00000   -1.50000
AFIX   0
HKLF 4




REM  ARDA_a.res in P-1
REM R1 =  0.0254 for    2685 Fo > 4sig(Fo)  and  0.0327 for all    3070 data
REM    229 parameters refined using     66 restraints

END

WGHT      0.0397      0.0908

REM Highest difference peak  0.399,  deepest hole -0.290,  1-sigma level  0.064
Q1    1   0.4511  0.9060  0.7720  11.00000  0.05    0.40
Q2    1   0.8883  0.5978  0.1244  11.00000  0.05    0.40
Q3    1   0.4014  0.7627  0.6646  11.00000  0.05    0.39
Q4    1   0.3743  0.7428  0.4583  11.00000  0.05    0.36
Q5    1   0.2752  0.7465  0.6992  11.00000  0.05    0.31
Q6    1   0.6941  0.6237  0.5224  11.00000  0.05    0.30
Q7    1   0.6333  0.7163  0.6251  11.00000  0.05    0.30
Q8    1   0.3979  0.8423  0.9568  11.00000  0.05    0.28
Q9    1   0.8803  0.5945  0.3891  11.00000  0.05    0.28
Q10   1   0.3532  0.7864  0.8774  11.00000  0.05    0.28
;
_shelx_res_checksum              59366
_shelx_hkl_file
;
  -1   0   0 1050.39   22.00
  -1   0   0 1047.60   22.30
  -1   0   0 1080.99   22.00
   1   0   0 1055.59   21.90
   1   0   0 1042.50   22.20
  -2   0   0   21.80    0.90
  -2   0   0   22.60    0.80
  -2   0   0   24.00    0.90
   2   0   0   22.60    0.70
   2   0   0   23.80    0.70
   2   0   0   23.90    0.90
  -3   0   0  707.33   14.30
  -3   0   0  701.63   14.50
  -3   0   0  600.14   14.50
   3   0   0  694.93   14.50
  -4   0   0 1538.15   31.90
  -4   0   0 1539.65   31.90
  -4   0   0 1500.75   32.00
   4   0   0 1505.85   32.00
  -5   0   0  152.78    4.10
  -5   0   0  158.98    4.10
  -5   0   0  152.08    4.10
   5   0   0  153.48    4.10
  -6   0   0   36.10    2.30
  -6   0   0   38.30    2.40
  -6   0   0   39.30    1.70
  -6   0   0   41.50    2.10
   6   0   0   39.90    2.00
  -7   0   0   71.29    3.50
  -7   0   0   73.89    2.30
  -7   0   0   72.99    2.40
  -7   0   0   75.69    3.10
  -7   0   0   77.89    4.00
  -7   0   0   69.09    3.40
  -8   0   0   59.99    3.20
  -8   0   0   57.29    2.00
  -8   0   0   57.29    4.00
  -8   0   0   68.99    4.00
  -8   0   0   56.99    1.80
  -8   0   0   59.29    4.60
  -9   0   0    6.40    3.00
  -9   0   0    4.30    1.90
  -9   0   0    5.20    2.90
  -9   0   0    3.80    3.20
  -9   1   0   35.50    4.00
  -9   1   0   28.90    3.00
  -9   1   0   29.50    3.00
  -9   1   0   31.10    2.70
  -9   1   0   25.10    2.10
  -9   1   0   28.20    5.40
  -8   1   0   81.79    3.30
  -8   1   0   80.89    4.80
  -8   1   0   83.09    3.90
  -8   1   0   80.49    3.90
  -8   1   0   86.99    3.40
  -8   1   0   82.89    3.40
  -7   1   0    4.70    1.40
  -7   1   0    4.10    1.40
  -7   1   0    4.60    1.10
  -7   1   0    2.70    1.70
  -6   1   0  138.09    3.80
  -6   1   0  139.39    3.90
  -6   1   0  137.19    4.60
  -6   1   0  135.89    3.80
  -5   1   0  762.62   16.40
  -5   1   0  794.22   16.50
  -5   1   0  774.62   17.20
  -5   1   0  762.32   16.70
  -4   1   0  439.26    9.80
  -4   1   0  438.36    9.50
  -4   1   0  455.85    9.50
  -4   1   0  438.46   10.10
  -3   1   0    1.60    0.40
  -3   1   0    1.30    0.30
  -3   1   0    1.30    0.30
  -3   1   0    0.80    0.50
  -2   1   0  274.17    6.10
   1  -1   0 2186.88   45.50
  -1   1   0 2148.89   45.60
   0  -1   0   -2.60    0.30
  -1  -1   0  215.48    4.70
  -1  -1   0  207.28    4.80
  -1  -1   0  198.88    4.80
   1   1   0  218.48    4.50
   1   1   0  224.48    4.70
   1   1   0  214.68    4.80
   1   1   0  177.58    4.80
  -2  -1   0 1394.16   30.00
  -2  -1   0 1432.76   30.10
  -2  -1   0 1478.25   30.00
  -2  -1   0 1403.86   29.70
   2   1   0 1422.66   30.10
   2   1   0 1394.66   29.60
   2   1   0 1477.45   30.00
   2   1   0 1474.05   30.00
  -3  -1   0  928.61   19.80
  -3  -1   0  918.51   19.70
  -3  -1   0  909.41   19.20
  -3  -1   0  940.51   19.70
   3   1   0  911.01   19.80
   3   1   0  956.20   19.60
   3   1   0  924.31   19.60
  -4  -1   0    7.50    1.00
  -4  -1   0    6.50    0.50
  -4  -1   0    5.90    1.00
  -4  -1   0    5.50    0.90
   4   1   0    5.50    0.90
   4   1   0    6.10    0.90
   4   1   0    5.20    0.80
  -5  -1   0  111.09    3.50
  -5  -1   0  114.99    3.50
  -5  -1   0  107.79    2.40
  -5  -1   0  113.69    3.60
   5   1   0  112.49    2.80
   5   1   0  110.39    3.40
   5   1   0  109.39    2.90
  -6  -1   0  299.47    7.60
  -6  -1   0  297.17    7.50
  -6  -1   0  299.57    7.50
   6   1   0  297.97    7.50
  -7  -1   0  127.29    4.80
  -7  -1   0  131.99    4.40
  -7  -1   0  127.29    4.80
   7   1   0  128.59    4.30
  -8  -1   0   -3.70    2.50
  -8  -1   0   -0.40    2.50
  -8  -1   0    0.30    1.70
  -8  -1   0    3.30    2.30
   8   1   0   -1.90    1.50
  -9  -1   0   30.00    2.90
  -9  -1   0   24.10    4.00
  -9  -1   0   25.50    3.80
  -9  -1   0   23.00    3.70
  -9   2   0   44.40    3.00
  -9   2   0   42.90    3.70
  -9   2   0   43.70    3.90
  -9   2   0   39.10    3.00
  -9   2   0   49.00    4.30
  -8   2   0    0.60    1.70
  -8   2   0    2.00    1.50
  -8   2   0    0.10    1.20
  -8   2   0   -2.20    2.00
  -8   2   0   -1.00    1.60
  -7   2   0   49.99    2.50
  -7   2   0   55.19    2.50
  -7   2   0   57.99    2.50
  -7   2   0   55.89    3.50
  -6   2   0  291.87    6.90
  -6   2   0  282.27    6.50
  -6   2   0  287.87    7.50
  -6   2   0  279.87    6.50
  -5   2   0   81.99    2.60
  -5   2   0   87.19    2.20
  -5   2   0   80.79    3.00
  -5   2   0   85.29    2.20
  -4   2   0   77.09    1.80
  -4   2   0   75.39    2.30
  -4   2   0   74.49    2.60
  -4   2   0   79.49    1.80
  -3   2   0 2922.81   60.89
   2  -2   0 1087.79   22.90
  -2   2   0 1096.19   22.60
  -2   2   0 1077.49   22.90
  -2   2   0 1095.59   22.60
   1  -2   0   35.30    1.10
   1  -2   0   35.30    1.10
   1  -2   0   35.50    1.10
  -1   2   0   36.50    1.20
  -1   2   0   34.40    1.20
  -1   2   0   36.40    1.20
   0  -2   0 1874.61   39.40
   0  -2   0 1851.71   39.50
   0   2   0 1875.11   39.70
   0   2   0 1905.01   39.50
  -1  -2   0 9825.82  204.48
  -1  -2   0 9661.83  205.38
  -1  -2   0 9999.00  204.58
   1   2   0 9864.51  205.08
   1   2   0 9664.33  204.48
  -2  -2   0 2318.87   49.30
  -2  -2   0 2356.46   49.10
  -2  -2   0 2386.96   49.10
   2   2   0 2360.26   49.10
   2   2   0 2301.87   48.90
   2   2   0 2370.96   49.30
   2   2   0 2366.86   49.00
  -3  -2   0    1.40    0.80
  -3  -2   0    2.90    0.80
  -3  -2   0    1.60    0.80
   3   2   0    1.90    0.40
   3   2   0    2.30    0.80
   3   2   0    1.40    0.90
   3   2   0    2.00    0.70
  -4  -2   0  215.58    5.70
  -4  -2   0  220.58    5.60
  -4  -2   0  217.88    5.70
   4   2   0  218.88    5.40
   4   2   0  217.48    5.70
   4   2   0  219.58    5.50
  -5  -2   0  583.84   13.50
  -5  -2   0  588.74   13.50
  -5  -2   0  597.84   13.60
   5   2   0  608.74   13.60
   5   2   0  587.24   13.10
   5   2   0  586.44   13.10
  -6  -2   0  109.29    4.00
  -6  -2   0  107.09    4.30
  -6  -2   0  107.09    4.20
   6   2   0  111.79    3.40
   6   2   0  105.89    3.50
   6   2   0  108.99    3.90
  -7  -2   0    1.00    2.10
  -7  -2   0   -1.10    2.00
  -7  -2   0    2.60    1.70
   7   2   0    2.00    1.50
   7   2   0    1.60    1.10
  -8  -2   0   27.50    3.30
  -8  -2   0   31.60    3.50
  -8  -2   0   36.40    3.50
   8   2   0   31.10    2.80
  -9  -2   0   38.90    4.50
  -9  -2   0   29.00    4.40
  -9  -2   0   32.10    4.30
  -9   3   0    4.50    2.60
  -9   3   0    3.60    3.50
  -9   3   0    6.70    2.20
  -9   3   0    6.40    2.00
  -9   3   0    9.40    1.70
  -8   3   0   28.80    2.50
  -8   3   0   33.20    2.40
  -8   3   0   31.30    3.00
  -8   3   0   32.90    2.20
  -7   3   0  118.69    4.70
  -7   3   0  110.39    3.30
  -7   3   0  118.09    3.70
  -7   3   0  115.29    3.30
  -6   3   0   10.60    1.00
  -6   3   0    9.50    1.60
  -6   3   0   11.10    1.20
  -5   3   0   27.10    1.20
  -5   3   0   26.20    2.00
  -5   3   0   26.80    1.20
  -4   3   0 1029.90   21.80
  -4   3   0 1068.99   21.90
  -4   3   0 1044.50   22.60
   3  -3   0  753.92   16.20
  -3   3   0  769.52   15.80
  -3   3   0  735.83   15.80
  -3   3   0  744.33   16.20
   2  -3   0  222.78    5.20
   2  -3   0  221.48    4.90
   2  -3   0  227.78    4.90
  -2   3   0  219.08    5.20
  -2   3   0  230.98    5.10
  -2   3   0  233.18    5.20
   1  -3   0   66.89    1.90
   1  -3   0   69.09    2.00
   1  -3   0   65.89    1.90
  -1   3   0   70.29    2.10
  -1   3   0   64.89    1.90
  -1   3   0   68.59    2.00
   0  -3   0 1981.50   41.50
   0  -3   0 1980.70   41.50
   0  -3   0 1979.10   41.60
   0   3   0 1988.80   41.60
   0   3   0 2006.40   41.60
  -1  -3   0  838.22   18.00
  -1  -3   0  834.82   18.00
   1   3   0  835.72   18.00
   1   3   0  814.82   18.20
   1   3   0  850.71   18.00
  -2  -3   0  113.09    3.40
  -2  -3   0  115.49    3.40
   2   3   0  117.89    3.50
   2   3   0  112.19    3.30
   2   3   0  114.99    3.00
   2   3   0  113.79    3.50
  -3  -3   0  222.48    5.70
  -3  -3   0  214.58    5.80
  -3  -3   0  224.98    5.80
   3   3   0  219.48    5.80
   3   3   0  214.98    5.70
   3   3   0  227.88    5.60
   3   3   0  214.08    5.30
  -4  -3   0  348.57    8.70
  -4  -3   0  344.77    8.60
  -4  -3   0  352.86    8.50
   4   3   0  336.47    7.40
   4   3   0  344.07    8.30
   4   3   0  351.16    8.40
   4   3   0  353.96    8.60
  -5  -3   0   72.29    3.60
  -5  -3   0   68.99    3.50
  -5  -3   0   74.79    3.30
   5   3   0   70.69    3.10
   5   3   0   72.89    3.20
   5   3   0   72.29    3.40
  -6  -3   0   20.80    2.40
  -6  -3   0   25.70    2.60
  -6  -3   0   21.40    2.40
   6   3   0   21.50    2.00
   6   3   0   21.70    2.30
   6   3   0   22.50    2.30
  -7  -3   0   84.69    4.30
  -7  -3   0   83.69    5.10
  -7  -3   0   84.59    5.10
   7   3   0   81.39    3.90
   7   3   0   82.49    3.70
   7   3   0   86.09    4.50
  -8  -3   0   38.70    4.10
  -8  -3   0   38.80    4.10
   8   3   0   41.50    2.50
   8   3   0   42.50    4.30
   8   3   0   37.30    2.60
  -9  -3   0    5.10    4.30
  -9  -3   0    3.10    4.70
   9   3   0    1.20    3.00
  -9   4   0   24.90    2.30
  -9   4   0   29.30    2.90
  -9   4   0   23.50    2.50
  -9   4   0   29.60    3.50
  -9   4   0   21.90    4.30
  -8   4   0  146.49    4.50
  -8   4   0  128.09    4.10
  -8   4   0  139.59    5.80
  -8   4   0  125.29    4.20
  -7   4   0    1.60    1.20
  -7   4   0    3.20    1.10
  -7   4   0    5.20    1.30
  -7   4   0    2.40    1.80
  -6   4   0   67.39    2.60
  -6   4   0   60.09    3.20
  -6   4   0   62.49    2.20
  -6   4   0   62.69    2.30
  -5   4   0  293.37    6.70
  -5   4   0  303.97    7.60
  -5   4   0  302.57    6.80
   4  -4   0  353.06    8.30
  -4   4   0  364.66    8.00
  -4   4   0  354.76    8.40
  -4   4   0  356.96    7.90
   3  -4   0  138.79    3.70
  -3   4   0  136.49    3.50
  -3   4   0  138.79    3.50
  -3   4   0  133.89    3.70
   2  -4   0 1475.05   30.60
   2  -4   0 1440.16   30.80
   2  -4   0 1468.05   30.60
  -2   4   0 1447.56   30.80
  -2   4   0 1463.45   30.80
  -2   4   0 1484.85   30.80
   1  -4   0  727.43   15.70
   1  -4   0  745.93   15.80
   1  -4   0  726.73   15.70
  -1   4   0  730.33   15.90
  -1   4   0  724.43   15.80
   0  -4   0   33.10    1.70
   0  -4   0   36.00    1.60
   0  -4   0   34.40    1.80
   0   4   0   35.70    1.90
   0   4   0   31.70    1.80
   0   4   0   33.60    1.70
  -1  -4   0  247.38    6.20
  -1  -4   0  244.78    6.00
   1   4   0  242.58    6.20
   1   4   0  238.18    6.10
   1   4   0  240.68    6.40
  -2  -4   0 1537.45   32.70
  -2  -4   0 1512.45   32.60
   2   4   0 1502.55   32.20
   2   4   0 1525.45   32.60
   2   4   0 1552.84   32.90
   2   4   0 1532.25   32.70
  -3  -4   0 1122.19   24.80
  -3  -4   0 1119.79   24.70
   3   4   0 1134.69   24.00
   3   4   0 1143.39   24.60
   3   4   0 1135.59   25.00
   3   4   0 1148.79   24.70
  -4  -4   0   32.40    2.90
  -4  -4   0   34.10    2.90
   4   4   0   33.80    1.70
   4   4   0   32.60    2.50
   4   4   0   35.30    2.60
   4   4   0   33.80    2.60
  -5  -4   0  131.49    5.10
  -5  -4   0  129.29    5.00
   5   4   0  131.69    4.70
   5   4   0  136.29    4.90
   5   4   0  133.49    5.10
  -6  -4   0  115.19    5.40
  -6  -4   0  113.49    5.40
   6   4   0  114.79    5.10
   6   4   0  117.79    4.80
   6   4   0  115.79    4.90
  -7  -4   0   49.80    4.20
  -7  -4   0   55.49    4.30
   7   4   0   54.99    4.70
   7   4   0   51.59    4.20
   7   4   0   53.79    4.50
  -8  -4   0   -3.00    4.00
  -8  -4   0    1.20    3.70
   8   4   0   -1.60    2.80
   8   4   0    1.70    2.90
   8   4   0   -1.50    2.50
  -9   5   0   16.50    2.30
  -9   5   0   16.40    2.30
  -9   5   0   22.60    3.80
  -9   5   0   18.60    2.50
  -9   5   0   12.90    3.60
  -8   5   0   -1.10    1.70
  -8   5   0   -0.70    1.60
  -8   5   0   -2.20    1.50
  -8   5   0   -1.70    2.20
  -7   5   0   24.70    1.90
  -7   5   0   25.10    2.70
  -7   5   0   24.10    2.20
  -7   5   0   26.80    2.40
  -6   5   0  109.39    3.40
  -6   5   0  110.89    3.30
  -6   5   0  108.19    4.30
  -5   5   0   73.99    2.80
  -5   5   0   74.49    2.60
  -5   5   0   70.29    3.10
   4  -5   0   16.60    1.40
  -4   5   0   19.80    1.90
  -4   5   0   18.00    1.60
  -4   5   0   21.10    1.60
   3  -5   0  374.86    8.00
   3  -5   0  364.26    8.00
   3  -5   0  377.06    8.70
  -3   5   0  390.56    8.80
  -3   5   0  377.86    8.60
  -3   5   0  382.46    8.80
   2  -5   0 1010.00   21.60
   2  -5   0 1014.40   21.70
   2  -5   0 1011.80   21.60
  -2   5   0 1023.20   21.90
  -2   5   0 1017.50   21.80
  -2   5   0 1008.10   21.70
   1  -5   0  156.48    4.20
   1  -5   0  157.38    4.30
   1  -5   0  159.08    4.40
  -1   5   0  167.68    4.60
   0  -5   0   38.30    2.20
   0  -5   0   41.70    2.00
   0  -5   0   37.20    2.20
   0   5   0   37.70    2.20
   0   5   0   44.30    2.50
   0   5   0   37.90    2.30
  -1  -5   0  701.83   15.70
  -1  -5   0  697.63   15.80
   1   5   0  701.43   15.70
   1   5   0  709.73   15.90
   1   5   0  690.83   15.60
   1   5   0  706.63   16.20
  -2  -5   0  346.37    8.80
   2   5   0  357.66    9.00
   2   5   0  348.57    8.80
   2   5   0  340.27    8.20
   2   5   0  344.37    8.60
  -3  -5   0    1.00    1.50
  -3  -5   0   -0.90    1.20
   3   5   0    0.20    1.60
   3   5   0   -0.40    1.40
   3   5   0   -1.20    1.30
   3   5   0    0.80    1.00
  -4  -5   0   65.39    3.90
  -4  -5   0   66.29    3.70
   4   5   0   70.89    3.70
   4   5   0   68.39    2.60
   4   5   0   56.99    4.60
   4   5   0   66.89    3.60
  -5  -5   0  122.19    5.40
  -5  -5   0  116.09    5.30
   5   5   0  125.19    5.60
   5   5   0  121.39    5.10
   5   5   0  119.29    3.30
   5   5   0  123.69    5.00
  -6  -5   0   66.09    5.30
  -6  -5   0   63.69    5.40
   6   5   0   67.79    4.60
   6   5   0   66.79    5.40
   6   5   0   68.99    4.70
  -7  -5   0   -2.60    3.60
  -7  -5   0   -3.80    3.50
   7   5   0    1.80    3.10
   7   5   0    5.20    3.40
   7   5   0    5.00    3.00
  -8  -5   0   22.10    5.00
   8   5   0   17.40    3.70
  -9   6   0    3.40    2.60
  -9   6   0    3.30    4.50
  -9   6   0   -1.30    3.20
  -9   6   0    0.00    2.20
  -9   6   0    1.90    2.40
  -8   6   0   44.80    3.60
  -8   6   0   47.00    3.50
  -8   6   0   51.69    4.00
  -8   6   0   47.30    3.30
  -7   6   0  129.79    4.30
  -7   6   0  128.09    4.50
  -7   6   0  134.59    5.40
  -6   6   0   27.90    2.50
  -6   6   0   28.10    2.00
  -6   6   0   26.20    2.10
   5  -6   0   22.80    1.90
  -5   6   0   21.00    1.90
  -5   6   0   23.40    1.80
  -5   6   0   24.40    2.10
   4  -6   0  227.08    6.00
  -4   6   0  233.98    6.20
  -4   6   0  235.18    6.00
  -4   6   0  237.18    6.20
   3  -6   0  308.77    6.90
   3  -6   0  305.07    6.90
   3  -6   0  308.77    7.40
  -3   6   0  314.77    7.80
  -3   6   0  296.57    7.50
  -3   6   0  308.97    7.50
   2  -6   0   11.00    1.30
   2  -6   0   11.40    1.40
   2  -6   0   10.80    1.30
  -2   6   0   11.70    1.80
  -2   6   0   11.10    1.40
   1  -6   0  290.87    7.20
   1  -6   0  279.67    6.90
   1  -6   0  283.57    7.00
  -1   6   0  261.37    7.30
  -1   6   0  286.77    7.20
  -1   6   0  279.37    7.70
   0  -6   0  415.66    9.90
   0  -6   0  420.76   10.20
   0  -6   0  411.66   10.00
   0   6   0  415.46   10.30
   0   6   0  428.26   10.70
   0   6   0  431.26   10.20
  -1  -6   0  128.79    4.40
  -1  -6   0  126.29    4.40
   1   6   0   99.09    5.90
   1   6   0  121.09    4.10
   1   6   0  128.39    4.30
   1   6   0   94.09    6.70
  -2  -6   0   65.79    3.70
  -2  -6   0   73.09    3.60
   2   6   0   65.59    3.80
   2   6   0   68.99    3.10
   2   6   0   58.59    3.40
   2   6   0   63.49    3.60
  -3  -6   0  242.68    7.20
   3   6   0  242.08    6.40
   3   6   0  238.38    7.00
   3   6   0  240.88    7.40
   3   6   0  235.78    7.40
  -4  -6   0  224.88    7.50
   4   6   0  222.18    7.60
   4   6   0  242.48    7.60
   4   6   0  229.98    6.20
   4   6   0  247.78    7.20
  -5  -6   0   23.70    3.50
  -5  -6   0   16.20    3.00
   5   6   0   29.10    3.80
   5   6   0   24.80    3.20
   5   6   0   21.80    3.00
   5   6   0   25.80    2.50
  -6  -6   0    9.80    3.40
  -6  -6   0    6.00    7.60
   6   6   0   12.50    3.10
   6   6   0   16.40    3.30
   6   6   0   13.30    4.00
  -7  -6   0   27.40    4.60
  -7  -6   0   26.50    6.90
   7   6   0   27.10    4.90
   7   6   0   23.80    4.00
  -8   7   0   47.50    4.00
  -8   7   0   44.60    3.20
  -8   7   0   40.10    3.40
  -8   7   0   43.90    4.90
  -7   7   0    8.50    2.50
  -7   7   0    9.80    2.10
  -7   7   0    9.00    2.40
  -6   7   0   29.90    2.70
  -6   7   0   32.30    2.50
  -6   7   0   29.70    2.70
   5  -7   0   75.99    3.50
  -5   7   0   81.89    4.20
  -5   7   0   81.49    3.60
  -5   7   0   79.19    3.80
   4  -7   0   61.49    2.90
  -4   7   0   56.59    3.10
  -4   7   0   62.79    3.10
  -4   7   0   64.39    3.80
   3  -7   0    1.00    1.20
   3  -7   0   -0.40    1.20
   3  -7   0    0.40    1.10
  -3   7   0   -0.70    1.20
  -3   7   0    1.70    1.40
  -3   7   0   -0.90    1.70
   2  -7   0  233.38    6.20
   2  -7   0  234.68    6.30
   2  -7   0  235.18    6.20
  -2   7   0  233.38    7.30
  -2   7   0  244.58    6.60
   1  -7   0  312.87    8.10
   1  -7   0  316.17    7.90
   1  -7   0  324.27    8.10
  -1   7   0  311.17    8.30
  -1   7   0  314.77    8.80
  -1   7   0  315.97    8.50
   0  -7   0   90.49    4.20
   0  -7   0   97.09    4.30
   0  -7   0   93.19    3.80
   0   7   0   97.69    4.40
   0   7   0  101.09    4.20
   0   7   0   94.39    4.40
  -1  -7   0    3.60    1.70
  -1  -7   0    2.10    1.80
  -1  -7   0    3.20    2.00
   1   7   0    2.00    2.10
   1   7   0    5.10    1.70
   1   7   0    3.40    1.80
   1   7   0    4.60    1.90
  -2  -7   0  119.69    5.10
  -2  -7   0  128.79    5.40
   2   7   0  121.59    5.00
   2   7   0  126.09    5.50
   2   7   0  116.59    5.20
   2   7   0  116.89    4.60
  -3  -7   0  260.87    8.10
   3   7   0  260.07    7.30
   3   7   0  261.77    8.50
   3   7   0  260.87    8.30
   3   7   0  261.67    7.90
  -4  -7   0    4.70    2.80
   4   7   0    2.20    3.40
   4   7   0    5.60    2.50
   4   7   0    7.50    2.00
   4   7   0    7.00    2.60
  -5  -7   0   13.50    3.70
   5   7   0   23.70    3.60
   5   7   0   19.10    2.20
  -6  -7   0   32.20    4.70
   6   7   0   25.50    7.30
   6   7   0   41.90    5.00
  -8   8   0   -1.00    2.90
  -8   8   0   -0.60    3.40
  -8   8   0    1.50    3.40
  -8   8   0    0.60    4.30
  -7   8   0   26.30    3.40
  -7   8   0   29.20    3.10
  -7   8   0   25.20    3.30
  -6   8   0   81.39    4.40
  -6   8   0   72.99    5.00
  -6   8   0   81.69    4.70
   5  -8   0   64.79    3.60
  -5   8   0   61.29    4.90
  -5   8   0   59.09    3.90
  -5   8   0   59.19    3.90
   4  -8   0    1.90    1.60
  -4   8   0   -0.20    1.70
  -4   8   0    1.20    1.60
  -4   8   0    3.20    2.60
   3  -8   0  132.19    4.50
   3  -8   0  131.19    4.30
   3  -8   0  131.49    4.20
  -3   8   0  130.39    5.70
  -3   8   0  133.39    5.10
  -3   8   0  138.59    5.70
   2  -8   0  155.28    5.20
   2  -8   0  157.58    5.20
   2  -8   0  151.38    5.00
  -2   8   0  155.08    5.50
  -2   8   0  157.08    6.00
  -2   8   0  150.08    6.00
   1  -8   0   16.80    3.10
   1  -8   0   13.10    2.00
   1  -8   0   13.80    2.20
  -1   8   0   16.90    2.80
  -1   8   0   20.30    2.90
  -1   8   0   14.70    2.40
   0  -8   0   81.49    4.50
   0  -8   0   71.99    4.50
   0  -8   0   76.79    4.10
   0   8   0   58.39    4.30
   0   8   0   78.99    4.30
   0   8   0   75.19    5.00
   0   8   0   73.69    4.40
  -1  -8   0  159.68    6.30
  -1  -8   0  143.19    8.60
  -1  -8   0  162.78    6.40
   1   8   0  175.18    6.00
   1   8   0  164.98    6.20
  -2  -8   0   37.40    3.70
  -2  -8   0   37.20    3.50
   2   8   0   46.70    4.30
   2   8   0   41.10    4.00
  -3  -8   0   -1.60    5.20
  -3  -8   0    3.10    3.00
   3   8   0    6.30    2.30
   3   8   0    4.40    2.80
  -4  -8   0    8.40    3.60
  -4  -8   0   16.70    5.30
   4   8   0   13.00    3.60
   4   8   0   14.50    3.40
   4   8   0   10.80    4.40
   4   8   0   14.70    2.70
  -5  -8   0   47.70    5.00
   5   8   0   49.10    4.40
   5   8   0   39.70    6.10
   5   8   0   48.00    4.80
   5   8   0   46.50    5.30
  -6  -8   0   16.90    5.60
   6   8   0   13.00    6.50
   6   8   0   15.20    2.40
   6   8   0   11.30    4.90
  -7   9   0   38.50    4.50
  -7   9   0   34.40    5.20
  -7   9   0   39.90    3.90
  -7   9   0   42.30    4.00
  -6   9   0   15.00    2.90
  -6   9   0   13.20    2.90
  -6   9   0   15.10    3.80
   5  -9   0    9.40    2.30
  -5   9   0   10.50    3.40
  -5   9   0   10.30    3.60
  -5   9   0    7.90    2.40
   4  -9   0   24.30    2.40
  -4   9   0   23.00    3.30
  -4   9   0   29.00    3.20
  -4   9   0   24.90    3.70
   3  -9   0   49.50    3.80
   3  -9   0   54.09    3.60
   3  -9   0   51.69    3.70
  -3   9   0   51.99    4.50
  -3   9   0   59.49    4.70
  -3   9   0   49.90    4.30
   2  -9   0    5.10    2.30
   2  -9   0    7.30    2.20
   2  -9   0    4.00    2.40
  -2   9   0    8.00    3.10
  -2   9   0    5.60    2.50
  -2   9   0    5.90    3.20
  -2   9   0    4.90    2.60
   1  -9   0   43.10    3.40
   1  -9   0   47.40    3.70
   1  -9   0   46.10    4.10
  -1   9   0   44.80    4.80
  -1   9   0   38.00    3.40
  -1   9   0   40.10    3.90
  -1   9   0   42.10    3.60
   0  -9   0  105.09    5.50
   0  -9   0  120.99    5.90
   0  -9   0  109.79    6.10
   0   9   0  119.99    5.70
   0   9   0  107.89    5.70
   0   9   0  106.79    6.70
  -1  -9   0   54.79    5.00
  -1  -9   0   62.49    5.50
   1   9   0   40.00    3.80
   1   9   0   55.09    4.90
  -2  -9   0    4.20    3.50
  -2  -9   0    2.80    3.10
  -2  -9   0    3.10    3.60
   2   9   0   -2.30    2.60
   2   9   0    4.00    4.20
   2   9   0    5.00    2.80
   2   9   0    2.10    3.00
  -3  -9   0   39.90    5.00
  -3  -9   0   50.59    5.00
   3   9   0   30.20    4.90
   3   9   0   43.50    3.80
   3   9   0   40.80    5.00
   3   9   0   39.70    4.10
  -4  -9   0   53.29    5.30
   4   9   0   57.99    5.20
   4   9   0   52.19    8.20
   4   9   0   69.49    5.70
  -5  -9   0   11.00    5.20
   5   9   0    2.20    4.60
   5 -10   0   36.60    4.90
  -5  10   0   54.89    5.70
  -5  10   0   42.90    5.30
  -5  10   0   50.49    4.40
  -5  10   0   41.30    5.50
   4 -10   0   38.20    3.10
  -4  10   0   40.70    5.10
  -4  10   0   48.40    4.40
  -4  10   0   30.80    4.60
  -4  10   0   33.50    5.10
   3 -10   0   -0.80    2.40
   3 -10   0   -0.80    2.40
   3 -10   0   -2.80    2.60
  -3  10   0    0.20    3.80
  -3  10   0    0.50    3.40
  -3  10   0   -0.90    3.30
  -3  10   0   -4.40    4.10
   2 -10   0   40.80    3.70
   2 -10   0   34.30    3.30
   2 -10   0   29.80    3.70
  -2  10   0   29.60    4.00
  -2  10   0   36.30    4.10
  -2  10   0   27.20    4.10
  -2  10   0   38.30    5.00
   1 -10   0   57.29    5.00
   1 -10   0   59.29    4.60
   1 -10   0   79.39    5.90
  -1  10   0   61.69    6.60
  -1  10   0   48.50    5.00
  -1  10   0   53.09    4.50
  -1  10   0   61.49    5.90
   0 -10   0   13.50    3.40
   0 -10   0    8.70    3.70
   0  10   0   12.00    4.60
   0  10   0    3.40    3.40
   0  10   0   14.10    3.90
   0  10   0   19.00    4.80
  -1 -10   0    7.20    3.70
  -1 -10   0    1.10    3.70
  -1 -10   0    6.30    4.40
   1  10   0    2.10    3.70
   1  10   0    2.80    5.10
   1  10   0    1.00    3.50
   1  10   0    1.10    4.10
  -2 -10   0   31.00    5.80
  -2 -10   0   32.10    4.80
   2  10   0   38.30    4.90
   2  10   0   23.80    3.90
  -3 -10   0   25.70    5.50
  -3 -10   0   20.70    5.00
   3  10   0   17.10    4.10
   3  10   0    7.30    4.10
   3 -11   0   12.50    3.40
   3 -11   0   10.30    4.90
   3 -11   0   10.90    3.70
  -3  11   0    7.30    4.30
  -3  11   0   13.30    5.00
   2 -11   0   30.60    4.30
   2 -11   0   26.50    3.80
   2 -11   0   29.00    4.70
  -2  11   0   31.90    4.90
  -2  11   0   31.60    5.30
   1 -11   0    5.00    3.70
   1 -11   0    6.40    5.00
  -1  11   0   10.00    4.70
  -1  11   0    8.70    4.30
   0 -11   0   10.30    4.30
   0 -11   0    4.10    5.20
   0 -11   0    9.00    4.70
   0  11   0    2.00    4.70
   0  11   0   -1.00    4.20
  -1 -11   0   34.40    5.80
   1  11   0   32.50    5.20
   1  11   0   39.20    5.30
   2  11  -1    3.10    4.70
   2  11  -1    2.80    4.20
  -2 -11   1    4.20    5.10
   1  11  -1    2.70    4.20
   1  11  -1    7.80    4.20
  -1 -11   1    2.70    5.30
  -1 -11   1   11.00    4.30
  -1 -11   1    5.00    4.50
   0  11  -1   40.10    4.70
   0  11  -1   39.70    4.90
   0 -11   1   40.30    4.20
   0 -11   1   41.40    4.90
   0 -11   1   28.50    5.20
  -1  11  -1   11.00    3.90
  -1  11  -1   23.20    7.00
  -1  11  -1   21.30    4.50
   1 -11   1   20.20    3.50
   1 -11   1   13.50    4.20
   1 -11   1   20.20    4.10
  -2  11  -1    4.50    5.20
  -2  11  -1    3.50    3.70
  -2  11  -1    0.30    3.50
   2 -11   1   -5.70    3.50
   2 -11   1    2.70    3.30
   2 -11   1    0.40    2.50
  -3  11  -1   23.00    4.30
  -3  11  -1   24.40    5.50
  -3  11  -1   22.60    4.00
   3 -11   1   22.80    3.10
   3 -11   1   19.70    3.20
   3 -11   1   19.40    2.60
  -4  11  -1   40.40    6.10
  -4  11  -1   44.70    7.90
  -4  11  -1   32.20    4.90
   4 -11   1   36.60    2.80
   4  10  -1   13.90    4.60
   4  10  -1   13.20    3.90
  -4 -10   1   15.40    5.40
   3  10  -1    9.20    4.30
   3  10  -1    6.40    3.50
  -3 -10   1    9.00    4.50
   2  10  -1   17.80    3.60
   2  10  -1   13.60    4.40
   2  10  -1   12.00    3.40
   2  10  -1   20.90    5.00
  -2 -10   1   14.00    4.80
  -2 -10   1   18.20    4.00
  -2 -10   1   16.60    4.20
   1  10  -1   41.70    5.10
   1  10  -1   64.99    6.20
   1  10  -1   60.39    5.60
   1  10  -1   49.90    5.00
  -1 -10   1   52.29    7.90
  -1 -10   1   59.59    5.50
   0  10  -1   24.10    3.70
   0  10  -1   23.30    4.10
   0  10  -1   30.90    4.60
   0  10  -1    5.60    4.30
   0 -10   1   23.20    3.50
   0 -10   1   19.90    3.80
   0 -10   1   17.40    3.40
  -1  10  -1    2.80    3.20
  -1  10  -1   -1.70    3.60
  -1  10  -1    1.50    2.80
  -1  10  -1   -0.70    3.10
   1 -10   1    2.90    2.80
   1 -10   1   -0.50    3.00
   1 -10   1   -0.10    2.20
  -2  10  -1   59.59    5.40
  -2  10  -1   56.59    6.00
  -2  10  -1   65.69    5.70
  -2  10  -1   56.09    4.90
   2 -10   1   50.59    4.30
   2 -10   1   55.89    3.90
   2 -10   1   64.49    4.70
  -3  10  -1   58.89    5.30
  -3  10  -1   58.79    5.10
  -3  10  -1   57.19    4.90
  -3  10  -1   46.00    4.50
   3 -10   1   62.79    4.00
   3 -10   1   59.99    3.50
   3 -10   1   63.89    4.10
  -4  10  -1    4.00    3.70
  -4  10  -1    4.80    3.00
  -4  10  -1    5.80    3.60
   4 -10   1    2.30    1.80
  -5  10  -1   14.60    3.30
  -5  10  -1   13.60    4.30
  -5  10  -1   16.50    4.40
  -6  10  -1   30.80    5.00
  -6  10  -1   39.90    5.60
  -6  10  -1   36.90    4.10
   5   9  -1    9.80    3.20
   5   9  -1    5.90    4.60
  -5  -9   1    7.80    4.80
   4   9  -1   -4.60    3.60
   4   9  -1   -1.90    3.90
   4   9  -1   -1.50    2.80
   4   9  -1    2.20    4.90
  -4  -9   1   -1.80    5.00
  -4  -9   1    0.30    4.10
   3   9  -1   61.79    5.20
   3   9  -1   42.20    4.10
   3   9  -1   52.99    5.40
   3   9  -1   58.69    6.20
  -3  -9   1   50.29    4.90
  -3  -9   1   54.29    5.00
   2   9  -1   24.50    3.10
   2   9  -1   16.60    3.40
   2   9  -1   15.60    3.80
  -2  -9   1   21.60    3.40
   1   9  -1   14.40    2.90
   1   9  -1   15.80    3.10
  -1  -9   1   11.60    3.40
  -1  -9   1   13.20    3.00
   0   9  -1   -2.50    2.20
   0   9  -1   -1.30    2.20
   0   9  -1   -1.00    2.90
   0  -9   1    1.10    2.00
   0  -9   1    1.40    2.40
   0  -9   1   -0.90    2.60
  -1   9  -1   76.99    4.90
  -1   9  -1   71.89    4.60
  -1   9  -1   55.19    4.70
  -1   9  -1   62.39    5.40
   1  -9   1   73.79    3.80
   1  -9   1   71.89    4.50
   1  -9   1   85.09    4.70
  -2   9  -1   81.49    5.60
  -2   9  -1   96.39    5.10
  -2   9  -1  101.49    5.50
   2  -9   1  103.99    4.40
   2  -9   1   97.39    3.80
   2  -9   1   98.69    4.50
  -3   9  -1    5.70    2.50
  -3   9  -1    4.20    2.90
  -3   9  -1    7.70    2.40
   3  -9   1    6.80    1.60
   3  -9   1    5.40    1.80
   3  -9   1    5.40    1.70
  -4   9  -1   21.70    3.80
  -4   9  -1   20.70    3.30
  -4   9  -1   25.20    2.90
   4  -9   1   19.50    1.90
  -5   9  -1  115.69    6.70
  -5   9  -1  119.59    5.30
  -5   9  -1  108.39    4.50
  -5   9  -1  108.19    6.00
  -6   9  -1   73.99    4.90
  -6   9  -1   64.19    4.50
  -6   9  -1   63.89    4.40
  -6   9  -1   61.99    5.30
  -7   9  -1    2.40    2.90
  -7   9  -1    1.40    3.60
  -7   9  -1    1.40    4.00
   6   8  -1   14.10    4.50
   6   8  -1    7.40    2.60
   6   8  -1   11.40    4.50
   6   8  -1    6.80    6.00
  -6  -8   1    3.50    4.60
   5   8  -1   -4.20    4.40
   5   8  -1    0.60    3.50
   5   8  -1   -3.20    3.40
   5   8  -1    0.30    2.40
  -5  -8   1    0.00    3.70
   4   8  -1   27.30    3.80
   4   8  -1   25.50    2.90
  -4  -8   1   29.40    4.00
   3   8  -1   85.99    4.60
   3   8  -1   96.59    5.30
   3   8  -1   87.69    5.70
  -3  -8   1   98.69    5.70
   2   8  -1   73.99    5.00
   2   8  -1   69.19    4.20
   2   8  -1   68.29    4.50
  -2  -8   1   80.29    4.90
  -2  -8   1   78.29    5.20
   1   8  -1   79.59    4.30
   1   8  -1   82.29    4.60
   1   8  -1   83.79    4.40
   1   8  -1   80.19    5.00
  -1  -8   1   78.39    4.60
  -1  -8   1   71.39    4.60
  -1  -8   1   74.29    4.10
   0   8  -1  175.08    6.30
   0   8  -1  173.88    6.50
   0   8  -1  174.98    6.00
   0   8  -1  180.78    6.00
   0  -8   1  179.98    6.00
   0  -8   1  181.78    5.50
   0  -8   1  190.88    6.10
  -1   8  -1   76.59    4.20
  -1   8  -1   72.19    4.20
  -1   8  -1   80.79    4.10
   1  -8   1   78.39    3.30
   1  -8   1   71.49    3.80
   1  -8   1   85.29    3.80
  -2   8  -1   -0.20    1.60
  -2   8  -1   -1.50    1.70
  -2   8  -1   -0.30    1.90
   2  -8   1   -1.50    1.40
   2  -8   1   -1.70    1.50
   2  -8   1   -0.30    1.10
  -3   8  -1   68.69    3.70
  -3   8  -1   67.29    4.40
  -3   8  -1   69.49    4.10
   3  -8   1   69.79    2.80
   3  -8   1   69.89    2.80
   3  -8   1   67.99    2.70
  -4   8  -1  131.29    4.20
  -4   8  -1  134.69    5.80
  -4   8  -1  139.29    4.90
  -4   8  -1  130.09    6.10
   4  -8   1  133.79    4.10
  -5   8  -1    7.10    2.40
  -5   8  -1    7.90    2.50
  -5   8  -1    8.20    1.90
  -6   8  -1    4.40    2.10
  -6   8  -1   -0.70    1.80
  -6   8  -1    5.40    2.70
  -6   8  -1    2.30    3.00
  -7   8  -1   35.00    3.30
  -7   8  -1   35.00    3.30
  -7   8  -1   30.80    4.10
  -7   8  -1   34.30    2.80
  -8   8  -1   21.60    4.50
  -8   8  -1   24.70    3.40
  -8   8  -1   25.90    3.00
  -8   8  -1   24.00    3.60
   7   7  -1    6.10    4.40
   7   7  -1    0.30    4.30
  -7  -7   1    5.50    5.10
   6   7  -1    6.30    3.40
   6   7  -1    5.40    1.80
  -6  -7   1    9.20    4.30
  -6  -7   1    9.60    4.00
   5   7  -1   47.40    3.40
   5   7  -1   35.80    3.70
   5   7  -1   37.70    4.40
   5   7  -1   38.90    4.00
  -5  -7   1   39.60    4.00
   4   7  -1   76.39    3.90
   4   7  -1   79.19    4.80
   4   7  -1   75.39    4.90
   4   7  -1   76.69    5.60
  -4  -7   1   80.79    5.20
   3   7  -1    4.50    2.30
   3   7  -1    3.90    2.40
   3   7  -1    5.30    1.70
   3   7  -1   -1.00    1.80
  -3  -7   1    3.10    2.30
   2   7  -1   76.69    3.60
   2   7  -1   80.09    4.50
   2   7  -1   76.19    4.00
   2   7  -1   75.99    4.30
  -2  -7   1   78.19    4.20
  -2  -7   1   80.29    4.20
   1   7  -1  109.09    4.30
   1   7  -1  112.69    4.70
   1   7  -1  110.09    4.40
   1   7  -1  104.99    4.60
  -1  -7   1  111.29    4.50
  -1  -7   1  112.09    4.50
   0   7  -1  109.89    4.30
   0   7  -1  121.19    4.40
   0   7  -1  112.29    4.60
   0   7  -1  109.79    4.40
   0  -7   1  107.99    4.20
   0  -7   1  110.69    3.70
   0  -7   1  110.59    4.20
  -1   7  -1    3.90    1.60
  -1   7  -1    4.00    1.60
  -1   7  -1    2.60    1.80
   1  -7   1    3.00    1.40
   1  -7   1    4.40    1.40
   1  -7   1    3.80    1.20
  -2   7  -1  140.69    4.80
  -2   7  -1  145.89    4.50
  -2   7  -1  136.89    5.00
   2  -7   1  136.09    4.10
   2  -7   1  137.49    3.90
   2  -7   1  138.29    4.20
  -3   7  -1  241.88    6.60
  -3   7  -1  241.18    6.00
  -3   7  -1  243.98    6.40
   3  -7   1  234.58    5.50
   3  -7   1  239.18    5.80
   3  -7   1  238.58    5.50
  -4   7  -1   26.50    2.30
  -4   7  -1   31.40    2.30
  -4   7  -1   25.80    2.20
   4  -7   1   30.10    2.00
  -5   7  -1   16.30    1.80
  -5   7  -1   16.30    2.10
  -5   7  -1   15.60    1.70
  -5   7  -1   17.40    2.80
  -6   7  -1  190.18    5.70
  -6   7  -1  191.78    7.10
  -6   7  -1  194.58    6.00
  -6   7  -1  187.38    5.30
  -7   7  -1   93.79    4.70
  -7   7  -1   85.09    4.10
  -7   7  -1   86.49    3.60
  -7   7  -1  103.59    6.20
  -8   7  -1    2.00    2.80
  -8   7  -1    0.90    2.30
  -8   7  -1    7.00    2.20
  -8   7  -1    1.40    3.80
  -8   7  -1    4.10    2.00
   7   6  -1   15.40    3.50
   7   6  -1   14.60    4.40
   7   6  -1    7.20    3.50
  -7  -6   1    6.20    4.30
  -7  -6   1    8.00    4.30
   6   6  -1   66.29    5.00
   6   6  -1   47.00    4.30
   6   6  -1   59.49    4.90
  -6  -6   1   67.39    5.90
  -6  -6   1   40.90    4.00
   5   6  -1   73.09    4.70
   5   6  -1   78.89    3.30
   5   6  -1   75.59    5.50
   5   6  -1   86.99    4.70
  -5  -6   1   87.09    5.30
  -5  -6   1   74.69    5.10
   4   6  -1   -2.10    1.70
   4   6  -1   -2.50    1.70
   4   6  -1   -0.40    1.30
   4   6  -1   -1.80    2.10
  -4  -6   1   -1.50    2.20
  -4  -6   1   -2.40    2.00
   3   6  -1   85.99    3.80
   3   6  -1   74.29    4.30
   3   6  -1   84.09    3.30
   3   6  -1   80.79    4.00
  -3  -6   1   76.49    3.90
  -3  -6   1   80.19    4.10
   2   6  -1  280.17    8.80
   2   6  -1  316.97    8.60
   2   6  -1  317.17    7.80
   2   6  -1  318.87    8.10
  -2  -6   1  314.07    8.30
   1   6  -1   81.69    3.60
   1   6  -1   80.39    3.30
   1   6  -1   77.09    3.30
   1   6  -1   84.39    3.70
  -1  -6   1   89.99    3.50
  -1  -6   1   82.99    3.50
   0   6  -1   26.40    2.50
   0   6  -1   24.70    2.20
   0   6  -1   25.80    2.00
   0  -6   1   26.50    1.80
   0  -6   1   24.00    2.20
   0  -6   1   26.00    2.30
  -1   6  -1  354.26    8.50
  -1   6  -1  347.77    8.80
  -1   6  -1  354.66    8.60
   1  -6   1  353.86    8.10
   1  -6   1  352.66    8.40
   1  -6   1  345.87    8.30
  -2   6  -1  287.57    7.10
  -2   6  -1  276.07    6.90
   2  -6   1  275.37    6.60
   2  -6   1  282.07    6.60
   2  -6   1  277.67    6.50
  -3   6  -1   16.50    1.40
  -3   6  -1   16.30    1.60
  -3   6  -1   20.40    1.80
   3  -6   1   16.30    1.40
  -4   6  -1   91.69    3.30
  -4   6  -1   97.19    3.10
  -4   6  -1   95.39    3.20
  -5   6  -1  181.98    4.90
  -5   6  -1  180.08    4.80
  -5   6  -1  196.18    5.30
  -6   6  -1   46.70    3.00
  -6   6  -1   44.30    2.60
  -6   6  -1   51.69    4.10
  -6   6  -1   47.10    2.30
  -7   6  -1   -1.70    1.20
  -7   6  -1   -0.90    1.80
  -7   6  -1   -1.00    2.30
  -7   6  -1    0.40    1.50
  -8   6  -1   35.90    2.60
  -8   6  -1   31.60    3.70
  -8   6  -1   35.00    3.50
  -8   6  -1   32.50    2.80
  -8   6  -1   35.90    3.30
  -9   6  -1   19.70    2.10
  -9   6  -1   17.60    3.90
  -9   6  -1   18.00    3.50
  -9   6  -1   20.70    2.80
  -9   6  -1   16.60    2.20
   8   5  -1   13.60    5.30
   8   5  -1   11.00    3.40
   8   5  -1   14.90    3.70
  -8  -5   1   12.30    4.60
  -8  -5   1   12.60    5.20
   7   5  -1   52.79    5.00
   7   5  -1   55.89    4.70
   7   5  -1   47.30    4.10
  -7  -5   1   63.79    5.90
  -7  -5   1   42.50    4.40
   6   5  -1   45.00    3.90
   6   5  -1   36.80    3.20
   6   5  -1   35.80    3.50
  -6  -5   1   40.40    3.80
  -6  -5   1   40.20    3.70
   5   5  -1    7.20    1.20
   5   5  -1    5.70    2.40
   5   5  -1    7.50    3.10
   5   5  -1    8.00    2.10
  -5  -5   1    5.90    2.30
  -5  -5   1    7.30    2.30
   4   5  -1   57.29    3.30
   4   5  -1   56.99    3.70
   4   5  -1   54.29    2.50
   4   5  -1   54.69    3.30
  -4  -5   1   58.39    3.60
  -4  -5   1   55.59    3.40
   3   5  -1  310.07    8.00
   3   5  -1  305.67    7.50
   3   5  -1  322.77    8.20
   3   5  -1  316.97    8.30
  -3  -5   1  304.77    8.20
  -3  -5   1  312.27    8.10
   2   5  -1  204.48    5.60
   2   5  -1  215.08    5.80
   2   5  -1  206.28    5.90
   2   5  -1  193.98    5.30
  -2  -5   1  197.68    5.60
  -2  -5   1  202.68    5.80
   1   5  -1   61.59    2.60
   1   5  -1   59.39    2.50
   1   5  -1   60.79    2.90
   1   5  -1   62.49    2.80
  -1  -5   1   58.09    2.60
  -1  -5   1   62.39    2.70
   0   5  -1  836.32   18.20
   0   5  -1  813.22   18.00
   0   5  -1  830.62   18.10
   0  -5   1  824.82   18.10
   0  -5   1  822.62   18.00
  -1   5  -1  157.18    4.60
  -1   5  -1  165.28    4.40
  -1   5  -1  159.08    4.30
   1  -5   1  165.08    4.20
   1  -5   1  157.48    4.20
   1  -5   1  158.98    3.90
  -2   5  -1   28.60    1.40
  -2   5  -1   28.80    1.80
   2  -5   1   27.00    1.40
   2  -5   1   29.20    1.40
   2  -5   1   28.40    1.30
  -3   5  -1   22.50    1.60
  -3   5  -1   21.30    1.40
  -3   5  -1   22.30    1.40
   3  -5   1   21.50    1.30
  -4   5  -1  389.86    9.00
  -4   5  -1  387.56    8.70
  -4   5  -1  392.76    8.60
  -5   5  -1   76.69    3.00
  -5   5  -1   73.89    2.40
  -5   5  -1   74.99    2.40
  -6   5  -1    3.30    1.00
  -6   5  -1    3.20    0.90
  -6   5  -1    2.90    1.40
  -7   5  -1  127.29    3.40
  -7   5  -1  131.49    4.50
  -7   5  -1  142.39    5.00
  -7   5  -1  128.39    3.50
  -7   5  -1  129.29    5.40
  -8   5  -1  104.69    4.30
  -8   5  -1  114.09    5.70
  -8   5  -1  108.89    5.20
  -8   5  -1   98.49    3.30
  -9   5  -1   19.90    2.10
  -9   5  -1   14.70    3.40
  -9   5  -1   18.60    2.70
  -9   5  -1   20.50    1.90
  -9   5  -1   19.60    3.30
   8   4  -1   31.80    3.20
   8   4  -1   25.50    3.10
   8   4  -1   34.60    3.00
  -8  -4   1   26.30    4.00
  -8  -4   1   32.30    4.60
   7   4  -1   16.20    2.80
   7   4  -1   17.90    2.50
  -7  -4   1   15.20    3.20
  -7  -4   1   19.40    3.10
   6   4  -1   19.20    2.30
   6   4  -1   19.40    2.50
   6   4  -1   19.50    2.30
  -6  -4   1   18.10    2.70
  -6  -4   1   17.70    2.60
   5   4  -1  240.28    6.60
   5   4  -1  242.38    6.90
   5   4  -1  245.98    5.80
   5   4  -1  245.88    6.80
  -5  -4   1  226.28    7.00
  -5  -4   1  242.48    7.00
   4   4  -1  200.18    5.70
   4   4  -1  208.98    5.70
   4   4  -1  198.78    4.90
   4   4  -1  197.38    5.80
  -4  -4   1  197.18    5.80
  -4  -4   1  197.28    5.90
   3   4  -1   16.70    1.30
   3   4  -1   17.90    1.80
   3   4  -1   21.70    1.80
   3   4  -1   21.10    1.90
  -3  -4   1   20.40    1.80
  -3  -4   1   16.30    1.60
   2   4  -1  137.49    4.10
   2   4  -1  129.49    3.60
   2   4  -1  131.79    4.00
   2   4  -1  135.39    3.90
  -2  -4   1  125.59    4.00
  -2  -4   1  128.49    3.90
   1   4  -1  405.76    9.30
   1   4  -1  415.96    9.50
  -1  -4   1  393.06    9.30
  -1  -4   1  416.26    9.50
   0   4  -1  181.38    4.70
   0   4  -1  187.98    4.70
   0   4  -1  182.48    4.60
   0  -4   1  186.68    4.70
  -1   4  -1    1.30    0.70
  -1   4  -1    0.60    0.60
  -1   4  -1    1.50    0.70
   1  -4   1    1.40    0.60
   1  -4   1    1.60    0.40
   1  -4   1    1.00    0.60
  -2   4  -1  394.06    8.60
  -2   4  -1  372.56    8.50
  -2   4  -1  398.06    8.60
   2  -4   1  386.16    8.40
   2  -4   1  394.66    8.30
   2  -4   1  390.56    8.30
  -3   4  -1 1046.90   21.90
  -3   4  -1 1043.20   22.20
  -4   4  -1    1.90    0.50
  -4   4  -1    2.30    0.50
  -4   4  -1    3.20    0.80
  -5   4  -1   13.80    1.30
  -5   4  -1   14.10    0.70
  -5   4  -1   14.30    0.60
  -6   4  -1  191.48    5.40
  -6   4  -1  190.38    5.30
  -6   4  -1  184.58    4.00
  -6   4  -1  174.18    4.00
  -7   4  -1   78.89    2.30
  -7   4  -1   82.89    3.40
  -7   4  -1   94.99    4.00
  -7   4  -1   90.29    4.20
  -7   4  -1   78.49    2.40
  -8   4  -1   -0.30    1.30
  -8   4  -1   -2.50    2.00
  -8   4  -1    0.30    1.50
  -8   4  -1   -1.40    1.30
  -8   4  -1    2.90    2.10
  -9   4  -1   15.70    3.20
  -9   4  -1   12.30    2.00
  -9   4  -1   14.10    1.90
  -9   4  -1   15.90    2.30
  -9   4  -1   12.50    2.90
   9   3  -1   17.20    2.90
  -9  -3   1   19.20    4.60
  -9  -3   1   26.40    4.50
  -9  -3   1   11.70    3.80
   8   3  -1    1.10    1.50
   8   3  -1    3.00    1.40
   8   3  -1    5.80    2.10
  -8  -3   1    2.70    3.20
  -8  -3   1    3.60    3.20
   7   3  -1   31.60    2.90
   7   3  -1   29.30    2.40
   7   3  -1   28.00    2.20
  -7  -3   1   29.60    3.10
  -7  -3   1   32.70    3.10
   6   3  -1  204.58    5.80
   6   3  -1  189.78    5.70
   6   3  -1  190.38    5.50
  -6  -3   1  196.38    6.20
  -6  -3   1  199.38    6.20
   5   3  -1  144.39    4.40
   5   3  -1  141.09    4.40
   5   3  -1  146.49    4.60
  -5  -3   1  136.29    4.60
  -5  -3   1  146.39    4.80
   4   3  -1   25.70    1.30
   4   3  -1   26.20    2.00
   4   3  -1   25.80    2.30
   4   3  -1   28.60    1.90
  -4  -3   1   25.00    2.20
  -4  -3   1   25.40    2.10
  -4  -3   1   26.00    1.30
   3   3  -1  261.27    6.50
   3   3  -1  266.87    6.40
   3   3  -1  259.37    5.90
   3   3  -1  255.37    6.40
  -3  -3   1  257.47    6.40
  -3  -3   1  255.97    5.90
  -3  -3   1  258.17    6.50
   2   3  -1 1047.00   21.80
   2   3  -1 1005.20   21.90
   2   3  -1 1019.70   21.80
   2   3  -1 1003.10   21.50
  -2  -3   1 1014.10   21.90
  -2  -3   1 1023.80   21.80
  -2  -3   1 1002.70   21.50
   1   3  -1  899.61   19.20
   1   3  -1  889.91   19.00
  -1  -3   1  878.31   19.10
  -1  -3   1  879.71   19.00
  -1  -3   1  920.31   19.10
   0   3  -1   45.70    1.60
   0   3  -1   43.90    1.60
   0   3  -1   43.80    1.60
   0  -3   1   43.80    1.60
   0  -3   1   43.80    1.60
  -1   3  -1 1375.36   28.70
  -1   3  -1 1364.16   28.40
  -1   3  -1 1369.06   29.00
  -1   3  -1 1397.76   28.70
   1  -3   1 1338.07   28.40
   1  -3   1 1375.56   28.60
   1  -3   1 1379.16   28.60
  -2   3  -1  622.14   12.30
  -2   3  -1  619.74   12.30
  -2   3  -1  509.25   12.50
  -3   3  -1  103.09    2.80
  -4   3  -1   20.50    1.40
  -5   3  -1  443.56   10.30
  -5   3  -1  445.16   10.30
  -6   3  -1  103.79    3.50
  -6   3  -1  106.69    3.70
  -6   3  -1  105.69    3.70
  -6   3  -1  100.99    2.40
  -6   3  -1   95.79    2.40
  -7   3  -1    1.70    1.50
  -7   3  -1   -0.70    0.90
  -7   3  -1    1.20    1.40
  -7   3  -1   -0.80    1.10
  -7   3  -1    2.40    1.50
  -8   3  -1   67.89    3.90
  -8   3  -1   65.89    2.90
  -8   3  -1   66.39    2.90
  -8   3  -1   69.69    3.40
  -8   3  -1   68.19    4.40
  -9   3  -1   82.59    7.50
  -9   3  -1   80.09    4.00
  -9   3  -1   75.09    4.40
  -9   3  -1   71.59    3.80
  -9   3  -1   82.09    3.70
  -9  -2   1    0.70    3.90
  -9  -2   1   -2.20    3.40
  -9  -2   1   -6.90    3.30
   8   2  -1   21.20    2.20
  -8  -2   1   20.30    3.00
  -8  -2   1   23.60    3.20
  -8  -2   1   17.70    3.20
   7   2  -1   83.49    2.70
   7   2  -1   87.19    2.70
   7   2  -1   92.79    3.50
  -7  -2   1   84.59    4.60
  -7  -2   1   85.69    4.50
   6   2  -1  127.79    3.90
   6   2  -1  128.99    3.70
   6   2  -1  119.29    3.70
  -6  -2   1  127.19    4.50
  -6  -2   1  120.59    3.00
  -6  -2   1  129.59    4.60
   5   2  -1    6.40    1.10
   5   2  -1    6.10    1.30
   5   2  -1    4.80    1.10
  -5  -2   1    5.10    1.40
  -5  -2   1    7.20    1.10
  -5  -2   1    7.00    1.40
  -5  -2   1    7.20    0.80
   4   2  -1  559.54   12.40
   4   2  -1  553.44   12.40
   4   2  -1  563.84   12.30
  -4  -2   1  553.94   12.60
  -4  -2   1  565.74   12.50
  -4  -2   1  549.35   11.90
   3   2  -1  401.16    9.10
   3   2  -1  403.26    9.10
   3   2  -1  404.36    9.10
  -3  -2   1  407.56    8.80
  -3  -2   1  393.76    9.20
  -3  -2   1  416.76    9.30
   2   2  -1  299.37    6.80
   2   2  -1  293.47    6.80
   2   2  -1  301.27    6.80
  -2  -2   1  297.77    6.60
  -2  -2   1  293.07    6.90
  -2  -2   1  298.47    6.80
   1   2  -1   89.69    2.60
   1   2  -1  103.69    2.60
   1   2  -1   97.59    2.60
  -1  -2   1  100.89    2.50
  -1  -2   1  103.09    2.60
  -1  -2   1  103.79    2.70
   0   2  -1 2584.54   53.99
   0   2  -1 2513.65   54.29
   0   2  -1 2536.55   53.29
   0  -2   1 2481.85   53.59
   0  -2   1 2570.64   53.39
   0  -2   1 2584.94   53.99
  -1   2  -1   25.80    0.80
  -1   2  -1   25.80    0.80
  -1   2  -1   26.00    1.10
  -1   2  -1   24.40    0.70
   1  -2   1   24.90    0.70
   1  -2   1   25.00    0.70
  -2   2  -1    1.90    0.50
  -4   2  -1  686.83   15.10
  -5   2  -1   19.90    1.50
  -5   2  -1   17.90    0.80
  -5   2  -1   16.60    1.50
  -5   2  -1   18.00    0.80
  -5   2  -1   20.50    1.60
  -6   2  -1    1.10    0.80
  -6   2  -1    2.10    1.20
  -6   2  -1    1.60    0.90
  -6   2  -1    2.20    1.10
  -7   2  -1   64.59    2.60
  -7   2  -1   60.29    2.60
  -7   2  -1   58.39    3.50
  -7   2  -1   62.89    2.90
  -7   2  -1   59.29    2.80
  -8   2  -1   91.89    3.70
  -8   2  -1   97.09    3.70
  -8   2  -1   98.19    3.90
  -8   2  -1   99.09    3.70
  -8   2  -1  100.99    4.90
  -9   2  -1    9.30    3.10
  -9   2  -1    4.30    2.30
  -9   2  -1    5.90    1.90
  -9   2  -1    2.40    2.30
  -9   2  -1    4.20    2.00
  -9  -1   1   33.90    4.00
  -9  -1   1   34.40    3.80
  -9  -1   1   30.00    4.00
  -8  -1   1   99.59    5.00
  -8  -1   1  104.39    5.40
  -8  -1   1   96.49    2.60
  -8  -1   1   95.79    2.70
  -8  -1   1  102.69    4.90
   7   1  -1   14.50    1.50
  -7  -1   1   17.00    1.60
  -7  -1   1   11.90    2.10
  -7  -1   1   12.30    2.10
  -7  -1   1   13.70    2.20
  -7  -1   1   13.70    1.20
   6   1  -1   52.89    2.20
  -6  -1   1   54.39    2.30
  -6  -1   1   51.29    2.00
  -6  -1   1   52.39    2.80
  -6  -1   1   50.09    3.00
  -6  -1   1   52.49    2.90
   5   1  -1  359.56    8.00
   5   1  -1  355.96    8.20
   5   1  -1  359.66    8.00
  -5  -1   1  376.86    8.60
  -5  -1   1  361.26    8.30
  -5  -1   1  363.16    8.50
  -5  -1   1  357.36    8.00
   4   1  -1  726.53   15.50
   4   1  -1  721.43   15.60
   4   1  -1  719.63   15.50
  -4  -1   1  718.03   15.80
  -4  -1   1  741.53   15.80
  -4  -1   1  735.83   15.70
  -4  -1   1  734.23   15.50
   3   1  -1    0.30    0.50
   3   1  -1    0.20    0.40
   3   1  -1   -0.10    0.50
  -3  -1   1   -0.10    0.40
  -3  -1   1    0.00    0.60
  -3  -1   1   -0.60    0.60
   2   1  -1  129.29    3.10
   2   1  -1  128.39    3.10
   2   1  -1  133.59    3.20
   2   1  -1  135.29    3.20
  -2  -1   1  136.09    3.30
  -2  -1   1  129.59    3.10
  -2  -1   1  131.39    3.20
   1   1  -1 2043.00   40.80
   1   1  -1 1944.21   40.70
  -1  -1   1 1986.20   40.20
  -1  -1   1 1963.90   40.90
  -1  -1   1 1738.83   42.00
   0   1  -1 1286.77   27.80
   0   1  -1 1511.35   28.90
   0  -1   1 1280.77   27.70
   0  -1   1 1176.38   27.30
  -1   1  -1 1624.14   34.40
   1  -1   1 1626.14   34.00
  -2   1  -1 2170.38   47.30
  -2   1  -1 2285.17   47.00
  -3   1  -1 1686.43   35.50
  -3   1  -1 1697.73   35.70
  -3   1  -1 1718.03   35.10
  -3   1  -1 1697.03   35.10
  -4   1  -1  209.48    4.60
  -4   1  -1  211.38    4.90
  -4   1  -1  210.58    4.70
  -4   1  -1  203.48    5.20
  -5   1  -1   -1.20    0.80
  -5   1  -1    0.60    0.60
  -5   1  -1    0.10    0.70
  -5   1  -1    0.30    0.80
  -6   1  -1  120.49    3.50
  -6   1  -1  121.79    3.90
  -6   1  -1  127.79    3.60
  -6   1  -1  123.59    3.40
  -7   1  -1  129.49    4.20
  -7   1  -1  126.59    4.00
  -7   1  -1  128.19    4.10
  -7   1  -1  126.89    3.50
  -8   1  -1   -1.80    1.80
  -8   1  -1   -0.60    1.10
  -8   1  -1   -0.90    1.10
  -8   1  -1   -2.20    1.60
  -8   1  -1   -4.50    2.00
  -8   1  -1   -2.30    1.90
  -9   1  -1   20.00    2.60
  -9   1  -1   23.80    3.40
  -9   1  -1   19.70    4.60
  -9   1  -1   25.50    3.00
  -9   0   1   44.60    3.60
  -9   0   1   43.00    2.80
  -9   0   1   39.20    3.70
  -9   0   1   36.30    2.90
  -9   0   1   49.90    4.40
  -8   0   1    3.20    2.20
  -8   0   1   -0.90    2.10
  -8   0   1    3.70    1.20
  -8   0   1    2.20    2.10
  -8   0   1    1.80    1.50
  -7   0   1    8.30    1.80
  -7   0   1    8.30    1.90
  -7   0   1    9.00    1.20
  -7   0   1    8.80    1.40
  -7   0   1    8.80    1.70
  -6   0   1  245.58    6.10
  -6   0   1  241.88    6.20
  -6   0   1  243.58    6.80
  -6   0   1  237.58    5.70
  -6   0   1  237.68    5.90
  -5   0   1  560.34   12.60
  -5   0   1  585.24   12.60
  -5   0   1  580.64   12.40
  -5   0   1  560.94   13.20
   4   0  -1   -0.90    0.50
  -4   0   1   -0.20    0.60
  -4   0   1    0.90    0.70
  -4   0   1   -0.50    0.40
  -4   0   1   -1.70    0.70
   3   0  -1  621.94   13.00
   3   0  -1  602.84   12.90
  -3   0   1  619.34   13.20
  -3   0   1  613.04   12.90
  -3   0   1  625.84   13.50
  -3   0   1  616.04   13.20
   2   0  -1 1428.16   29.50
   2   0  -1 1413.36   29.30
  -2   0   1 1381.06   29.50
  -2   0   1 1398.56   29.30
  -2   0   1 1415.16   29.30
   1   0  -1 1248.68   25.00
   1   0  -1 1216.08   25.30
   1   0  -1 1209.58   25.40
  -1   0   1 1097.29   25.50
  -1   0   1 1222.18   25.40
  -1   0   1 1209.98   25.30
  -1   0  -1  843.02   17.40
  -1   0  -1  787.62   17.70
  -1   0  -1  850.31   17.50
  -1   0  -1  854.41   17.50
   1   0   1  840.72   17.70
   1   0   1  813.72   17.40
   1   0   1  858.61   17.40
   1   0   1  845.72   17.40
  -2   0  -1  277.07    6.40
  -2   0  -1  272.47    5.90
  -2   0  -1  278.07    6.10
  -2   0  -1  290.87    6.10
   2   0   1  278.17    6.00
   2   0   1  273.97    6.40
   2   0   1  284.47    6.00
  -3   0  -1   30.30    0.90
  -3   0  -1   30.00    1.20
  -3   0  -1   29.30    1.20
  -3   0  -1   30.90    1.40
   3   0   1   28.60    1.40
   3   0   1   29.90    0.90
   3   0   1   29.60    0.90
  -4   0  -1   11.30    1.10
  -4   0  -1   13.60    0.70
  -4   0  -1   12.80    1.20
  -4   0  -1   15.40    1.10
   4   0   1   13.00    1.20
  -5   0  -1  274.57    6.50
  -5   0  -1  271.07    5.90
  -5   0  -1  270.97    6.50
  -5   0  -1  274.77    6.80
   5   0   1  273.07    6.80
  -6   0  -1   85.19    3.20
  -6   0  -1   85.49    3.20
  -6   0  -1   85.19    3.10
   6   0   1   80.69    3.20
  -7   0  -1    1.50    1.40
  -7   0  -1    2.20    1.60
  -7   0  -1    0.50    1.60
   7   0   1    1.40    1.30
  -8   0  -1   15.50    2.50
  -8   0  -1   14.00    2.40
  -8   0  -1   17.90    2.20
  -9   0  -1   54.69    4.50
  -9   0  -1   64.59    5.40
  -9   0  -1   72.39    4.50
  -9   0  -1   57.29    5.30
  -9   1   1   -4.00    3.00
  -9   1   1    0.10    2.10
  -9   1   1    0.70    2.60
  -9   1   1   -0.90    2.30
  -8   1   1   59.19    3.70
  -8   1   1   58.59    3.50
  -8   1   1   54.39    2.40
  -8   1   1   64.39    4.60
  -8   1   1   56.39    3.50
  -7   1   1  205.38    6.40
  -7   1   1  198.48    4.90
  -7   1   1  196.48    5.50
  -7   1   1  194.78    5.40
  -6   1   1   38.30    2.10
  -6   1   1   39.20    2.20
  -6   1   1   37.80    1.60
  -6   1   1   39.30    2.70
  -5   1   1    0.50    0.50
  -5   1   1    0.60    0.80
  -5   1   1    0.00    1.00
  -5   1   1    0.90    0.70
  -4   1   1  663.63   14.10
  -4   1   1  656.83   14.00
  -4   1   1  655.53   14.70
  -4   1   1  658.13   14.10
   3  -1  -1 1269.77   26.40
  -3   1   1 1283.97   26.40
  -3   1   1 1263.07   25.90
  -3   1   1 1153.48   26.00
   2  -1  -1  104.79    2.70
   2  -1  -1  101.59    2.30
   2  -1  -1  103.39    2.40
  -2   1   1  103.49    2.50
  -2   1   1   97.69    2.50
  -2   1   1  100.79    2.70
   1  -1  -1  272.57    6.30
   1  -1  -1  290.67    6.20
   1  -1  -1  285.77    6.20
  -1   1   1  286.87    6.20
  -1   1   1  277.57    6.20
  -1   1   1  282.17    6.30
  -1   1   1  287.27    6.20
   0  -1  -1 1095.59   24.50
   0  -1  -1 1177.98   24.40
   0  -1  -1 1190.18   24.30
   0   1   1 1153.58   24.40
   0   1   1 1165.88   24.40
   0   1   1 1195.38   24.40
  -1  -1  -1 4400.06   91.19
  -1  -1  -1 4260.57   91.79
  -1  -1  -1 4289.97   90.99
   1   1   1 4442.56   91.19
   1   1   1 4453.25   90.99
   1   1   1 4199.28   91.19
  -2  -1  -1  247.18    5.70
  -2  -1  -1  236.28    5.80
  -2  -1  -1  249.18    5.60
   2   1   1  236.88    5.20
   2   1   1  237.48    5.80
   2   1   1  248.78    5.60
   2   1   1  250.17    5.60
  -3  -1  -1  513.75   11.20
  -3  -1  -1  511.15   11.50
  -3  -1  -1  512.45   11.20
   3   1   1  508.85   11.00
   3   1   1  510.25   11.10
   3   1   1  495.45   11.40
  -4  -1  -1  966.20   20.80
  -4  -1  -1  972.70   21.20
  -4  -1  -1  975.30   20.90
   4   1   1  971.20   20.60
   4   1   1  974.30   21.20
   4   1   1  968.10   20.50
  -5  -1  -1  187.48    5.10
  -5  -1  -1  192.08    5.40
  -5  -1  -1  197.88    5.30
   5   1   1  189.68    4.50
   5   1   1  190.98    4.50
   5   1   1  188.78    5.30
  -6  -1  -1   -0.40    1.40
  -6  -1  -1    0.40    1.50
  -6  -1  -1    0.50    1.20
   6   1   1    2.60    1.20
  -7  -1  -1   33.60    3.00
  -7  -1  -1   34.50    2.80
  -7  -1  -1   38.00    3.40
   7   1   1   36.30    2.90
  -8  -1  -1   50.69    4.60
  -8  -1  -1   53.09    3.80
  -8  -1  -1   51.69    4.70
   8   1   1   43.40    4.00
  -9  -1  -1    4.70    3.50
  -9  -1  -1   -0.60    3.40
  -9  -1  -1    1.40    2.70
  -9   2   1   33.00    2.90
  -9   2   1   35.50    3.20
  -9   2   1   27.50    3.50
  -9   2   1   32.00    3.10
  -8   2   1  135.69    4.70
  -8   2   1  138.09    3.70
  -8   2   1  136.79    4.50
  -8   2   1  148.29    5.80
  -7   2   1   13.70    1.40
  -7   2   1   17.20    1.70
  -7   2   1   15.20    1.60
  -7   2   1   14.60    2.20
  -6   2   1   21.60    1.70
  -6   2   1   21.20    1.30
  -6   2   1   21.00    1.90
  -6   2   1   21.40    1.80
  -5   2   1  299.57    6.90
  -5   2   1  310.07    7.70
  -5   2   1  306.67    6.90
  -5   2   1  304.47    6.90
  -4   2   1  861.31   18.10
  -4   2   1  860.41   18.80
  -4   2   1  853.41   18.20
   3  -2  -1  176.18    4.50
  -3   2   1  166.58    4.20
  -3   2   1  175.88    4.50
  -3   2   1  180.48    4.10
   2  -2  -1  619.94   12.90
   2  -2  -1  614.54   13.20
   2  -2  -1  555.54   12.90
  -2   2   1  631.94   13.00
  -2   2   1  636.04   13.00
  -2   2   1  605.14   13.30
   1  -2  -1  389.96    8.90
   1  -2  -1  417.56    8.80
   1  -2  -1  403.86    8.80
  -1   2   1  389.76    8.90
  -1   2   1  415.16    8.90
  -1   2   1  398.86    9.00
  -1   2   1  405.96    8.80
   0  -2  -1 1638.84   33.50
   0  -2  -1 1564.54   33.40
   0  -2  -1 1608.04   33.50
   0  -2  -1 1589.54   33.70
   0   2   1 1580.94   33.40
   0   2   1 1584.04   33.70
   0   2   1 1618.24   33.50
  -1  -2  -1  101.59    2.80
  -1  -2  -1  100.69    3.00
  -1  -2  -1   99.49    2.90
   1   2   1  104.99    2.90
   1   2   1  101.69    3.00
   1   2   1  104.09    2.80
  -2  -2  -1   20.00    1.50
  -2  -2  -1   20.20    1.30
  -2  -2  -1   21.60    1.40
   2   2   1   19.90    1.40
   2   2   1   19.90    1.40
   2   2   1   21.40    1.50
  -3  -2  -1  175.68    4.70
  -3  -2  -1  178.08    4.90
  -3  -2  -1  173.88    4.60
   3   2   1  175.58    4.50
   3   2   1  165.98    3.80
   3   2   1  175.58    4.60
   3   2   1  174.78    4.80
  -4  -2  -1   35.30    2.20
  -4  -2  -1   36.60    2.30
  -4  -2  -1   35.10    2.10
   4   2   1   38.80    2.20
   4   2   1   40.30    2.20
   4   2   1   36.00    2.00
  -5  -2  -1   16.50    1.90
  -5  -2  -1   11.10    1.70
  -5  -2  -1   13.70    1.70
   5   2   1   13.10    1.50
   5   2   1   14.10    1.60
   5   2   1   14.90    1.40
  -6  -2  -1   57.49    3.80
  -6  -2  -1   56.19    3.50
  -6  -2  -1   60.09    3.20
   6   2   1   58.39    2.80
   6   2   1   60.69    3.20
   6   2   1   63.09    2.60
  -7  -2  -1   55.49    3.70
  -7  -2  -1   51.19    4.30
  -7  -2  -1   50.39    4.30
   7   2   1   51.19    2.20
  -8  -2  -1    6.30    2.60
  -8  -2  -1    5.60    3.10
  -8  -2  -1    5.60    3.10
   8   2   1    3.70    2.40
  -9  -2  -1    1.60    3.90
  -9  -2  -1    7.00    4.10
  -9  -2  -1    5.40    3.00
   9   2   1    7.40    3.20
  -9   3   1   16.80    2.50
  -9   3   1   17.30    2.70
  -9   3   1   20.40    3.30
  -8   3   1    4.40    2.40
  -8   3   1    5.50    1.90
  -8   3   1    5.70    1.20
  -8   3   1    2.10    1.70
  -7   3   1   36.60    3.40
  -7   3   1   40.00    2.60
  -7   3   1   35.50    2.40
  -7   3   1   38.90    2.00
  -6   3   1  195.18    5.80
  -6   3   1  185.08    4.90
  -6   3   1  192.88    4.90
  -6   3   1  191.68    4.80
  -5   3   1  297.17    6.90
  -5   3   1  298.57    6.90
  -5   3   1  302.67    7.70
   4  -3  -1    6.10    1.00
  -4   3   1    6.40    1.20
  -4   3   1    5.30    0.80
  -4   3   1    6.30    0.90
   3  -3  -1  451.35   10.40
  -3   3   1  468.75   10.10
  -3   3   1  452.15   10.40
  -3   3   1  465.25   10.10
   2  -3  -1 1510.25   32.10
   2  -3  -1 1537.25   31.80
   2  -3  -1 1527.35   31.80
  -2   3   1 1542.75   32.00
  -2   3   1 1500.55   32.10
  -2   3   1 1514.85   32.00
   1  -3  -1  339.47    7.60
   1  -3  -1  348.27    7.60
   1  -3  -1  325.27    7.50
  -1   3   1  326.67    7.60
  -1   3   1  330.37    7.60
  -1   3   1  328.47    7.60
  -1   3   1  330.77    7.80
   0  -3  -1  274.57    6.60
   0  -3  -1  274.97    6.50
   0  -3  -1  283.27    6.50
   0   3   1  270.07    6.80
   0   3   1  275.17    6.60
   0   3   1  285.27    6.50
  -1  -3  -1 1103.59   23.60
  -1  -3  -1 1110.09   23.50
  -1  -3  -1 1085.49   23.80
   1   3   1 1082.39   23.60
   1   3   1 1099.19   23.50
   1   3   1 1107.19   23.90
  -2  -3  -1  800.12   18.10
  -2  -3  -1  794.32   17.80
  -2  -3  -1  792.52   17.70
   2   3   1  825.82   17.70
   2   3   1  833.12   17.80
   2   3   1  818.52   18.00
  -3  -3  -1  130.99    4.00
  -3  -3  -1  129.69    4.20
  -3  -3  -1  132.79    4.20
   3   3   1  128.59    4.20
   3   3   1  128.39    3.20
   3   3   1  138.19    4.10
   3   3   1  129.39    3.90
  -4  -3  -1   11.50    1.50
  -4  -3  -1   12.00    1.60
  -4  -3  -1   13.00    1.80
   4   3   1   13.50    1.70
   4   3   1   13.00    1.50
   4   3   1   12.70    1.60
   4   3   1   12.10    0.80
  -5  -3  -1  220.28    7.80
  -5  -3  -1  274.37    7.40
  -5  -3  -1  272.17    7.50
   5   3   1  277.37    7.50
   5   3   1  272.27    6.90
   5   3   1  277.87    7.10
  -6  -3  -1  151.08    5.40
  -6  -3  -1  152.08    5.70
  -6  -3  -1  141.59    5.60
   6   3   1  149.29    4.80
   6   3   1  141.59    5.00
   6   3   1  152.68    5.50
  -7  -3  -1   -0.30    2.00
  -7  -3  -1   -2.10    2.60
  -7  -3  -1   -0.40    2.70
   7   3   1    2.80    2.10
   7   3   1    1.00    1.80
   7   3   1    2.50    2.10
  -8  -3  -1    2.20    3.70
  -8  -3  -1    7.60    2.70
  -8  -3  -1    2.10    3.50
   8   3   1    6.10    2.40
   8   3   1    3.60    1.70
   8   3   1    6.00    2.90
  -9  -3  -1   11.50    5.30
  -9   4   1    3.00    2.20
  -9   4   1    6.90    2.60
  -9   4   1    1.70    3.10
  -9   4   1    5.70    1.40
  -8   4   1   87.09    5.10
  -8   4   1   81.59    3.70
  -8   4   1   84.49    3.20
  -8   4   1   79.29    3.90
  -7   4   1  158.88    4.50
  -7   4   1  153.08    4.60
  -7   4   1  164.18    5.90
  -7   4   1  156.18    4.70
  -6   4   1   53.09    2.60
  -6   4   1   49.99    2.40
  -6   4   1   51.49    3.20
   5  -4  -1   38.90    2.50
  -5   4   1   38.20    2.00
  -5   4   1   36.70    2.10
  -5   4   1   35.00    2.50
   4  -4  -1  159.28    4.50
  -4   4   1  153.88    4.10
  -4   4   1  157.58    4.60
  -4   4   1  157.88    4.20
   3  -4  -1  934.91   19.90
   3  -4  -1  939.71   19.80
   3  -4  -1  932.31   20.50
  -3   4   1  959.00   20.60
  -3   4   1  957.50   20.30
  -3   4   1  952.90   20.30
   2  -4  -1  114.89    3.40
   2  -4  -1  117.69    3.20
   2  -4  -1  117.99    3.20
  -2   4   1  116.89    3.40
  -2   4   1  114.19    3.30
  -2   4   1  113.39    3.60
  -2   4   1  118.79    3.50
   1  -4  -1    1.50    0.80
   1  -4  -1    1.00    0.80
   1  -4  -1    0.90    0.80
  -1   4   1    1.80    0.80
  -1   4   1    1.00    1.00
  -1   4   1    1.00    0.70
  -1   4   1    2.30    0.80
   0  -4  -1  371.66    8.70
   0  -4  -1  385.36    8.80
   0  -4  -1  375.46    8.90
   0   4   1  379.26    9.20
   0   4   1  371.36    8.90
  -1  -4  -1  707.83   15.80
  -1  -4  -1  719.63   15.90
   1   4   1  704.53   16.20
   1   4   1  702.13   15.80
   1   4   1  721.23   15.90
  -2  -4  -1  255.17    6.50
  -2  -4  -1  242.08    6.60
  -2  -4  -1  250.47    6.80
   2   4   1  248.18    6.60
   2   4   1  241.18    6.70
   2   4   1  250.37    6.40
  -3  -4  -1    3.30    1.40
  -3  -4  -1    5.10    1.30
   3   4   1    1.80    1.60
   3   4   1    3.90    1.20
   3   4   1    3.90    0.90
   3   4   1    3.00    1.30
  -4  -4  -1   99.29    4.10
  -4  -4  -1  101.29    4.20
  -4  -4  -1   95.69    4.10
   4   4   1   99.29    2.80
   4   4   1  103.89    4.30
   4   4   1  106.89    4.20
   4   4   1  104.39    4.00
  -5  -4  -1   24.30    2.60
  -5  -4  -1   26.80    2.60
  -5  -4  -1   17.50    2.50
   5   4   1   23.10    2.70
   5   4   1   23.00    2.40
   5   4   1   23.40    2.50
  -6  -4  -1   -0.30    2.40
  -6  -4  -1   -1.70    2.40
  -6  -4  -1    1.60    2.00
   6   4   1    0.20    2.10
   6   4   1   -1.90    2.30
   6   4   1    1.40    2.10
  -7  -4  -1    6.60    3.40
  -7  -4  -1   13.40    2.90
  -7  -4  -1    6.30    3.20
   7   4   1   11.90    2.60
   7   4   1    9.00    2.90
   7   4   1    6.90    2.90
  -8  -4  -1   16.00    4.70
  -8  -4  -1   19.40    5.00
   8   4   1   20.00    3.30
   8   4   1   22.90    4.10
   8   4   1   24.50    3.10
  -9   5   1    8.90    3.30
  -9   5   1   11.60    2.60
  -9   5   1   10.30    1.90
  -9   5   1   10.00    2.90
  -8   5   1   33.60    2.80
  -8   5   1   34.50    2.70
  -8   5   1   36.20    2.60
  -8   5   1   37.50    3.60
  -7   5   1   60.99    4.20
  -7   5   1   56.29    3.40
  -7   5   1   56.29    3.10
  -6   5   1   45.00    3.40
  -6   5   1   43.20    2.80
  -6   5   1   44.40    2.60
   5  -5  -1  154.88    4.90
  -5   5   1  155.78    5.00
  -5   5   1  164.68    4.70
  -5   5   1  152.38    4.40
   4  -5  -1  325.07    8.10
  -4   5   1  325.27    7.80
  -4   5   1  334.87    8.00
  -4   5   1  326.47    8.20
   3  -5  -1   58.39    2.10
   3  -5  -1   54.79    2.10
   3  -5  -1   54.59    2.50
  -3   5   1   56.99    2.50
  -3   5   1   54.39    2.80
  -3   5   1   57.49    2.60
   2  -5  -1  173.18    4.60
   2  -5  -1  164.08    4.50
   2  -5  -1  173.38    4.70
  -2   5   1  168.78    5.10
  -2   5   1  168.88    4.70
  -2   5   1  171.78    4.70
  -2   5   1  171.68    4.90
   1  -5  -1  774.12   17.20
   1  -5  -1  803.62   17.40
   1  -5  -1  789.62   17.40
  -1   5   1  790.02   17.90
  -1   5   1  780.22   17.50
  -1   5   1  782.72   17.40
   0  -5  -1  145.19    4.30
   0  -5  -1  148.19    4.50
   0  -5  -1  141.49    4.30
   0   5   1  142.69    4.40
   0   5   1  138.59    4.60
   0   5   1  144.19    4.60
  -1  -5  -1   14.90    1.70
  -1  -5  -1   12.70    1.50
   1   5   1    8.70    1.50
   1   5   1   18.30    1.80
   1   5   1   17.80    2.00
  -2  -5  -1  221.48    6.30
  -2  -5  -1  217.48    6.30
   2   5   1  212.58    6.10
   2   5   1  217.88    6.50
   2   5   1  218.98    6.40
  -3  -5  -1  298.57    8.00
  -3  -5  -1  297.27    8.10
   3   5   1  298.17    7.90
   3   5   1  292.37    7.20
   3   5   1  291.47    8.30
   3   5   1  293.97    8.20
  -4  -5  -1   78.79    4.20
  -4  -5  -1   76.39    4.30
   4   5   1   71.89    4.60
   4   5   1   74.09    2.80
   4   5   1   74.19    3.90
   4   5   1   65.59    4.00
  -5  -5  -1    3.60    2.50
   5   5   1   -0.50    2.70
   5   5   1   -1.30    2.00
   5   5   1    0.60    2.10
  -6  -5  -1   78.39    5.80
   6   5   1   65.29    5.20
   6   5   1   86.39    5.90
   6   5   1   71.69    5.10
  -7  -5  -1   40.80    4.90
   7   5   1   34.30    4.40
   7   5   1   39.30    3.80
  -8  -5  -1   -6.90    4.80
   8   5   1    0.60    4.40
   8   5   1    2.60    3.70
  -8   6   1   11.00    3.20
  -8   6   1   12.40    2.40
  -8   6   1   10.80    2.00
  -8   6   1    8.60    2.80
  -7   6   1   42.70    3.00
  -7   6   1   39.60    3.40
  -7   6   1   54.09    4.40
  -6   6   1  109.29    4.80
  -6   6   1  105.69    4.30
  -6   6   1  104.69    4.10
   5  -6  -1  100.79    4.00
  -5   6   1   98.19    4.10
  -5   6   1  100.89    3.80
  -5   6   1   99.99    4.20
   4  -6  -1    0.00    1.20
  -4   6   1   -0.30    1.30
  -4   6   1   -0.70    1.60
  -4   6   1    0.30    1.30
   3  -6  -1  168.18    5.00
   3  -6  -1  168.38    4.50
   3  -6  -1  173.08    4.60
  -3   6   1  174.18    5.40
  -3   6   1  169.18    5.50
  -3   6   1  169.98    5.00
  -3   6   1  167.48    5.00
   2  -6  -1  338.27    8.40
   2  -6  -1  335.57    8.30
   2  -6  -1  344.87    8.40
  -2   6   1  345.37    8.40
  -2   6   1  345.77    9.10
  -2   6   1  355.96    8.80
  -2   6   1  334.07    8.50
   1  -6  -1  211.88    5.80
   1  -6  -1  209.68    5.90
   1  -6  -1  208.88    5.80
  -1   6   1  208.18    6.20
  -1   6   1  208.98    6.40
   0  -6  -1    3.80    1.60
   0  -6  -1    2.70    1.60
   0  -6  -1    3.40    1.50
   0   6   1    0.90    1.30
   0   6   1    4.30    1.50
   0   6   1    4.30    1.70
  -1  -6  -1  147.99    5.10
  -1  -6  -1  150.88    5.00
  -1  -6  -1  151.68    5.10
   1   6   1  147.69    5.40
   1   6   1  151.58    5.40
   1   6   1  150.08    5.10
  -2  -6  -1  237.18    7.20
  -2  -6  -1  255.47    7.20
   2   6   1  250.37    6.70
   2   6   1  245.38    7.10
   2   6   1  246.38    7.40
   2   6   1  235.78    7.40
  -3  -6  -1   58.89    4.30
  -3  -6  -1   62.59    4.20
   3   6   1   57.99    4.00
   3   6   1   57.19    3.20
   3   6   1   58.19    4.70
   3   6   1   66.09    4.00
  -4  -6  -1   -0.50    3.80
  -4  -6  -1    2.00    2.40
   4   6   1    6.60    1.60
   4   6   1    2.00    2.80
   4   6   1    3.90    2.20
   4   6   1    3.80    2.20
  -5  -6  -1   34.30    3.70
  -5  -6  -1   33.70    3.60
   5   6   1   36.60    2.60
   5   6   1   33.00    4.00
   5   6   1   37.40    3.90
   5   6   1   35.50    3.50
  -6  -6  -1   19.60    4.20
  -6  -6  -1   23.20    4.50
   6   6   1   17.40    3.60
   6   6   1   23.40    4.40
  -7  -6  -1   -0.80    4.40
   7   6   1    4.90    3.80
   7   6   1    2.80    4.30
   7   6   1   -6.00    4.90
  -8   7   1   16.00    3.70
  -8   7   1   14.60    3.50
  -8   7   1   13.70    3.40
  -8   7   1   12.40    3.00
  -7   7   1   60.79    5.60
  -7   7   1   56.69    4.60
  -7   7   1   62.29    4.40
  -7   7   1   71.59    5.20
   6  -7  -1   43.10    3.90
  -6   7   1   42.30    3.00
  -6   7   1   36.90    3.80
  -6   7   1   39.10    3.30
   5  -7  -1   12.30    2.10
  -5   7   1   10.80    4.50
  -5   7   1   12.90    2.10
  -5   7   1   14.80    2.20
  -5   7   1   12.50    2.40
   4  -7  -1   77.49    3.60
   4  -7  -1   67.29    2.40
  -4   7   1   75.09    3.80
  -4   7   1   82.79    3.90
  -4   7   1   73.19    4.60
  -4   7   1   74.49    4.10
   3  -7  -1  178.08    5.50
   3  -7  -1  179.08    5.10
   3  -7  -1  185.38    5.10
  -3   7   1  173.88    6.10
  -3   7   1  178.08    5.60
  -3   7   1  178.28    5.50
  -3   7   1  180.48    6.10
   2  -7  -1   76.89    3.60
   2  -7  -1   79.29    3.70
   2  -7  -1   82.39    3.70
  -2   7   1   80.49    4.30
  -2   7   1   73.39    4.40
   1  -7  -1   30.20    2.50
   1  -7  -1   30.70    2.40
   1  -7  -1   31.70    2.50
  -1   7   1   30.60    2.60
  -1   7   1   39.60    3.10
  -1   7   1   31.60    3.30
   0  -7  -1  170.28    5.80
   0  -7  -1  163.48    5.80
   0  -7  -1  174.18    5.60
   0   7   1  154.58    6.00
   0   7   1  168.08    6.10
   0   7   1  170.58    5.80
  -1  -7  -1  117.59    6.00
  -1  -7  -1  139.09    5.40
  -1  -7  -1  125.19    5.30
   1   7   1  113.69    5.50
   1   7   1  125.39    5.20
   1   7   1  126.49    5.40
  -2  -7  -1    4.40    2.30
  -2  -7  -1    2.00    2.40
   2   7   1    3.60    2.20
   2   7   1    4.80    2.00
   2   7   1    3.70    2.10
   2   7   1    2.20    2.60
  -3  -7  -1   57.89    5.00
   3   7   1   49.90    4.50
   3   7   1   44.40    4.10
   3   7   1   47.90    3.70
   3   7   1   60.89    4.70
  -4  -7  -1   86.49    6.60
   4   7   1   91.09    4.40
   4   7   1   85.89    5.60
  -5  -7  -1   19.10    4.50
  -5  -7  -1    8.20    4.10
   5   7   1   15.30    3.80
   5   7   1   16.00    5.90
   5   7   1   15.70    2.20
  -6  -7  -1   -2.70    4.30
   6   7   1   -6.50    4.00
   6   7   1    5.40    5.40
   6   7   1    2.00    4.10
  -7   8   1   18.60    3.20
  -7   8   1   15.20    3.80
  -7   8   1   23.20    3.60
  -7   8   1   20.60    3.80
   6  -8  -1   12.10    2.60
  -6   8   1   10.80    3.30
  -6   8   1    8.20    2.80
  -6   8   1    8.50    2.70
  -6   8   1    1.30    2.90
   5  -8  -1   78.29    4.40
  -5   8   1   78.39    5.20
  -5   8   1   81.39    4.80
  -5   8   1   85.79    4.70
  -5   8   1   76.89    5.30
   4  -8  -1   91.49    4.30
   4  -8  -1   81.39    2.90
   4  -8  -1   83.79    2.80
  -4   8   1   81.79    4.30
  -4   8   1   81.69    5.40
  -4   8   1   79.89    5.10
  -4   8   1   78.29    4.50
   3  -8  -1    2.00    1.80
   3  -8  -1    0.10    1.90
   3  -8  -1    1.60    1.80
  -3   8   1    1.80    2.20
  -3   8   1   -1.60    2.60
   2  -8  -1   40.50    3.60
   2  -8  -1   38.20    3.00
   2  -8  -1   47.10    3.80
  -2   8   1   35.50    3.50
  -2   8   1   46.10    3.40
  -2   8   1   44.10    4.00
   1  -8  -1  161.48    5.70
   1  -8  -1  153.78    5.90
   1  -8  -1  148.29    5.80
  -1   8   1  157.88    6.00
  -1   8   1  142.99    6.50
  -1   8   1  149.88    6.30
   0  -8  -1   88.39    4.70
   0  -8  -1   89.29    5.20
   0  -8  -1   85.79    5.10
   0   8   1   63.39    5.30
   0   8   1   98.49    5.20
  -1  -8  -1    5.10    2.50
  -1  -8  -1   -0.70    2.80
  -1  -8  -1    3.30    2.90
   1   8   1    3.80    2.30
   1   8   1    0.60    2.50
  -2  -8  -1   25.80    3.40
  -2  -8  -1   22.20    3.50
   2   8   1   22.80    2.80
   2   8   1   24.90    3.40
  -3  -8  -1   42.30    4.30
  -3  -8  -1   50.19    4.80
   3   8   1   49.90    4.70
   3   8   1   50.79    4.60
   3   8   1   38.40    4.60
   3   8   1   48.90    4.50
  -4  -8  -1   42.60    5.00
  -4  -8  -1   36.40    5.20
   4   8   1   38.80    4.10
   4   8   1   41.40    3.40
   4   8   1   45.90    5.70
   4   8   1   42.70    4.70
  -5  -8  -1   -0.90    4.50
   5   8   1    2.80    2.60
   5   8   1    3.50    5.90
   5   8   1    3.40    4.10
   6  -9  -1   41.00    3.80
  -6   9   1   44.10    4.00
  -6   9   1   36.40    3.90
  -6   9   1   40.30    4.70
  -6   9   1   46.10    4.90
   5  -9  -1   30.90    3.20
  -5   9   1   29.90    4.40
  -5   9   1   29.80    3.30
  -5   9   1   32.50    3.60
  -5   9   1   33.20    4.40
   4  -9  -1   -0.70    1.70
   4  -9  -1   -0.60    2.30
   4  -9  -1    0.50    1.70
  -4   9   1    3.20    3.10
  -4   9   1    1.90    3.60
   3  -9  -1   25.70    3.00
   3  -9  -1   24.80    2.80
   3  -9  -1   22.50    2.90
  -3   9   1   25.00    3.30
  -3   9   1   21.10    3.60
  -3   9   1   22.60    4.00
   2  -9  -1  106.69    5.70
   2  -9  -1  103.59    5.30
   2  -9  -1  111.09    5.60
  -2   9   1  111.49    6.50
  -2   9   1  104.39    6.00
  -2   9   1  105.49    7.00
   1  -9  -1   33.40    3.40
   1  -9  -1   42.70    3.90
   1  -9  -1   42.40    3.80
  -1   9   1   28.50    3.90
  -1   9   1   34.20    4.40
  -1   9   1   42.60    4.10
   0  -9  -1   -1.20    3.20
   0  -9  -1   -1.70    2.70
   0  -9  -1    0.80    3.30
   0   9   1    0.90    3.70
   0   9   1    2.20    2.70
   0   9   1    0.20    3.80
   0   9   1    0.30    2.70
  -1  -9  -1   39.40    7.00
  -1  -9  -1   39.40    4.10
   1   9   1   42.20    4.40
   1   9   1   45.20    4.10
  -2  -9  -1   36.40    4.50
  -2  -9  -1   43.90    7.20
  -2  -9  -1   46.60    5.40
   2   9   1   42.70    5.30
   2   9   1   43.60    4.00
   2   9   1   41.90    4.80
   2   9   1   45.10    4.80
  -3  -9  -1   -3.10    4.30
  -3  -9  -1    8.60    4.50
   3   9   1    4.60    3.00
   3   9   1    3.70    3.90
   3   9   1    0.90    6.90
  -4  -9  -1    3.80    5.30
   4   9   1    8.10    4.70
   4   9   1    8.40    3.70
   5 -10  -1   -3.20    3.10
  -5  10   1    4.80    5.20
  -5  10   1    0.80    4.50
   4 -10  -1   28.80    3.50
   4 -10  -1   23.60    2.40
   4 -10  -1   21.90    2.50
  -4  10   1   25.50    5.40
  -4  10   1   22.20    4.60
   3 -10  -1   28.30    3.50
   3 -10  -1   29.00    3.80
   3 -10  -1   31.90    3.70
  -3  10   1   33.70    4.40
  -3  10   1   28.20    5.10
  -3  10   1   35.00    5.00
   2 -10  -1    4.80    3.70
   2 -10  -1    5.20    3.50
   2 -10  -1    5.10    3.20
  -2  10   1    6.80    4.00
  -2  10   1    1.60    4.60
  -2  10   1    8.60    3.80
   1 -10  -1    5.20    3.40
   1 -10  -1    0.10    3.70
   1 -10  -1    1.50    4.00
  -1  10   1   10.30    5.30
  -1  10   1    5.50    3.80
  -1  10   1    0.40    3.90
  -1  10   1   -4.10    3.60
   0 -10  -1   36.00    4.70
   0 -10  -1   26.40    4.80
   0 -10  -1   37.20    4.30
   0  10   1   37.50    4.40
   0  10   1   35.40    4.90
  -1 -10  -1   39.10    5.70
  -1 -10  -1   37.20    5.20
   1  10   1   35.60    5.10
   1  10   1   36.10    6.00
  -2 -10  -1    2.00    4.80
  -2 -10  -1   12.20    5.30
   2  10   1    5.90    4.00
   2  10   1    4.10    4.10
  -1  12  -2    5.80    4.70
  -1  12  -2   -1.10    4.80
   1 -12   2    0.80    3.10
   1 -12   2   -2.80    4.20
  -2  12  -2   19.00    5.00
  -2  12  -2   13.70    5.00
   2 -12   2   18.80    4.10
   2 -12   2   15.60    4.60
   2  11  -2   18.60    5.10
   2  11  -2   23.40    4.20
  -2 -11   2   25.80    4.90
  -2 -11   2   20.70    4.50
   1  11  -2    9.80    3.90
   1  11  -2   12.80    4.00
  -1 -11   2   12.80    4.40
  -1 -11   2   10.50    4.90
  -1 -11   2   12.50    3.70
   0  11  -2    3.30    3.60
   0  11  -2   -0.30    5.00
   0  11  -2   -0.90    3.40
   0 -11   2    0.40    3.60
   0 -11   2   -0.60    2.90
  -1  11  -2   22.70    4.40
  -1  11  -2   20.90    5.20
  -1  11  -2   29.70    4.40
  -1  11  -2   13.50    4.80
   1 -11   2   24.10    4.10
   1 -11   2   25.70    3.80
   1 -11   2   26.90    2.80
  -2  11  -2   25.00    5.00
  -2  11  -2   21.80    4.90
  -2  11  -2   31.70    5.20
  -2  11  -2   24.90    4.40
   2 -11   2   32.60    3.60
   2 -11   2   35.40    3.30
   2 -11   2   31.00    4.50
  -3  11  -2   17.50    4.70
  -3  11  -2   12.90    3.90
  -3  11  -2   16.70    3.90
   3 -11   2   11.80    1.70
   3 -11   2   14.80    2.70
   3 -11   2   14.60    2.60
  -4  11  -2    1.00    4.70
  -4  11  -2    0.60    3.70
  -4  11  -2    2.00    3.60
  -5  11  -2   36.40    5.60
  -5  11  -2   36.30    4.30
  -5  11  -2   36.80    5.80
   4  10  -2    6.10    4.50
   4  10  -2    9.10    3.60
  -4 -10   2   14.20    4.90
   3  10  -2   37.80    4.70
   3  10  -2   41.90    4.30
   3  10  -2   37.40    5.30
  -3 -10   2   49.40    5.90
  -3 -10   2   34.30    4.60
   2  10  -2   12.30    4.50
   2  10  -2   17.80    3.80
   2  10  -2   19.20    4.30
   2  10  -2   15.90    3.40
  -2 -10   2   16.90    4.10
  -2 -10   2   18.30    4.70
   1  10  -2   19.90    3.40
   1  10  -2   19.00    3.60
   1  10  -2   23.20    4.00
   1  10  -2    0.50    3.70
  -1 -10   2   17.10    3.60
  -1 -10   2   20.30    4.30
   0  10  -2   45.70    4.50
   0  10  -2   60.29    5.10
   0  10  -2   59.49    5.30
   0 -10   2   61.19    5.30
   0 -10   2   53.59    4.10
   0 -10   2   47.90    4.20
  -1  10  -2   55.59    5.40
  -1  10  -2   52.29    4.40
  -1  10  -2   53.39    4.80
   1 -10   2   53.99    4.80
   1 -10   2   55.49    5.00
   1 -10   2   54.99    3.50
  -2  10  -2   -1.70    5.60
  -2  10  -2    5.70    2.80
  -2  10  -2    3.50    3.30
   2 -10   2    5.40    2.50
   2 -10   2    8.30    1.60
   2 -10   2    7.90    2.40
  -3  10  -2   16.40    3.60
  -3  10  -2   15.50    3.00
  -3  10  -2   12.10    3.50
   3 -10   2   15.20    2.20
   3 -10   2   13.80    2.00
   3 -10   2   16.00    1.50
  -4  10  -2   54.69    5.00
  -4  10  -2   63.69    4.60
  -4  10  -2   68.99    6.30
  -5  10  -2   38.70    4.70
  -5  10  -2   39.50    4.40
  -5  10  -2   39.30    3.80
  -6  10  -2    2.30    3.20
  -6  10  -2    8.40    4.00
  -6  10  -2    1.90    4.10
   5   9  -2   17.60    4.40
   5   9  -2   21.40    5.80
   5   9  -2   19.00    3.40
   5   9  -2   16.80    4.60
  -5  -9   2   18.60    4.80
   4   9  -2   40.40    4.90
   4   9  -2   26.50    3.90
   4   9  -2   27.80    3.30
   4   9  -2   20.10    4.70
  -4  -9   2   24.20    4.00
   3   9  -2   -1.30    2.60
   3   9  -2    0.20    3.70
   3   9  -2   -1.20    2.70
   3   9  -2    3.10    3.30
  -3  -9   2    3.10    3.10
  -3  -9   2    2.90    3.60
   2   9  -2    6.10    2.80
   2   9  -2    5.80    2.50
  -2  -9   2    4.20    2.90
   1   9  -2   34.60    3.30
   1   9  -2   32.80    3.20
  -1  -9   2   38.70    3.60
  -1  -9   2   40.00    3.80
  -1  -9   2   33.20    3.60
   0   9  -2  143.99    5.70
   0   9  -2  132.39    5.70
   0   9  -2  126.09    6.20
   0  -9   2  137.49    5.70
   0  -9   2  139.69    5.70
   0  -9   2  132.19    4.70
  -1   9  -2    1.60    2.30
  -1   9  -2   -0.10    2.10
  -1   9  -2    4.40    2.60
   1  -9   2    3.20    2.20
   1  -9   2    1.80    1.50
   1  -9   2    3.50    2.10
  -2   9  -2   62.79    4.30
  -2   9  -2   58.19    4.70
  -2   9  -2   61.39    4.70
   2  -9   2   64.19    3.60
   2  -9   2   59.09    3.60
   2  -9   2   61.39    2.60
  -3   9  -2  111.99    5.50
  -3   9  -2  113.19    5.00
   3  -9   2  113.79    3.60
   3  -9   2  110.59    3.60
   3  -9   2  107.89    3.20
  -4   9  -2   33.60    3.30
  -4   9  -2   35.00    3.00
  -5   9  -2   -1.70    2.50
  -5   9  -2   -1.30    2.10
  -5   9  -2    3.50    4.40
  -6   9  -2   66.19    4.30
  -6   9  -2   77.79    6.90
  -6   9  -2   57.49    4.20
  -6   9  -2   64.79    3.90
  -7   9  -2   36.50    5.60
  -7   9  -2   35.80    3.10
  -7   9  -2   27.40    4.60
  -7   9  -2   36.70    3.20
   6   8  -2   26.20    4.60
   6   8  -2   27.20    3.00
   6   8  -2   28.40    4.50
   6   8  -2   26.30    5.60
  -6  -8   2   28.10    4.70
   5   8  -2   33.10    3.00
   5   8  -2   35.00    5.00
   5   8  -2   27.50    3.90
  -5  -8   2   31.40    4.40
  -5  -8   2   18.00    4.00
   4   8  -2   -2.40    2.60
   4   8  -2    1.20    2.80
   4   8  -2    0.20    2.20
  -4  -8   2    4.30    3.20
   3   8  -2   23.70    3.30
   3   8  -2   23.60    3.40
   3   8  -2   29.10    2.80
   3   8  -2   27.80    3.20
  -3  -8   2   17.10    3.00
  -3  -8   2   27.50    3.30
   2   8  -2  192.88    6.40
   2   8  -2  187.68    6.50
   2   8  -2  198.48    7.10
  -2  -8   2  197.28    6.80
   1   8  -2   43.50    3.50
   1   8  -2   36.10    3.10
   1   8  -2   39.70    3.60
   1   8  -2   39.80    3.50
  -1  -8   2   43.20    3.80
  -1  -8   2   42.50    3.70
   0   8  -2   32.90    3.00
   0   8  -2   34.90    3.20
   0   8  -2   32.70    2.80
   0  -8   2   34.10    2.60
   0  -8   2   42.80    3.40
  -1   8  -2   76.69    4.20
  -1   8  -2   83.49    4.40
  -1   8  -2   81.49    3.90
   1  -8   2   82.69    3.00
   1  -8   2   86.49    3.70
   1  -8   2   81.49    3.80
  -2   8  -2  138.29    4.80
  -2   8  -2  133.39    5.20
  -2   8  -2  134.59    5.20
   2  -8   2  132.89    3.60
   2  -8   2  132.29    4.20
   2  -8   2  134.59    4.30
  -3   8  -2   38.80    3.60
  -3   8  -2   41.40    3.10
  -3   8  -2   28.20    2.60
   3  -8   2   44.00    1.90
   3  -8   2   41.20    1.80
   3  -8   2   40.30    1.90
  -4   8  -2    1.20    2.10
  -4   8  -2    4.80    1.80
  -4   8  -2    2.50    2.00
  -5   8  -2   98.99    4.00
  -5   8  -2   93.29    5.30
  -5   8  -2   97.19    3.60
  -5   8  -2   99.39    4.30
  -6   8  -2   95.39    4.40
  -6   8  -2  102.69    4.10
  -6   8  -2  106.19    4.10
  -6   8  -2  108.19    6.10
  -7   8  -2   29.20    2.80
  -7   8  -2   23.80    2.70
  -7   8  -2   26.90    6.40
  -8   8  -2    9.10    3.00
  -8   8  -2    1.90    4.10
  -8   8  -2    8.10    2.70
  -8   8  -2   11.00    2.90
  -7  -7   2   25.90    4.90
   6   7  -2   29.00    2.50
   6   7  -2   23.40    3.80
   6   7  -2   23.10    5.30
   6   7  -2   30.40    3.80
  -6  -7   2   29.40    4.40
  -6  -7   2   19.70    4.00
   5   7  -2    0.10    3.00
   5   7  -2   -0.40    1.80
   5   7  -2   -1.60    2.30
   5   7  -2    0.10    2.60
  -5  -7   2    3.20    3.00
  -5  -7   2   -0.60    2.70
   4   7  -2   45.60    4.20
   4   7  -2   41.80    3.80
   4   7  -2   41.10    3.40
   4   7  -2   44.10    3.30
  -4  -7   2   40.00    3.70
   3   7  -2  140.99    5.30
   3   7  -2  140.69    5.60
   3   7  -2  136.39    5.80
   3   7  -2  144.89    4.90
  -3  -7   2  140.79    5.50
  -3  -7   2  140.99    5.60
   2   7  -2   35.60    2.90
   2   7  -2   41.00    3.20
   2   7  -2   36.30    3.30
   2   7  -2   36.30    2.90
  -2  -7   2   34.30    2.70
  -2  -7   2   36.40    3.30
   1   7  -2   -0.30    1.30
   1   7  -2   -0.50    1.50
   1   7  -2   -0.90    1.80
  -1  -7   2    0.10    1.30
   0   7  -2  232.78    6.50
   0   7  -2  230.48    6.70
   0   7  -2  215.98    7.60
   0  -7   2  234.58    5.90
   0  -7   2  244.58    6.60
   0  -7   2  246.68    6.50
  -1   7  -2  295.47    7.70
  -1   7  -2  287.77    7.90
  -1   7  -2  298.87    7.50
   1  -7   2  285.17    7.30
   1  -7   2  288.27    7.30
   1  -7   2  284.17    6.70
  -2   7  -2   28.30    2.20
  -2   7  -2   27.30    2.40
   2  -7   2   28.60    2.10
   2  -7   2   29.20    1.40
   2  -7   2   28.30    2.00
  -3   7  -2   56.69    2.80
  -3   7  -2   50.99    3.30
  -3   7  -2   55.49    3.00
  -4   7  -2  172.08    4.80
  -4   7  -2  163.38    5.80
  -4   7  -2  163.58    4.90
  -4   7  -2  171.78    4.40
  -5   7  -2   88.59    3.50
  -5   7  -2   92.29    3.30
  -5   7  -2   99.09    4.80
  -6   7  -2    2.00    1.60
  -6   7  -2    3.20    2.20
  -6   7  -2    4.70    1.70
  -7   7  -2   38.20    3.70
  -7   7  -2   28.80    2.50
  -7   7  -2   34.10    3.00
  -7   7  -2   37.20    3.50
  -8   7  -2   32.70    2.80
  -8   7  -2   39.70    3.50
  -8   7  -2   38.50    4.00
  -8   7  -2   36.10    3.10
  -8   7  -2   33.20    4.10
   8   6  -2   18.10    5.20
   8   6  -2   24.80    4.40
   8   6  -2   22.40    4.20
  -8  -6   2   27.70    5.30
   7   6  -2   25.90    3.70
   7   6  -2   28.10    3.50
   7   6  -2   19.60    4.30
  -7  -6   2   18.30    4.20
  -7  -6   2   20.50    4.10
   6   6  -2    2.80    1.60
   6   6  -2    4.00    2.70
   6   6  -2    4.10    3.20
   6   6  -2    2.40    2.20
  -6  -6   2    4.70    2.90
  -6  -6   2    3.50    3.10
   5   6  -2   67.59    4.20
   5   6  -2   78.59    5.10
   5   6  -2   75.59    3.40
   5   6  -2   78.89    4.50
  -5  -6   2   73.59    4.80
  -5  -6   2   73.19    4.90
   4   6  -2  131.79    5.10
   4   6  -2  118.99    4.20
   4   6  -2  130.49    5.30
   4   6  -2  122.49    4.90
  -4  -6   2  124.69    5.20
   3   6  -2    8.50    1.50
   3   6  -2    7.80    1.90
   3   6  -2    7.80    1.70
   3   6  -2    8.60    2.00
  -3  -6   2    9.30    2.00
  -3  -6   2    9.80    2.00
   2   6  -2   28.20    2.50
   2   6  -2   26.00    2.30
   2   6  -2   29.40    2.50
   2   6  -2   32.30    2.60
  -2  -6   2   28.80    2.60
  -2  -6   2   21.90    2.10
   1   6  -2  309.27    7.80
   1   6  -2  303.37    7.70
   1   6  -2  295.67    7.60
  -1  -6   2  283.77    7.60
  -1  -6   2  303.07    7.60
   0   6  -2  114.99    3.70
   0   6  -2  115.19    3.90
   0   6  -2  109.79    3.90
   0  -6   2  119.39    3.80
  -1   6  -2    7.60    1.30
  -1   6  -2   11.10    1.30
  -1   6  -2    9.90    1.40
   1  -6   2   10.20    0.80
   1  -6   2    9.80    1.20
   1  -6   2    7.30    1.20
  -2   6  -2  219.78    5.70
  -2   6  -2  224.68    6.20
  -2   6  -2  220.98    5.60
   2  -6   2  214.88    4.90
   2  -6   2  216.28    5.20
   2  -6   2  217.38    5.20
  -3   6  -2  399.66    8.70
  -3   6  -2  392.36    9.10
  -3   6  -2  390.76    9.90
  -3   6  -2  397.96    9.10
  -4   6  -2   57.39    2.20
  -4   6  -2   54.39    3.20
  -4   6  -2   58.89    2.40
  -5   6  -2    1.50    1.70
  -5   6  -2    2.40    1.10
  -5   6  -2    3.70    1.10
  -5   6  -2    0.30    0.90
  -6   6  -2   74.59    4.30
  -6   6  -2   72.79    2.60
  -6   6  -2   70.79    2.40
  -6   6  -2   73.29    3.30
  -7   6  -2  169.98    4.20
  -7   6  -2  163.38    4.30
  -7   6  -2  186.58    6.70
  -7   6  -2  181.78    5.80
  -7   6  -2  177.08    5.80
  -8   6  -2   21.80    2.00
  -8   6  -2   25.30    3.00
  -8   6  -2   27.70    2.90
  -8   6  -2   25.20    3.50
  -8   6  -2   26.40    1.90
  -9   6  -2    0.60    1.40
  -9   6  -2    0.60    3.40
  -9   6  -2    0.70    2.80
  -9   6  -2    1.40    2.50
  -9   6  -2   -0.10    1.40
   8   5  -2    2.80    3.10
   8   5  -2    6.80    2.90
  -8  -5   2    5.20    4.70
  -8  -5   2   -2.40    3.10
  -8  -5   2    4.20    4.00
   7   5  -2    7.30    2.60
   7   5  -2   10.50    2.80
   7   5  -2    9.80    3.30
  -7  -5   2   10.00    3.20
  -7  -5   2   11.70    3.50
   6   5  -2   94.99    5.30
   6   5  -2   99.79    4.50
   6   5  -2  101.59    4.90
  -6  -5   2   92.89    5.50
  -6  -5   2  104.49    5.50
   5   5  -2  127.69    3.90
   5   5  -2  121.19    5.80
   5   5  -2  129.29    4.70
   5   5  -2  118.79    4.80
  -5  -5   2  125.09    5.20
  -5  -5   2  123.99    5.10
   4   5  -2   19.70    2.10
   4   5  -2   17.20    2.30
   4   5  -2   18.70    1.60
   4   5  -2   19.00    2.10
  -4  -5   2   17.00    2.10
  -4  -5   2   14.30    2.10
   3   5  -2  175.68    5.30
   3   5  -2  174.58    5.40
   3   5  -2  173.18    4.80
   3   5  -2  179.68    5.40
  -3  -5   2  175.38    5.40
  -3  -5   2  176.08    5.30
   2   5  -2  548.35   12.80
   2   5  -2  544.95   12.60
   2   5  -2  544.55   12.30
   2   5  -2  542.35   12.50
  -2  -5   2  521.35   12.60
  -2  -5   2  556.04   12.50
   1   5  -2  250.97    6.40
   1   5  -2  259.97    6.60
   1   5  -2  254.07    6.50
  -1  -5   2  258.57    6.50
   0   5  -2   12.30    1.20
   0   5  -2   13.40    1.30
   0   5  -2   15.80    1.50
   0  -5   2   13.00    1.30
   0  -5   2   11.40    1.20
  -1   5  -2  260.27    6.30
  -1   5  -2  267.17    6.40
  -1   5  -2  262.37    6.70
   1  -5   2  265.67    6.20
   1  -5   2  260.57    6.20
   1  -5   2  257.97    5.70
  -2   5  -2  493.25   10.80
  -2   5  -2  481.65   10.80
  -2   5  -2  488.45   11.40
   2  -5   2  476.95   10.40
   2  -5   2  495.95   10.50
  -3   5  -2  111.09    3.10
  -3   5  -2  111.59    3.00
  -3   5  -2  112.39    2.90
  -3   5  -2  112.29    3.80
  -4   5  -2    0.10    0.70
  -4   5  -2    0.10    1.00
  -4   5  -2    0.50    0.70
  -4   5  -2    0.10    1.10
  -5   5  -2  250.27    6.90
  -5   5  -2  242.08    5.40
  -5   5  -2  244.78    6.20
  -5   5  -2  244.58    5.40
  -6   5  -2  141.49    3.10
  -6   5  -2  151.58    4.80
  -6   5  -2  149.99    5.20
  -6   5  -2  147.29    4.50
  -6   5  -2  136.69    3.10
  -7   5  -2   16.80    2.00
  -7   5  -2   14.40    2.40
  -7   5  -2   15.30    2.00
  -8   5  -2    9.20    0.90
  -8   5  -2   11.80    2.70
  -8   5  -2   12.10    2.10
  -8   5  -2   10.40    0.90
  -8   5  -2   12.60    2.40
  -9   5  -2   37.50    4.00
  -9   5  -2   36.20    3.70
  -9   5  -2   34.50    2.30
  -9   5  -2   37.80    2.40
  -9   5  -2   40.20    3.80
   9   4  -2    4.00    2.10
   9   4  -2   -0.90    2.00
   9   4  -2    2.50    2.60
  -9  -4   2   -0.30    3.90
  -9  -4   2    3.40    5.40
  -9  -4   2    6.80    4.40
   8   4  -2   17.30    2.60
   8   4  -2   18.30    2.70
   8   4  -2   18.60    3.00
  -8  -4   2   16.10    3.60
  -8  -4   2   16.70    4.10
  -8  -4   2   22.10    3.90
   7   4  -2   79.59    4.10
   7   4  -2   75.89    4.40
   7   4  -2   76.99    4.80
  -7  -4   2   73.39    5.60
  -7  -4   2   86.39    5.40
   6   4  -2   96.99    4.50
   6   4  -2   98.69    4.00
   6   4  -2  103.09    4.30
  -6  -4   2  100.49    4.90
  -6  -4   2  102.69    4.90
   5   4  -2   -0.40    1.70
   5   4  -2    0.10    1.10
   5   4  -2    1.00    1.20
   5   4  -2   -0.70    1.40
  -5  -4   2    0.20    0.90
  -5  -4   2    1.00    1.60
  -5  -4   2   -2.70    1.60
   4   4  -2  250.17    6.50
   4   4  -2  246.28    6.50
   4   4  -2  247.28    6.00
   4   4  -2  243.18    6.60
  -4  -4   2  241.38    6.70
  -4  -4   2  246.38    6.70
  -4  -4   2  241.68    6.00
   3   4  -2  134.09    3.70
   3   4  -2  131.19    4.20
   3   4  -2  132.79    4.10
   3   4  -2  129.29    4.00
  -3  -4   2  132.99    3.70
  -3  -4   2  136.69    4.20
  -3  -4   2  132.69    4.10
   2   4  -2  202.48    5.40
   2   4  -2  207.28    5.20
   2   4  -2  209.18    5.50
  -2  -4   2  207.58    5.20
  -2  -4   2  204.68    5.40
  -2  -4   2  202.58    5.40
   1   4  -2    3.50    0.80
   1   4  -2    5.10    0.90
   1   4  -2    4.30    0.80
  -1  -4   2    4.60    0.90
  -1  -4   2    3.40    0.80
  -1  -4   2    4.90    1.00
   0   4  -2  277.97    7.00
   0   4  -2  289.07    6.80
   0   4  -2  297.37    6.90
   0  -4   2  300.17    6.90
   0  -4   2  306.37    6.80
   0  -4   2  287.57    7.00
  -1   4  -2  711.53   16.20
  -1   4  -2  761.52   16.00
  -1   4  -2  742.83   15.90
   1  -4   2  745.63   15.80
  -2   4  -2   21.30    1.20
  -2   4  -2   22.10    1.60
  -2   4  -2   19.60    0.80
  -2   4  -2   21.30    1.10
  -3   4  -2  221.58    5.20
  -3   4  -2  230.68    5.90
  -3   4  -2  225.88    5.00
  -4   4  -2  462.25   10.30
  -4   4  -2  463.65   10.80
  -5   4  -2   72.79    2.90
  -5   4  -2   70.09    3.10
  -5   4  -2   73.59    2.70
  -6   4  -2   26.50    2.20
  -6   4  -2   24.70    2.20
  -6   4  -2   23.10    2.10
  -7   4  -2   37.60    2.80
  -7   4  -2   33.70    3.30
  -7   4  -2   36.00    3.10
  -8   4  -2  150.08    5.40
  -8   4  -2  138.39    3.70
  -8   4  -2  129.49    3.60
  -8   4  -2  133.89    5.60
  -8   4  -2  143.59    5.20
  -9   4  -2   30.10    3.00
  -9   4  -2   25.20    3.40
  -9   4  -2   26.60    2.10
  -9   4  -2   32.90    2.90
  -9   4  -2   30.60    3.20
   9   3  -2    8.30    2.20
  -9  -3   2   10.30    4.00
  -9  -3   2    6.90    4.00
  -9  -3   2   12.10    4.80
   8   3  -2   50.69    3.10
   8   3  -2   56.69    3.40
   8   3  -2   54.59    3.00
  -8  -3   2   62.19    5.30
  -8  -3   2   59.79    5.70
  -8  -3   2   48.20    4.20
   7   3  -2   23.90    2.30
   7   3  -2   25.70    2.40
   7   3  -2   24.20    2.20
  -7  -3   2   25.70    3.10
  -7  -3   2   26.60    1.80
  -7  -3   2   28.40    3.10
  -7  -3   2   25.90    3.00
   6   3  -2    6.80    1.80
   6   3  -2    9.10    1.70
   6   3  -2    9.60    1.50
  -6  -3   2   10.00    2.00
  -6  -3   2    7.00    1.90
  -6  -3   2    7.10    2.00
  -6  -3   2    8.50    1.20
   5   3  -2  195.38    5.20
   5   3  -2  201.98    5.50
   5   3  -2  198.48    5.50
  -5  -3   2  196.68    5.80
  -5  -3   2  202.98    5.80
  -5  -3   2  190.48    4.90
   4   3  -2  398.36    9.30
   4   3  -2  403.06    8.90
   4   3  -2  390.06    9.20
   4   3  -2  403.36    9.40
  -4  -3   2  393.96    8.90
  -4  -3   2  399.56    9.50
  -4  -3   2  387.36    9.50
   3   3  -2   89.89    2.80
   3   3  -2   90.09    3.00
   3   3  -2   89.29    2.70
   3   3  -2   91.79    3.10
  -3  -3   2   86.69    3.00
  -3  -3   2   89.49    3.00
  -3  -3   2   88.99    2.70
   2   3  -2  524.45   11.50
   2   3  -2  513.15   11.60
   2   3  -2  535.95   11.70
  -2  -3   2  518.85   11.50
  -2  -3   2  524.45   11.70
  -2  -3   2  518.15   11.70
   1   3  -2 1149.69   24.70
   1   3  -2 1157.28   24.80
   1   3  -2 1157.68   24.80
  -1  -3   2 1201.28   24.80
  -1  -3   2 1153.98   24.80
  -1  -3   2 1183.68   24.80
   0   3  -2  284.77    6.60
   0   3  -2  287.17    6.70
   0   3  -2  291.37    6.60
   0  -3   2  290.57    6.60
   0  -3   2  287.17    6.70
   0  -3   2  290.87    6.50
   0  -3   2  288.17    6.20
  -1   3  -2   16.00    0.90
  -1   3  -2   20.90    1.20
  -1   3  -2   15.50    1.00
   1  -3   2   14.90    1.10
   1  -3   2   14.80    0.90
   1  -3   2   16.00    0.80
  -2   3  -2  143.69    3.40
  -2   3  -2  152.08    3.40
  -2   3  -2  149.09    3.90
  -3   3  -2  788.52   17.20
  -4   3  -2  231.58    6.00
  -4   3  -2  238.58    5.90
  -5   3  -2   11.00    1.30
  -5   3  -2    8.90    1.30
  -6   3  -2   99.59    3.50
  -6   3  -2   93.89    2.30
  -6   3  -2   98.29    3.50
  -6   3  -2   95.59    2.30
  -6   3  -2   99.49    3.60
  -7   3  -2  138.19    3.60
  -7   3  -2  146.79    5.00
  -7   3  -2  151.18    4.80
  -7   3  -2  120.99    3.80
  -7   3  -2  146.09    4.60
  -8   3  -2   24.70    2.50
  -8   3  -2   26.20    1.90
  -8   3  -2   25.90    2.80
  -8   3  -2   23.80    1.80
  -8   3  -2   28.00    2.40
  -9   3  -2   -1.60    2.00
  -9   3  -2   -3.60    2.00
  -9   3  -2    5.00    3.40
  -9   3  -2    1.30    2.00
  -9   3  -2   -1.70    2.10
  -9  -2   2   82.79    6.50
  -9  -2   2   60.69    5.10
  -9  -2   2   75.09    6.20
  -8  -2   2   12.40    1.40
  -8  -2   2   10.80    3.00
  -8  -2   2   13.90    2.90
  -8  -2   2   10.10    3.00
   7   2  -2   14.90    1.40
   7   2  -2   12.70    1.40
   7   2  -2   12.70    1.40
  -7  -2   2   12.10    2.40
  -7  -2   2   10.90    2.40
  -7  -2   2   14.30    1.50
  -7  -2   2   15.60    2.50
   6   2  -2  195.98    5.00
   6   2  -2  193.88    5.10
   6   2  -2  189.98    5.20
  -6  -2   2  188.78    5.00
  -6  -2   2  191.58    6.00
  -6  -2   2  200.18    5.80
  -6  -2   2  198.78    5.80
   5   2  -2  505.05   11.10
   5   2  -2  500.55   11.00
   5   2  -2  482.05   11.10
  -5  -2   2  469.25   11.50
  -5  -2   2  496.05   11.00
  -5  -2   2  506.35   11.60
  -5  -2   2  500.65   11.80
   4   2  -2    2.40    0.70
   4   2  -2    2.00    1.00
   4   2  -2    2.80    0.90
  -4  -2   2    3.20    1.10
  -4  -2   2    1.60    1.00
  -4  -2   2    1.50    0.80
  -4  -2   2    1.80    0.90
   3   2  -2  197.88    4.70
   3   2  -2  200.88    4.90
   3   2  -2  201.68    4.90
   3   2  -2  195.98    4.70
  -3  -2   2  194.18    5.00
  -3  -2   2  196.68    4.80
  -3  -2   2  192.88    5.00
  -3  -2   2  199.38    5.00
   2   2  -2  686.73   14.80
   2   2  -2  677.23   14.80
   2   2  -2  694.13   14.70
  -2  -2   2  682.53   14.90
  -2  -2   2  682.83   14.90
  -2  -2   2  689.83   14.70
  -2  -2   2  688.83   14.80
   1   2  -2  434.36    9.70
   1   2  -2  444.56    9.70
   1   2  -2  446.46    9.70
  -1  -2   2  432.56    9.70
  -1  -2   2  443.16    9.60
  -1  -2   2  455.55    9.70
  -1  -2   2  446.36    9.70
   0   2  -2   44.40    1.30
   0   2  -2   45.60    1.60
   0   2  -2   46.70    1.60
   0   2  -2   46.60    1.50
   0  -2   2   46.40    1.60
   0  -2   2   46.80    1.50
   0  -2   2   48.10    1.50
   0  -2   2   45.60    1.30
  -1   2  -2  367.36    8.10
  -1   2  -2  363.36    7.80
  -1   2  -2  364.06    7.80
   1  -2   2  372.26    7.80
   1  -2   2  357.46    7.80
   1  -2   2  361.66    8.10
  -2   2  -2  203.38    4.40
  -2   2  -2  203.28    4.40
  -2   2  -2  200.18    4.80
   2  -2   2  206.78    4.90
  -3   2  -2  480.55   10.50
  -3   2  -2  476.05   10.90
  -4   2  -2   78.99    1.80
  -4   2  -2   81.39    1.80
  -4   2  -2   81.59    2.80
  -4   2  -2   83.99    2.50
  -5   2  -2  219.28    5.40
  -5   2  -2  220.28    4.90
  -5   2  -2  222.18    4.90
  -5   2  -2  219.78    5.90
  -6   2  -2  184.18    5.30
  -6   2  -2  185.28    4.50
  -6   2  -2  178.08    4.40
  -6   2  -2  186.38    4.80
  -7   2  -2   23.00    2.20
  -7   2  -2   22.20    2.20
  -7   2  -2   25.00    2.10
  -7   2  -2   25.90    2.20
  -8   2  -2   11.00    1.90
  -8   2  -2    7.60    2.40
  -8   2  -2    8.30    1.90
  -8   2  -2   11.50    1.70
  -8   2  -2   10.90    1.80
  -9   2  -2   71.29    3.00
  -9   2  -2   66.29    4.50
  -9   2  -2   68.69    4.40
  -9   2  -2   82.59    4.50
  -9   2  -2   65.89    5.50
  -9  -1   2   -0.60    3.40
  -9  -1   2    1.70    1.80
  -9  -1   2    3.50    3.40
  -9  -1   2    2.80    3.00
  -8  -1   2   32.10    2.80
  -8  -1   2   35.00    3.20
  -8  -1   2   33.10    3.00
  -8  -1   2   38.60    3.70
  -7  -1   2  103.29    4.40
  -7  -1   2  101.59    3.60
  -7  -1   2  107.69    4.50
  -7  -1   2  108.29    4.80
   6   1  -2   69.79    2.20
   6   1  -2   70.99    2.20
  -6  -1   2   78.59    3.40
  -6  -1   2   75.59    3.50
  -6  -1   2   74.29    3.20
  -6  -1   2   73.99    2.90
   5   1  -2    0.60    0.50
   5   1  -2   -0.10    0.90
   5   1  -2    1.00    0.80
  -5  -1   2    0.20    1.10
  -5  -1   2   -0.30    1.10
  -5  -1   2    2.20    1.10
  -5  -1   2    1.20    0.90
   4   1  -2  145.09    3.40
   4   1  -2  152.18    3.90
   4   1  -2  152.98    3.90
  -4  -1   2  150.58    4.10
  -4  -1   2  154.28    4.10
  -4  -1   2  154.98    4.00
  -4  -1   2  147.19    4.30
   3   1  -2  851.71   17.80
   3   1  -2  855.81   18.20
   3   1  -2  850.41   18.20
  -3  -1   2  872.71   18.30
  -3  -1   2  820.32   18.50
  -3  -1   2  866.21   18.20
  -3  -1   2  858.81   18.30
   2   1  -2  226.78    5.40
   2   1  -2  225.58    5.30
   2   1  -2  231.48    5.30
   2   1  -2  229.68    5.30
  -2  -1   2  225.38    5.30
  -2  -1   2  237.38    5.40
  -2  -1   2  225.98    5.40
  -2  -1   2  223.48    5.30
   1   1  -2  310.67    7.00
   1   1  -2  322.07    7.00
   1   1  -2  306.47    7.00
   1   1  -2  324.47    7.00
  -1  -1   2  312.97    7.00
  -1  -1   2  304.87    7.00
  -1  -1   2  318.77    7.00
  -1  -1   2  309.27    7.00
   0   1  -2  947.51   20.30
   0   1  -2  964.20   20.20
   0   1  -2  982.60   20.30
   0   1  -2  965.00   20.20
   0  -1   2  950.40   20.20
   0  -1   2  950.60   20.20
   0  -1   2  985.90   20.30
   0  -1   2  955.10   20.20
  -1   1  -2 1738.53   36.50
  -1   1  -2 1712.63   36.20
  -1   1  -2 1651.13   36.60
  -1   1  -2 1774.92   36.50
   1  -1   2 1769.92   36.10
   1  -1   2 1728.63   36.30
   1  -1   2 1701.03   36.70
   1  -1   2 1740.23   36.10
  -2   1  -2   17.40    0.70
  -2   1  -2   17.10    0.80
  -2   1  -2   16.10    0.90
  -2   1  -2   14.60    1.00
   2  -1   2   16.70    1.00
   2  -1   2   17.10    0.90
  -3   1  -2  467.45   10.70
  -3   1  -2  472.55   10.20
  -3   1  -2  481.75   10.10
  -3   1  -2  469.25   10.10
   3  -1   2  471.15   10.70
  -4   1  -2  313.87    7.10
  -4   1  -2  323.97    7.80
  -4   1  -2  311.87    7.10
  -4   1  -2  324.67    7.00
   4  -1   2  316.57    7.70
  -5   1  -2  146.49    4.40
  -5   1  -2  148.89    3.70
  -5   1  -2  150.48    3.80
  -5   1  -2  149.19    3.80
   5  -1   2  141.89    4.40
  -6   1  -2   -0.90    1.10
  -6   1  -2    1.30    0.80
  -6   1  -2    0.40    1.10
  -6   1  -2    0.30    1.10
  -7   1  -2   27.80    2.10
  -7   1  -2   24.50    2.60
  -7   1  -2   28.20    2.00
  -8   1  -2   67.89    4.00
  -8   1  -2   72.29    3.90
  -8   1  -2   67.99    3.80
  -9   1  -2   25.20    3.20
  -9   1  -2   25.90    2.90
  -9   1  -2   22.10    3.60
  -9   1  -2   23.30    3.20
  -9   0   2   24.00    3.20
  -9   0   2   29.30    2.70
  -9   0   2   23.90    4.10
  -9   0   2   27.70    3.70
  -8   0   2  138.79    4.90
  -8   0   2  139.89    5.30
  -8   0   2  147.29    6.20
  -8   0   2  141.89    5.60
  -7   0   2   90.29    4.00
  -7   0   2   95.69    3.70
  -7   0   2  100.99    4.50
  -7   0   2   93.69    3.90
  -6   0   2   20.60    1.70
  -6   0   2   18.50    1.90
  -6   0   2   17.40    1.70
  -6   0   2   22.00    1.90
   5   0  -2  467.35   10.00
   5   0  -2  443.96    9.70
  -5   0   2  469.15   10.50
  -5   0   2  468.15   10.50
  -5   0   2  470.25   10.60
  -5   0   2  463.15   11.10
   4   0  -2  656.33   14.10
   4   0  -2  657.23   14.10
  -4   0   2  668.63   14.40
  -4   0   2  670.83   14.40
  -4   0   2  655.03   14.80
   3   0  -2  217.08    5.00
   3   0  -2  221.48    5.10
   3   0  -2  225.58    5.50
  -3   0   2  220.38    5.50
  -3   0   2  215.68    5.20
  -3   0   2  222.08    5.20
   2   0  -2  796.92   16.50
   2   0  -2  771.32   16.70
   2   0  -2  776.52   16.50
   2   0  -2  765.62   16.10
  -2   0   2  769.02   16.50
  -2   0   2  787.52   16.50
  -2   0   2  757.32   16.70
   1   0  -2  416.36    8.90
   1   0  -2  397.06    8.90
   1   0  -2  408.66    8.70
   1   0  -2  419.96    8.90
  -1   0   2  407.96    8.90
  -1   0   2  398.36    8.90
  -1   0   2  395.96    8.90
  -1   0   2  407.16    8.70
   0   0  -2  789.52   16.30
   0   0  -2  769.92   16.40
   0   0  -2  759.62   16.30
   0   0  -2  772.52   16.30
   0   0   2  765.12   16.30
   0   0   2  757.32   16.30
   0   0   2  766.72   16.30
   0   0   2  789.72   16.30
   0   0   2  749.82   16.40
  -1   0  -2  384.56    8.70
  -1   0  -2  373.26    8.40
  -1   0  -2  394.36    8.50
   1   0   2  382.66    8.70
   1   0   2  399.06    8.40
   1   0   2  382.26    8.40
   1   0   2  390.56    8.40
  -2   0  -2  125.49    3.10
  -2   0  -2  123.29    3.10
  -2   0  -2  125.89    3.50
  -2   0  -2  121.89    2.90
   2   0   2  126.89    3.40
   2   0   2  125.49    2.90
   2   0   2  125.29    3.00
   2   0   2  123.69    3.00
  -3   0  -2  551.44   12.70
  -3   0  -2  572.64   12.20
  -3   0  -2  568.24   12.20
  -3   0  -2  550.14   11.80
   3   0   2  560.64   12.70
   3   0   2  553.54   12.00
   3   0   2  575.74   11.90
   3   0   2  561.74   11.80
  -4   0  -2  695.93   14.60
  -4   0  -2  714.93   15.20
  -4   0  -2  710.73   15.20
  -4   0  -2  692.93   15.70
   4   0   2  683.53   14.60
   4   0   2  693.13   14.60
   4   0   2  720.83   15.80
  -5   0  -2    3.90    1.10
  -5   0  -2    4.00    1.10
  -5   0  -2    4.50    1.10
   5   0   2    2.50    1.00
  -6   0  -2  114.89    4.00
  -6   0  -2  115.89    3.90
  -6   0  -2  118.79    4.20
   6   0   2  113.59    4.10
  -7   0  -2  105.69    4.20
  -7   0  -2  106.09    4.40
  -7   0  -2  107.99    4.40
   7   0   2  106.89    4.30
  -8   0  -2   25.00    2.90
  -8   0  -2   19.40    2.80
  -8   0  -2   27.90    2.80
  -9   0  -2   -1.20    3.20
  -9   0  -2    2.10    2.60
  -9   0  -2    6.10    3.30
  -9   1   2   54.29    4.60
  -9   1   2   46.50    3.70
  -9   1   2   52.79    4.50
  -9   1   2   61.09    5.80
  -8   1   2   25.20    2.60
  -8   1   2   25.60    3.20
  -8   1   2   28.10    2.70
  -8   1   2   24.50    2.70
  -7   1   2   39.00    2.80
  -7   1   2   36.00    3.00
  -7   1   2   41.60    3.40
  -6   1   2  105.39    3.50
  -6   1   2  103.29    3.50
  -6   1   2  101.29    4.10
  -5   1   2  264.67    6.40
  -5   1   2  267.87    7.10
  -5   1   2  271.77    6.50
   4  -1  -2  155.88    3.50
   4  -1  -2  156.98    3.50
   4  -1  -2  162.78    4.50
  -4   1   2  158.98    4.50
  -4   1   2  159.78    4.10
  -4   1   2  155.08    4.00
  -4   1   2  156.38    3.40
  -4   1   2  157.98    3.40
   3  -1  -2  541.25   12.10
   3  -1  -2  552.14   11.60
   3  -1  -2  542.45   11.60
  -3   1   2  536.05   11.80
  -3   1   2  540.75   11.40
  -3   1   2  530.85   11.80
  -3   1   2  539.25   12.10
   2  -1  -2  199.78    4.60
   2  -1  -2  193.68    4.60
   2  -1  -2  192.98    4.80
  -2   1   2  192.48    4.40
  -2   1   2  193.58    4.80
  -2   1   2  197.88    4.60
  -2   1   2  188.88    4.60
   1  -1  -2 1376.26   29.10
   1  -1  -2 1377.36   29.20
   1  -1  -2 1411.86   29.10
   1  -1  -2 1418.26   29.10
  -1   1   2 1375.36   29.10
  -1   1   2 1330.17   29.20
  -1   1   2 1393.06   29.10
  -1   1   2 1413.06   29.10
   0  -1  -2  205.68    5.10
   0  -1  -2  219.08    5.00
   0  -1  -2  214.98    5.10
   0   1   2  216.58    5.10
   0   1   2  213.98    5.10
   0   1   2  216.28    5.10
   0   1   2  213.88    5.00
  -1  -1  -2  602.54   13.10
  -1  -1  -2  601.54   13.30
  -1  -1  -2  614.04   13.00
   1   1   2  597.84   13.00
   1   1   2  602.44   13.30
   1   1   2  596.44   13.00
  -2  -1  -2  770.42   17.00
  -2  -1  -2  766.12   16.70
  -2  -1  -2  772.82   16.60
   2   1   2  777.22   16.60
   2   1   2  797.92   16.60
   2   1   2  763.82   16.30
   2   1   2  767.42   17.00
  -3  -1  -2    3.90    0.90
  -3  -1  -2    4.20    1.00
   3   1   2    3.60    0.40
   3   1   2    2.80    0.80
   3   1   2    4.00    0.70
   3   1   2    3.70    0.90
  -4  -1  -2   20.60    1.60
  -4  -1  -2   17.60    1.70
  -4  -1  -2   21.80    1.80
   4   1   2   18.90    1.50
   4   1   2   17.50    1.80
   4   1   2   19.00    1.60
  -5  -1  -2  124.49    4.00
  -5  -1  -2  124.09    4.20
  -5  -1  -2  123.19    4.20
   5   1   2  125.39    3.40
   5   1   2  126.59    3.40
   5   1   2  125.69    4.30
  -6  -1  -2   91.99    3.90
  -6  -1  -2   88.69    3.90
  -6  -1  -2   89.59    3.90
   6   1   2   96.59    3.90
  -7  -1  -2    2.70    2.10
  -7  -1  -2    5.50    1.90
  -7  -1  -2    4.50    2.30
   7   1   2   -0.70    1.60
  -8  -1  -2    3.60    2.90
  -8  -1  -2    4.50    2.90
  -8  -1  -2    5.70    2.40
   8   1   2    8.60    2.40
  -9  -1  -2   21.60    4.10
  -9  -1  -2   26.10    3.50
  -9  -1  -2   16.10    4.10
   9   1   2   22.80    3.60
  -9   2   2    5.20    3.20
  -9   2   2    3.40    2.50
  -9   2   2    6.80    2.90
  -9   2   2    5.60    3.10
  -8   2   2   53.89    3.90
  -8   2   2   56.39    3.60
  -8   2   2   63.99    4.70
  -7   2   2  135.69    4.40
  -7   2   2  132.19    4.40
  -7   2   2  137.19    5.30
  -6   2   2  207.18    6.20
  -6   2   2  199.18    5.40
  -6   2   2  204.08    5.40
  -6   2   2  201.48    4.50
  -5   2   2   18.90    1.60
  -5   2   2   19.60    1.90
  -5   2   2   19.40    1.50
  -5   2   2   17.80    1.10
  -5   2   2   15.40    1.10
   4  -2  -2  295.67    7.40
  -4   2   2  298.57    7.00
  -4   2   2  307.37    7.60
  -4   2   2  305.27    6.80
  -4   2   2  300.97    7.00
   3  -2  -2  631.84   13.90
   3  -2  -2  624.04   13.30
   3  -2  -2  622.74   13.30
  -3   2   2  623.44   13.60
  -3   2   2  596.44   13.90
  -3   2   2  632.14   13.60
  -3   2   2  643.34   13.50
   2  -2  -2  609.44   13.20
   2  -2  -2  629.04   13.20
   2  -2  -2  596.64   13.50
  -2   2   2  616.14   13.30
  -2   2   2  605.14   13.30
  -2   2   2  617.34   13.60
  -2   2   2  612.54   13.30
   1  -2  -2  118.49    3.30
   1  -2  -2  124.69    3.30
   1  -2  -2  117.49    3.30
   1  -2  -2  117.59    3.20
  -1   2   2  118.59    3.30
  -1   2   2  121.39    3.30
  -1   2   2  119.19    3.30
  -1   2   2  118.59    3.20
   0  -2  -2  614.94   13.60
   0  -2  -2  639.74   13.60
   0  -2  -2  623.84   13.70
   0  -2  -2  626.74   13.80
   0   2   2  633.54   13.60
   0   2   2  620.44   13.60
   0   2   2  595.84   13.70
  -1  -2  -2  564.04   12.60
  -1  -2  -2  577.24   12.70
  -1  -2  -2  576.24   12.90
   1   2   2  577.44   12.70
   1   2   2  558.14   12.60
   1   2   2  575.54   12.90
  -2  -2  -2   42.90    2.00
  -2  -2  -2   42.70    2.10
  -2  -2  -2   43.00    2.10
   2   2   2   46.10    2.00
   2   2   2   46.50    2.10
   2   2   2   45.70    2.10
  -3  -2  -2   26.80    1.90
  -3  -2  -2   25.30    2.00
  -3  -2  -2   29.80    2.00
   3   2   2   23.80    1.70
   3   2   2   24.80    2.00
   3   2   2   26.80    1.20
   3   2   2   25.50    1.80
  -4  -2  -2  318.97    8.80
  -4  -2  -2  372.06    9.30
   4   2   2  374.46    8.70
   4   2   2  372.56    9.20
   4   2   2  373.16    8.60
  -5  -2  -2  188.08    5.80
  -5  -2  -2  185.88    5.60
  -5  -2  -2  184.68    5.50
   5   2   2  184.68    5.70
   5   2   2  181.88    5.00
   5   2   2  182.18    5.20
  -6  -2  -2    7.80    1.90
  -6  -2  -2    8.10    2.10
  -6  -2  -2    8.30    2.10
   6   2   2   10.40    1.90
   6   2   2    7.80    1.60
   6   2   2    6.60    1.50
  -7  -2  -2   22.00    2.90
  -7  -2  -2   18.30    2.90
  -7  -2  -2   20.80    2.90
   7   2   2   20.60    2.00
   7   2   2   17.20    1.40
   7   2   2   24.00    2.80
  -8  -2  -2   50.89    4.80
  -8  -2  -2   45.10    4.20
  -8  -2  -2   41.40    4.20
   8   2   2   41.60    3.80
  -9  -2  -2   10.50    4.50
  -9  -2  -2    7.10    3.70
   9   2   2   12.70    3.80
  -9   3   2    5.80    2.40
  -9   3   2    8.20    3.40
  -9   3   2    4.50    4.90
  -8   3   2   61.99    3.90
  -8   3   2   67.49    4.90
  -8   3   2   61.99    3.70
  -7   3   2  196.08    5.70
  -7   3   2  198.78    4.70
  -7   3   2  198.38    5.60
  -7   3   2  190.18    5.40
  -7   3   2  212.98    6.70
  -6   3   2   50.89    3.30
  -6   3   2   46.80    1.80
  -6   3   2   42.80    2.60
  -6   3   2   46.30    2.50
  -6   3   2   47.40    2.00
   5  -3  -2  156.18    4.70
  -5   3   2  144.79    3.90
  -5   3   2  147.39    4.20
  -5   3   2  150.18    4.20
  -5   3   2  143.39    4.80
   4  -3  -2  517.35   12.00
  -4   3   2  521.05   11.60
  -4   3   2  515.75   12.10
  -4   3   2  526.65   11.60
  -4   3   2  521.15   11.60
   3  -3  -2  113.19    3.00
   3  -3  -2  110.89    3.50
   3  -3  -2  111.89    3.00
  -3   3   2  112.59    3.30
  -3   3   2  113.59    3.40
  -3   3   2  107.99    3.30
  -3   3   2  111.19    3.60
   2  -3  -2  107.29    3.30
   2  -3  -2  111.19    3.20
   2  -3  -2  105.79    3.10
  -2   3   2  108.89    3.20
  -2   3   2  107.69    3.40
  -2   3   2  109.19    3.30
  -2   3   2  108.89    3.30
   1  -3  -2  415.66    9.50
   1  -3  -2  421.56    9.40
   1  -3  -2  416.36    9.60
  -1   3   2  403.76    9.40
  -1   3   2  413.16    9.60
  -1   3   2  420.66    9.60
  -1   3   2  413.96    9.70
   0  -3  -2  176.08    4.80
   0  -3  -2  187.78    4.80
   0  -3  -2  180.08    5.00
   0  -3  -2  188.68    4.90
   0   3   2  179.88    5.00
   0   3   2  179.58    4.90
   0   3   2  180.68    4.70
  -1  -3  -2   45.80    2.20
  -1  -3  -2   44.40    2.20
  -1  -3  -2   44.40    2.30
  -1  -3  -2   45.60    2.20
   1   3   2   43.10    2.20
   1   3   2   44.80    2.30
  -2  -3  -2  116.79    3.80
  -2  -3  -2  115.99    3.70
  -2  -3  -2  110.39    3.80
   2   3   2  114.59    3.80
   2   3   2  113.59    3.80
   2   3   2  117.89    3.70
  -3  -3  -2   94.09    3.50
  -3  -3  -2   87.09    3.50
  -3  -3  -2   89.99    3.60
   3   3   2   92.49    3.30
   3   3   2   92.39    3.60
   3   3   2   94.29    3.60
  -4  -3  -2   63.09    3.40
  -4  -3  -2   60.09    3.10
  -4  -3  -2   66.49    3.30
   4   3   2   55.19    1.80
   4   3   2   61.89    3.30
   4   3   2   60.89    1.80
   4   3   2   57.89    2.90
   4   3   2   58.69    3.20
  -5  -3  -2    1.40    1.30
  -5  -3  -2    2.00    1.90
   5   3   2    1.20    1.50
   5   3   2   -0.90    1.60
   5   3   2   -1.10    1.80
  -6  -3  -2   65.09    4.10
  -6  -3  -2   69.99    4.60
   6   3   2   65.39    4.00
   6   3   2   66.09    3.70
   6   3   2   67.89    4.20
  -7  -3  -2   34.40    3.80
  -7  -3  -2   32.40    3.40
   7   3   2   30.70    2.60
   7   3   2   30.30    2.80
   7   3   2   31.40    3.40
  -8  -3  -2    3.50    3.70
  -8  -3  -2    5.30    3.30
   8   3   2    3.90    1.90
   8   3   2    5.10    3.80
   8   3   2    3.00    1.90
  -9   4   2   43.80    3.40
  -9   4   2   46.40    4.50
  -9   4   2   40.90    4.30
  -8   4   2   10.40    1.20
  -8   4   2   10.40    3.00
  -8   4   2    8.30    2.20
  -8   4   2   12.90    2.50
  -8   4   2   10.30    1.30
  -7   4   2   59.69    3.60
  -7   4   2   65.59    2.80
  -7   4   2   64.09    2.50
  -7   4   2   61.49    3.40
  -7   4   2   65.79    4.40
  -6   4   2   44.50    2.50
  -6   4   2   47.60    2.90
  -6   4   2   49.99    2.80
  -6   4   2   47.60    3.40
   5  -4  -2  266.97    7.20
  -5   4   2  268.87    6.80
  -5   4   2  267.57    7.40
  -5   4   2  260.97    6.70
  -5   4   2  276.17    6.80
   4  -4  -2   14.60    1.00
   4  -4  -2   14.80    1.00
   4  -4  -2   12.90    1.50
  -4   4   2   16.70    1.60
  -4   4   2   15.40    1.70
  -4   4   2   15.50    1.50
  -4   4   2   14.80    1.60
   3  -4  -2  174.88    5.00
   3  -4  -2  173.88    4.50
   3  -4  -2  176.28    4.50
  -3   4   2  174.78    4.80
  -3   4   2  175.78    5.00
  -3   4   2  175.28    4.90
  -3   4   2  180.48    5.10
   2  -4  -2  348.47    8.20
   2  -4  -2  352.46    8.50
   2  -4  -2  358.46    8.30
  -2   4   2  356.16    8.50
  -2   4   2  354.86    8.70
  -2   4   2  344.97    8.50
  -2   4   2  360.66    8.40
   1  -4  -2  343.87    8.30
   1  -4  -2  338.57    8.20
   1  -4  -2  343.37    8.10
  -1   4   2  329.57    8.20
  -1   4   2  345.57    8.20
  -1   4   2  343.17    8.50
  -1   4   2  343.77    8.30
   0  -4  -2   58.79    2.70
   0  -4  -2   61.69    2.60
   0  -4  -2   59.09    2.70
   0   4   2   59.79    2.70
   0   4   2   57.39    2.50
   0   4   2   59.19    2.80
  -1  -4  -2  555.14   13.30
  -1  -4  -2  547.95   12.90
  -1  -4  -2  565.74   13.00
  -1  -4  -2  551.74   12.80
   1   4   2  560.64   13.20
   1   4   2  569.84   13.00
   1   4   2  564.24   12.80
  -2  -4  -2  302.27    7.70
  -2  -4  -2  293.37    7.70
   2   4   2  299.07    7.90
   2   4   2  290.87    7.60
   2   4   2  290.67    7.70
  -3  -4  -2   29.30    2.40
  -3  -4  -2   26.00    2.40
  -3  -4  -2   23.90    2.50
   3   4   2   27.40    2.60
   3   4   2   21.70    3.10
   3   4   2   27.10    2.50
  -4  -4  -2    9.10    2.20
  -4  -4  -2    6.00    1.70
  -4  -4  -2    7.00    1.90
   4   4   2    5.50    1.00
   4   4   2    7.70    2.10
   4   4   2    7.90    1.80
   4   4   2    6.00    1.80
  -5  -4  -2   86.79    4.60
  -5  -4  -2   87.29    4.90
  -5  -4  -2   89.49    4.90
   5   4   2   89.99    4.20
   5   4   2   90.59    4.60
   5   4   2   80.29    6.20
  -6  -4  -2   61.79    4.70
  -6  -4  -2   60.99    5.30
  -6  -4  -2   53.29    5.00
   6   4   2   56.79    5.30
   6   4   2   55.49    4.30
   6   4   2   65.79    5.00
  -7  -4  -2   16.70    4.00
  -7  -4  -2   22.20    3.80
  -7  -4  -2   16.70    3.80
   7   4   2   13.60    3.00
   7   4   2   12.00    3.30
  -8  -4  -2    8.00    5.00
  -8  -4  -2    1.90    4.40
   8   4   2    2.80    3.00
   8   4   2    1.00    3.80
   8   4   2    3.40    3.40
  -9   5   2    5.40    3.50
  -9   5   2    5.70    3.00
  -9   5   2    6.70    3.70
  -9   5   2    4.20    1.30
  -8   5   2    3.60    1.40
  -8   5   2    0.90    2.30
  -8   5   2    2.80    1.80
  -8   5   2    4.20    2.90
  -8   5   2    0.80    2.90
  -7   5   2  109.49    4.60
  -7   5   2  112.29    4.80
  -7   5   2  114.99    4.20
  -7   5   2  114.29    5.60
   6  -5  -2  218.68    6.70
  -6   5   2  220.18    6.20
  -6   5   2  217.98    6.30
  -6   5   2  214.48    6.20
  -6   5   2  223.58    7.00
   5  -5  -2    5.20    3.00
  -5   5   2    4.80    1.50
  -5   5   2    2.80    1.70
  -5   5   2    4.20    1.50
  -5   5   2    3.30    1.70
   4  -5  -2  142.69    3.60
   4  -5  -2  141.69    3.60
   4  -5  -2  147.99    4.80
  -4   5   2  146.89    4.70
  -4   5   2  144.59    4.50
  -4   5   2  137.99    4.80
  -4   5   2  146.99    4.70
   3  -5  -2  280.67    7.20
   3  -5  -2  274.67    6.70
   3  -5  -2  275.37    6.70
  -3   5   2  274.57    7.30
  -3   5   2  281.67    7.10
  -3   5   2  271.77    7.40
  -3   5   2  273.47    7.30
   2  -5  -2  198.88    5.40
   2  -5  -2  197.78    5.60
   2  -5  -2  193.68    5.40
  -2   5   2  204.28    5.80
  -2   5   2  196.98    5.80
  -2   5   2  196.18    5.50
  -2   5   2  198.08    5.60
   1  -5  -2   15.80    1.70
   1  -5  -2   18.60    1.80
   1  -5  -2   18.20    1.80
  -1   5   2   15.00    1.70
  -1   5   2   13.90    1.70
  -1   5   2   13.20    1.50
   0  -5  -2  130.99    4.50
   0  -5  -2  138.19    4.50
   0  -5  -2  133.29    4.40
   0   5   2  135.39    4.70
   0   5   2  130.89    4.70
  -1  -5  -2  109.49    4.10
  -1  -5  -2  106.19    4.20
  -1  -5  -2  111.69    4.20
   1   5   2  108.89    4.10
  -2  -5  -2   71.19    3.70
  -2  -5  -2   73.39    3.80
  -2  -5  -2   72.59    3.70
   2   5   2   66.39    4.00
   2   5   2   74.59    3.60
   2   5   2   70.39    3.60
  -3  -5  -2    3.10    2.00
  -3  -5  -2    3.70    1.70
  -3  -5  -2    4.10    2.00
   3   5   2    0.60    1.60
   3   5   2    2.80    1.70
   3   5   2    2.00    2.20
  -4  -5  -2   51.99    4.40
  -4  -5  -2   54.99    4.00
  -4  -5  -2   53.59    4.40
   4   5   2   54.29    4.00
   4   5   2   54.09    2.70
   4   5   2   55.89    4.20
   4   5   2   58.09    4.70
  -5  -5  -2   27.40    3.40
  -5  -5  -2   17.80    3.10
  -5  -5  -2   18.00    2.80
   5   5   2   23.40    3.20
   5   5   2   22.00    2.80
   5   5   2   23.00    2.00
   5   5   2   26.90    3.60
   5   5   2   22.70    1.70
  -6  -5  -2   -0.60    3.60
  -6  -5  -2    7.40    3.00
  -6  -5  -2    2.10    3.30
   6   5   2    1.00    3.50
   6   5   2   -3.40    2.80
  -7  -5  -2    3.80    4.20
  -7  -5  -2    7.80    5.00
   7   5   2    9.70    4.40
   7   5   2   13.80    3.70
   7   5   2    4.50    3.80
  -8   6   2   44.00    3.90
  -8   6   2   38.50    4.20
  -8   6   2   41.30    3.50
  -8   6   2   37.10    3.90
  -7   6   2   29.80    3.20
  -7   6   2   30.90    3.50
  -7   6   2   29.30    3.00
  -7   6   2   29.40    3.00
   6  -6  -2    5.80    2.20
  -6   6   2    3.30    2.00
  -6   6   2    2.40    2.20
  -6   6   2    0.20    2.00
   5  -6  -2   71.19    3.80
  -5   6   2   68.59    4.10
  -5   6   2   73.09    3.90
  -5   6   2   68.59    4.70
  -5   6   2   70.59    3.80
   4  -6  -2  172.08    5.50
   4  -6  -2  173.38    4.40
   4  -6  -2  168.18    4.40
  -4   6   2  156.98    6.70
  -4   6   2  175.18    5.40
  -4   6   2  170.78    5.70
  -4   6   2  179.58    5.70
   3  -6  -2   49.50    2.80
   3  -6  -2   49.30    3.10
   3  -6  -2   46.40    2.80
  -3   6   2   51.69    3.20
  -3   6   2   46.70    5.10
  -3   6   2   49.99    3.30
  -3   6   2   52.89    3.10
   2  -6  -2   47.60    3.00
   2  -6  -2   38.70    3.00
   2  -6  -2   41.70    3.00
  -2   6   2   46.20    3.00
  -2   6   2   42.30    3.70
  -2   6   2   45.60    2.90
  -2   6   2   43.20    3.50
   1  -6  -2  134.59    4.70
   1  -6  -2  126.09    4.50
   1  -6  -2  127.09    4.60
  -1   6   2  123.39    4.50
  -1   6   2  123.29    4.90
  -1   6   2  123.59    4.90
   0  -6  -2  162.68    5.40
   0  -6  -2  156.58    5.40
   0  -6  -2  163.38    5.50
   0   6   2  167.68    5.40
   0   6   2  169.98    5.80
   0   6   2  165.28    5.70
  -1  -6  -2   14.00    2.20
  -1  -6  -2   16.40    2.20
  -1  -6  -2   14.30    2.20
   1   6   2   20.50    2.60
   1   6   2   19.00    2.20
   1   6   2   21.90    2.80
  -2  -6  -2   73.99    4.20
  -2  -6  -2   71.39    4.20
  -2  -6  -2   72.89    4.40
   2   6   2   73.79    4.10
   2   6   2   67.99    4.00
   2   6   2   73.39    4.80
  -3  -6  -2   96.19    5.00
   3   6   2   92.59    4.80
   3   6   2   98.49    5.80
   3   6   2   92.19    5.00
   3   6   2   92.09    4.00
  -4  -6  -2   24.50    3.30
   4   6   2   27.20    3.80
   4   6   2   26.40    2.30
   4   6   2   23.80    3.10
  -5  -6  -2    0.80    3.80
  -5  -6  -2   -3.30    3.30
   5   6   2    3.90    3.90
   5   6   2   -0.10    2.80
   5   6   2   -0.30    2.90
   5   6   2   -0.80    1.60
  -6  -6  -2   19.30    4.80
  -6  -6  -2   23.60    5.80
   6   6   2   14.00    5.20
   6   6   2   26.00    4.00
   6   6   2   19.10    4.20
  -8   7   2    7.30    3.60
  -8   7   2    6.50    3.30
  -8   7   2    8.50    4.00
  -7   7   2    6.70    2.80
  -7   7   2    4.10    3.30
  -7   7   2    2.30    2.80
  -7   7   2    5.60    3.10
   6  -7  -2   57.29    4.60
  -6   7   2   64.09    4.90
  -6   7   2   68.09    4.60
  -6   7   2   53.79    4.40
  -6   7   2   54.89    5.10
   5  -7  -2  103.19    4.80
  -5   7   2  106.69    5.50
  -5   7   2  104.19    4.90
  -5   7   2   94.79    5.10
  -5   7   2  104.09    5.10
   4  -7  -2   24.30    2.60
   4  -7  -2   21.00    1.90
   4  -7  -2   24.10    1.90
  -4   7   2   21.70    2.60
  -4   7   2   22.40    3.00
  -4   7   2   20.30    2.60
  -4   7   2   21.60    2.60
   3  -7  -2   32.80    4.80
   3  -7  -2   39.30    3.40
   3  -7  -2   43.20    3.40
  -3   7   2   38.20    3.50
  -3   7   2   39.40    3.70
  -3   7   2   39.60    3.40
  -3   7   2   39.30    3.30
   2  -7  -2  166.78    6.50
   2  -7  -2  184.98    5.90
   2  -7  -2  181.78    5.90
  -2   7   2  174.18    5.90
  -2   7   2  173.58    6.40
  -2   7   2  171.28    6.30
   1  -7  -2   82.99    4.50
   1  -7  -2   90.69    4.50
   1  -7  -2   70.79    5.20
  -1   7   2   84.19    4.60
  -1   7   2   81.69    5.00
   0  -7  -2    6.80    2.00
   0  -7  -2    5.00    2.30
   0  -7  -2    3.10    2.30
   0   7   2    7.40    2.20
   0   7   2    3.50    2.30
   0   7   2    5.40    2.00
  -1  -7  -2   46.80    4.20
  -1  -7  -2   35.50    3.30
  -1  -7  -2   37.80    3.40
   1   7   2   39.60    3.30
  -2  -7  -2   79.19    5.20
  -2  -7  -2   76.29    5.30
  -2  -7  -2   76.69    5.40
   2   7   2   78.99    4.90
   2   7   2   71.09    5.90
  -3  -7  -2   26.50    3.80
   3   7   2   19.20    3.10
   3   7   2   25.60    2.70
  -4  -7  -2    1.40    3.60
   4   7   2    1.90    4.30
   4   7   2    0.80    3.20
   4   7   2    2.80    5.60
   4   7   2   -1.70    2.10
  -5  -7  -2   -1.50    4.10
   5   7   2    8.60    5.10
   5   7   2    3.80    2.20
   5   7   2    3.70    3.60
   5   7   2    3.40    3.80
  -6  -7  -2    7.40    5.30
   6   7   2    2.10    6.30
   6   7   2    8.00    4.50
  -7   8   2   33.90    4.80
  -7   8   2   34.80    4.30
  -7   8   2   38.50    4.40
  -7   8   2   36.30    4.10
   6  -8  -2   52.09    4.00
  -6   8   2   48.40    4.00
  -6   8   2   48.70    4.40
  -6   8   2   37.70    4.50
  -6   8   2   55.09    4.40
   5  -8  -2   -0.80    2.50
  -5   8   2    0.90    2.70
  -5   8   2    3.50    3.40
  -5   8   2    1.70    2.60
  -5   8   2    0.30    2.80
   4  -8  -2   41.30    3.30
   4  -8  -2   43.10    3.50
   4  -8  -2   41.20    3.40
  -4   8   2   44.80    3.60
  -4   8   2   41.10    4.10
  -4   8   2   45.00    3.70
  -4   8   2   48.30    4.70
   3  -8  -2   62.39    4.50
   3  -8  -2   77.39    4.40
   3  -8  -2   70.39    4.70
  -3   8   2   66.69    4.70
  -3   8   2   64.09    5.00
  -3   8   2   66.09    5.70
   2  -8  -2   30.40    3.10
   2  -8  -2   30.10    3.20
   2  -8  -2   28.90    3.10
  -2   8   2   32.30    3.80
  -2   8   2   35.50    3.80
   1  -8  -2    0.20    2.40
   1  -8  -2    0.50    2.60
   1  -8  -2   -0.70    2.70
  -1   8   2    2.60    2.60
  -1   8   2    1.50    2.50
  -1   8   2   -0.30    3.20
   0  -8  -2   51.09    4.10
   0  -8  -2   46.60    3.80
   0  -8  -2   48.00    4.00
   0   8   2   52.19    4.90
   0   8   2   46.40    4.80
  -1  -8  -2   39.10    3.90
  -1  -8  -2   38.10    3.80
   1   8   2   45.00    4.20
  -2  -8  -2   15.20    3.80
  -2  -8  -2   18.60    4.70
  -2  -8  -2   15.70    4.00
   2   8   2   11.10    4.20
   2   8   2   12.60    3.50
   2   8   2   16.70    2.90
  -3  -8  -2    3.60    4.10
  -3  -8  -2    7.20    4.40
  -3  -8  -2   -0.60    3.90
   3   8   2    0.60    3.30
   3   8   2    2.30    3.70
   3   8   2    4.20    4.60
   3   8   2    6.80    2.80
  -4  -8  -2   26.80    5.10
   4   8   2   27.20    6.20
   4   8   2   28.20    3.30
   4   8   2   19.60    4.10
  -5  -8  -2    7.80    5.30
   5   8   2   19.20    4.90
   5   8   2   12.80    3.10
   6  -9  -2    0.10    4.20
  -6   9   2   -4.00    3.90
  -6   9   2   -0.40    3.60
  -6   9   2    0.90    3.50
  -6   9   2  -11.20    4.70
   5  -9  -2   25.80    3.60
  -5   9   2   22.70    3.80
  -5   9   2   19.10    4.20
  -5   9   2   22.30    3.50
  -5   9   2   24.70    4.90
   4  -9  -2   58.19    4.40
   4  -9  -2   55.69    4.10
   4  -9  -2   49.20    4.10
  -4   9   2   48.90    4.20
  -4   9   2   51.79    5.10
  -4   9   2   47.00    5.10
   3  -9  -2   20.80    4.40
   3  -9  -2   27.00    3.40
   3  -9  -2   25.80    3.60
  -3   9   2   29.90    4.40
  -3   9   2   22.40    4.50
   2  -9  -2    6.10    3.20
   2  -9  -2   15.10    3.30
   2  -9  -2   11.10    3.50
  -2   9   2   13.10    3.70
  -2   9   2   14.50    6.20
  -2   9   2   13.60    4.30
   1  -9  -2   53.19    4.30
   1  -9  -2   55.09    4.70
   1  -9  -2   56.89    4.50
  -1   9   2   69.29    6.10
  -1   9   2   55.29    5.50
  -1   9   2   63.29    6.20
   0  -9  -2   31.90    3.90
   0  -9  -2   30.10    5.40
   0   9   2   36.00    5.20
   0   9   2   28.10    4.20
   0   9   2   28.40    4.00
  -1  -9  -2    4.90    4.10
  -1  -9  -2    8.20    4.60
   1   9   2    8.70    3.40
   1   9   2   10.80    5.00
   1   9   2    4.80    3.50
   1   9   2    8.90    3.70
  -2  -9  -2   10.50    5.10
  -2  -9  -2   -0.40    4.40
  -2  -9  -2    5.20    4.60
   2   9   2    9.10    3.50
   2   9   2    2.20    3.50
  -3  -9  -2   17.70    5.20
  -3  -9  -2   12.80    5.10
   3   9   2   29.00    5.20
   3   9   2   12.80    3.90
   4 -10  -2    8.20    4.00
   4 -10  -2    5.80    2.90
   4 -10  -2   11.30    3.30
  -4  10   2   12.70    4.50
  -4  10   2    5.50    4.70
   3 -10  -2   12.40    3.80
   3 -10  -2    8.80    4.10
   3 -10  -2   13.20    4.00
  -3  10   2   12.00    4.50
  -3  10   2    9.80    5.10
   2 -10  -2   27.50    4.80
   2 -10  -2   33.10    4.60
   2 -10  -2   31.90    4.60
  -2  10   2   31.00    4.70
   1 -10  -2   28.30    4.80
  -1  10   2   22.60    4.60
   0 -10  -2    0.60    5.30
   0 -10  -2   -2.50    4.70
   0 -10  -2    1.70    4.80
   0  10   2    3.10    4.10
   0  10   2    0.50    4.50
  -1 -10  -2   -2.10    5.00
  -1 -10  -2    5.50    5.00
   1  10   2    5.90    4.20
   1  10   2    9.70    5.10
   0  12  -3   23.50    4.70
   0  12  -3   27.40    5.10
   0 -12   3   30.20    3.50
   0 -12   3   27.90    5.00
   0 -12   3   26.90    5.70
  -1  12  -3   51.09    5.50
  -1  12  -3   52.29    6.00
   1 -12   3   48.40    3.90
   1 -12   3   49.99    4.90
   1 -12   3   46.80    5.30
  -2  12  -3    4.00    4.50
  -2  12  -3    2.30    4.40
   2 -12   3    7.20    4.60
   2 -12   3    2.90    3.40
  -3  12  -3    2.80    6.60
  -3  12  -3    4.50    4.40
  -3  12  -3    8.30    4.50
   3 -12   3    3.80    2.70
   3 -12   3    6.20    2.60
   3  11  -3    5.90    4.90
   3  11  -3   16.10    4.50
  -3 -11   3   12.40    5.00
   2  11  -3   -1.30    3.80
   2  11  -3  -12.60    7.00
  -2 -11   3    3.10    5.40
  -2 -11   3   -2.60    4.00
  -2 -11   3    1.20    3.70
   1  11  -3   32.00    4.50
   1  11  -3   27.50    4.00
   1  11  -3   38.00    8.00
  -1 -11   3   25.00    3.50
  -1 -11   3   31.20    4.50
  -1 -11   3   33.00    5.20
   0  11  -3   47.50    5.30
   0  11  -3   61.69    5.60
   0  11  -3   50.79    4.60
   0  11  -3   45.40    4.40
   0 -11   3   68.99    6.20
   0 -11   3   56.69    4.40
   0 -11   3   55.19    4.90
  -1  11  -3   17.10    4.20
  -1  11  -3   16.20    4.70
  -1  11  -3   11.00    3.40
   1 -11   3    9.60    3.60
   1 -11   3   11.20    1.90
   1 -11   3   14.20    3.40
  -2  11  -3    3.50    3.20
  -2  11  -3   -0.90    4.30
  -2  11  -3    4.90    3.40
   2 -11   3    4.40    1.10
   2 -11   3    3.70    2.80
   2 -11   3    2.80    2.90
  -3  11  -3   47.10    5.00
  -3  11  -3   44.00    4.60
  -3  11  -3   51.49    4.40
   3 -11   3   57.99    3.60
   3 -11   3   50.09    3.60
  -4  11  -3   38.20    5.00
  -4  11  -3   51.69    5.40
  -4  11  -3   40.00    4.30
  -5  11  -3    0.20    4.30
  -5  11  -3    0.40    3.70
  -5  11  -3    2.60    4.40
   4  10  -3    3.10    4.80
   4  10  -3    4.20    3.40
   4  10  -3   -3.50    4.30
  -4 -10   3    2.30    4.50
   3  10  -3    6.90    4.40
   3  10  -3    6.30    4.90
   3  10  -3    9.90    3.40
   3  10  -3    1.90    3.60
  -3 -10   3    7.40    3.90
   2  10  -3   48.50    4.30
   2  10  -3   57.19    5.30
   2  10  -3   54.99    4.60
   2  10  -3   33.00    6.40
  -2 -10   3   47.40    4.60
  -2 -10   3   49.70    5.00
   1  10  -3   26.00    3.50
   1  10  -3   33.10    4.30
  -1 -10   3   29.30    4.00
  -1 -10   3   28.00    2.90
  -1 -10   3   30.60    3.70
   0  10  -3    0.10    2.80
   0  10  -3    0.80    2.80
   0  10  -3    4.60    3.60
   0 -10   3    0.20    1.90
   0 -10   3   -1.40    2.90
   0 -10   3   -1.00    2.50
  -1  10  -3   21.50    3.50
  -1  10  -3   22.20    3.00
  -1  10  -3   26.70    3.40
   1 -10   3   23.10    3.10
   1 -10   3   24.70    3.00
   1 -10   3   22.50    1.80
  -2  10  -3  114.69    6.60
  -2  10  -3  140.09    6.00
  -2  10  -3  128.69    6.30
   2 -10   3  116.69    5.00
   2 -10   3  112.79    2.80
   2 -10   3  121.09    4.90
  -3  10  -3   35.40    3.80
  -3  10  -3   48.20    4.20
  -3  10  -3   40.70    3.60
   3 -10   3   43.50    2.80
   3 -10   3   50.49    2.80
  -4  10  -3   -3.50    3.00
  -4  10  -3   -3.00    2.60
  -4  10  -3    0.10    3.00
  -5  10  -3   31.00    3.80
  -5  10  -3   31.40    3.30
  -5  10  -3   34.10    4.70
  -6  10  -3   62.99    4.60
  -6  10  -3   69.49    5.40
  -6  10  -3   63.39    5.60
   5   9  -3    2.30    4.10
   5   9  -3    1.70    3.10
   5   9  -3    0.40    5.10
   5   9  -3   -4.50    3.90
  -5  -9   3    6.40    4.00
   4   9  -3    4.50    3.60
   4   9  -3   17.90    4.70
   4   9  -3   14.30    3.10
   4   9  -3    4.10    3.50
  -4  -9   3   12.40    4.30
  -4  -9   3   12.30    3.70
   3   9  -3   56.09    4.90
   3   9  -3   79.69    5.10
  -3  -9   3   87.49    7.50
   2   9  -3   73.79    4.90
   2   9  -3   64.49    4.90
   2   9  -3   80.09    8.50
  -2  -9   3   74.59    5.30
   1   9  -3    7.40    2.30
   1   9  -3   14.70    2.70
  -1  -9   3   15.70    3.10
  -1  -9   3   13.20    2.60
   0   9  -3  111.99    5.20
   0   9  -3  117.29    5.30
   0   9  -3  106.39    5.80
   0  -9   3  106.09    3.80
   0  -9   3  113.09    5.00
   0  -9   3  111.69    5.20
  -1   9  -3  249.48    7.90
  -1   9  -3  241.48    7.80
  -1   9  -3  256.37    7.60
   1  -9   3  243.58    7.10
   1  -9   3  240.58    5.90
   1  -9   3  246.88    7.10
  -2   9  -3   27.80    3.00
  -2   9  -3   21.70    2.70
  -2   9  -3   35.00    3.00
   2  -9   3   31.60    2.40
   2  -9   3   28.90    2.30
  -3   9  -3    8.00    2.40
  -3   9  -3    5.30    2.50
  -3   9  -3    6.10    2.20
   3  -9   3    7.50    1.20
   3  -9   3    8.10    1.30
  -4   9  -3   72.89    5.20
  -4   9  -3   70.09    4.10
  -4   9  -3   69.09    4.60
  -5   9  -3   89.89    4.40
  -5   9  -3   83.49    6.20
  -6   9  -3   22.40    4.00
  -6   9  -3   17.60    1.80
  -6   9  -3   16.30    3.00
  -6   9  -3   19.60    2.60
  -7   9  -3    0.90    2.80
  -7   9  -3   -0.70    3.70
  -7   9  -3    2.90    2.20
  -7   9  -3    2.00    2.40
   6   8  -3    1.70    2.80
   6   8  -3   -5.70    3.80
   6   8  -3    4.80    5.10
  -6  -8   3    5.10    4.20
   5   8  -3   16.40    4.70
   5   8  -3    4.30    4.00
   5   8  -3   17.20    2.90
   5   8  -3   17.10    3.60
  -5  -8   3    1.50    3.30
  -5  -8   3   16.60    4.10
   4   8  -3   78.99    5.50
   4   8  -3   73.69    4.50
   4   8  -3   73.49    5.40
  -4  -8   3   83.79    5.80
   3   8  -3   21.70    2.60
   3   8  -3   17.00    3.10
   3   8  -3   16.60    2.90
   3   8  -3   24.70    3.30
  -3  -8   3   20.70    3.10
  -3  -8   3   19.30    3.20
   2   8  -3   12.60    2.20
   2   8  -3   14.70    2.30
   2   8  -3   20.50    2.80
  -2  -8   3   11.60    2.60
  -2  -8   3   13.20    2.50
   1   8  -3  131.19    5.20
   1   8  -3  134.29    5.20
   1   8  -3  141.29    5.70
  -1  -8   3  139.49    5.30
  -1  -8   3  136.49    5.20
   0   8  -3   42.60    3.50
   0   8  -3   46.10    3.40
   0   8  -3   40.50    3.80
   0  -8   3   47.30    3.20
   0  -8   3   41.90    2.30
   0  -8   3   46.90    3.40
  -1   8  -3   76.99    4.00
  -1   8  -3   75.69    3.80
  -1   8  -3   74.69    4.00
   1  -8   3   78.29    2.30
   1  -8   3   77.69    3.50
   1  -8   3   73.39    3.50
  -2   8  -3   20.00    2.60
  -2   8  -3   15.70    3.30
  -2   8  -3   16.10    2.00
   2  -8   3   17.90    1.80
   2  -8   3   16.20    1.70
  -3   8  -3  255.37    7.20
  -3   8  -3  263.57    7.00
  -3   8  -3  259.57    8.00
  -4   8  -3  152.88    5.10
  -4   8  -3  152.58    6.00
  -4   8  -3  149.69    4.90
  -5   8  -3    8.50    1.80
  -5   8  -3    5.80    2.40
  -5   8  -3   10.00    2.10
  -5   8  -3   10.00    1.30
  -6   8  -3   24.00    2.20
  -6   8  -3   20.30    3.30
  -6   8  -3   24.40    2.10
  -6   8  -3   22.60    2.40
  -7   8  -3   98.39    4.00
  -7   8  -3  110.29    6.70
  -7   8  -3   96.19    4.40
  -7   8  -3  113.59    4.60
  -8   8  -3   21.50    3.10
  -8   8  -3   27.50    3.50
  -8   8  -3   20.60    2.20
  -8   8  -3   20.90    2.70
  -8   8  -3   20.40    4.20
   7   7  -3    3.70    6.70
   7   7  -3    2.70    3.60
  -7  -7   3    7.30    4.30
  -7  -7   3   -0.90    3.40
   6   7  -3    7.90    4.00
   6   7  -3    9.10    3.10
   6   7  -3   12.80    3.40
   6   7  -3    6.30    2.40
  -6  -7   3    7.70    3.50
  -6  -7   3   12.40    3.60
   5   7  -3   77.09    5.10
   5   7  -3   75.99    5.20
   5   7  -3   60.89    5.80
   5   7  -3   74.79    4.10
  -5  -7   3   67.79    5.30
   4   7  -3   20.30    2.80
   4   7  -3   16.80    2.20
   4   7  -3   16.10    3.10
   4   7  -3   21.70    2.90
  -4  -7   3   15.00    2.70
   3   7  -3   13.20    2.70
   3   7  -3   11.80    2.20
   3   7  -3   17.30    2.10
   3   7  -3   16.80    2.40
  -3  -7   3   14.30    2.40
  -3  -7   3   11.40    2.10
   2   7  -3  221.98    6.40
   2   7  -3  221.38    6.80
   2   7  -3  216.28    6.50
  -2  -7   3  211.28    6.60
  -2  -7   3  224.68    6.70
   1   7  -3  234.68    6.70
   1   7  -3  231.38    6.80
   1   7  -3  240.88    6.70
  -1  -7   3  232.28    6.60
  -1  -7   3  237.48    6.70
   0   7  -3   45.00    2.90
   0   7  -3   44.20    3.10
   0   7  -3   46.30    3.00
   0  -7   3   42.30    2.80
   0  -7   3   45.10    2.90
  -1   7  -3  201.28    5.80
  -1   7  -3  190.38    6.00
  -1   7  -3  200.78    5.70
   1  -7   3  208.08    5.50
   1  -7   3  200.98    5.40
   1  -7   3  199.18    4.50
  -2   7  -3  314.67    8.50
  -2   7  -3  313.37    7.90
  -2   7  -3  319.07    8.00
   2  -7   3  317.17    7.40
   2  -7   3  322.67    7.50
  -3   7  -3  160.98    5.50
  -3   7  -3  158.78    4.60
  -3   7  -3  158.28    4.70
  -4   7  -3   -0.90    1.20
  -4   7  -3    1.90    1.70
  -4   7  -3    1.30    1.00
  -4   7  -3   -0.80    1.30
  -5   7  -3   67.39    4.30
  -5   7  -3   60.79    2.70
  -5   7  -3   66.89    2.60
  -5   7  -3   60.89    2.90
  -6   7  -3  151.68    4.30
  -6   7  -3  160.08    6.40
  -6   7  -3  158.68    4.50
  -6   7  -3  161.48    4.80
  -7   7  -3   38.10    3.40
  -7   7  -3   41.00    2.70
  -7   7  -3   33.70    2.40
  -7   7  -3   47.10    4.00
  -7   7  -3   43.60    3.70
  -8   7  -3    2.60    2.40
  -8   7  -3   -0.60    1.50
  -8   7  -3    0.10    1.30
  -8   7  -3    1.70    3.20
  -8   7  -3   -2.30    2.40
   8   6  -3    1.30    3.80
   8   6  -3    0.10    4.80
   8   6  -3   -1.30    3.50
  -8  -6   3    0.60    4.40
  -8  -6   3   -0.70    4.10
   7   6  -3   34.60    4.40
   7   6  -3   36.30    3.50
   7   6  -3   32.50    3.80
  -7  -6   3   38.40    4.20
  -7  -6   3   33.50    4.30
  -7  -6   3   21.20    4.10
   6   6  -3   61.19    5.80
   6   6  -3   66.69    3.70
   6   6  -3   72.69    5.00
   6   6  -3   66.29    4.40
  -6  -6   3   58.79    5.60
  -6  -6   3   71.29    5.70
   5   6  -3    9.30    2.50
   5   6  -3   12.10    2.00
   5   6  -3   12.50    2.90
   5   6  -3   11.30    2.80
  -5  -6   3    5.60    2.20
  -5  -6   3    7.50    2.40
   4   6  -3   27.80    2.60
   4   6  -3   27.40    2.70
   4   6  -3   24.70    2.90
   4   6  -3   24.90    2.60
  -4  -6   3   25.50    2.10
  -4  -6   3   17.50    2.30
  -4  -6   3   16.60    2.20
   3   6  -3  133.19    4.80
   3   6  -3  135.79    4.90
   3   6  -3  139.09    4.50
   3   6  -3  136.59    5.10
  -3  -6   3  136.29    5.00
  -3  -6   3  137.79    4.90
  -3  -6   3  137.09    4.50
   2   6  -3  211.88    5.80
   2   6  -3  209.28    6.10
   2   6  -3  207.88    6.00
  -2  -6   3  205.18    5.80
  -2  -6   3  205.48    6.00
  -2  -6   3  211.28    6.10
   1   6  -3    9.70    1.50
   1   6  -3   12.40    1.60
   1   6  -3   11.40    1.80
  -1  -6   3   11.70    1.70
  -1  -6   3    8.40    1.40
  -1  -6   3    9.00    1.50
   0   6  -3  162.58    4.90
   0   6  -3  172.48    5.00
   0   6  -3  171.18    5.10
   0  -6   3  171.88    4.80
   0  -6   3  173.18    4.80
  -1   6  -3  343.07    8.90
  -1   6  -3  357.46    8.70
  -1   6  -3  369.36    8.60
   1  -6   3  371.66    8.50
  -2   6  -3  262.17    6.50
  -2   6  -3  263.27    6.40
  -2   6  -3  264.37    7.00
   2  -6   3  256.57    6.00
   2  -6   3  261.07    6.00
  -3   6  -3   21.30    1.80
  -3   6  -3   25.20    2.20
  -3   6  -3   22.30    0.80
  -3   6  -3   20.90    1.70
  -4   6  -3  211.18    5.20
  -4   6  -3  215.58    5.30
  -4   6  -3  217.88    5.10
  -4   6  -3  219.88    6.40
  -5   6  -3  197.38    4.90
  -5   6  -3  204.18    4.90
  -5   6  -3  205.28    5.20
  -5   6  -3  213.68    6.50
  -6   6  -3   44.50    2.70
  -6   6  -3   41.90    1.90
  -6   6  -3   48.30    3.90
  -6   6  -3   48.50    3.10
  -6   6  -3   42.00    1.80
  -7   6  -3    3.40    2.30
  -7   6  -3    5.90    0.90
  -7   6  -3    5.60    1.90
  -7   6  -3    5.10    1.80
  -7   6  -3    6.30    0.90
  -8   6  -3   74.29    4.60
  -8   6  -3   75.99    4.60
  -8   6  -3   85.79    5.80
  -9   6  -3   21.40    3.40
  -9   6  -3   21.20    4.00
  -9   6  -3   26.00    3.40
   8   5  -3   44.30    3.90
   8   5  -3   42.10    4.60
   8   5  -3   34.30    4.90
  -8  -5   3   40.90    5.50
  -8  -5   3   42.60    4.60
  -8  -5   3   33.70    4.60
   7   5  -3   50.49    4.00
   7   5  -3   55.69    4.90
   7   5  -3   62.49    5.50
  -7  -5   3   63.29    5.60
  -7  -5   3   54.69    5.10
  -7  -5   3   60.89    5.00
   6   5  -3   13.50    2.20
   6   5  -3   11.90    2.80
   6   5  -3   17.90    2.70
  -6  -5   3   12.60    1.80
  -6  -5   3   13.80    2.80
  -6  -5   3   11.60    2.50
  -6  -5   3   12.20    2.80
   5   5  -3   27.80    2.60
   5   5  -3   26.00    2.40
   5   5  -3   28.10    2.90
   5   5  -3   26.70    2.50
  -5  -5   3   21.80    2.60
  -5  -5   3   27.50    2.50
  -5  -5   3   25.60    2.60
   4   5  -3  178.18    5.70
   4   5  -3  173.88    5.30
   4   5  -3  173.78    5.50
   4   5  -3  174.78    5.00
  -4  -5   3  177.98    5.70
  -4  -5   3  170.38    5.60
  -4  -5   3  169.28    4.90
   3   5  -3  205.08    5.50
   3   5  -3  206.38    5.80
   3   5  -3  199.48    5.90
   3   5  -3  204.88    5.80
  -3  -5   3  202.08    5.90
  -3  -5   3  205.28    5.50
  -3  -5   3  204.88    6.00
   2   5  -3  123.69    4.10
   2   5  -3  119.59    4.00
   2   5  -3  120.79    3.80
  -2  -5   3  125.49    3.90
  -2  -5   3  119.59    4.00
   1   5  -3  191.98    5.30
   1   5  -3  193.28    5.30
   1   5  -3  192.98    5.30
  -1  -5   3  191.68    5.30
  -1  -5   3  199.68    5.20
  -1  -5   3  195.68    5.30
   0   5  -3  440.26   10.50
   0   5  -3  452.05   10.40
   0   5  -3  457.75   10.30
   0  -5   3  449.26   10.20
   0  -5   3  445.36   10.50
   0  -5   3  448.96   10.30
  -1   5  -3   88.09    2.90
  -1   5  -3   86.59    2.80
  -1   5  -3   89.19    3.10
   1  -5   3   90.39    2.70
   1  -5   3   89.39    3.20
   1  -5   3   86.39    2.70
  -2   5  -3    6.80    1.10
  -2   5  -3    7.80    1.00
  -2   5  -3    6.90    1.00
   2  -5   3    7.70    0.70
   2  -5   3    7.10    0.70
  -3   5  -3  608.54   13.00
  -3   5  -3  588.34   12.70
  -3   5  -3  574.24   13.80
  -3   5  -3  634.14   13.00
  -4   5  -3  397.56    9.70
  -4   5  -3  430.16    9.20
  -4   5  -3  421.96   10.20
  -4   5  -3  430.26    9.40
  -5   5  -3   -0.40    0.90
  -5   5  -3   -0.50    0.60
  -5   5  -3    0.20    1.30
  -5   5  -3    0.30    0.60
  -6   5  -3   46.10    3.30
  -6   5  -3   49.60    2.70
  -6   5  -3   45.10    2.90
  -6   5  -3   44.90    1.20
  -7   5  -3  145.99    5.20
  -7   5  -3  139.89    5.50
  -7   5  -3  139.69    5.00
  -8   5  -3   61.99    4.20
  -8   5  -3   62.69    4.80
  -8   5  -3   54.59    1.90
  -8   5  -3   57.39    4.40
  -9   5  -3   -3.50    2.30
  -9   5  -3   -1.80    2.90
  -9   5  -3   -1.00    3.00
  -9   5  -3    4.20    1.40
   9   4  -3   23.50    2.50
   9   4  -3   23.90    2.50
  -9  -4   3   22.80    6.90
  -9  -4   3   27.50    4.70
  -9  -4   3   26.60    4.90
   8   4  -3    3.00    1.90
   8   4  -3    3.80    2.60
   8   4  -3    1.20    2.90
  -8  -4   3    2.90    3.30
  -8  -4   3   -4.50    3.00
  -8  -4   3   -2.90    3.70
   7   4  -3    2.40    2.20
   7   4  -3   -1.50    1.50
   7   4  -3    0.40    2.40
  -7  -4   3   -2.10    2.60
  -7  -4   3   -2.90    2.50
  -7  -4   3    0.90    1.60
  -7  -4   3   -2.50    2.80
   6   4  -3   56.09    4.00
   6   4  -3   64.89    3.10
   6   4  -3   59.39    3.80
  -6  -4   3   66.29    4.50
  -6  -4   3   66.19    4.20
  -6  -4   3   64.69    3.10
  -6  -4   3   59.09    3.90
   5   4  -3  218.78    6.40
   5   4  -3  226.48    6.30
   5   4  -3  217.38    5.90
   5   4  -3  229.38    5.80
  -5  -4   3  222.18    6.50
  -5  -4   3  211.38    6.60
  -5  -4   3  224.18    5.80
  -5  -4   3  212.48    6.60
   4   4  -3   55.59    2.50
   4   4  -3   56.29    2.60
   4   4  -3   55.69    3.10
   4   4  -3   57.79    3.00
  -4  -4   3   55.99    2.80
  -4  -4   3   57.69    2.60
  -4  -4   3   59.69    3.10
  -4  -4   3   52.39    3.00
   3   4  -3    5.50    1.30
   3   4  -3    6.20    1.10
   3   4  -3    5.00    1.20
  -3  -4   3    5.00    1.10
  -3  -4   3    5.70    1.30
  -3  -4   3    5.20    1.30
  -3  -4   3    3.70    1.00
   2   4  -3  194.18    5.10
   2   4  -3  195.08    5.20
   2   4  -3  194.48    5.20
  -2  -4   3  192.88    5.20
  -2  -4   3  194.38    5.20
  -2  -4   3  198.58    5.10
  -2  -4   3  188.68    4.90
   1   4  -3 1352.86   28.70
   1   4  -3 1326.67   28.70
   1   4  -3 1316.57   28.70
  -1  -4   3 1336.27   28.30
  -1  -4   3 1333.97   28.70
  -1  -4   3 1377.26   28.70
  -1  -4   3 1376.76   28.70
   0   4  -3    8.30    1.00
   0   4  -3    9.70    1.00
   0   4  -3   13.00    1.20
   0  -4   3    8.70    1.00
   0  -4   3   11.10    1.00
   0  -4   3   10.80    0.70
   0  -4   3    9.50    1.10
  -1   4  -3  379.16    9.10
  -1   4  -3  387.86    8.80
  -1   4  -3  393.16    8.70
   1  -4   3  387.86    9.10
   1  -4   3  385.66    8.60
   1  -4   3  394.66    8.60
  -2   4  -3  547.65   11.90
  -2   4  -3  536.35   12.40
  -2   4  -3  539.95   11.40
  -2   4  -3  564.14   11.80
   2  -4   3  549.54   11.40
   2  -4   3  543.75   11.40
   2  -4   3  546.15   12.40
  -3   4  -3  499.15   11.50
  -3   4  -3  504.25   10.80
  -4   4  -3    0.00    0.50
  -4   4  -3   -0.70    0.90
  -4   4  -3    0.50    0.80
  -4   4  -3   -0.20    0.50
  -5   4  -3   65.69    3.00
  -5   4  -3   63.99    1.50
  -5   4  -3   63.59    2.90
  -6   4  -3  258.97    7.10
  -6   4  -3  238.68    5.30
  -6   4  -3  244.48    5.30
  -6   4  -3  254.37    6.80
  -6   4  -3  261.07    6.70
  -7   4  -3   72.39    3.60
  -7   4  -3   65.39    2.10
  -7   4  -3   67.49    2.10
  -7   4  -3   76.89    3.70
  -7   4  -3   74.09    3.80
  -8   4  -3   -1.30    1.70
  -8   4  -3    2.10    2.10
  -8   4  -3   -1.40    2.10
  -8   4  -3   -1.30    1.20
  -9   4  -3   31.90    3.20
  -9   4  -3   34.90    3.50
  -9   4  -3   26.30    2.30
  -9   4  -3   30.20    3.50
  -9  -3   3   35.50    5.30
  -9  -3   3   46.80    4.90
  -9  -3   3   39.90    2.30
  -9  -3   3   36.60    4.70
   8   3  -3    2.20    1.30
   8   3  -3    1.20    2.00
   8   3  -3    2.70    1.80
  -8  -3   3    5.50    3.10
  -8  -3   3    4.60    3.00
  -8  -3   3    0.10    1.70
  -8  -3   3    1.40    3.40
   7   3  -3   90.99    3.10
   7   3  -3   88.39    4.10
   7   3  -3   92.39    3.90
  -7  -3   3   92.69    4.90
  -7  -3   3   88.99    3.70
  -7  -3   3   83.19    5.10
  -7  -3   3   91.89    5.00
   6   3  -3  211.78    5.40
   6   3  -3  201.18    6.00
   6   3  -3  217.48    6.00
  -6  -3   3  208.58    6.50
  -6  -3   3  213.68    6.60
  -6  -3   3  223.68    6.70
  -6  -3   3  212.28    5.70
   5   3  -3   44.80    2.90
   5   3  -3   44.70    2.10
   5   3  -3   45.70    2.70
  -5  -3   3   48.40    3.20
  -5  -3   3   47.00    3.00
  -5  -3   3   45.70    2.40
  -5  -3   3   45.80    2.80
   4   3  -3    1.10    1.00
   4   3  -3    0.70    0.70
   4   3  -3   -0.10    0.90
   4   3  -3   -0.10    1.20
  -4  -3   3   -0.10    0.90
  -4  -3   3    0.30    1.00
  -4  -3   3    0.20    1.10
  -4  -3   3    0.10    0.90
   3   3  -3  405.46    9.30
   3   3  -3  412.36    9.50
   3   3  -3  392.46    9.40
  -3  -3   3  402.76    9.50
  -3  -3   3  418.96    9.50
  -3  -3   3  399.46    9.30
  -3  -3   3  403.06    9.40
   2   3  -3  593.84   13.10
   2   3  -3  589.14   13.10
   2   3  -3  575.04   13.00
  -2  -3   3  581.84   13.00
  -2  -3   3  587.64   13.10
  -2  -3   3  582.84   12.90
  -2  -3   3  602.14   13.10
   1   3  -3   10.70    1.10
   1   3  -3    8.80    0.90
   1   3  -3    8.70    0.90
  -1  -3   3   12.10    1.10
  -1  -3   3   12.30    1.10
  -1  -3   3   10.10    0.80
  -1  -3   3   10.50    1.10
   0   3  -3  152.18    4.00
   0   3  -3  152.48    3.90
   0   3  -3  152.78    3.90
   0   3  -3  147.19    3.50
   0  -3   3  155.38    3.80
   0  -3   3  150.28    3.50
   0  -3   3  151.68    4.00
   0  -3   3  155.88    3.90
  -1   3  -3  307.97    6.90
  -1   3  -3  304.17    6.90
  -1   3  -3  299.07    6.50
  -1   3  -3  296.07    7.10
   1  -3   3  312.97    6.80
   1  -3   3  297.17    7.10
   1  -3   3  307.87    6.80
  -2   3  -3  652.23   13.90
  -2   3  -3  645.24   13.90
  -2   3  -3  659.73   14.40
   2  -3   3  660.13   14.40
  -3   3  -3   12.30    0.90
  -3   3  -3   13.10    1.30
  -3   3  -3   10.60    1.10
  -3   3  -3   13.10    0.80
   3  -3   3   13.90    1.30
  -4   3  -3  370.56    8.50
  -4   3  -3  358.26    7.70
  -4   3  -3  354.96    8.90
  -4   3  -3  360.86    7.70
  -5   3  -3  403.36    9.80
  -5   3  -3  380.56    8.50
  -5   3  -3  406.56    9.30
  -6   3  -3    6.80    1.00
  -6   3  -3    7.70    1.50
  -6   3  -3    5.90    0.90
  -6   3  -3   10.00    1.50
  -7   3  -3    6.60    1.70
  -7   3  -3    9.10    1.30
  -7   3  -3    9.00    1.70
  -7   3  -3    8.80    1.30
  -8   3  -3   73.39    4.50
  -8   3  -3   83.29    4.40
  -8   3  -3   72.09    3.30
  -8   3  -3   86.99    3.80
  -8   3  -3   78.49    3.50
  -9   3  -3   39.50    5.30
  -9   3  -3   46.00    4.00
  -9   3  -3   44.10    3.70
  -9   3  -3   42.00    3.70
  -9  -2   3   -2.40    3.90
  -9  -2   3    3.50    2.20
  -9  -2   3    3.70    3.50
  -9  -2   3    2.50    3.40
  -8  -2   3   36.00    3.60
  -8  -2   3   36.00    3.40
  -8  -2   3   35.00    3.60
  -8  -2   3   46.00    4.00
   7   2  -3   50.19    2.60
   7   2  -3   55.39    2.90
  -7  -2   3   53.69    4.40
  -7  -2   3   58.09    4.00
  -7  -2   3   53.29    3.20
  -7  -2   3   63.59    4.20
   6   2  -3   -0.10    1.30
   6   2  -3   -1.50    1.20
   6   2  -3    1.50    0.60
  -6  -2   3    0.90    1.50
  -6  -2   3   -1.40    1.20
  -6  -2   3    0.00    2.10
  -6  -2   3    0.50    1.50
   5   2  -3   91.09    3.20
   5   2  -3   89.59    3.20
   5   2  -3   89.29    2.50
  -5  -2   3   93.99    3.60
  -5  -2   3   92.49    3.60
  -5  -2   3   92.39    3.60
  -5  -2   3   95.69    3.20
   4   2  -3  452.45    9.90
   4   2  -3  457.25   10.40
   4   2  -3  455.95   10.40
  -4  -2   3  447.16   10.50
  -4  -2   3  445.76   10.70
  -4  -2   3  461.55   10.40
  -4  -2   3  462.15   10.60
   3   2  -3  221.18    5.60
   3   2  -3  223.28    5.60
   3   2  -3  223.08    5.50
  -3  -2   3  225.88    5.70
  -3  -2   3  218.78    5.70
  -3  -2   3  226.58    5.60
  -3  -2   3  232.28    5.70
   2   2  -3   -0.40    0.60
   2   2  -3   -1.00    0.50
   2   2  -3   -0.20    0.60
   2   2  -3   -0.30    0.50
  -2  -2   3   -0.30    0.60
  -2  -2   3    0.50    0.60
  -2  -2   3   -0.20    0.50
  -2  -2   3    0.10    0.70
   1   2  -3  226.88    5.20
   1   2  -3  225.28    5.40
   1   2  -3  225.88    5.40
  -1  -2   3  224.58    5.40
  -1  -2   3  217.98    5.20
  -1  -2   3  217.18    5.30
  -1  -2   3  217.88    5.30
   0   2  -3 1740.43   36.30
   0   2  -3 1727.63   36.10
   0   2  -3 1725.73   36.30
   0   2  -3 1761.22   36.40
   0  -2   3 1751.12   36.20
   0  -2   3 1727.33   36.20
   0  -2   3 1708.33   36.10
   0  -2   3 1708.53   36.40
  -1   2  -3   12.90    1.10
  -1   2  -3   14.30    0.90
  -1   2  -3   13.60    1.00
  -1   2  -3   11.80    0.90
  -1   2  -3   14.00    0.80
   1  -2   3   12.60    0.80
   1  -2   3   12.40    1.10
   1  -2   3   13.10    0.90
  -2   2  -3   79.69    2.20
  -2   2  -3   77.79    2.60
  -2   2  -3   77.29    2.40
  -2   2  -3   82.59    2.20
   2  -2   3   81.79    1.90
   2  -2   3   80.79    1.90
   2  -2   3   83.09    2.50
  -3   2  -3  488.15   11.50
  -3   2  -3  496.65   10.70
  -3   2  -3  504.85   11.10
   3  -2   3  512.55   11.10
  -4   2  -3  815.52   18.40
  -4   2  -3  866.81   19.30
  -4   2  -3  886.41   18.60
  -4   2  -3  897.51   18.30
  -5   2  -3   10.10    1.40
  -5   2  -3   11.60    1.00
  -5   2  -3   12.20    1.20
  -6   2  -3   44.50    2.10
  -6   2  -3   46.70    2.30
  -6   2  -3   47.40    2.80
  -6   2  -3   46.60    2.20
  -7   2  -3  146.69    4.20
  -7   2  -3  135.59    4.30
  -7   2  -3  144.99    4.40
  -7   2  -3  151.28    5.20
  -8   2  -3   49.40    2.50
  -8   2  -3   47.90    3.50
  -8   2  -3   56.29    3.60
  -8   2  -3   52.49    3.80
  -9   2  -3   -0.40    2.20
  -9   2  -3    1.30    2.60
  -9  -1   3   72.19    6.60
  -9  -1   3   78.89    6.50
  -9  -1   3   64.19    4.60
  -9  -1   3   59.79    5.70
  -8  -1   3   86.49    6.40
  -8  -1   3   98.29    5.50
  -8  -1   3   92.19    5.10
  -8  -1   3   92.59    4.40
  -7  -1   3    3.10    2.00
  -7  -1   3    7.20    1.80
  -7  -1   3    6.30    2.10
  -7  -1   3    6.00    2.00
   6   1  -3   39.00    2.00
   6   1  -3   35.90    2.10
  -6  -1   3   44.40    3.10
  -6  -1   3   38.50    3.00
  -6  -1   3   42.60    2.80
  -6  -1   3   38.70    2.60
   5   1  -3  629.74   13.70
   5   1  -3  618.54   13.70
  -5  -1   3  627.94   14.50
  -5  -1   3  628.14   14.10
  -5  -1   3  626.04   14.00
  -5  -1   3  613.74   14.10
   4   1  -3  550.44   11.80
   4   1  -3  535.95   11.80
  -4  -1   3  524.15   12.00
  -4  -1   3  523.45   12.00
  -4  -1   3  525.15   12.00
  -4  -1   3  527.05   12.30
   3   1  -3  119.79    3.30
   3   1  -3  119.59    3.50
   3   1  -3  121.59    3.40
   3   1  -3  116.79    2.70
  -3  -1   3  126.49    3.50
  -3  -1   3  120.59    3.50
  -3  -1   3  116.29    3.50
  -3  -1   3  120.79    3.50
   2   1  -3   12.20    1.00
   2   1  -3   12.30    1.10
   2   1  -3   15.00    1.10
   2   1  -3   12.50    0.70
  -2  -1   3   14.60    1.20
  -2  -1   3   12.70    1.20
  -2  -1   3   11.80    1.10
  -2  -1   3   15.10    1.20
   1   1  -3 2983.00   63.89
   1   1  -3 2988.50   64.39
   1   1  -3 3012.80   63.19
   1   1  -3 3085.39   64.39
   1   1  -3 3076.89   64.09
  -1  -1   3 3043.70   63.19
  -1  -1   3 3012.30   64.09
  -1  -1   3 3073.89   64.39
  -1  -1   3 3063.59   64.19
   0   1  -3   31.40    1.40
   0   1  -3   32.50    1.30
   0   1  -3   30.50    1.40
   0   1  -3   30.00    1.30
   0   1  -3   32.30    1.30
   0  -1   3   30.60    1.30
   0  -1   3   31.10    1.30
   0  -1   3   31.90    1.40
   0  -1   3   33.20    1.30
   0  -1   3   32.50    1.40
  -1   1  -3  367.26    8.10
  -1   1  -3  370.56    8.10
  -1   1  -3  356.26    8.40
  -1   1  -3  362.36    8.20
  -1   1  -3  367.06    8.20
   1  -1   3  364.06    8.40
   1  -1   3  370.96    8.20
   1  -1   3  370.26    8.10
   1  -1   3  365.86    8.00
  -2   1  -3  312.87    7.00
  -2   1  -3  315.77    7.10
  -2   1  -3  309.87    7.10
  -2   1  -3  304.97    7.50
   2  -1   3  317.17    7.60
   2  -1   3  309.87    6.90
   2  -1   3  316.97    7.10
   2  -1   3  319.37    6.90
  -3   1  -3   89.89    3.00
  -3   1  -3   85.79    2.50
  -3   1  -3   89.89    2.50
  -3   1  -3   87.59    2.50
   3  -1   3   87.29    2.50
   3  -1   3   89.39    3.00
   3  -1   3   89.69    2.10
   3  -1   3   86.79    2.10
  -4   1  -3   45.90    1.80
  -4   1  -3   46.20    1.90
  -4   1  -3   45.50    2.30
  -4   1  -3   44.40    1.70
   4  -1   3   46.90    2.30
  -5   1  -3   84.89    3.40
  -5   1  -3   82.69    2.90
  -5   1  -3   85.59    2.50
   5  -1   3   87.29    3.40
  -6   1  -3  208.78    6.20
  -6   1  -3  205.18    5.50
  -6   1  -3  187.58    5.10
   6  -1   3  215.78    6.20
  -7   1  -3   41.50    3.30
  -7   1  -3   44.30    3.20
  -8   1  -3    1.20    2.30
  -8   1  -3    6.00    2.20
  -9   1  -3   31.60    3.40
  -9   1  -3   30.50    3.60
  -9   0   3   31.20    3.90
  -9   0   3   28.50    3.90
  -9   0   3   28.60    3.40
  -9   0   3   31.20    3.30
  -8   0   3    2.90    2.10
  -8   0   3   -0.30    2.50
  -8   0   3   -0.50    2.10
  -8   0   3    1.80    2.90
  -7   0   3   62.99    3.60
  -7   0   3   60.19    3.80
  -7   0   3   60.19    3.60
  -7   0   3   68.29    4.10
  -6   0   3  174.08    5.20
  -6   0   3  177.78    5.60
  -6   0   3  180.38    5.30
  -6   0   3  171.88    5.20
   5   0  -3    1.00    0.80
   5   0  -3    0.80    0.80
  -5   0   3    0.20    1.10
  -5   0   3   -0.40    1.00
  -5   0   3    1.10    1.00
  -5   0   3    1.40    1.20
   4   0  -3  165.78    4.20
   4   0  -3  168.38    4.20
   4   0  -3  166.38    4.80
  -4   0   3  163.68    4.50
  -4   0   3  169.98    4.90
  -4   0   3  164.98    4.60
  -4   0   3  171.18    4.60
   3   0  -3   20.50    1.30
   3   0  -3   17.70    1.30
   3   0  -3   18.50    1.40
  -3   0   3   20.10    1.40
  -3   0   3   17.60    1.50
  -3   0   3   18.60    1.50
  -3   0   3   16.90    1.50
   2   0  -3 1647.04   34.70
   2   0  -3 1614.14   34.50
   2   0  -3 1672.43   34.90
   2   0  -3 1636.24   34.70
  -2   0   3 1632.24   34.70
  -2   0   3 1663.53   34.80
  -2   0   3 1613.44   34.50
  -2   0   3 1674.23   34.90
  -2   0   3 1696.23   34.80
   1   0  -3    9.00    0.90
   1   0  -3    9.70    0.90
   1   0  -3   11.20    1.00
   1   0  -3    8.40    0.80
  -1   0   3    9.30    1.00
  -1   0   3    8.40    0.90
  -1   0   3    6.00    0.70
  -1   0   3    9.60    1.00
  -1   0   3    7.80    0.70
   0   0  -3   28.70    1.30
   0   0  -3   31.70    1.40
   0   0  -3   28.20    1.40
   0   0   3   31.40    1.40
   0   0   3   31.40    1.30
   0   0   3   31.30    1.40
   0   0   3   30.30    1.40
   0   0   3   31.30    1.40
  -1   0  -3  924.51   20.30
  -1   0  -3  930.51   20.00
  -1   0  -3  954.40   20.00
  -1   0  -3  908.41   20.00
   1   0   3  963.30   20.00
   1   0   3  953.60   19.90
   1   0   3  935.71   19.90
   1   0   3  915.51   20.20
  -2   0  -3  553.04   12.10
  -2   0  -3  555.94   12.60
  -2   0  -3  562.04   12.00
  -2   0  -3  560.44   12.20
   2   0   3  555.44   12.00
   2   0   3  557.64   12.10
   2   0   3  547.55   12.60
  -3   0  -3    4.00    0.90
  -3   0  -3    2.10    0.60
  -3   0  -3    1.50    0.80
  -3   0  -3    2.50    0.70
   3   0   3    1.40    0.70
   3   0   3    1.90    0.70
   3   0   3    2.60    0.60
   3   0   3    1.60    0.70
  -4   0  -3  780.12   17.00
  -4   0  -3  797.92   17.10
  -4   0  -3  788.12   17.70
   4   0   3  776.22   16.50
   4   0   3  773.82   17.70
   4   0   3  793.82   16.60
   4   0   3  774.82   16.60
  -5   0  -3  264.37    7.30
  -5   0  -3  272.27    6.80
  -5   0  -3  270.47    6.70
   5   0   3  271.37    7.40
  -6   0  -3   27.50    2.60
  -6   0  -3   29.60    2.30
   6   0   3   23.60    4.10
  -7   0  -3   11.00    2.30
  -7   0  -3   15.70    2.30
   7   0   3   15.40    2.30
  -8   0  -3   59.39    4.90
  -8   0  -3   61.59    4.50
   8   0   3   42.70    4.40
  -9   0  -3   21.00    3.80
  -9   0  -3   34.10    4.10
  -9   0  -3   23.00    3.80
  -9   1   3   12.10    3.40
  -9   1   3   17.10    3.30
  -9   1   3   14.60    3.50
  -9   1   3    9.60    3.00
  -8   1   3   84.39    7.20
  -8   1   3  113.79    5.60
  -8   1   3  101.69    4.90
  -8   1   3   97.49    4.70
  -7   1   3  236.98    6.90
  -7   1   3  222.88    6.60
  -7   1   3  236.28    7.30
  -7   1   3  228.88    6.60
  -6   1   3   23.40    2.10
  -6   1   3   27.80    2.50
  -6   1   3   26.10    2.10
   5  -1  -3   38.30    1.40
   5  -1  -3   36.20    2.50
  -5   1   3   40.30    2.40
  -5   1   3   40.30    2.70
  -5   1   3   39.30    2.30
   4  -1  -3  975.20   20.30
   4  -1  -3  963.90   20.30
   4  -1  -3  943.01   21.00
  -4   1   3  959.70   20.70
  -4   1   3  954.50   21.20
  -4   1   3  946.51   20.70
   3  -1  -3  781.02   16.70
   3  -1  -3  771.82   16.70
   3  -1  -3  762.82   17.10
  -3   1   3  773.52   16.90
  -3   1   3  766.02   16.40
  -3   1   3  784.12   16.90
  -3   1   3  783.12   17.20
   2  -1  -3  113.59    3.30
   2  -1  -3  108.79    2.90
   2  -1  -3  105.29    3.10
   2  -1  -3  106.79    3.10
  -2   1   3  105.29    3.30
  -2   1   3  107.49    3.10
  -2   1   3  106.19    3.10
  -2   1   3  104.19    2.80
   1  -1  -3    9.80    1.00
   1  -1  -3    8.20    1.00
   1  -1  -3    9.70    1.00
   1  -1  -3    7.70    0.80
  -1   1   3    9.90    1.00
  -1   1   3    8.10    0.80
  -1   1   3    9.50    1.00
  -1   1   3    6.50    0.80
   0  -1  -3 1707.13   34.80
   0  -1  -3 1608.14   34.90
   0  -1  -3 1628.64   34.90
   0  -1  -3 1644.54   34.80
   0   1   3 1703.33   34.80
   0   1   3 1607.04   34.80
   0   1   3 1649.93   35.00
   0   1   3 1659.33   34.90
  -1  -1  -3  460.45   10.40
  -1  -1  -3  460.05   10.30
  -1  -1  -3  456.65   10.60
  -1  -1  -3  454.65   10.30
   1   1   3  457.45   10.20
   1   1   3  461.55   10.30
   1   1   3  437.46   10.50
   1   1   3  467.35   10.10
  -2  -1  -3  254.67    6.20
  -2  -1  -3  256.07    6.30
  -2  -1  -3  260.07    6.60
   2   1   3  253.37    5.90
   2   1   3  254.47    6.20
   2   1   3  259.47    6.60
  -3  -1  -3   66.79    2.70
  -3  -1  -3   64.79    2.60
  -3  -1  -3   63.59    2.80
   3   1   3   64.29    2.00
   3   1   3   67.89    2.40
   3   1   3   67.99    2.50
   3   1   3   65.39    2.70
  -4  -1  -3  138.89    4.20
  -4  -1  -3  132.99    4.20
  -4  -1  -3  134.19    4.50
   4   1   3  130.19    3.10
   4   1   3  134.79    3.80
   4   1   3  133.89    4.50
   4   1   3  130.69    3.90
  -5  -1  -3  123.09    4.50
  -5  -1  -3  122.19    4.20
  -5  -1  -3  116.29    4.30
   5   1   3  121.09    3.60
   5   1   3  121.29    4.50
   5   1   3  125.99    3.70
  -6  -1  -3   37.30    3.00
  -6  -1  -3   44.80    3.70
  -6  -1  -3   41.10    3.20
   6   1   3   43.30    3.20
   6   1   3   42.30    1.90
   6   1   3   40.30    1.90
  -7  -1  -3   85.69    4.90
  -7  -1  -3   90.69    4.80
  -7  -1  -3   85.79    4.60
   7   1   3   87.19    4.70
  -8  -1  -3   31.60    3.60
  -8  -1  -3   31.50    3.80
  -8  -1  -3   35.00    3.90
   8   1   3   28.80    3.50
  -9  -1  -3    1.50    4.20
  -9  -1  -3   -3.30    3.90
  -9  -1  -3    0.00    3.40
  -9   2   3   25.10    3.60
  -9   2   3   30.40    4.10
  -9   2   3   32.10    4.30
  -9   2   3   27.10    3.30
  -8   2   3   58.39    4.90
  -8   2   3   48.50    3.50
  -8   2   3   46.40    3.80
  -7   2   3    0.60    1.80
  -7   2   3    0.70    1.90
  -7   2   3   -1.00    1.60
  -6   2   3    8.70    1.70
  -6   2   3    5.70    1.60
  -6   2   3    9.00    1.50
  -5   2   3  345.07    8.30
  -5   2   3  347.17    7.50
  -5   2   3  349.17    8.90
  -5   2   3  335.67    8.30
   4  -2  -3   99.99    2.90
   4  -2  -3   98.39    2.80
   4  -2  -3  101.69    3.60
  -4   2   3   99.89    3.30
  -4   2   3   98.99    2.70
  -4   2   3  103.19    3.70
  -4   2   3  102.29    3.30
   3  -2  -3   33.30    2.00
   3  -2  -3   36.70    1.80
   3  -2  -3   36.40    1.80
  -3   2   3   36.90    2.20
  -3   2   3   34.40    1.60
  -3   2   3   36.00    1.90
  -3   2   3   37.50    2.00
   2  -2  -3  171.28    4.70
   2  -2  -3  170.58    4.50
   2  -2  -3  177.98    4.50
   2  -2  -3  175.38    4.50
  -2   2   3  172.28    4.50
  -2   2   3  169.68    4.80
  -2   2   3  176.58    4.60
  -2   2   3  173.08    4.60
   1  -2  -3  602.34   13.30
   1  -2  -3  600.74   13.50
   1  -2  -3  617.24   13.50
   1  -2  -3  594.34   13.30
  -1   2   3  615.94   13.40
  -1   2   3  579.64   13.40
  -1   2   3  596.14   13.50
  -1   2   3  600.14   13.30
   0  -2  -3  292.37    7.00
   0  -2  -3  280.57    6.90
   0  -2  -3  281.77    7.00
   0  -2  -3  290.47    7.10
   0   2   3  278.97    7.00
   0   2   3  289.97    7.10
   0   2   3  289.47    6.90
   0   2   3  287.77    7.10
  -1  -2  -3  368.16    9.00
  -1  -2  -3  368.26    8.70
  -1  -2  -3  361.76    8.60
  -1  -2  -3  367.86    8.70
   1   2   3  355.36    8.50
   1   2   3  379.66    8.70
   1   2   3  362.36    8.90
  -2  -2  -3  223.68    6.30
  -2  -2  -3  232.78    5.90
  -2  -2  -3  235.28    6.10
   2   2   3  231.38    5.90
   2   2   3  227.98    6.00
   2   2   3  230.28    6.30
  -3  -2  -3  316.87    7.70
  -3  -2  -3  302.97    8.10
  -3  -2  -3  301.47    7.80
   3   2   3  308.27    7.70
   3   2   3  308.77    7.00
   3   2   3  312.07    7.50
   3   2   3  312.07    8.10
  -4  -2  -3    0.80    1.20
  -4  -2  -3   -0.10    1.40
  -4  -2  -3    1.40    1.50
   4   2   3   -0.20    1.40
   4   2   3   -1.00    1.10
   4   2   3    2.20    1.30
   4   2   3    0.80    0.70
  -5  -2  -3  150.58    5.40
  -5  -2  -3  159.08    5.50
  -5  -2  -3  147.39    5.20
   5   2   3  149.29    4.80
   5   2   3  154.48    4.60
   5   2   3  143.49    5.30
  -6  -2  -3   87.39    4.60
  -6  -2  -3   91.19    4.80
  -6  -2  -3   82.39    4.60
   6   2   3   93.99    4.50
   6   2   3   89.49    3.60
   6   2   3   85.39    3.80
  -7  -2  -3   29.10    3.40
  -7  -2  -3   32.30    3.40
  -7  -2  -3   30.10    3.60
   7   2   3   45.90    4.60
   7   2   3   37.40    2.60
   7   2   3   37.40    2.70
  -8  -2  -3   -0.50    3.50
  -8  -2  -3    0.80    3.60
  -8  -2  -3    4.10    3.00
  -9   3   3   25.00    4.20
  -9   3   3   25.70    3.80
  -9   3   3   25.50    3.30
  -8   3   3    5.50    3.00
  -8   3   3    3.60    2.50
  -8   3   3    6.70    2.30
  -7   3   3  184.68    5.80
  -7   3   3  197.28    6.80
  -7   3   3  180.18    5.90
   6  -3  -3  292.47    8.00
  -6   3   3  275.57    7.50
  -6   3   3  281.37    7.40
  -6   3   3  283.27    6.50
  -6   3   3  295.97    8.30
   5  -3  -3   23.10    2.20
  -5   3   3   20.60    1.90
  -5   3   3   20.90    2.00
  -5   3   3   23.20    2.40
  -5   3   3   19.30    1.50
   4  -3  -3   24.20    1.60
   4  -3  -3   26.80    2.30
   4  -3  -3   27.00    1.70
  -4   3   3   23.60    1.70
  -4   3   3   27.10    2.20
  -4   3   3   25.40    2.10
  -4   3   3   28.70    2.50
   3  -3  -3  484.55   10.80
   3  -3  -3  476.35   11.30
   3  -3  -3  479.85   10.80
  -3   3   3  488.05   11.10
  -3   3   3  479.65   11.10
  -3   3   3  473.95   11.40
  -3   3   3  486.85   11.00
   2  -3  -3  448.36   10.50
   2  -3  -3  440.16   10.20
   2  -3  -3  450.25   10.30
  -2   3   3  443.86   10.40
  -2   3   3  450.75   10.60
  -2   3   3  441.06   10.40
  -2   3   3  454.15   10.40
   1  -3  -3   28.10    2.00
   1  -3  -3   29.30    1.90
   1  -3  -3   26.60    2.00
   1  -3  -3   28.80    2.10
  -1   3   3   25.30    2.10
  -1   3   3   28.80    1.90
  -1   3   3   27.90    2.00
  -1   3   3   27.30    1.90
   0  -3  -3   97.09    3.40
   0  -3  -3   93.69    3.40
   0  -3  -3   94.89    3.30
   0   3   3   94.29    3.20
   0   3   3   93.69    3.30
   0   3   3   96.29    3.50
  -1  -3  -3  306.07    8.00
  -1  -3  -3  322.77    8.00
  -1  -3  -3  321.37    8.10
  -1  -3  -3  322.57    8.30
   1   3   3  323.47    7.90
   1   3   3  328.47    8.30
   1   3   3  332.47    8.10
  -2  -3  -3  555.84   13.40
  -2  -3  -3  575.84   13.00
  -2  -3  -3  561.44   13.10
   2   3   3  562.14   12.90
   2   3   3  556.44   13.40
   2   3   3  569.64   13.10
  -3  -3  -3   12.00    1.80
  -3  -3  -3    6.90    1.60
  -3  -3  -3    9.40    1.70
   3   3   3    8.20    1.60
   3   3   3    6.90    1.80
   3   3   3    5.80    1.50
  -4  -3  -3  119.69    4.70
  -4  -3  -3  116.49    4.80
  -4  -3  -3  109.29    4.70
   4   3   3  113.29    4.70
   4   3   3  119.99    4.30
   4   3   3  115.99    3.30
   4   3   3  119.79    4.60
  -5  -3  -3  114.29    5.10
  -5  -3  -3  113.09    5.00
  -5  -3  -3  117.79    5.10
   5   3   3  118.39    4.50
   5   3   3  107.09    5.10
   5   3   3  112.99    4.90
  -6  -3  -3   27.00    3.00
  -6  -3  -3   29.90    3.40
  -6  -3  -3   28.40    3.30
   6   3   3   29.70    2.70
   6   3   3   32.50    3.00
   6   3   3   29.20    3.40
  -7  -3  -3    4.20    2.60
  -7  -3  -3   11.80    3.70
  -7  -3  -3    9.00    3.40
   7   3   3    6.10    2.40
   7   3   3    5.50    2.60
  -8  -3  -3   19.10    5.30
  -8  -3  -3   12.70    6.20
  -8  -3  -3   22.30    5.10
   8   3   3   15.70    2.20
   8   3   3   24.50    4.30
   8   3   3   17.50    2.10
  -9   4   3    4.10    3.10
  -9   4   3    3.40    3.60
  -9   4   3    4.50    3.70
  -8   4   3   38.60    3.30
  -8   4   3   35.30    3.50
  -7   4   3   35.80    3.30
  -7   4   3   40.40    3.60
  -7   4   3   36.50    2.00
   6  -4  -3   73.39    4.20
  -6   4   3   73.29    3.70
  -6   4   3   74.19    2.90
  -6   4   3   72.69    4.00
  -6   4   3   73.79    4.40
   5  -4  -3    3.80    1.60
  -5   4   3    8.10    1.40
  -5   4   3    6.30    1.60
  -5   4   3    6.50    1.80
  -5   4   3    4.90    1.90
   4  -4  -3  362.76    9.10
   4  -4  -3  355.06    8.20
   4  -4  -3  350.46    8.20
  -4   4   3  363.36    8.80
  -4   4   3  355.96    9.20
  -4   4   3  353.96    8.70
  -4   4   3  352.36    8.90
   3  -4  -3  291.97    7.10
   3  -4  -3  290.87    7.60
   3  -4  -3  283.57    7.10
  -3   4   3  287.37    7.50
  -3   4   3  293.67    7.70
  -3   4   3  294.47    7.50
  -3   4   3  287.17    7.40
   2  -4  -3    7.70    1.50
   2  -4  -3   10.00    1.50
   2  -4  -3   10.00    1.50
  -2   4   3   11.40    1.70
  -2   4   3   11.00    1.50
  -2   4   3   10.20    1.50
  -2   4   3    6.80    1.30
   1  -4  -3   81.99    3.40
   1  -4  -3   82.29    3.40
   1  -4  -3   79.39    3.30
  -1   4   3   76.69    3.20
  -1   4   3   84.49    3.50
  -1   4   3   76.79    3.20
  -1   4   3   75.09    3.10
   0  -4  -3  366.56    9.10
   0  -4  -3  378.46    9.00
   0  -4  -3  360.86    9.10
   0  -4  -3  360.76    9.30
   0   4   3  365.96    9.30
   0   4   3  347.37    8.90
   0   4   3  368.16    9.10
  -1  -4  -3  136.99    4.70
  -1  -4  -3  136.99    4.60
  -1  -4  -3  135.79    4.80
  -1  -4  -3  141.29    4.80
   1   4   3  139.99    4.80
   1   4   3  136.49    4.70
  -2  -4  -3   54.99    4.70
  -2  -4  -3   72.29    3.70
  -2  -4  -3   71.19    3.50
   2   4   3   69.09    4.40
   2   4   3   75.39    3.50
   2   4   3   69.59    3.40
  -3  -4  -3   75.99    3.90
  -3  -4  -3   76.69    4.00
  -3  -4  -3   80.39    4.00
   3   4   3   75.09    3.80
   3   4   3   73.09    4.20
   3   4   3   75.39    3.80
  -4  -4  -3   76.39    4.20
  -4  -4  -3   70.99    4.40
  -4  -4  -3   72.59    4.30
   4   4   3   67.59    4.10
   4   4   3   73.19    4.00
   4   4   3   67.99    4.70
   4   4   3   72.59    2.90
  -5  -4  -3   14.20    3.00
  -5  -4  -3    8.50    3.00
  -5  -4  -3   13.40    2.50
   5   4   3   13.00    1.10
   5   4   3   10.30    1.00
   5   4   3   13.00    2.90
   5   4   3   13.00    2.70
   5   4   3   11.00    2.40
  -6  -4  -3   21.10    3.60
  -6  -4  -3   13.80    3.10
  -6  -4  -3   11.90    3.50
   6   4   3   19.60    3.00
   6   4   3   17.80    3.40
  -7  -4  -3   31.80    5.00
  -7  -4  -3   36.10    4.70
  -7  -4  -3   33.30    4.70
   7   4   3   38.80    3.70
   7   4   3   41.00    4.60
  -8   5   3   37.80    2.40
  -8   5   3   36.40    3.50
  -8   5   3   34.90    2.60
  -8   5   3   33.70    3.90
  -8   5   3   40.30    4.30
  -7   5   3    0.90    2.60
  -7   5   3   -0.80    2.60
  -7   5   3   -0.50    2.30
  -7   5   3   -1.40    1.50
   6  -5  -3  162.28    6.10
  -6   5   3  169.88    6.40
  -6   5   3  164.38    5.30
  -6   5   3  166.88    6.00
  -6   5   3  168.98    5.70
   5  -5  -3   98.49    4.50
  -5   5   3  107.29    4.40
  -5   5   3  105.49    4.90
  -5   5   3  102.49    4.00
   4  -5  -3   90.49    4.00
   4  -5  -3   86.69    3.20
   4  -5  -3   88.09    3.20
  -4   5   3   88.79    3.80
  -4   5   3   90.49    3.90
  -4   5   3   90.39    4.20
  -4   5   3   80.79    5.20
   3  -5  -3    6.40    1.60
   3  -5  -3    8.00    1.60
   3  -5  -3    5.80    1.70
  -3   5   3    7.20    1.70
  -3   5   3    5.60    1.70
  -3   5   3    3.90    1.50
  -3   5   3    4.50    2.90
   2  -5  -3  180.48    5.50
   2  -5  -3  176.68    5.30
   2  -5  -3  180.28    5.30
  -2   5   3  179.38    5.50
  -2   5   3  156.98    6.30
  -2   5   3  174.48    5.40
  -2   5   3  164.98    5.50
   1  -5  -3  245.08    6.90
   1  -5  -3  256.37    7.10
   1  -5  -3  260.67    7.00
  -1   5   3  251.97    7.00
  -1   5   3  251.37    7.30
  -1   5   3  252.87    7.20
   0  -5  -3   37.60    4.50
   0  -5  -3   39.60    3.20
   0  -5  -3   45.70    3.10
   0   5   3   34.70    2.80
   0   5   3   42.60    2.80
   0   5   3   42.00    3.40
  -1  -5  -3   12.90    2.00
  -1  -5  -3   12.10    2.00
  -1  -5  -3    8.70    1.80
  -1  -5  -3   11.70    1.90
   1   5   3   11.90    2.20
   1   5   3   15.60    2.10
   1   5   3   14.30    2.00
  -2  -5  -3  164.68    5.80
  -2  -5  -3  157.68    5.70
  -2  -5  -3  155.88    5.70
  -2  -5  -3  165.68    5.90
   2   5   3  166.58    5.60
   2   5   3  157.38    5.70
   2   5   3  160.48    6.10
  -3  -5  -3  171.98    6.40
  -3  -5  -3  164.98    6.30
  -3  -5  -3  169.98    6.30
   3   5   3  165.38    5.90
   3   5   3  163.78    6.60
   3   5   3  175.98    6.40
  -4  -5  -3    2.70    2.60
  -4  -5  -3    1.50    2.00
  -4  -5  -3    1.30    2.50
   4   5   3    1.40    2.30
   4   5   3   -1.10    2.30
   4   5   3   -1.40    2.90
   4   5   3    0.90    1.40
  -5  -5  -3   34.40    4.10
  -5  -5  -3   32.90    3.90
  -5  -5  -3   28.40    4.10
   5   5   3   35.70    2.60
   5   5   3   32.90    3.50
   5   5   3   31.00    2.40
   5   5   3   28.90    4.10
  -6  -5  -3   40.50    4.30
  -6  -5  -3   38.80    5.00
  -6  -5  -3   30.80    4.30
   6   5   3   35.00    4.70
   6   5   3   43.40    4.00
   6   5   3   37.50    4.80
  -7  -5  -3   20.00    4.60
  -7  -5  -3   10.40    4.90
   7   5   3    8.80    4.10
   7   5   3   10.00    5.10
   7   5   3    9.90    4.80
  -8   6   3   -3.90    3.90
  -8   6   3   -1.30    3.40
  -8   6   3   -1.00    2.00
  -8   6   3   -1.20    3.10
  -7   6   3   36.60    3.80
  -7   6   3   47.30    3.70
  -7   6   3   45.10    4.10
  -7   6   3   47.20    4.40
   6  -6  -3   62.89    4.80
  -6   6   3   62.39    4.10
  -6   6   3   66.09    5.10
  -6   6   3   64.19    4.90
  -6   6   3   55.89    4.40
   5  -6  -3   59.29    4.30
  -5   6   3   63.69    3.90
  -5   6   3   61.99    4.10
  -5   6   3   64.29    4.70
  -5   6   3   64.29    4.50
   4  -6  -3    2.10    2.10
   4  -6  -3    5.80    1.70
   4  -6  -3    4.10    1.70
  -4   6   3    3.40    2.10
  -4   6   3    3.90    2.30
  -4   6   3    6.30    2.10
   3  -6  -3  145.39    5.30
   3  -6  -3  142.59    4.90
   3  -6  -3  141.89    4.90
  -3   6   3  144.59    5.20
  -3   6   3  147.09    5.30
  -3   6   3  139.99    5.60
  -3   6   3  134.79    5.30
   2  -6  -3  176.48    6.00
   2  -6  -3  185.88    5.90
   2  -6  -3  178.98    5.80
  -2   6   3  189.28    6.00
  -2   6   3  171.68    6.10
  -2   6   3  183.38    6.40
  -2   6   3  182.88    6.00
   1  -6  -3   14.30    2.30
   1  -6  -3   14.80    2.30
   1  -6  -3   14.40    2.30
  -1   6   3    9.50    2.00
  -1   6   3   11.50    2.50
  -1   6   3   10.50    1.80
   0  -6  -3   46.80    3.80
   0  -6  -3   44.30    3.70
   0  -6  -3   33.70    2.90
   0   6   3   36.10    3.30
   0   6   3   33.00    3.10
  -1  -6  -3  102.89    5.10
  -1  -6  -3  107.69    5.10
  -1  -6  -3  101.39    5.00
   1   6   3  102.79    4.80
   1   6   3   96.39    4.70
   1   6   3   97.99    5.30
  -2  -6  -3   71.69    4.80
  -2  -6  -3   65.59    4.60
  -2  -6  -3   68.09    4.90
   2   6   3   70.59    4.60
   2   6   3   75.79    5.40
  -3  -6  -3   -3.70    2.90
  -3  -6  -3   -0.10    2.70
   3   6   3    0.40    2.40
   3   6   3    1.30    3.30
   4   6   3   26.00    2.50
   4   6   3   33.30    3.70
   4   6   3   35.80    4.00
  -5  -6  -3   21.70    4.50
  -5  -6  -3   24.10    4.10
   5   6   3   39.30    3.60
   5   6   3   28.40    2.30
   5   6   3   31.10    4.50
   5   6   3   28.90    4.10
  -6  -6  -3    1.70    4.90
   6   6   3    5.90    4.10
   7  -7  -3   36.00    4.20
  -7   7   3   28.10    4.50
  -7   7   3   27.30    3.60
  -7   7   3   28.20    3.90
  -7   7   3   29.50    4.30
   6  -7  -3    6.80    3.10
  -6   7   3    7.10    2.90
  -6   7   3    5.90    2.80
  -6   7   3   10.30    3.10
  -6   7   3    6.20    3.50
   5  -7  -3   24.50    3.20
  -5   7   3   25.40    3.20
  -5   7   3   24.60    3.60
  -5   7   3   28.60    3.30
  -5   7   3   25.70    3.30
   4  -7  -3   93.09    4.30
   4  -7  -3   96.09    4.20
   4  -7  -3   90.49    5.20
  -4   7   3   95.39    5.10
  -4   7   3   93.49    5.10
  -4   7   3   99.99    5.10
  -4   7   3   86.09    6.00
   3  -7  -3   85.69    4.50
   3  -7  -3   91.59    4.80
   3  -7  -3   87.89    5.00
  -3   7   3   85.49    5.70
  -3   7   3   84.89    4.90
  -3   7   3   93.09    4.90
  -3   7   3   89.09    4.70
   2  -7  -3   -0.70    2.20
   2  -7  -3   -5.50    2.10
   2  -7  -3   -0.20    2.20
  -2   7   3    1.40    2.90
  -2   7   3   -1.90    1.90
  -2   7   3   -1.80    1.80
   1  -7  -3   64.79    4.60
   1  -7  -3   64.09    4.70
   1  -7  -3   67.29    4.70
  -1   7   3   56.09    4.40
  -1   7   3   62.29    5.40
   0  -7  -3   61.59    4.70
   0  -7  -3   67.59    5.20
   0  -7  -3   68.19    4.90
   0   7   3   64.69    4.60
   0   7   3   71.19    4.80
  -1  -7  -3   35.10    3.50
  -1  -7  -3   31.90    3.70
  -1  -7  -3   39.00    3.60
   1   7   3   43.20    3.70
  -2  -7  -3    1.20    2.70
  -2  -7  -3    1.60    4.00
  -2  -7  -3    3.70    3.40
   2   7   3    0.70    2.70
   2   7   3    3.60    5.40
  -3  -7  -3   38.40    4.50
  -3  -7  -3   24.60    4.20
  -3  -7  -3   37.50    4.40
   3   7   3   32.60    3.90
   3   7   3   36.80    5.20
   3   7   3   33.50    3.90
  -4  -7  -3   25.30    5.00
  -4  -7  -3   23.30    5.40
  -4  -7  -3   25.30    4.50
   4   7   3   25.60    5.50
   4   7   3   37.70    4.70
   4   7   3   31.80    3.20
   4   7   3   45.70    4.60
  -5  -7  -3    2.90    4.70
   5   7   3    5.70    4.40
   5   7   3    1.40    5.80
   5   7   3    4.80    2.90
   5   7   3    4.70    2.60
  -6   8   3   33.40    4.20
  -6   8   3   34.70    4.40
  -6   8   3   37.90    4.30
  -6   8   3   24.20    5.00
   5  -8  -3   35.10    3.90
  -5   8   3   45.90    4.20
  -5   8   3   40.50    4.90
  -5   8   3   45.60    4.50
  -5   8   3   41.80    4.10
   4  -8  -3   27.80    3.60
   4  -8  -3   27.90    3.00
   4  -8  -3   27.20    2.80
  -4   8   3   24.10    3.40
  -4   8   3   22.50    3.50
  -4   8   3   28.70    4.60
  -4   8   3   24.40    3.40
   3  -8  -3   -2.30    2.70
   3  -8  -3    0.20    2.80
   3  -8  -3   -0.40    3.20
  -3   8   3    2.60    3.70
  -3   8   3    0.10    2.80
  -3   8   3    1.30    2.70
   2  -8  -3   33.90    3.70
   2  -8  -3   33.10    3.70
   2  -8  -3   35.10    3.70
  -2   8   3   33.90    4.10
  -2   8   3   39.10    3.90
  -2   8   3   42.40    4.80
   1  -8  -3  107.19    6.50
   1  -8  -3  105.39    6.30
   1  -8  -3  108.99    6.30
  -1   8   3  104.19    7.40
  -1   8   3   91.79    6.00
  -1   8   3  112.09    6.60
   0  -8  -3   22.90    3.70
   0  -8  -3   17.40    3.50
   0   8   3   17.00    3.50
   0   8   3   19.70    3.50
   0   8   3    1.80    3.80
  -1  -8  -3    6.30    3.80
  -1  -8  -3   12.20    3.80
   1   8   3   11.10    3.20
   1   8   3   10.50    4.80
   1   8   3    4.30    3.50
  -2  -8  -3   23.10    4.40
  -2  -8  -3   30.50    4.70
  -2  -8  -3   20.90    4.80
   2   8   3   26.00    4.20
   2   8   3   30.00    5.40
   2   8   3   24.90    4.30
  -3  -8  -3   23.70    5.30
  -3  -8  -3   22.10    4.60
   3   8   3   29.00    8.80
   3   8   3   24.20    4.60
   3   8   3   24.50    3.70
  -4  -8  -3   -4.90    4.90
   4   8   3   -2.90    3.40
   4   8   3    6.00    4.60
   5  -9  -3    0.40    4.50
  -5   9   3   14.10    3.90
  -5   9   3    6.60    4.00
  -5   9   3    8.10    4.30
  -5   9   3    3.70    5.50
   4  -9  -3    6.60    3.40
   4  -9  -3    4.80    3.20
  -4   9   3    0.50    3.80
  -4   9   3    1.10    3.60
  -4   9   3    3.10    5.30
   3  -9  -3   31.00    4.20
   3  -9  -3   41.10    4.10
  -3   9   3   37.50    4.90
  -3   9   3   28.30    5.50
   2  -9  -3   39.00    4.70
   2  -9  -3   38.60    4.50
  -2   9   3   41.30    4.60
  -2   9   3   36.20    5.10
  -2   9   3   46.80    6.10
   1  -9  -3   -9.80    7.10
  -1   9   3    0.90    3.70
  -1   9   3   -1.10    3.70
   0  -9  -3    8.80    4.40
   0  -9  -3    4.20    4.90
   0  -9  -3    0.00    4.30
   0   9   3    4.10    4.00
  -1  -9  -3   15.20    4.70
  -1  -9  -3   18.50    4.80
  -1  -9  -3   26.60    5.70
   1   9   3   19.80    4.70
  -2  -9  -3   18.70    5.50
  -2  -9  -3   11.50    5.10
   2   9   3   13.30    4.10
   2   9   3   15.00    5.00
   1  12  -4   36.90    5.60
   1  12  -4   39.40    5.30
  -1 -12   4   37.40    3.90
  -1 -12   4   37.10    5.40
  -1 -12   4   37.90    6.40
   0  12  -4   17.90    5.00
   0  12  -4   17.30    4.50
   0 -12   4   18.20    4.60
   0 -12   4   -1.90    5.00
   0 -12   4   16.30    2.60
   0 -12   4   16.40    2.10
  -1  12  -4   -1.00    4.30
  -1  12  -4    0.40    3.90
   1 -12   4   -5.70    4.20
   1 -12   4   -1.20    3.70
  -2  12  -4   11.10    4.50
  -2  12  -4   22.90    7.70
  -2  12  -4   15.80    4.60
   2 -12   4   10.00    3.50
   2 -12   4   19.00    6.10
  -3  12  -4   22.80    5.90
  -3  12  -4   15.40    4.40
  -3  12  -4   22.30    5.60
   3 -12   4   17.10    2.20
   3 -12   4   18.30    2.30
   3  11  -4   31.30    6.40
   3  11  -4   20.60    4.70
  -3 -11   4   29.20    5.30
   2  11  -4   23.40    5.80
   2  11  -4   21.10    4.20
  -2 -11   4   24.20    5.40
  -2 -11   4   26.90    4.60
   1  11  -4    1.70    4.90
   1  11  -4    1.80    4.30
   1  11  -4    5.40    3.40
   1  11  -4    0.10    3.60
  -1 -11   4    6.60    4.40
  -1 -11   4    0.30    3.60
  -1 -11   4    0.70    2.60
   0  11  -4   11.10    3.50
   0  11  -4    8.10    4.80
   0  11  -4   20.30    4.20
   0 -11   4   18.00    3.70
   0 -11   4   13.00    1.70
   0 -11   4   15.60    4.00
   0 -11   4   17.70    2.20
  -1  11  -4   68.69    5.70
  -1  11  -4  102.49    7.00
   1 -11   4   84.49    6.10
   1 -11   4   88.49    5.60
  -2  11  -4   53.99    5.30
  -2  11  -4   71.19    5.90
  -2  11  -4   75.99    6.30
   2 -11   4   60.29    4.80
   2 -11   4   56.09    4.70
  -3  11  -4   -0.60    3.10
  -3  11  -4    3.30    3.50
  -3  11  -4   -4.00    3.90
   3 -11   4   -1.00    1.60
   3 -11   4   -0.40    1.70
  -4  11  -4   28.30    4.70
  -4  11  -4   32.30    4.00
  -4  11  -4   34.00    4.70
  -5  11  -4   47.40    5.60
  -5  11  -4   50.89    4.40
  -5  11  -4   42.80    4.90
   4  10  -4   27.00    5.40
   4  10  -4   34.20    4.20
   4  10  -4   33.60    4.80
  -4 -10   4   33.80    5.00
   3  10  -4   53.59    5.60
   3  10  -4   46.40    5.70
   3  10  -4   51.39    4.90
   3  10  -4   63.19    5.80
  -3 -10   4   48.20    4.70
  -3 -10   4   40.90    4.80
   2  10  -4    4.10    3.00
   2  10  -4    3.60    3.50
   2  10  -4    4.90    3.20
  -2 -10   4    2.50    6.20
   1  10  -4   12.30    3.10
   1  10  -4   -5.30    3.50
   1  10  -4   12.50    3.10
  -1 -10   4   12.50    3.00
  -1 -10   4   21.20    3.70
   0  10  -4   97.59    5.90
   0  10  -4   95.19    5.50
   0  10  -4   94.69    6.50
   0 -10   4   86.99    3.10
   0 -10   4   90.09    5.70
   0 -10   4   95.69    5.40
   0 -10   4   92.59    3.60
  -1  10  -4  152.78    7.00
  -1  10  -4  155.38    6.40
  -1  10  -4  154.48    7.20
   1 -10   4  145.19    6.20
   1 -10   4  158.68    5.80
  -2  10  -4   10.50    2.70
  -2  10  -4    9.80    3.30
  -2  10  -4   13.20    3.40
   2 -10   4   10.30    2.40
   2 -10   4    8.90    2.30
  -3  10  -4   41.20    3.50
  -3  10  -4   51.49    4.00
  -3  10  -4   36.70    6.00
   3 -10   4   42.20    2.30
   3 -10   4   47.20    2.30
  -4  10  -4   75.79    4.90
  -4  10  -4   79.19    6.10
  -4  10  -4   69.59    5.50
  -5  10  -4   30.00    3.80
  -5  10  -4   28.80    4.40
  -5  10  -4   29.80    3.30
  -6  10  -4    3.50    3.40
  -6  10  -4    0.60    3.80
  -6  10  -4    5.20    2.80
   6   9  -4    7.80    4.70
   6   9  -4    7.60    3.70
   6   9  -4    1.50    4.80
  -6  -9   4    8.30    5.00
  -6  -9   4    1.10    4.00
   5   9  -4   36.00    6.00
   5   9  -4   39.20    4.90
   5   9  -4   46.60    4.10
   5   9  -4   39.80    5.30
  -5  -9   4   41.70    4.00
  -5  -9   4   34.50    4.60
   4   9  -4   23.00    3.90
   4   9  -4   27.80    3.40
   4   9  -4   26.80    5.00
  -4  -9   4   35.00    4.40
  -4  -9   4   24.40    3.90
   3   9  -4   -0.30    3.40
   3   9  -4   -5.80    3.00
   3   9  -4   -1.60    2.50
  -3  -9   4    0.10    2.80
  -3  -9   4   -0.70    3.90
   2   9  -4   65.09    4.80
   2   9  -4   78.99    5.00
  -2  -9   4   69.29    5.30
  -2  -9   4   68.69    5.10
   1   9  -4  141.79    5.70
   1   9  -4  139.19    5.90
  -1  -9   4  129.39    5.70
  -1  -9   4  124.99    5.70
   0   9  -4   19.00    2.80
   0   9  -4   21.00    3.10
   0   9  -4   16.20    2.40
   0  -9   4   18.90    1.60
   0  -9   4   15.70    2.50
   0  -9   4   18.70    1.40
   0  -9   4   18.60    2.60
  -1   9  -4   56.89    4.60
  -1   9  -4   70.19    4.90
  -1   9  -4   68.89    4.20
   1  -9   4   61.89    3.80
   1  -9   4   62.89    3.90
  -2   9  -4   92.39    4.60
  -2   9  -4   90.89    5.00
  -2   9  -4   89.89    5.00
   2  -9   4   93.89    3.80
   2  -9   4   96.89    3.80
  -3   9  -4  145.99    5.70
  -3   9  -4  148.59    6.20
  -3   9  -4  138.89    5.30
  -4   9  -4   33.40    2.80
  -4   9  -4   30.70    3.60
  -4   9  -4   24.30    2.90
  -5   9  -4   21.00    3.50
  -5   9  -4   19.40    2.50
  -5   9  -4   16.60    2.80
  -6   9  -4   81.39    5.00
  -6   9  -4   95.29    4.50
  -6   9  -4   99.99    6.80
  -7   9  -4   44.20    3.40
  -7   9  -4   48.80    3.60
  -7   9  -4   44.60    4.00
  -7   9  -4   47.50    5.10
   6   8  -4   14.40    3.90
   6   8  -4   12.10    5.10
   6   8  -4   11.30    4.00
   6   8  -4   13.00    3.20
  -6  -8   4   18.20    3.50
  -6  -8   4   16.20    4.30
   5   8  -4    2.90    4.50
   5   8  -4   10.20    3.40
   5   8  -4   -0.80    4.00
   5   8  -4    6.70    2.60
  -5  -8   4   10.10    3.80
  -5  -8   4   -0.70    4.20
  -5  -8   4    2.00    2.50
   4   8  -4    0.00    2.10
   4   8  -4    0.20    2.50
   4   8  -4   -1.90    2.70
  -4  -8   4    0.50    2.60
   3   8  -4  121.19    5.50
   3   8  -4  121.79    5.20
   3   8  -4  120.99    6.20
   3   8  -4  126.39    5.80
  -3  -8   4  119.79    5.70
  -3  -8   4  126.79    5.70
   2   8  -4  197.58    6.40
   2   8  -4  187.38    6.50
  -2  -8   4  190.48    6.60
  -2  -8   4  199.68    6.70
   1   8  -4   63.69    3.90
   1   8  -4   65.89    3.80
   1   8  -4   67.99    4.50
  -1  -8   4   63.89    3.90
  -1  -8   4   66.09    2.60
  -1  -8   4   62.29    3.90
   0   8  -4    2.00    1.90
   0   8  -4    2.60    1.80
   0   8  -4    3.60    1.80
   0  -8   4    2.90    0.80
   0  -8   4    1.10    1.60
   0  -8   4    0.50    1.60
  -1   8  -4  234.78    6.80
  -1   8  -4  236.78    6.90
  -1   8  -4  230.98    7.20
   1  -8   4  235.28    6.50
   1  -8   4  237.88    6.40
  -2   8  -4  607.04   14.70
  -2   8  -4  614.34   15.00
  -2   8  -4  622.64   14.30
   2  -8   4  630.04   13.80
   2  -8   4  607.24   13.70
  -3   8  -4   16.80    2.20
  -3   8  -4   19.50    2.00
  -3   8  -4   21.40    2.90
  -4   8  -4   41.30    3.30
  -4   8  -4   42.20    4.10
  -4   8  -4   43.00    3.00
  -5   8  -4  120.19    4.10
  -5   8  -4  119.09    5.80
  -5   8  -4  110.99    4.30
  -5   8  -4  114.19    3.00
  -6   8  -4   49.50    3.20
  -6   8  -4   49.70    4.20
  -6   8  -4   52.99    2.70
  -6   8  -4   46.50    3.40
  -7   8  -4    1.10    1.70
  -7   8  -4   -1.40    1.90
  -7   8  -4   -2.20    3.20
  -7   8  -4    3.20    2.30
  -7   8  -4    1.10    2.00
  -8   8  -4   24.10    2.90
  -8   8  -4   24.30    2.50
  -8   8  -4   19.60    2.10
  -8   8  -4   28.60    4.20
  -8   8  -4   25.60    4.50
   7   7  -4   11.70    7.20
   7   7  -4   12.20    3.40
  -7  -7   4   22.10    4.50
  -7  -7   4   14.90    3.90
   6   7  -4   10.30    2.60
   6   7  -4    4.70    2.70
   6   7  -4    7.40    3.30
  -6  -7   4   10.30    3.60
  -6  -7   4    8.60    3.00
  -6  -7   4    4.60    3.80
   5   7  -4   20.00    3.10
   5   7  -4   18.80    3.80
   5   7  -4   18.70    3.00
   5   7  -4   20.00    2.70
  -5  -7   4   18.20    2.70
  -5  -7   4   16.20    2.50
  -5  -7   4   15.30    3.10
   4   7  -4  108.79    5.90
   4   7  -4  111.59    5.20
   4   7  -4  116.49    4.70
   4   7  -4  110.39    5.30
  -4  -7   4  111.79    4.80
  -4  -7   4  114.19    4.60
  -4  -7   4  117.49    5.40
   3   7  -4  141.39    5.10
   3   7  -4  135.09    5.30
   3   7  -4  143.19    5.70
  -3  -7   4  139.99    4.60
  -3  -7   4  144.89    5.40
  -3  -7   4  141.39    5.20
  -3  -7   4  135.49    5.30
   2   7  -4    8.30    1.80
   2   7  -4    6.20    1.90
   2   7  -4    5.60    1.90
  -2  -7   4    8.20    2.00
  -2  -7   4    7.10    1.80
  -2  -7   4    8.30    1.40
  -2  -7   4   10.10    1.90
   1   7  -4   75.79    3.70
   1   7  -4   78.59    3.90
   1   7  -4   73.89    3.70
  -1  -7   4   79.39    3.70
  -1  -7   4   76.29    3.70
  -1  -7   4   75.39    2.60
  -1  -7   4   75.29    3.70
   0   7  -4  338.17    8.80
   0   7  -4  331.97    8.80
   0   7  -4  331.37    8.60
   0  -7   4  342.17    8.40
   0  -7   4  344.87   10.10
   0  -7   4  337.37    8.50
   0  -7   4  337.37    7.50
  -1   7  -4   63.69    3.40
  -1   7  -4   59.19    3.00
  -1   7  -4   58.79    3.20
   1  -7   4   57.29    2.80
   1  -7   4   58.79    2.80
  -2   7  -4   10.70    1.70
  -2   7  -4    9.90    1.50
  -2   7  -4    7.30    1.50
   2  -7   4   11.00    1.20
   2  -7   4   11.20    1.30
  -3   7  -4  115.59    4.60
  -3   7  -4  111.59    3.80
  -3   7  -4  112.09    3.90
  -4   7  -4  361.46    9.70
  -4   7  -4  352.46    8.40
  -4   7  -4  356.96    8.50
  -5   7  -4   65.79    2.80
  -5   7  -4   66.99    2.40
  -5   7  -4   69.09    4.40
  -5   7  -4   67.59    3.00
  -6   7  -4    5.80    2.60
  -6   7  -4    4.40    1.40
  -6   7  -4    5.20    1.50
  -6   7  -4    3.90    1.40
  -7   7  -4   86.09    5.70
  -7   7  -4   75.29    3.10
  -7   7  -4   90.19    4.80
  -7   7  -4   88.09    4.00
  -7   7  -4   78.99    2.90
  -8   7  -4   61.89    4.80
  -8   7  -4   50.89    2.70
  -8   7  -4   64.09    4.50
  -8   7  -4   51.99    2.70
  -8   7  -4   66.69    5.00
   8   6  -4    8.40    4.80
   8   6  -4    9.20    4.00
  -8  -6   4    8.60    4.50
  -8  -6   4   -0.70    4.20
   7   6  -4   12.10    4.00
   7   6  -4   11.90    3.50
   7   6  -4   16.00    3.50
  -7  -6   4   14.40    3.70
  -7  -6   4   11.10    2.60
  -7  -6   4    8.70    4.40
  -7  -6   4   12.50    3.50
   6   6  -4   13.40    3.40
   6   6  -4   11.50    2.90
   6   6  -4   15.70    2.50
   6   6  -4   12.60    2.40
  -6  -6   4   14.30    2.40
  -6  -6   4   15.10    3.40
  -6  -6   4   12.50    3.40
  -6  -6   4   12.90    2.80
   5   6  -4   50.79    3.80
   5   6  -4   51.69    4.20
   5   6  -4   51.79    4.90
   5   6  -4   47.20    3.50
  -5  -6   4   55.39    3.60
  -5  -6   4   51.99    3.80
  -5  -6   4   48.90    4.40
  -5  -6   4   35.70    3.20
   4   6  -4   64.49    4.30
   4   6  -4   65.69    4.00
   4   6  -4   63.59    3.70
   4   6  -4   67.09    3.50
  -4  -6   4   55.39    4.10
  -4  -6   4   66.69    3.50
  -4  -6   4   62.79    4.00
  -4  -6   4   63.39    3.40
   3   6  -4    1.80    1.30
   3   6  -4    1.10    1.60
   3   6  -4    1.10    1.70
  -3  -6   4    0.30    1.50
  -3  -6   4    0.40    1.60
  -3  -6   4   -1.40    1.10
  -3  -6   4    0.00    1.40
   2   6  -4  171.88    5.30
   2   6  -4  177.68    5.20
   2   6  -4  135.19    7.30
  -2  -6   4  176.98    5.30
  -2  -6   4  173.38    5.30
  -2  -6   4  172.08    4.70
  -2  -6   4  175.48    5.30
   1   6  -4 1134.29   24.90
   1   6  -4 1117.99   24.80
   1   6  -4 1124.19   24.90
  -1  -6   4 1117.19   24.10
  -1  -6   4 1160.68   24.80
  -1  -6   4 1160.68   25.00
  -1  -6   4 1129.19   24.80
   0   6  -4  164.28    4.90
   0   6  -4  172.98    5.00
   0   6  -4  162.78    5.10
   0  -6   4  165.68    4.80
   0  -6   4  165.98    4.80
   0  -6   4  160.98    3.90
   0  -6   4  173.28    5.10
  -1   6  -4    1.10    1.10
  -1   6  -4    1.30    1.30
  -1   6  -4    1.20    1.00
   1  -6   4    0.50    0.90
   1  -6   4   -0.20    0.90
   1  -6   4   -1.00    1.10
  -2   6  -4  408.56    9.60
  -2   6  -4  416.46   10.30
  -2   6  -4  416.16    9.70
   2  -6   4  419.96    9.20
   2  -6   4  415.06    9.20
  -3   6  -4  785.92   17.10
  -3   6  -4  771.82   17.00
  -3   6  -4  794.82   17.90
  -4   6  -4  108.69    4.30
  -4   6  -4  104.59    2.80
  -4   6  -4  105.19    3.30
  -4   6  -4  105.59    3.20
  -5   6  -4    9.40    1.10
  -5   6  -4   10.20    1.20
  -5   6  -4   10.40    2.10
  -5   6  -4    9.90    1.30
  -6   6  -4  137.49    3.90
  -6   6  -4  159.58    5.80
  -6   6  -4  160.78    5.50
  -6   6  -4  153.88    4.60
  -6   6  -4  148.99    3.90
  -7   6  -4   90.89    4.00
  -7   6  -4  100.49    4.80
  -7   6  -4   95.29    5.10
  -7   6  -4   85.89    2.80
  -7   6  -4   83.59    2.80
  -8   6  -4   -0.30    2.10
  -8   6  -4   -1.20    2.30
  -8   6  -4    0.20    1.20
  -8   6  -4    2.30    2.80
  -8   6  -4    2.40    1.20
  -9   6  -4    9.90    1.40
  -9   6  -4   11.90    3.20
  -9   6  -4   11.40    3.00
  -9   6  -4    7.60    3.70
  -9   6  -4   12.00    1.50
   8   5  -4   -0.50    3.70
   8   5  -4    2.20    2.20
   8   5  -4   -3.00    3.10
  -8  -5   4    1.70    4.00
  -8  -5   4    2.40    3.60
  -8  -5   4    0.30    2.30
  -8  -5   4   -3.40    5.00
   7   5  -4   59.99    3.70
   7   5  -4   44.70    4.00
   7   5  -4   53.39    4.90
  -7  -5   4   65.49    5.20
  -7  -5   4   54.59    4.40
  -7  -5   4   58.39    3.90
  -7  -5   4   55.89    5.10
   6   5  -4   47.40    4.20
   6   5  -4   47.70    3.20
   6   5  -4   45.50    3.60
  -6  -5   4   46.10    3.50
  -6  -5   4   50.29    4.50
  -6  -5   4   42.40    3.60
  -6  -5   4   43.20    4.10
   5   5  -4   14.20    1.80
   5   5  -4   12.40    2.10
   5   5  -4   14.00    2.40
   5   5  -4   15.60    2.00
  -5  -5   4   11.40    2.50
  -5  -5   4   14.70    2.50
  -5  -5   4   12.60    2.00
  -5  -5   4   14.90    2.00
   4   5  -4   19.70    2.00
   4   5  -4    9.80    3.70
   4   5  -4   20.60    1.90
   4   5  -4   20.50    2.20
  -4  -5   4   18.00    1.90
  -4  -5   4   21.20    2.00
  -4  -5   4   16.60    2.10
  -4  -5   4   14.20    2.00
   3   5  -4  229.08    6.10
   3   5  -4  227.18    6.40
   3   5  -4  228.28    6.50
  -3  -5   4  223.58    6.00
  -3  -5   4  230.18    6.50
  -3  -5   4  215.38    6.50
  -3  -5   4  223.98    6.10
   2   5  -4  397.16    9.80
   2   5  -4  400.96    9.80
   2   5  -4  405.86    9.70
  -2  -5   4  405.16    9.80
  -2  -5   4  409.96    9.70
  -2  -5   4  406.46    9.80
  -2  -5   4  403.66    9.30
   1   5  -4   53.69    2.60
   1   5  -4   49.40    2.50
   1   5  -4   52.89    2.60
  -1  -5   4   51.29    2.50
  -1  -5   4   53.99    2.50
  -1  -5   4   48.50    2.50
  -1  -5   4   52.29    1.90
   0   5  -4    3.30    1.10
   0   5  -4    2.60    1.00
   0   5  -4    1.80    1.10
   0  -5   4    1.90    1.00
   0  -5   4    1.20    0.60
   0  -5   4    1.00    1.10
   0  -5   4    2.40    1.00
  -1   5  -4  551.54   12.20
  -1   5  -4  538.35   12.10
  -1   5  -4  526.85   12.50
   1  -5   4  539.85   12.00
   1  -5   4  542.65   12.60
   1  -5   4  549.45   12.00
  -2   5  -4  541.45   12.60
  -2   5  -4  537.95   12.00
  -2   5  -4  551.84   12.10
   2  -5   4  539.25   11.60
   2  -5   4  544.75   12.60
  -3   5  -4    0.40    0.80
  -3   5  -4    0.40    1.20
  -3   5  -4    1.30    0.90
  -4   5  -4  188.98    4.70
  -4   5  -4  191.08    4.70
  -4   5  -4  201.18    5.80
  -5   5  -4  300.37    8.30
  -5   5  -4  298.47    7.00
  -5   5  -4  325.17    8.20
  -5   5  -4  313.67    7.00
  -5   5  -4  304.57    7.30
  -6   5  -4   93.79    2.80
  -6   5  -4  106.99    4.30
  -6   5  -4  105.79    4.50
  -6   5  -4   98.09    3.60
  -6   5  -4   94.69    2.80
  -7   5  -4    3.20    1.10
  -7   5  -4   -0.30    1.60
  -7   5  -4   -1.50    1.70
  -7   5  -4    0.70    2.10
  -7   5  -4    1.10    1.00
  -8   5  -4   45.50    4.20
  -8   5  -4   42.50    3.50
  -8   5  -4   43.30    4.00
  -8   5  -4   35.20    3.10
  -8   5  -4   40.50    2.30
  -9   5  -4   50.19    4.90
  -9   5  -4   42.70    3.10
  -9   5  -4   42.60    3.80
  -9   5  -4   39.70    3.20
  -9   5  -4   42.20    3.80
   8   4  -4    2.10    1.40
   8   4  -4    3.10    3.10
   8   4  -4    0.30    2.60
  -8  -4   4   -0.70    3.10
  -8  -4   4    4.80    4.00
  -8  -4   4    5.00    3.30
  -8  -4   4    0.50    2.20
   7   4  -4   53.59    2.90
   7   4  -4   51.39    4.60
   7   4  -4   54.59    4.20
  -7  -4   4   65.69    4.90
  -7  -4   4   41.30    3.70
  -7  -4   4   52.09    3.80
  -7  -4   4   55.39    4.30
   6   4  -4   81.29    3.20
   6   4  -4   80.59    4.20
   6   4  -4   81.29    4.50
  -6  -4   4   84.49    4.40
  -6  -4   4   89.09    3.90
  -6  -4   4   80.99    4.90
  -6  -4   4   84.59    4.70
   5   4  -4    3.60    1.40
   5   4  -4    1.50    1.20
   5   4  -4   -0.10    1.70
   5   4  -4   -1.00    1.50
  -5  -4   4   -0.30    1.40
  -5  -4   4    0.10    1.80
  -5  -4   4    2.40    1.80
  -5  -4   4    2.10    1.50
   4   4  -4  202.78    6.00
   4   4  -4  204.88    5.80
   4   4  -4  208.88    5.60
   4   4  -4  200.58    5.40
  -4  -4   4  206.78    6.00
  -4  -4   4  206.38    5.60
  -4  -4   4  159.78    7.60
  -4  -4   4  212.18    5.80
   3   4  -4  119.29    4.00
   3   4  -4  122.19    4.10
   3   4  -4  124.49    3.90
  -3  -4   4  120.89    4.10
  -3  -4   4  121.69    4.10
  -3  -4   4  120.09    3.90
  -3  -4   4  120.79    3.80
   2   4  -4   96.69    3.30
   2   4  -4   91.99    3.20
   2   4  -4   90.59    3.30
  -2  -4   4   91.49    3.30
  -2  -4   4   96.89    3.30
  -2  -4   4   95.29    3.00
  -2  -4   4   90.39    3.30
   1   4  -4  451.65   10.60
   1   4  -4  471.55   10.70
   1   4  -4  464.35   10.60
  -1  -4   4  460.35   10.60
  -1  -4   4  456.35   10.50
  -1  -4   4  454.55   10.20
  -1  -4   4  455.85   10.60
   0   4  -4 2014.20   43.30
   0   4  -4 2077.19   42.60
   0   4  -4 2070.69   43.20
   0   4  -4 2101.89   43.20
   0  -4   4 2050.79   43.10
   0  -4   4 2048.40   43.10
   0  -4   4 2009.50   42.60
   0  -4   4 2028.60   43.30
  -1   4  -4  569.14   12.40
  -1   4  -4  579.74   13.30
  -1   4  -4  592.44   13.00
  -1   4  -4  586.84   13.00
   1  -4   4  585.84   13.30
   1  -4   4  596.24   12.80
   1  -4   4  606.64   12.80
  -2   4  -4    0.10    0.70
  -2   4  -4   -0.50    0.70
  -2   4  -4   -0.20    0.50
  -2   4  -4   -0.20    0.80
   2  -4   4    0.30    0.50
   2  -4   4   -0.30    0.50
   2  -4   4    0.20    0.90
  -3   4  -4  112.69    3.10
  -3   4  -4  102.59    3.70
  -3   4  -4  116.59    3.10
  -3   4  -4  114.59    3.80
   3  -4   4  113.19    3.70
  -4   4  -4  886.01   19.40
  -4   4  -4  878.91   18.60
  -4   4  -4  864.11   19.80
  -4   4  -4  884.31   18.60
  -5   4  -4  240.58    5.70
  -5   4  -4  246.88    5.70
  -5   4  -4  246.68    7.00
  -5   4  -4  255.07    6.70
  -6   4  -4    4.00    1.00
  -6   4  -4    2.30    1.60
  -6   4  -4    2.60    1.00
  -6   4  -4    2.70    1.60
  -7   4  -4  127.59    5.00
  -7   4  -4  112.39    3.40
  -7   4  -4  112.49    3.40
  -7   4  -4  120.89    4.70
  -8   4  -4   64.59    3.10
  -8   4  -4   63.69    3.20
  -8   4  -4   68.29    4.20
  -8   4  -4   74.09    4.50
  -8   4  -4   71.79    4.60
  -9   4  -4    4.80    2.30
  -9   4  -4    3.10    2.90
  -9   4  -4    1.50    2.90
  -9   4  -4   -2.00    2.50
  -9   4  -4    3.80    2.20
  -9  -3   4    4.70    4.20
  -9  -3   4   11.50    2.80
  -9  -3   4    3.20    4.90
  -9  -3   4    6.20    4.20
   8   3  -4   21.00    2.60
   8   3  -4   23.20    2.40
  -8  -3   4   15.90    3.90
  -8  -3   4   25.60    3.90
  -8  -3   4   26.20    3.70
  -8  -3   4   21.30    2.70
   7   3  -4    3.40    0.80
   7   3  -4    4.00    2.10
   7   3  -4    4.40    1.90
  -7  -3   4    3.10    2.30
  -7  -3   4    2.20    2.60
  -7  -3   4    3.30    2.00
  -7  -3   4    6.00    2.40
   6   3  -4   35.20    1.70
   6   3  -4   32.90    3.00
   6   3  -4   34.40    2.60
  -6  -3   4   35.70    3.00
  -6  -3   4   36.10    3.00
  -6  -3   4   31.30    2.80
  -6  -3   4   33.40    2.90
   5   3  -4  184.78    5.40
   5   3  -4  178.18    5.50
   5   3  -4  182.68    4.60
  -5  -3   4  185.28    5.40
  -5  -3   4  182.18    5.70
  -5  -3   4  188.48    5.80
  -5  -3   4  188.08    5.80
   4   3  -4   28.20    2.30
   4   3  -4   24.30    2.10
   4   3  -4   29.30    2.50
   4   3  -4   25.40    1.60
  -4  -3   4   24.40    2.30
  -4  -3   4   24.30    2.20
  -4  -3   4   22.70    2.00
  -4  -3   4   28.90    2.20
   3   3  -4    9.60    1.20
   3   3  -4    7.60    1.20
   3   3  -4    9.90    1.40
  -3  -3   4   13.60    1.60
  -3  -3   4    7.70    1.30
  -3  -3   4   10.00    1.20
  -3  -3   4    9.60    1.30
   2   3  -4  272.57    6.70
   2   3  -4  274.37    6.70
   2   3  -4  270.17    6.50
   2   3  -4  270.57    6.70
  -2  -3   4  270.37    6.70
  -2  -3   4  267.77    6.70
  -2  -3   4  265.27    6.70
  -2  -3   4  263.47    6.50
   1   3  -4 1060.89   22.50
   1   3  -4 1106.89   22.80
   1   3  -4 1051.29   22.80
   1   3  -4 1054.09   22.80
  -1  -3   4 1055.09   22.80
  -1  -3   4 1056.29   22.50
  -1  -3   4 1015.70   22.80
  -1  -3   4 1068.69   22.70
   0   3  -4  624.94   13.80
   0   3  -4  632.24   13.90
   0   3  -4  626.94   13.80
   0   3  -4  620.54   13.40
   0  -3   4  616.34   13.90
   0  -3   4  623.04   13.50
   0  -3   4  624.84   13.70
   0  -3   4  636.94   13.70
  -1   3  -4   39.70    2.00
  -1   3  -4   39.20    1.70
  -1   3  -4   40.80    1.70
  -1   3  -4   39.00    1.40
   1  -3   4   36.80    1.90
   1  -3   4   40.80    1.60
   1  -3   4   41.60    1.70
  -2   3  -4  412.56    9.20
  -2   3  -4  416.66    9.20
  -2   3  -4  385.36    9.80
  -2   3  -4  419.16    9.10
  -2   3  -4  417.66    9.60
   2  -3   4  412.06    9.60
   2  -3   4  423.86    8.90
   2  -3   4  421.06    8.90
  -3   3  -4  906.71   19.90
  -3   3  -4  920.41   19.50
  -3   3  -4  901.11   20.30
  -3   3  -4  908.21   19.40
   3  -3   4  933.91   19.90
  -4   3  -4   44.50    1.80
  -4   3  -4   44.80    1.80
  -4   3  -4   39.70    2.30
  -4   3  -4   44.30    2.30
   4  -3   4   41.80    2.30
  -5   3  -4   82.09    3.10
  -5   3  -4   83.09    2.60
  -5   3  -4   82.39    3.50
  -5   3  -4   79.29    2.50
  -6   3  -4  152.78    4.70
  -6   3  -4  161.68    5.40
  -6   3  -4  156.28    4.20
  -6   3  -4  152.98    4.10
  -7   3  -4  136.19    4.20
  -7   3  -4  152.88    5.50
  -7   3  -4  132.69    4.20
  -7   3  -4  138.09    4.60
  -8   3  -4    7.70    2.00
  -8   3  -4   11.50    2.10
  -8   3  -4    7.00    1.90
  -8   3  -4    8.70    2.50
  -9   3  -4   20.60    2.90
  -9   3  -4   18.30    3.00
  -9   3  -4   19.40    2.20
  -9   3  -4   16.00    3.30
  -9  -2   4   20.50    3.90
  -9  -2   4   20.90    3.70
  -9  -2   4   26.90    3.50
  -9  -2   4   16.20    4.40
   8   2  -4    2.00    1.30
   8   2  -4    0.60    1.40
  -8  -2   4   -0.30    2.70
  -8  -2   4    0.80    2.60
  -8  -2   4    5.30    3.20
  -8  -2   4    2.30    2.30
   7   2  -4    8.90    1.90
   7   2  -4    9.30    1.70
  -7  -2   4   10.30    2.60
  -7  -2   4    9.90    2.20
  -7  -2   4   11.70    2.40
  -7  -2   4    7.50    2.30
   6   2  -4  187.48    5.20
   6   2  -4  175.28    5.20
  -6  -2   4  190.88    6.10
  -6  -2   4  180.28    5.90
  -6  -2   4  185.08    5.50
  -6  -2   4  179.88    5.80
   5   2  -4  195.78    5.30
   5   2  -4  183.58    5.20
  -5  -2   4  185.98    5.40
  -5  -2   4  187.28    5.60
  -5  -2   4  183.48    5.70
  -5  -2   4  190.98    5.70
   4   2  -4    8.00    1.30
   4   2  -4    7.30    1.30
   4   2  -4    9.20    0.80
  -4  -2   4   11.00    1.50
  -4  -2   4    7.00    1.30
  -4  -2   4    9.50    1.40
  -4  -2   4    7.20    1.30
   3   2  -4   48.70    2.30
   3   2  -4   46.70    2.20
   3   2  -4   50.69    2.30
   3   2  -4   48.80    2.30
  -3  -2   4   49.20    2.30
  -3  -2   4   51.39    2.40
  -3  -2   4   50.99    2.30
  -3  -2   4   48.70    2.30
   2   2  -4  771.92   16.70
   2   2  -4  756.42   16.70
   2   2  -4  754.32   16.70
   2   2  -4  785.02   16.70
  -2  -2   4  738.03   16.70
  -2  -2   4  758.82   16.70
  -2  -2   4  771.52   16.70
  -2  -2   4  754.62   16.70
   1   2  -4  120.89    3.30
   1   2  -4  119.19    3.40
   1   2  -4  122.19    3.40
   1   2  -4  117.79    3.30
   1   2  -4  120.49    3.50
  -1  -2   4  118.99    3.50
  -1  -2   4  121.59    3.30
  -1  -2   4  120.09    3.40
  -1  -2   4  113.29    3.40
   0   2  -4  125.39    3.50
   0   2  -4  124.99    3.30
   0   2  -4  126.39    3.40
   0   2  -4  120.89    3.40
   0   2  -4  115.29    3.40
   0  -2   4  122.89    3.30
   0  -2   4  126.69    3.40
   0  -2   4  121.59    3.40
   0  -2   4  121.89    3.50
  -1   2  -4 1704.83   35.90
  -1   2  -4 1716.73   35.80
  -1   2  -4 1667.43   36.00
  -1   2  -4 1697.93   36.30
  -1   2  -4 1719.43   35.90
   1  -2   4 1698.63   36.00
   1  -2   4 1738.13   35.80
   1  -2   4 1722.53   35.80
  -2   2  -4 1460.35   30.40
  -2   2  -4 1401.26   30.60
  -2   2  -4 1461.05   30.50
  -2   2  -4 1423.26   30.40
   2  -2   4 1461.75   30.20
   2  -2   4 1452.55   30.20
   2  -2   4 1436.16   30.60
  -3   2  -4   46.60    2.00
  -3   2  -4   42.60    2.20
  -3   2  -4   44.90    1.90
  -3   2  -4   45.20    1.90
   3  -2   4   44.90    2.00
   3  -2   4   46.00    1.30
   3  -2   4   45.60    1.20
  -4   2  -4  215.98    5.20
  -4   2  -4  209.98    6.00
  -4   2  -4  214.58    5.40
  -4   2  -4  211.98    5.20
   4  -2   4  219.78    5.40
  -5   2  -4  285.57    7.80
  -5   2  -4  288.07    6.90
  -5   2  -4  291.97    6.80
  -5   2  -4  289.97    6.90
  -6   2  -4  188.68    5.90
  -6   2  -4  174.88    5.00
  -6   2  -4  176.48    4.90
  -6   2  -4  181.78    4.80
  -7   2  -4    1.60    1.80
  -7   2  -4    2.00    1.30
  -7   2  -4   -2.70    1.60
  -7   2  -4    0.90    1.70
  -8   2  -4   37.60    3.00
  -8   2  -4   43.50    3.00
  -8   2  -4   39.00    4.20
  -9   2  -4   36.70    3.80
  -9   2  -4   31.10    3.70
  -9   2  -4   40.50    3.80
  -9  -1   4    2.60    4.10
  -9  -1   4    1.00    3.30
  -9  -1   4   -0.90    3.20
  -9  -1   4    0.10    3.10
  -8  -1   4    6.40    2.40
  -8  -1   4    4.20    2.60
  -8  -1   4    3.90    2.90
  -8  -1   4    5.60    2.60
   7   1  -4   14.90    1.50
   7   1  -4   17.10    1.40
  -7  -1   4   12.00    2.20
  -7  -1   4   12.00    2.30
  -7  -1   4   14.10    2.50
  -7  -1   4   15.20    2.40
   6   1  -4   16.80    1.60
   6   1  -4   15.90    1.60
  -6  -1   4   15.60    2.00
  -6  -1   4   17.70    2.10
  -6  -1   4   19.20    2.20
   5   1  -4   44.00    2.40
   5   1  -4   41.60    2.30
  -5  -1   4   42.10    2.80
  -5  -1   4   41.70    2.70
  -5  -1   4   42.30    2.70
  -5  -1   4   37.40    2.70
   4   1  -4  381.46    8.90
   4   1  -4  379.56    8.90
   4   1  -4  390.16    9.30
  -4  -1   4  388.96    9.20
  -4  -1   4  381.56    9.40
  -4  -1   4  367.56    9.10
  -4  -1   4  376.26    9.10
   3   1  -4  141.69    4.00
   3   1  -4  136.59    3.90
   3   1  -4  140.99    3.90
   3   1  -4  138.09    3.20
  -3  -1   4  137.99    4.10
  -3  -1   4  134.19    4.00
  -3  -1   4  130.29    4.00
  -3  -1   4  137.69    4.00
   2   1  -4  236.68    5.80
   2   1  -4  233.58    5.40
   2   1  -4  232.98    5.80
   2   1  -4  239.18    5.80
  -2  -1   4  232.98    5.80
  -2  -1   4  226.78    5.90
  -2  -1   4  228.98    5.80
  -2  -1   4  227.98    5.90
   1   1  -4    1.40    0.70
   1   1  -4    1.70    0.70
   1   1  -4    1.00    0.50
   1   1  -4    1.00    0.60
   1   1  -4    1.50    0.80
  -1  -1   4    0.60    0.70
  -1  -1   4    1.00    0.70
  -1  -1   4    1.00    0.50
  -1  -1   4    1.00    0.70
  -1  -1   4    2.40    0.70
   0   1  -4 1776.12   37.00
   0   1  -4 1732.13   37.00
   0   1  -4 1763.02   37.00
   0   1  -4 1770.42   37.00
   0   1  -4 1747.53   37.20
   0  -1   4 1744.93   37.10
   0  -1   4 1779.12   37.00
   0  -1   4 1761.82   37.00
   0  -1   4 1773.72   37.00
   0  -1   4 1723.23   37.10
  -1   1  -4  623.84   13.40
  -1   1  -4  604.74   13.40
  -1   1  -4  612.14   13.80
  -1   1  -4  617.34   13.50
  -1   1  -4  615.64   13.50
   1  -1   4  602.44   13.70
   1  -1   4  619.64   13.40
   1  -1   4  602.54   13.50
   1  -1   4  607.84   13.30
  -2   1  -4   27.40    1.60
  -2   1  -4   24.80    1.50
  -2   1  -4   28.80    1.60
  -2   1  -4   22.30    1.60
   2  -1   4   24.30    1.70
   2  -1   4   24.70    1.50
   2  -1   4   28.00    1.40
   2  -1   4   25.70    1.60
  -3   1  -4   69.79    2.50
  -3   1  -4   72.69    2.40
  -3   1  -4   71.49    2.50
  -3   1  -4   68.49    2.80
   3  -1   4   72.99    2.20
   3  -1   4   72.89    2.40
   3  -1   4   68.59    2.90
   3  -1   4   71.29    2.20
  -4   1  -4  494.95   11.00
  -4   1  -4  491.85   11.80
  -4   1  -4  494.65   10.80
  -4   1  -4  498.25   11.10
   4  -1   4  483.65   10.30
   4  -1   4  444.66   10.40
   4  -1   4  509.15   11.90
   4  -1   4  494.25   10.80
  -5   1  -4  299.77    7.40
  -5   1  -4  297.87    7.00
  -5   1  -4  307.27    8.20
  -5   1  -4  296.97    7.40
   5  -1   4  316.37    8.30
  -6   1  -4   35.30    2.90
  -6   1  -4   32.20    2.80
  -6   1  -4   31.70    1.70
  -6   1  -4   35.70    2.90
   6  -1   4   38.80    3.10
  -7   1  -4   88.89    4.30
  -7   1  -4   88.09    4.20
  -7   1  -4   87.79    4.50
   7  -1   4   91.09    4.70
  -8   1  -4   77.39    5.20
  -8   1  -4   86.79    5.00
  -8   1  -4   72.79    4.90
  -9   1  -4   11.10    3.30
  -9   1  -4    7.90    3.70
  -9   1  -4    2.80    3.50
  -9   0   4   33.20    3.90
  -9   0   4   36.70    3.90
  -9   0   4   33.50    4.00
  -9   0   4   28.30    4.20
  -8   0   4   69.49    5.00
  -8   0   4   59.69    5.00
  -8   0   4   76.59    5.20
  -8   0   4   57.29    4.60
  -7   0   4   10.40    2.10
  -7   0   4    8.90    2.00
  -7   0   4   13.30    2.50
  -7   0   4   12.50    2.30
   6   0  -4   21.40    1.90
   6   0  -4   19.70    1.80
  -6   0   4   22.60    2.20
  -6   0   4   23.10    2.30
  -6   0   4   18.30    2.00
  -6   0   4   22.90    2.30
   5   0  -4  191.08    5.70
   5   0  -4  194.48    5.00
   5   0  -4  185.48    5.00
  -5   0   4  197.58    5.90
  -5   0   4  201.48    5.60
  -5   0   4  195.58    5.70
  -5   0   4  193.58    5.50
   4   0  -4  465.85   10.50
   4   0  -4  465.15   10.50
   4   0  -4  463.25   11.00
  -4   0   4  456.75   10.70
  -4   0   4  449.06   10.70
  -4   0   4  466.45   10.90
  -4   0   4  457.55   11.10
   3   0  -4  218.28    5.50
   3   0  -4  223.18    5.80
   3   0  -4  221.48    5.60
   3   0  -4  203.68    5.00
  -3   0   4  220.88    5.80
  -3   0   4  220.08    5.90
  -3   0   4  227.68    5.70
  -3   0   4  219.18    5.70
   2   0  -4   63.49    2.40
   2   0  -4   61.69    2.00
   2   0  -4   63.49    2.50
   2   0  -4   65.99    2.40
  -2   0   4   64.49    2.50
  -2   0   4   64.19    2.50
  -2   0   4   66.69    2.60
  -2   0   4   63.99    2.00
  -2   0   4   64.59    2.40
   1   0  -4  919.71   20.20
   1   0  -4  940.71   20.10
   1   0  -4  927.11   20.20
   1   0  -4  915.51   20.30
  -1   0   4  935.21   20.10
  -1   0   4  923.71   20.30
  -1   0   4  956.10   20.30
  -1   0   4  948.91   20.30
  -1   0   4  951.40   20.20
   0   0  -4  378.56    8.80
   0   0  -4  374.36    8.80
   0   0  -4  386.86    8.70
   0   0  -4  377.06    8.90
   0   0   4  369.96    8.70
   0   0   4  385.16    8.90
   0   0   4  373.16    8.70
   0   0   4  383.26    8.80
   0   0   4  374.06    8.70
  -1   0  -4   53.19    2.10
  -1   0  -4   50.99    2.10
  -1   0  -4   53.29    2.20
  -1   0  -4   46.80    2.10
   1   0   4   50.49    2.10
   1   0   4   50.89    2.20
   1   0   4   51.89    2.00
   1   0   4   50.09    2.10
  -2   0  -4  685.03   14.90
  -2   0  -4  655.93   15.30
  -2   0  -4  685.03   14.80
   2   0   4  666.63   14.70
   2   0   4  666.63   14.70
   2   0   4  692.13   14.70
   2   0   4  654.13   15.30
  -3   0  -4 1119.19   24.20
  -3   0  -4 1111.59   24.80
  -3   0  -4 1137.89   24.10
   3   0   4 1129.39   24.80
   3   0   4 1116.69   23.90
   3   0   4 1126.29   24.00
   3   0   4 1117.99   23.80
  -4   0  -4   17.40    1.60
  -4   0  -4   14.80    1.70
  -4   0  -4   15.60    1.90
   4   0   4   16.40    1.30
   4   0   4   16.80    1.50
   4   0   4   17.40    1.40
   4   0   4   15.10    1.70
  -5   0  -4   69.59    3.50
  -5   0  -4   74.99    3.40
  -5   0  -4   75.19    3.40
   5   0   4   74.79    3.60
   5   0   4   73.59    2.30
   5   0   4   73.09    2.40
  -6   0  -4   46.70    3.30
  -6   0  -4   46.90    3.50
  -6   0  -4   46.00    3.40
   6   0   4   46.60    3.50
  -7   0  -4   90.39    5.00
  -7   0  -4  108.09    5.10
  -7   0  -4  103.69    5.00
   7   0   4  102.49    5.10
  -8   0  -4   12.00    3.20
  -8   0  -4    6.90    2.90
  -8   0  -4    2.00    2.90
   8   0   4    5.60    2.80
  -9   0  -4   14.80    4.10
  -9   0  -4   11.80    4.20
  -9   0  -4    3.30    4.40
  -9   1   4   22.10    4.10
  -9   1   4   20.10    3.80
  -9   1   4   23.30    3.50
  -9   1   4   16.90    3.80
  -8   1   4    7.60    2.60
  -8   1   4    9.30    3.00
  -8   1   4    6.70    2.90
  -8   1   4    7.10    2.90
  -7   1   4    3.70    1.90
  -7   1   4    1.10    1.90
  -7   1   4    0.20    2.00
  -7   1   4    3.70    2.40
   6  -1  -4   12.00    0.90
  -6   1   4    9.60    1.90
  -6   1   4   12.00    1.80
  -6   1   4   13.40    2.00
   5  -1  -4   25.90    1.80
   5  -1  -4   28.10    2.50
   5  -1  -4   24.90    1.80
  -5   1   4   25.90    2.50
  -5   1   4   26.90    2.10
  -5   1   4   27.90    2.40
   4  -1  -4    1.40    1.00
   4  -1  -4    1.10    1.00
   4  -1  -4    0.60    1.10
  -4   1   4    0.60    0.40
  -4   1   4    1.00    1.10
  -4   1   4   -0.20    1.00
  -4   1   4    1.40    1.20
   3  -1  -4  482.75   11.00
   3  -1  -4  469.35   11.30
   3  -1  -4  493.55   11.10
   3  -1  -4  501.65   10.70
  -3   1   4  483.15   11.20
  -3   1   4  490.35   11.50
  -3   1   4  475.65   11.20
  -3   1   4  491.75   10.70
   2  -1  -4   15.90    1.50
   2  -1  -4   11.20    1.20
   2  -1  -4   16.30    1.40
   2  -1  -4   15.50    1.50
  -2   1   4   12.50    1.30
  -2   1   4   14.10    1.20
  -2   1   4   15.20    1.40
  -2   1   4   12.70    1.30
   1  -1  -4   33.10    1.70
   1  -1  -4   30.30    1.90
   1  -1  -4   31.70    1.90
   1  -1  -4   32.50    1.90
  -1   1   4   30.20    1.60
  -1   1   4   34.00    2.00
  -1   1   4   34.70    2.00
  -1   1   4   35.20    1.90
   0  -1  -4   62.49    2.50
   0  -1  -4   65.79    2.50
   0  -1  -4   62.09    2.50
   0  -1  -4   63.39    2.50
   0   1   4   60.59    2.40
   0   1   4   62.09    2.60
   0   1   4   62.49    2.50
   0   1   4   61.89    2.40
   0   1   4   63.89    2.50
  -1  -1  -4  435.06   10.40
  -1  -1  -4  434.96   10.30
  -1  -1  -4  435.66   10.10
  -1  -1  -4  441.86   10.20
   1   1   4  438.76   10.40
   1   1   4  445.66   10.10
   1   1   4  431.46   10.00
   1   1   4  437.86   10.00
  -2  -1  -4  619.44   14.10
  -2  -1  -4  622.94   13.90
  -2  -1  -4  612.54   14.00
  -2  -1  -4  631.94   14.40
   2   1   4  620.64   13.80
   2   1   4  602.24   13.70
   2   1   4  623.14   14.30
   2   1   4  604.84   13.60
  -3  -1  -4    4.30    1.30
  -3  -1  -4    5.90    1.30
  -3  -1  -4    4.30    1.30
   3   1   4    4.70    1.30
   3   1   4    6.10    1.30
   3   1   4    3.50    0.90
   3   1   4    4.30    1.10
  -4  -1  -4   37.40    2.70
  -4  -1  -4   32.80    2.80
  -4  -1  -4   38.60    2.70
   4   1   4   33.80    2.30
   4   1   4   36.50    2.60
   4   1   4   35.20    1.80
  -5  -1  -4  315.37    8.70
  -5  -1  -4  288.37    9.70
  -5  -1  -4  314.87    8.20
   5   1   4  311.57    7.50
   5   1   4  311.27    7.40
   5   1   4  305.47    8.60
   5   1   4  285.07    6.50
  -6  -1  -4  118.69    5.20
  -6  -1  -4  128.79    5.30
  -6  -1  -4  117.69    5.30
   6   1   4  119.99    3.60
   6   1   4  123.09    3.80
   6   1   4  132.79    5.40
  -7  -1  -4    0.00    2.80
  -7  -1  -4    4.30    2.40
  -7  -1  -4    0.70    2.80
   7   1   4    2.20    2.50
  -8  -1  -4   26.00    4.00
  -8  -1  -4   23.60    3.80
  -8  -1  -4   22.00    4.20
  -9   2   4   -1.10    3.00
  -9   2   4   -2.40    3.50
  -9   2   4   -1.10    4.10
  -9   2   4    1.00    3.80
  -8   2   4   45.40    4.40
  -8   2   4   58.19    5.20
  -8   2   4   47.70    4.20
  -8   2   4   51.79    3.90
  -7   2   4   72.59    4.40
  -7   2   4   74.59    4.10
  -7   2   4   79.99    4.80
   6  -2  -4   83.09    4.20
  -6   2   4   84.29    3.90
  -6   2   4   89.09    4.40
  -6   2   4   84.09    4.10
   5  -2  -4    5.30    1.10
   5  -2  -4    6.20    1.60
   5  -2  -4    6.70    1.20
  -5   2   4    5.30    1.50
  -5   2   4    4.20    1.60
  -5   2   4    5.60    0.70
  -5   2   4    5.00    1.70
   4  -2  -4  392.26    9.90
   4  -2  -4  395.46    9.20
   4  -2  -4  401.26    9.20
  -4   2   4  390.76    8.90
  -4   2   4  394.96    9.60
  -4   2   4  392.36   10.00
  -4   2   4  410.96    9.70
   3  -2  -4  410.46    9.50
   3  -2  -4  396.06    9.50
   3  -2  -4  407.06    9.90
  -3   2   4  407.96    9.70
  -3   2   4  402.26   10.00
  -3   2   4  404.56    9.30
  -3   2   4  411.66    9.70
   2  -2  -4  186.48    5.10
   2  -2  -4  186.58    5.00
   2  -2  -4  188.28    5.10
   2  -2  -4  188.68    5.30
  -2   2   4  184.48    5.20
  -2   2   4  186.18    5.00
  -2   2   4  187.68    5.40
  -2   2   4  187.58    5.20
   1  -2  -4   72.29    2.90
   1  -2  -4   68.69    2.70
   1  -2  -4   72.79    2.80
   1  -2  -4   70.19    2.80
  -1   2   4   73.89    2.80
  -1   2   4   70.09    2.70
  -1   2   4   73.89    2.90
  -1   2   4   72.09    2.90
   0  -2  -4  306.47    7.60
   0  -2  -4  289.17    7.70
   0  -2  -4  315.37    7.60
   0  -2  -4  300.27    7.60
   0   2   4  297.07    7.70
   0   2   4  313.57    7.60
   0   2   4  306.27    7.50
   0   2   4  302.07    7.70
  -1  -2  -4  327.87    8.20
  -1  -2  -4  335.47    8.50
  -1  -2  -4  333.97    8.20
  -1  -2  -4  329.47    8.30
   1   2   4  333.77    8.10
   1   2   4  331.87    8.50
   1   2   4  326.97    8.20
  -2  -2  -4    5.00    1.30
  -2  -2  -4    6.90    1.50
  -2  -2  -4    8.50    1.50
  -2  -2  -4   10.10    1.60
   2   2   4   10.50    1.60
   2   2   4    7.80    1.50
   2   2   4    7.60    1.30
  -3  -2  -4   97.79    3.90
  -3  -2  -4  100.69    4.00
  -3  -2  -4   97.39    4.00
   3   2   4   99.39    3.90
   3   2   4  100.59    3.60
   3   2   4  104.69    3.30
  -4  -2  -4  329.57    9.00
  -4  -2  -4  329.97    8.70
  -4  -2  -4  325.77    8.50
   4   2   4  322.57    8.20
   4   2   4  335.87    9.10
   4   2   4  314.27    7.50
   4   2   4  317.37    8.30
  -5  -2  -4   57.89    3.80
  -5  -2  -4   51.29    4.00
  -5  -2  -4   56.29    3.90
   5   2   4   52.39    3.70
   5   2   4   48.70    1.60
   5   2   4   52.29    3.80
   5   2   4   49.80    3.20
  -6  -2  -4    3.80    2.60
  -6  -2  -4    3.10    2.80
  -6  -2  -4    0.20    2.10
   6   2   4    3.20    2.10
   6   2   4    0.40    1.90
   6   2   4    2.40    2.20
  -7  -2  -4   19.80    3.80
  -7  -2  -4   23.70    3.50
  -7  -2  -4   30.90    3.80
   7   2   4   27.60    2.40
   7   2   4   28.80    2.30
  -8  -2  -4   36.70    4.70
  -8  -2  -4   27.80    5.00
  -8  -2  -4   37.00    4.90
   8   2   4   29.70    4.50
  -9   3   4   16.80    4.30
  -9   3   4   12.30    3.50
  -9   3   4    8.30    4.80
  -9   3   4   13.90    4.00
  -8   3   4   42.80    4.00
  -8   3   4   35.40    3.40
  -8   3   4   36.80    3.80
  -7   3   4   19.90    3.00
  -7   3   4   26.60    3.20
  -7   3   4   25.80    2.80
   6  -3  -4   12.50    2.30
  -6   3   4   10.10    2.50
  -6   3   4   17.30    2.60
  -6   3   4   14.30    1.30
  -6   3   4   15.00    2.20
   5  -3  -4   10.60    1.30
   5  -3  -4   10.80    1.30
   5  -3  -4   12.10    2.10
  -5   3   4    9.90    1.20
  -5   3   4    9.80    2.00
  -5   3   4   11.70    2.10
  -5   3   4   10.70    1.90
   4  -3  -4   64.19    2.90
   4  -3  -4   69.59    2.90
   4  -3  -4   68.59    3.40
  -4   3   4   65.19    2.60
  -4   3   4   65.59    3.20
  -4   3   4   70.09    3.60
  -4   3   4   70.59    3.50
   3  -3  -4   40.20    2.60
   3  -3  -4   41.00    2.70
   3  -3  -4   40.70    2.60
  -3   3   4   41.50    2.80
  -3   3   4   40.30    2.20
  -3   3   4   43.70    2.60
  -3   3   4   41.50    2.80
   2  -3  -4  106.29    3.90
   2  -3  -4  106.79    3.70
   2  -3  -4  106.99    3.70
   2  -3  -4  103.19    3.70
  -2   3   4  102.99    3.70
  -2   3   4  106.49    4.00
  -2   3   4  104.89    3.60
  -2   3   4  105.59    3.90
   1  -3  -4  189.58    5.60
   1  -3  -4  202.98    5.80
   1  -3  -4  197.88    5.50
   1  -3  -4  199.18    5.60
  -1   3   4  193.68    5.70
  -1   3   4  199.58    5.50
  -1   3   4  194.88    5.60
  -1   3   4  191.68    5.60
   0  -3  -4   55.49    2.80
   0  -3  -4   56.79    2.90
   0  -3  -4   48.30    2.70
   0  -3  -4   53.09    2.80
   0   3   4   47.50    3.00
   0   3   4   52.29    2.70
   0   3   4   54.39    2.60
  -1  -3  -4    2.30    1.40
  -1  -3  -4    2.10    1.10
  -1  -3  -4    2.70    1.40
  -1  -3  -4    3.20    1.40
   1   3   4    1.20    1.00
   1   3   4    3.70    1.60
   1   3   4    1.20    1.20
  -2  -3  -4  200.78    6.00
  -2  -3  -4  193.08    6.20
  -2  -3  -4  197.28    6.00
  -2  -3  -4  198.38    6.30
   2   3   4  195.68    6.00
   2   3   4  191.48    6.10
  -3  -3  -4  270.77    7.70
  -3  -3  -4  269.87    7.50
  -3  -3  -4  264.97    7.90
   3   3   4  269.37    7.30
   3   3   4  276.37    7.70
   3   3   4  269.27    7.80
   3   3   4  264.97    6.80
  -4  -3  -4   12.20    2.50
  -4  -3  -4   10.00    2.20
  -4  -3  -4   10.50    2.20
   4   3   4    9.30    1.50
   4   3   4   11.30    2.10
   4   3   4   10.00    2.60
   4   3   4   10.80    2.20
  -5  -3  -4   23.60    3.30
  -5  -3  -4   25.90    3.20
  -5  -3  -4   18.90    2.70
   5   3   4   23.40    3.00
   5   3   4   20.20    1.70
   5   3   4   22.00    2.90
   5   3   4   20.70    2.50
  -6  -3  -4   81.29    5.30
  -6  -3  -4   50.59    4.30
  -6  -3  -4   84.89    5.90
   6   3   4   74.39    5.40
   6   3   4   72.59    4.50
  -7  -3  -4   32.20    4.00
  -7  -3  -4   32.40    4.70
  -7  -3  -4   31.40    4.70
   7   3   4   36.70    3.30
   7   3   4   30.10    4.30
   7   3   4   28.70    3.60
  -8   4   4    2.30    3.40
  -8   4   4    8.70    3.00
  -8   4   4    8.10    3.50
  -7   4   4   41.50    2.00
  -7   4   4   45.80    3.50
  -7   4   4   45.20    3.70
  -7   4   4   49.50    4.10
   6  -4  -4   87.59    4.80
  -6   4   4   85.39    3.20
  -6   4   4   83.99    5.00
  -6   4   4   86.29    4.90
  -6   4   4   85.59    4.40
   5  -4  -4  170.88    4.50
   5  -4  -4  167.48    5.90
   5  -4  -4  167.68    4.50
  -5   4   4  172.38    5.80
  -5   4   4  165.98    4.90
  -5   4   4  169.48    5.60
  -5   4   4  168.38    6.20
   4  -4  -4   25.20    2.10
   4  -4  -4   25.80    2.50
   4  -4  -4   25.40    2.50
  -4   4   4   24.00    2.50
  -4   4   4   24.90    2.20
  -4   4   4   20.50    2.30
  -4   4   4   24.80    2.30
   3  -4  -4  179.28    5.30
   3  -4  -4  177.48    5.70
   3  -4  -4  180.78    5.40
  -3   4   4  152.88    6.20
  -3   4   4  175.18    5.30
  -3   4   4  181.58    5.80
  -3   4   4  171.08    5.40
   2  -4  -4  263.77    7.80
   2  -4  -4  269.87    7.20
   2  -4  -4  264.87    7.10
  -2   4   4  270.87    7.20
  -2   4   4  265.47    7.20
  -2   4   4  264.77    7.40
  -2   4   4  258.37    7.90
   1  -4  -4   51.39    2.90
   1  -4  -4   54.49    3.30
   1  -4  -4   48.30    3.20
   1  -4  -4   51.99    3.30
  -1   4   4   48.50    3.00
  -1   4   4   53.59    3.00
  -1   4   4   55.79    3.40
  -1   4   4   49.99    3.10
   0  -4  -4    0.60    1.40
   0  -4  -4    0.70    2.90
   0  -4  -4    1.50    1.70
   0   4   4   -0.50    1.50
   0   4   4    3.30    1.40
  -1  -4  -4  160.48    5.30
  -1  -4  -4  155.88    5.50
  -1  -4  -4  157.58    5.40
  -1  -4  -4  162.78    5.50
   1   4   4  151.78    5.00
   1   4   4  149.29    5.30
   1   4   4  152.68    5.50
  -2  -4  -4  109.49    4.70
  -2  -4  -4  103.59    4.70
  -2  -4  -4   99.49    4.60
  -2  -4  -4  102.39    4.60
   2   4   4  104.79    4.80
   2   4   4  108.59    4.60
   2   4   4  106.29    4.30
  -3  -4  -4   13.60    2.50
  -3  -4  -4   12.50    2.30
  -3  -4  -4   11.20    2.50
   3   4   4   11.20    2.20
   3   4   4   15.30    2.70
   3   4   4   11.60    2.20
  -4  -4  -4   17.60    2.90
  -4  -4  -4   18.40    2.90
  -4  -4  -4   14.20    2.70
   4   4   4   14.20    2.60
   4   4   4   12.40    3.00
   4   4   4    7.70    2.60
   4   4   4   13.60    1.90
  -5  -4  -4   96.19    6.30
  -5  -4  -4  108.49    5.90
  -5  -4  -4  111.49    6.10
   5   4   4   99.39    3.50
   5   4   4   91.79    6.10
   5   4   4   97.09    3.20
   5   4   4  114.09    5.50
  -6  -4  -4   43.50    4.70
  -6  -4  -4   34.80    7.00
  -6  -4  -4   24.70    4.20
   6   4   4   37.10    3.60
   6   4   4   34.60    4.20
   6   4   4   33.90    4.20
  -7  -4  -4    5.80    4.70
  -7  -4  -4   -4.10    3.50
   7   4   4    1.70    3.80
   7   4   4    5.20    4.40
   7   4   4   -4.50    3.60
  -8   5   4    9.50    3.60
  -8   5   4    8.70    4.00
  -8   5   4   14.10    4.10
  -8   5   4   12.70    1.20
   7  -5  -4   45.80    4.20
  -7   5   4   46.80    3.80
  -7   5   4   39.40    4.20
  -7   5   4   38.50    2.90
  -7   5   4   39.00    4.50
   6  -5  -4   27.50    3.60
  -6   5   4   32.50    3.10
  -6   5   4   29.30    2.90
  -6   5   4   28.70    3.50
  -6   5   4   24.00    3.20
   5  -5  -4    2.20    1.40
   5  -5  -4    0.80    2.10
   5  -5  -4   -0.30    1.40
  -5   5   4    2.20    2.50
  -5   5   4   -2.00    2.30
  -5   5   4    1.30    1.50
  -5   5   4   -0.80    2.00
   4  -5  -4   -0.10    1.70
   4  -5  -4    0.50    1.70
   4  -5  -4   -1.90    1.90
  -4   5   4    2.50    1.50
  -4   5   4    1.50    1.90
  -4   5   4    2.80    2.30
  -4   5   4    1.90    2.00
   3  -5  -4  112.69    4.80
   3  -5  -4  104.79    4.40
   3  -5  -4  114.99    4.50
  -3   5   4  109.39    5.00
  -3   5   4  106.19    4.60
  -3   5   4  115.69    4.40
  -3   5   4  113.99    4.80
   2  -5  -4   38.30    2.80
   2  -5  -4   31.60    2.80
   2  -5  -4   34.50    3.20
  -2   5   4   36.70    2.90
  -2   5   4   30.00    3.00
  -2   5   4   30.30    2.50
  -2   5   4   41.20    3.30
   1  -5  -4   17.60    2.30
   1  -5  -4   15.90    2.40
   1  -5  -4   18.30    2.30
  -1   5   4   15.60    2.10
  -1   5   4   17.40    2.40
  -1   5   4   10.80    1.90
   0  -5  -4  107.09    4.70
   0  -5  -4  102.19    4.60
   0  -5  -4   97.29    4.70
   0  -5  -4  105.59    4.80
   0   5   4  100.99    4.30
   0   5   4   96.99    4.50
   0   5   4  104.29    5.00
  -1  -5  -4   78.09    4.20
  -1  -5  -4   74.49    4.40
  -1  -5  -4   70.39    4.40
  -1  -5  -4   77.89    4.50
   1   5   4   72.89    4.70
   1   5   4   77.69    4.00
  -2  -5  -4    0.80    2.30
  -2  -5  -4   -1.20    2.00
  -2  -5  -4   -0.70    1.60
   2   5   4    1.70    2.70
   2   5   4   -2.20    2.10
  -3  -5  -4   42.20    4.10
  -3  -5  -4   52.59    4.70
  -3  -5  -4   44.10    4.00
   3   5   4   45.40    3.80
   3   5   4   41.20    3.80
  -4  -5  -4   67.59    5.80
  -4  -5  -4   67.09    5.20
   4   5   4   68.89    4.00
   4   5   4   66.69    5.10
   4   5   4   59.69    4.80
  -5  -5  -4   16.00    4.20
  -5  -5  -4   10.40    3.20
  -5  -5  -4   11.80    4.10
   5   5   4    9.40    2.10
   5   5   4    8.40    3.30
   5   5   4   10.80    4.30
   5   5   4   13.40    3.70
   5   5   4   11.60    1.90
  -6  -5  -4    0.70    3.90
  -6  -5  -4    8.90    4.70
   6   5   4   -0.50    6.50
   6   5   4   -1.10    4.70
   6   5   4    6.50    3.90
   7  -6  -4    9.80    3.70
  -7   6   4    6.90    3.50
  -7   6   4    5.50    2.30
  -7   6   4    9.40    4.20
  -7   6   4    1.00    3.10
  -6   6   4   21.00    3.40
  -6   6   4   19.60    3.30
  -6   6   4   17.70    2.70
  -6   6   4   18.50    3.70
   5  -6  -4   63.29    3.20
   5  -6  -4   59.99    3.20
   5  -6  -4   64.69    5.10
  -5   6   4   75.79    5.20
  -5   6   4   66.49    5.60
  -5   6   4   68.99    4.90
  -5   6   4   64.79    4.20
   4  -6  -4   48.90    3.80
   4  -6  -4   49.90    3.80
   4  -6  -4   52.69    3.80
  -4   6   4   49.80    3.80
  -4   6   4   55.89    4.40
  -4   6   4   49.10    4.50
  -4   6   4   57.49    4.20
   3  -6  -4    2.00    2.20
   3  -6  -4    0.80    2.20
   3  -6  -4    0.20    2.20
  -3   6   4    0.10    1.80
  -3   6   4   -0.60    2.60
  -3   6   4    1.20    1.90
  -3   6   4    0.80    2.20
   2  -6  -4   42.20    3.30
   2  -6  -4   38.70    3.10
   2  -6  -4   33.60    3.10
  -2   6   4   34.30    3.50
  -2   6   4   35.70    3.50
  -2   6   4   34.80    3.00
   1  -6  -4  134.69    5.60
   1  -6  -4  129.09    5.80
   1  -6  -4  133.39    5.70
  -1   6   4  131.09    5.30
  -1   6   4  124.19    6.00
  -1   6   4  129.59    5.40
   0  -6  -4   42.80    3.60
   0  -6  -4   46.30    4.40
   0  -6  -4   41.50    3.50
   0   6   4   47.90    4.00
   0   6   4   36.10    3.00
  -1  -6  -4   -0.90    2.60
  -1  -6  -4    2.60    2.90
  -1  -6  -4    1.40    2.40
   1   6   4    1.20    1.90
   1   6   4    2.60    2.40
  -2  -6  -4   25.30    4.80
  -2  -6  -4   26.60    3.40
   2   6   4   28.70    3.20
  -3  -6  -4   47.20    4.90
  -3  -6  -4   62.49    5.50
   3   6   4   57.89    5.50
  -4  -6  -4   14.90    3.90
  -4  -6  -4    9.60    4.20
  -4  -6  -4    9.60    4.30
  -4  -6  -4   11.90    3.40
   4   6   4    0.80    3.40
   4   6   4   11.30    4.60
   4   6   4    7.60    3.50
  -5  -6  -4    7.90    4.50
  -5  -6  -4    4.50    3.90
   5   6   4   -1.20    5.10
   5   6   4    2.20    2.30
   5   6   4    5.40    2.60
   5   6   4    2.20    3.90
   6  -7  -4   43.60    4.50
  -6   7   4   52.39    4.50
  -6   7   4   38.90    8.40
  -6   7   4   44.10    4.80
  -6   7   4   42.20    5.10
   5  -7  -4   37.90    3.40
   5  -7  -4   41.10    3.30
  -5   7   4   35.60    3.70
  -5   7   4   46.00    4.20
  -5   7   4   38.80    3.90
  -5   7   4   39.30    4.70
   4  -7  -4    2.10    2.70
   4  -7  -4    2.30    3.00
   4  -7  -4    3.80    2.50
  -4   7   4    5.00    2.50
  -4   7   4   -0.60    3.50
  -4   7   4    0.60    2.70
  -4   7   4    3.60    2.70
   3  -7  -4    5.80    3.00
   3  -7  -4   10.20    2.90
   3  -7  -4    8.60    2.80
  -3   7   4    7.00    3.50
  -3   7   4   10.20    2.90
  -3   7   4    6.30    2.50
  -3   7   4    7.00    2.60
   2  -7  -4   39.40    3.70
   2  -7  -4   30.70    3.60
   2  -7  -4   30.50    3.50
  -2   7   4   39.10    3.80
  -2   7   4   39.00    4.40
  -2   7   4   32.10    3.20
   1  -7  -4   20.60    3.50
   1  -7  -4   19.80    3.50
   1  -7  -4   16.60    3.20
  -1   7   4   17.50    3.10
  -1   7   4   14.20    3.00
  -1   7   4   11.60    3.80
   0  -7  -4    5.40    3.00
   0  -7  -4    2.80    3.10
   0   7   4   -0.60    2.50
   0   7   4    1.00    3.00
  -1  -7  -4   15.50    3.90
   1   7   4   30.70    3.80
   1   7   4   19.40    3.10
   1   7   4   29.40    6.50
  -2  -7  -4   40.90    4.80
  -2  -7  -4   35.30    4.80
  -2  -7  -4   47.20    4.80
   2   7   4   41.20    4.30
   2   7   4   26.40    4.70
  -3  -7  -4   -0.20    4.20
  -3  -7  -4    2.10    4.90
  -3  -7  -4    2.80    4.00
   3   7   4    1.90    3.80
   3   7   4   -2.70    5.10
   3   7   4    3.70    4.20
  -4  -7  -4    0.90    4.20
   4   7   4    5.70    3.00
   4   7   4    1.40    4.30
   4   7   4    4.20    5.80
   5  -8  -4    0.70    2.40
   5  -8  -4    0.80    4.00
   5  -8  -4    5.60    2.40
  -5   8   4   -3.10    3.60
  -5   8   4    5.20    3.50
  -5   8   4   -1.80    4.60
  -5   8   4    3.60    5.00
   4  -8  -4   10.10    3.30
   4  -8  -4   16.50    3.60
   4  -8  -4   -0.40    3.70
  -4   8   4   10.60    4.70
  -4   8   4   24.40    4.00
  -4   8   4   20.20    3.70
  -4   8   4   13.90    3.50
   3  -8  -4   33.70    4.00
   3  -8  -4   31.60    4.00
  -3   8   4   30.20    4.00
  -3   8   4   23.80    4.90
  -3   8   4   28.30    4.10
   2  -8  -4    8.30    3.50
   2  -8  -4    7.20    3.80
  -2   8   4    9.20    3.70
  -2   8   4    2.60    3.30
  -2   8   4    7.60    4.40
   1  -8  -4   11.30    4.00
  -1   8   4    9.30    3.20
  -1   8   4    3.50    4.70
   0  -8  -4   36.10    4.90
   0  -8  -4   45.20    4.90
   0  -8  -4   47.40    5.00
   0   8   4   32.60    5.40
   0   8   4   43.80    4.90
   0   8   4   54.79    4.80
  -1  -8  -4    8.00    4.10
  -1  -8  -4   16.20    5.00
  -1  -8  -4   16.50    4.60
   1   8   4   12.40    4.00
  -2  -8  -4   -0.80    4.60
  -2  -8  -4   -4.90    4.50
   2   8   4   -1.50    4.20
  -3  -8  -4   -1.60    5.10
   3   8   4   10.30    4.90
   3  -9  -4   -1.90    4.30
   3  -9  -4   10.00    4.80
   3  -9  -4    2.10    4.60
  -3   9   4   -4.00    4.10
  -3   9   4    1.60    4.00
   2  -9  -4    4.20    4.60
   2  -9  -4    2.20    4.80
   1  -9  -4   11.90    5.10
   1  -9  -4   15.10    5.70
   1  -9  -4    8.70    4.80
  -1   9   4   27.00    5.10
   0  -9  -4    5.70    7.40
   0  -9  -4    0.20    4.90
   0  -9  -4   16.70    5.80
   0   9   4   22.60    5.10
   1  12  -5    5.70    4.50
   1  12  -5    0.40    4.40
  -1 -12   5   11.40    4.90
  -1 -12   5    6.80    2.30
  -1 -12   5    5.20    2.90
  -1 -12   5   11.40    5.70
   0  12  -5   42.60    5.70
   0  12  -5   26.10    4.90
   0 -12   5   20.00    5.40
   0 -12   5   29.20    2.50
  -1  12  -5   16.70    4.60
  -1  12  -5   20.40    4.20
   1 -12   5   16.80    4.40
   1 -12   5   13.60    3.80
  -2  12  -5    2.60    4.60
  -2  12  -5   -4.10    3.70
  -2  12  -5    1.20    5.60
   2 -12   5    2.40    3.20
   2 -12   5    0.30    3.30
  -3  12  -5   14.90    5.20
  -3  12  -5   13.60    4.10
  -3  12  -5   11.10    5.60
   3  11  -5    2.20    4.30
   3  11  -5    2.90    4.20
  -3 -11   5    2.60    4.80
  -3 -11   5    1.20    2.90
   2  11  -5    3.60    3.70
   2  11  -5    1.00    4.70
   2  11  -5   -1.30    3.90
  -2 -11   5    4.20    4.00
  -2 -11   5    5.00    2.40
   1  11  -5   27.30    4.20
   1  11  -5   34.50    5.60
   1  11  -5   36.60    4.40
  -1 -11   5   34.20    5.40
  -1 -11   5   43.80    4.10
  -1 -11   5   40.50    3.20
   0  11  -5   35.90    4.30
   0  11  -5   34.10    4.80
   0  11  -5   41.60    4.50
   0 -11   5   43.30    4.50
   0 -11   5   41.60    2.70
   0 -11   5   42.70    4.10
   0 -11   5   40.70    2.40
  -1  11  -5    3.70    3.60
  -1  11  -5    3.00    3.80
  -1  11  -5    2.40    4.00
   1 -11   5   -0.10    2.90
   1 -11   5    2.20    3.30
  -2  11  -5    8.80    3.20
  -2  11  -5    5.70    4.00
  -2  11  -5    7.80    3.60
   2 -11   5    9.90    2.70
   2 -11   5    7.10    2.70
  -3  11  -5   34.00    4.60
  -3  11  -5   34.30    4.60
  -3  11  -5   42.60    4.10
  -4  11  -5   10.70    4.20
  -4  11  -5   11.70    3.30
  -4  11  -5   16.10    4.30
  -5  11  -5   -0.20    4.20
  -5  11  -5   -2.90    4.00
  -5  11  -5    2.50    3.30
   5  10  -5    9.40    5.30
   5  10  -5   11.20    4.40
  -5 -10   5    3.80    4.80
   4  10  -5    6.10    3.60
   4  10  -5    6.20    4.20
   4  10  -5    1.40    4.80
  -4 -10   5    1.80    2.90
  -4 -10   5    1.70    3.90
   3  10  -5   14.30    3.60
   3  10  -5   22.10    4.10
   3  10  -5   16.90    5.50
   3  10  -5   20.50    4.50
  -3 -10   5   20.20    2.80
  -3 -10   5   15.40    4.20
  -3 -10   5   13.80    3.90
   2  10  -5   67.29    5.60
   2  10  -5   45.20    4.10
  -2 -10   5   55.49    3.70
   1  10  -5   23.90    3.60
   1  10  -5   29.20    3.80
  -1 -10   5   29.50    2.60
  -1 -10   5   24.40    3.40
  -1 -10   5   24.90    3.60
   0  10  -5   -1.00    2.40
   0  10  -5    2.20    3.40
   0  10  -5    0.20    2.90
   0 -10   5    2.90    1.00
   0 -10   5    2.20    1.20
   0 -10   5    2.10    2.60
  -1  10  -5   94.09    5.30
  -1  10  -5   87.09    5.70
  -1  10  -5   94.89    6.20
   1 -10   5   84.79    4.70
   1 -10   5   75.49    6.70
  -2  10  -5  115.39    5.40
  -2  10  -5  110.19    6.30
  -2  10  -5  110.29    6.50
   2 -10   5  106.89    4.50
   2 -10   5  105.29    4.60
  -3  10  -5    0.20    3.50
  -3  10  -5    2.90    3.00
  -3  10  -5    3.30    2.50
  -4  10  -5   27.50    3.50
  -4  10  -5   25.00    3.00
  -4  10  -5   22.80    3.90
  -5  10  -5   72.69    5.10
  -5  10  -5   77.09    5.80
  -5  10  -5   75.89    7.10
  -6  10  -5   49.50    5.70
  -6  10  -5   45.50    3.60
  -6  10  -5   41.60    4.20
   6   9  -5    7.20    4.00
   6   9  -5   18.90    5.00
   6   9  -5    7.50    5.00
  -6  -9   5   11.30    4.20
  -6  -9   5   11.70    4.80
   5   9  -5    4.60    3.90
   5   9  -5    4.10    5.30
   5   9  -5    3.60    3.50
  -5  -9   5   -3.10    3.00
  -5  -9   5   -2.30    3.90
   4   9  -5   33.70    5.30
   4   9  -5   43.70    3.90
   4   9  -5   33.70    4.10
  -4  -9   5   41.00    3.50
  -4  -9   5   31.30    4.20
  -4  -9   5   46.70    4.80
   3   9  -5   52.59    7.10
   3   9  -5   57.39    5.70
   3   9  -5   63.19    5.10
   3   9  -5   55.09    4.90
  -3  -9   5   65.49    5.50
  -3  -9   5   65.89    3.90
   2   9  -5   36.20    3.40
   2   9  -5   34.30    3.30
  -2  -9   5   31.40    3.40
  -2  -9   5   49.30    3.10
  -2  -9   5   39.50    3.50
   1   9  -5    8.30    2.60
   1   9  -5    2.80    2.60
   1   9  -5   10.10    2.60
  -1  -9   5    9.20    2.50
  -1  -9   5    8.10    1.40
  -1  -9   5    7.70    2.50
   0   9  -5  104.59    5.50
   0   9  -5   97.49    5.30
   0   9  -5  101.49    5.00
   0  -9   5   98.79    4.60
   0  -9   5   97.79    2.90
   0  -9   5   91.29    4.70
   0  -9   5   98.79    2.80
  -1   9  -5  104.49    5.40
  -1   9  -5   99.39    5.20
  -1   9  -5  104.49    4.80
   1  -9   5  102.29    4.50
   1  -9   5  107.09    4.50
  -2   9  -5   59.59    3.90
  -2   9  -5   53.99    4.40
  -2   9  -5   63.79    4.80
   2  -9   5   58.19    3.30
   2  -9   5   60.89    3.30
  -3   9  -5    2.50    2.20
  -3   9  -5    0.30    2.50
  -3   9  -5    3.90    2.10
  -4   9  -5  106.49    5.00
  -4   9  -5  114.39    6.20
  -4   9  -5  114.89    4.80
  -5   9  -5   54.79    4.60
  -5   9  -5   59.89    3.90
  -5   9  -5   54.49    4.10
  -6   9  -5   -0.20    2.40
  -6   9  -5    1.30    2.20
  -6   9  -5    2.40    3.60
  -7   9  -5   26.80    3.80
  -7   9  -5   19.60    3.20
  -7   9  -5   17.50    1.80
  -7   9  -5   23.20    4.70
  -7   9  -5   12.20    2.70
   6   8  -5    0.90    3.50
   6   8  -5    4.00    3.30
   6   8  -5    5.90    3.90
   6   8  -5    2.20    4.70
  -6  -8   5   -1.20    3.80
  -6  -8   5    3.80    3.30
   5   8  -5   26.90    3.70
   5   8  -5   30.30    3.50
   5   8  -5   25.70    4.80
   5   8  -5   30.40    4.00
  -5  -8   5   27.30    3.20
  -5  -8   5   14.90    4.00
  -5  -8   5   24.80    3.80
  -5  -8   5   28.40    3.50
   4   8  -5   82.79    5.00
   4   8  -5   84.29    5.70
   4   8  -5   85.09    5.60
  -4  -8   5   82.69    4.60
  -4  -8   5   72.49    5.30
  -4  -8   5   82.49    5.70
   3   8  -5   20.00    2.80
   3   8  -5   20.10    3.50
   3   8  -5   23.80    2.90
  -3  -8   5   20.70    2.20
  -3  -8   5   20.50    2.90
  -3  -8   5   15.40    2.60
  -3  -8   5   22.00    3.10
   2   8  -5   17.80    2.70
   2   8  -5   21.10    2.70
  -2  -8   5   20.90    2.80
  -2  -8   5   19.80    2.60
  -2  -8   5   20.80    1.80
  -2  -8   5   19.90    2.80
   1   8  -5  142.99    5.50
   1   8  -5  136.39    5.50
   1   8  -5  151.58    5.70
  -1  -8   5  155.78    5.80
  -1  -8   5  145.19    4.10
  -1  -8   5  143.19    5.40
  -1  -8   5  151.68    5.50
   0   8  -5   92.49    4.60
   0   8  -5   97.49    4.40
   0   8  -5   96.49    4.60
   0  -8   5   99.39    4.60
   0  -8   5   95.29    4.20
   0  -8   5   97.09    2.70
   0  -8   5   94.99    4.10
  -1   8  -5   -1.30    1.70
  -1   8  -5   -1.40    1.60
  -1   8  -5   -2.50    1.80
   1  -8   5   -0.80    1.60
   1  -8   5   -0.50    1.50
  -2   8  -5  181.28    7.40
  -2   8  -5  211.68    6.10
  -2   8  -5  205.98    6.80
   2  -8   5  204.78    5.40
   2  -8   5  200.38    5.40
  -3   8  -5  144.49    5.10
  -3   8  -5  139.69    4.80
  -3   8  -5  145.79    5.70
  -4   8  -5    2.50    1.60
  -4   8  -5    0.20    2.10
  -4   8  -5   -1.00    1.70
  -5   8  -5    7.00    1.80
  -5   8  -5    9.90    2.10
  -5   8  -5    8.70    2.60
  -6   8  -5   65.99    3.60
  -6   8  -5   78.99    5.80
  -6   8  -5   74.89    2.80
  -6   8  -5   64.99    3.80
  -7   8  -5   69.49    3.60
  -7   8  -5   68.69    3.70
  -7   8  -5   74.39    5.30
  -7   8  -5   73.89    6.50
  -7   8  -5   59.79    3.90
  -8   8  -5   -0.20    4.30
  -8   8  -5    2.40    3.00
  -8   8  -5   -1.10    2.40
  -8   8  -5    6.80    2.20
  -8   8  -5   -1.10    2.30
   7   7  -5   11.00    3.50
   7   7  -5    8.80    4.20
   7   7  -5   -3.20    5.50
  -7  -7   5   11.20    3.30
  -7  -7   5   15.30    3.90
  -7  -7   5   -0.30    4.00
   6   7  -5   41.00    3.80
   6   7  -5   41.00    4.10
   6   7  -5   44.60    3.50
  -6  -7   5   37.40    4.10
  -6  -7   5   45.10    4.10
  -6  -7   5   44.10    4.90
   5   7  -5   67.49    5.20
   5   7  -5   68.89    4.60
   5   7  -5   64.29    4.80
   5   7  -5   65.39    6.00
  -5  -7   5   71.59    4.50
  -5  -7   5   66.09    5.40
  -5  -7   5   65.69    5.70
   4   7  -5   -2.10    2.00
   4   7  -5    0.00    2.60
   4   7  -5    0.20    2.00
   4   7  -5    0.70    2.10
  -4  -7   5    0.50    1.70
  -4  -7   5    2.60    2.50
  -4  -7   5   -2.00    2.30
   3   7  -5   42.30    3.70
   3   7  -5   33.50    3.00
   3   7  -5   48.30    3.50
  -3  -7   5   31.60    2.90
  -3  -7   5   37.70    3.30
  -3  -7   5   42.80    3.80
  -3  -7   5   45.80    2.90
   2   7  -5  260.37    7.50
   2   7  -5  263.17    7.80
   2   7  -5  270.47    7.50
  -2  -7   5  260.77    6.80
  -2  -7   5  266.77    7.60
  -2  -7   5  265.87    7.80
  -2  -7   5  270.77    7.70
   1   7  -5  138.09    4.90
   1   7  -5  142.19    5.00
   1   7  -5  136.69    4.90
  -1  -7   5  110.29    6.70
  -1  -7   5  137.79    3.80
  -1  -7   5  136.89    4.80
  -1  -7   5  136.79    5.10
   0   7  -5   10.50    1.90
   0   7  -5    8.30    2.10
   0   7  -5    8.70    1.80
   0  -7   5    7.50    1.60
   0  -7   5    8.20    1.60
   0  -7   5    9.10    2.00
   0  -7   5    9.00    0.80
  -1   7  -5  227.88    6.70
  -1   7  -5  225.98    6.40
  -1   7  -5  216.98    6.20
   1  -7   5  226.48    6.80
   1  -7   5  226.58    6.00
   1  -7   5  223.58    5.90
  -2   7  -5  358.36    9.40
  -2   7  -5  360.46    8.90
  -2   7  -5  354.76    8.80
   2  -7   5  359.26    8.30
   2  -7   5  341.57    9.30
  -3   7  -5  246.28    6.60
  -3   7  -5  262.77    7.50
  -3   7  -5  254.37    6.70
  -4   7  -5   -0.40    1.80
  -4   7  -5    1.60    1.40
  -4   7  -5   -1.20    1.30
  -5   7  -5   90.99    3.50
  -5   7  -5   90.89    2.70
  -5   7  -5   81.99    3.30
  -5   7  -5   90.39    4.90
  -6   7  -5   89.59    4.50
  -6   7  -5   86.69    3.60
  -6   7  -5   91.39    5.30
  -6   7  -5   84.49    3.40
  -6   7  -5   86.49    3.20
  -7   7  -5    5.00    1.80
  -7   7  -5    3.90    2.20
  -7   7  -5    3.80    1.80
  -7   7  -5    6.60    1.70
  -7   7  -5    2.10    3.10
  -8   7  -5   13.70    2.50
  -8   7  -5   16.30    4.30
  -8   7  -5   12.70    1.90
  -8   7  -5   14.00    3.90
  -8   7  -5    9.20    2.00
   8   6  -5    5.20    4.00
   8   6  -5    5.20    2.90
   8   6  -5    6.10    4.90
  -8  -6   5    4.70    4.50
  -8  -6   5    2.30    3.20
  -8  -6   5    2.80    4.50
   7   6  -5   50.09    4.20
   7   6  -5   41.70    4.20
   7   6  -5   36.60    4.50
  -7  -6   5   51.29    4.60
  -7  -6   5   45.20    3.70
  -7  -6   5   36.70    5.30
  -7  -6   5   45.60    4.80
   6   6  -5   51.69    4.00
   6   6  -5   63.69    5.20
   6   6  -5   47.80    4.40
   6   6  -5   46.90    4.20
  -6  -6   5   51.69    4.50
  -6  -6   5   43.20    3.90
  -6  -6   5   49.99    4.50
  -6  -6   5   64.39    4.80
   5   6  -5    8.30    2.20
   5   6  -5   10.00    2.90
   5   6  -5    7.70    2.20
   5   6  -5    5.60    2.40
  -5  -6   5   10.10    2.30
  -5  -6   5   11.80    2.40
  -5  -6   5   -0.10    2.20
  -5  -6   5    7.40    2.70
   4   6  -5  124.79    5.20
   4   6  -5  125.29    5.50
   4   6  -5  125.59    4.80
  -4  -6   5  124.09    5.40
  -4  -6   5  124.29    5.00
  -4  -6   5  125.59    5.30
  -4  -6   5  128.89    4.70
   3   6  -5  245.48    7.20
   3   6  -5  235.78    7.00
   3   6  -5  238.08    6.80
  -3  -6   5  240.68    7.10
  -3  -6   5  234.98    7.10
  -3  -6   5  236.08    6.90
  -3  -6   5  248.98    6.60
   2   6  -5  107.89    4.20
   2   6  -5  103.59    4.10
   2   6  -5  106.99    4.30
  -2  -6   5  104.19    3.50
  -2  -6   5  103.39    4.30
  -2  -6   5  105.19    4.20
  -2  -6   5  116.39    4.30
   1   6  -5   12.20    1.80
   1   6  -5    9.50    1.70
   1   6  -5   11.70    1.60
  -1  -6   5   10.20    1.10
  -1  -6   5   11.70    1.70
  -1  -6   5   11.40    1.60
  -1  -6   5   14.00    1.90
   0   6  -5  215.38    6.20
   0   6  -5  224.88    6.20
   0   6  -5  219.58    6.10
   0  -6   5  225.18    6.00
   0  -6   5  220.48    6.00
   0  -6   5  221.28    5.10
   0  -6   5  226.78    6.40
  -1   6  -5  124.79    4.10
  -1   6  -5  123.19    4.40
  -1   6  -5  121.49    4.00
   1  -6   5  123.49    4.40
   1  -6   5  122.89    3.80
   1  -6   5  123.49    3.80
  -2   6  -5   14.10    1.90
  -2   6  -5   13.10    1.60
  -2   6  -5   12.80    1.60
   2  -6   5   13.10    1.90
   2  -6   5   11.10    1.20
   2  -6   5   12.60    1.20
  -3   6  -5   92.79    2.10
  -3   6  -5   90.99    2.10
  -3   6  -5  106.19    3.40
  -3   6  -5  104.59    3.50
  -3   6  -5  101.39    4.10
  -4   6  -5  127.59    3.30
  -4   6  -5  130.29    3.80
  -4   6  -5  131.19    4.00
  -4   6  -5  133.29    5.00
  -5   6  -5   46.30    3.10
  -5   6  -5   43.80    2.50
  -5   6  -5   46.80    2.60
  -5   6  -5   45.70    3.70
  -5   6  -5   48.80    2.20
  -6   6  -5    7.40    1.50
  -6   6  -5    5.70    2.30
  -6   6  -5    7.70    1.50
  -6   6  -5    7.90    1.50
  -6   6  -5    9.00    2.00
  -7   6  -5   60.89    2.80
  -7   6  -5   62.69    3.50
  -7   6  -5   58.39    2.90
  -7   6  -5   60.29    5.00
  -7   6  -5   58.19    4.30
  -8   6  -5   60.59    4.80
  -8   6  -5   57.69    5.50
  -8   6  -5   50.59    3.00
  -8   6  -5   57.29    4.20
  -8   6  -5   52.59    3.20
   8   5  -5   25.10    3.80
   8   5  -5   22.50    2.20
   8   5  -5   23.10    4.30
  -8  -5   5   23.40    3.50
  -8  -5   5   22.30    4.50
  -8  -5   5   22.10    4.40
  -8  -5   5   14.00    6.90
   7   5  -5    3.20    1.70
   7   5  -5    3.20    2.90
   7   5  -5    4.40    3.30
  -7  -5   5   -4.70    2.90
  -7  -5   5   -2.30    3.80
  -7  -5   5    1.30    2.70
  -7  -5   5   -0.50    3.50
   6   5  -5    0.50    2.60
   6   5  -5   -0.10    1.60
   6   5  -5    0.40    2.40
  -6  -5   5   -0.70    2.30
  -6  -5   5    1.80    2.20
  -6  -5   5   -1.30    2.20
  -6  -5   5    0.30    3.00
   5   5  -5   99.39    4.30
   5   5  -5   94.49    5.00
   5   5  -5  101.29    4.70
   5   5  -5  100.19    4.00
  -5  -5   5  101.09    4.50
  -5  -5   5   97.39    4.90
  -5  -5   5  100.29    5.10
  -5  -5   5  100.09    4.60
   4   5  -5  179.68    6.00
   4   5  -5  176.68    5.80
   4   5  -5  181.58    5.60
  -4  -5   5  178.38    6.00
  -4  -5   5  189.48    5.80
  -4  -5   5  173.18    5.90
  -4  -5   5  178.48    5.60
   3   5  -5   89.39    3.80
   3   5  -5   64.09    5.70
   3   5  -5   88.69    3.70
  -3  -5   5   90.59    3.80
  -3  -5   5   90.59    3.90
  -3  -5   5   94.69    3.90
  -3  -5   5   86.49    3.30
   2   5  -5   94.89    3.70
   2   5  -5   95.09    3.80
   2   5  -5   96.59    3.60
  -2  -5   5   92.89    3.20
  -2  -5   5   94.29    3.70
  -2  -5   5   94.79    3.70
  -2  -5   5   92.89    3.70
   1   5  -5  413.86   10.00
   1   5  -5  407.26    9.90
   1   5  -5  421.26   10.00
  -1  -5   5  408.26   10.00
  -1  -5   5  409.16    9.90
  -1  -5   5  419.26    9.90
  -1  -5   5  409.76    9.40
   0   5  -5  894.11   19.80
   0   5  -5  897.41   19.80
   0   5  -5  885.21   20.00
   0  -5   5  887.11   19.70
   0  -5   5  916.11   20.10
   0  -5   5  891.91   19.10
   0  -5   5  920.71   19.70
  -1   5  -5   23.10    2.00
  -1   5  -5   25.20    2.10
  -1   5  -5   23.50    2.10
  -1   5  -5   23.40    1.00
   1  -5   5   22.80    2.20
   1  -5   5   24.30    1.80
   1  -5   5   25.20    1.80
  -2   5  -5  296.67    7.70
  -2   5  -5  304.17    7.30
  -2   5  -5  295.57    6.60
  -2   5  -5  295.77    7.30
   2  -5   5  301.87    6.80
   2  -5   5  305.17    6.80
   2  -5   5  296.47    7.80
  -3   5  -5  714.13   15.60
  -3   5  -5  710.23   15.20
  -3   5  -5  715.73   15.60
  -3   5  -5  709.53   16.30
   3  -5   5  713.63   16.30
  -4   5  -5  253.17    6.20
  -4   5  -5  254.37    6.20
  -4   5  -5  249.48    7.00
  -4   5  -5  246.38    7.20
   4  -5   5  263.77    7.10
  -5   5  -5    4.80    1.70
  -5   5  -5    5.40    1.40
  -5   5  -5    6.20    1.20
  -5   5  -5    4.50    1.30
  -6   5  -5   17.10    1.50
  -6   5  -5   17.60    2.40
  -6   5  -5   16.70    1.50
  -6   5  -5   14.60    2.10
  -7   5  -5  107.99    3.70
  -7   5  -5  108.49    5.00
  -7   5  -5  118.19    5.10
  -7   5  -5  105.19    3.60
  -8   5  -5   13.40    2.60
  -8   5  -5   20.10    3.20
  -8   5  -5   13.10    2.90
  -8   5  -5   14.10    2.00
  -8   5  -5   16.60    2.10
  -9   5  -5    4.90    2.50
  -9   5  -5    4.80    3.30
  -9   5  -5    6.70    2.40
  -9   5  -5    2.40    3.00
   8   4  -5    6.40    2.80
   8   4  -5    3.10    3.30
  -8  -4   5    0.90    4.30
  -8  -4   5    3.10    3.70
  -8  -4   5    8.00    3.30
  -8  -4   5    7.20    3.00
   7   4  -5    5.20    1.20
   7   4  -5    2.10    2.40
  -7  -4   5    2.50    2.40
  -7  -4   5    4.60    3.30
  -7  -4   5    5.50    5.20
  -7  -4   5    0.50    2.60
   6   4  -5  210.68    5.50
   6   4  -5  219.38    6.70
   6   4  -5  204.48    7.40
  -6  -4   5  212.48    7.40
  -6  -4   5  210.18    7.20
  -6  -4   5  221.78    7.10
  -6  -4   5  220.08    6.60
   5   4  -5   83.79    4.10
   5   4  -5   86.99    3.80
   5   4  -5   78.29    5.20
   5   4  -5   88.39    3.20
  -5  -4   5   79.69    4.30
  -5  -4   5   86.59    4.50
  -5  -4   5   85.99    4.00
  -5  -4   5   84.49    4.00
   4   4  -5    2.10    1.70
   4   4  -5    2.80    1.40
   4   4  -5    3.90    1.40
  -4  -4   5    3.40    1.50
  -4  -4   5    3.30    1.50
  -4  -4   5    3.30    1.60
  -4  -4   5    1.10    1.20
   3   4  -5  346.77    8.50
   3   4  -5  345.37    8.60
   3   4  -5  326.17    8.50
  -3  -4   5  331.97    8.50
  -3  -4   5  334.27    8.60
  -3  -4   5  348.57    8.60
  -3  -4   5  335.37    8.40
   2   4  -5  409.06    9.90
   2   4  -5  427.76   10.00
   2   4  -5  413.86    9.90
  -2  -4   5  404.96    9.90
  -2  -4   5  406.06    9.60
  -2  -4   5  411.46    9.90
  -2  -4   5  409.06    9.90
   1   4  -5  474.85   11.10
   1   4  -5  477.95   10.70
   1   4  -5  487.85   11.20
   1   4  -5  470.65   11.20
  -1  -4   5  488.95   11.10
  -1  -4   5  464.55   11.20
  -1  -4   5  470.95   10.70
  -1  -4   5  482.65   11.10
   0   4  -5   10.30    0.90
   0   4  -5    9.60    1.20
   0   4  -5   11.30    1.30
   0   4  -5    9.70    1.30
   0  -4   5    9.80    1.00
   0  -4   5    8.60    1.20
   0  -4   5   12.90    1.40
   0  -4   5   13.70    1.60
  -1   4  -5   26.30    1.90
  -1   4  -5   24.60    1.30
  -1   4  -5   27.50    2.00
  -1   4  -5   28.30    1.90
   1  -4   5   26.90    2.10
   1  -4   5   27.50    1.70
   1  -4   5   26.80    1.70
  -2   4  -5  291.47    6.80
  -2   4  -5  299.17    7.10
  -2   4  -5  295.87    7.10
  -2   4  -5  295.57    7.50
  -2   4  -5  295.07    7.70
   2  -4   5  303.27    6.80
   2  -4   5  297.77    6.70
   2  -4   5  297.57    7.50
  -3   4  -5   98.59    3.10
  -3   4  -5   99.39    3.00
  -3   4  -5  102.29    3.70
  -3   4  -5  102.49    3.70
  -3   4  -5   98.29    3.20
   3  -4   5  102.09    3.70
  -4   4  -5   38.00    2.00
  -4   4  -5   34.10    2.60
  -4   4  -5   35.20    2.00
  -4   4  -5   30.20    2.40
   4  -4   5   33.50    2.60
  -5   4  -5  109.89    3.50
  -5   4  -5  113.39    4.40
  -5   4  -5  117.59    4.10
  -5   4  -5  112.49    3.40
  -6   4  -5   68.59    3.60
  -6   4  -5   70.19    2.90
  -6   4  -5   62.89    2.80
  -6   4  -5   67.39    3.70
  -7   4  -5    3.20    1.60
  -7   4  -5   -0.10    1.90
  -7   4  -5   -1.30    1.90
  -7   4  -5    0.00    1.50
  -8   4  -5   20.90    3.20
  -8   4  -5   18.00    2.40
  -8   4  -5   21.40    2.40
  -8   4  -5   21.00    2.60
  -9   4  -5   21.80    3.20
  -9   4  -5   22.40    4.10
  -9   4  -5   21.90    3.10
  -9   4  -5   26.30    3.10
  -9  -3   5    1.70    4.20
  -9  -3   5   -7.10    5.10
  -9  -3   5   -1.80    3.60
  -9  -3   5   -3.50    3.90
   8   3  -5   24.40    2.90
   8   3  -5   27.00    2.80
  -8  -3   5   22.60    3.30
  -8  -3   5   30.60    3.80
  -8  -3   5   31.60    4.50
  -8  -3   5   24.20    3.60
   7   3  -5   50.49    3.90
   7   3  -5   44.60    4.20
  -7  -3   5   59.59    4.60
  -7  -3   5   51.19    4.40
  -7  -3   5   44.70    4.00
  -7  -3   5   50.49    3.90
   6   3  -5   43.10    3.40
   6   3  -5   43.40    3.70
  -6  -3   5   39.80    3.30
  -6  -3   5   45.00    3.80
  -6  -3   5   43.20    3.60
  -6  -3   5   50.39    3.90
   5   3  -5    9.10    1.00
   5   3  -5    9.60    1.90
   5   3  -5    7.00    1.70
  -5  -3   5    7.80    2.00
  -5  -3   5    6.10    1.80
  -5  -3   5    7.30    1.60
  -5  -3   5    9.30    1.80
   4   3  -5  248.38    6.60
   4   3  -5  242.68    6.70
   4   3  -5  249.78    6.70
  -4  -3   5  245.68    6.80
  -4  -3   5  245.28    7.10
  -4  -3   5  236.78    6.60
  -4  -3   5  250.07    6.80
   3   3  -5  507.75   11.70
   3   3  -5  493.85   11.70
   3   3  -5  501.25   11.60
   3   3  -5  516.85   11.70
  -3  -3   5  499.75   11.80
  -3  -3   5  491.75   11.80
  -3  -3   5  508.75   11.70
  -3  -3   5  487.75   11.70
   2   3  -5  287.77    7.40
   2   3  -5  301.47    7.40
   2   3  -5  289.07    7.10
   2   3  -5  291.17    7.40
  -2  -3   5  298.57    7.40
  -2  -3   5  294.87    7.40
  -2  -3   5  288.87    7.40
  -2  -3   5  300.37    7.30
   1   3  -5   23.20    1.90
   1   3  -5   21.50    1.90
   1   3  -5   20.00    1.40
   1   3  -5   23.40    1.90
  -1  -3   5   22.20    1.90
  -1  -3   5   20.80    1.50
  -1  -3   5   20.80    1.90
  -1  -3   5   20.40    1.70
   0   3  -5  855.41   18.70
   0   3  -5  840.62   18.40
   0   3  -5  838.82   18.90
   0   3  -5  835.82   18.80
   0   3  -5  846.02   18.70
   0  -3   5  866.31   18.70
   0  -3   5  873.11   18.70
   0  -3   5  886.71   18.90
   0  -3   5  871.21   18.50
  -1   3  -5 1200.78   25.30
  -1   3  -5 1162.38   25.50
  -1   3  -5 1182.88   25.00
  -1   3  -5 1205.88   25.30
  -1   3  -5 1167.28   25.70
   1  -3   5 1188.78   25.10
   1  -3   5 1172.38   25.50
   1  -3   5 1153.08   25.10
  -2   3  -5   55.39    2.20
  -2   3  -5   52.19    2.40
  -2   3  -5   55.99    2.50
  -2   3  -5   58.59    2.30
  -2   3  -5   57.99    2.30
   2  -3   5   52.89    1.90
   2  -3   5   56.09    2.10
   2  -3   5   56.29    2.60
  -3   3  -5  143.09    4.30
  -3   3  -5  148.19    4.10
  -3   3  -5  143.09    4.00
   3  -3   5  143.29    3.30
   3  -3   5  146.89    4.40
  -4   3  -5  471.35   10.80
  -4   3  -5  484.95   10.80
  -4   3  -5  476.15   11.10
  -4   3  -5  477.35   11.80
   4  -3   5  485.95   11.20
  -5   3  -5  296.87    7.20
  -5   3  -5  307.17    7.60
  -5   3  -5  294.27    7.20
  -5   3  -5  305.77    8.40
   5  -3   5  297.67    7.50
  -6   3  -5    7.20    1.50
  -6   3  -5    9.40    1.50
  -6   3  -5    9.80    1.70
  -6   3  -5    9.20    1.90
  -7   3  -5    9.30    2.00
  -7   3  -5    8.20    1.80
  -7   3  -5    7.20    2.30
  -7   3  -5    8.10    1.90
  -8   3  -5   62.39    4.30
  -8   3  -5   66.29    3.80
  -8   3  -5   70.89    4.90
  -8   3  -5   64.99    4.40
  -9   3  -5    8.20    1.80
  -9   3  -5    9.00    3.10
  -9   3  -5    8.70    4.40
  -9   3  -5    9.90    4.20
  -9  -2   5   27.60    5.30
  -9  -2   5   21.10    7.50
  -9  -2   5   15.70    3.90
  -9  -2   5   16.30    3.80
   8   2  -5   26.20    2.30
   8   2  -5   28.00    2.20
  -8  -2   5   29.00    4.10
  -8  -2   5   31.60    3.60
  -8  -2   5   30.40    3.60
  -8  -2   5   28.60    3.30
   7   2  -5   15.80    2.30
   7   2  -5   17.20    2.10
  -7  -2   5   11.00    2.50
  -7  -2   5   18.10    3.10
  -7  -2   5   16.00    2.60
  -7  -2   5   12.10    3.00
   6   2  -5   28.80    2.40
   6   2  -5   30.90    2.90
  -6  -2   5   28.40    2.90
  -6  -2   5   28.60    2.60
  -6  -2   5   27.00    2.70
  -6  -2   5   29.70    2.80
   5   2  -5  141.99    4.70
   5   2  -5  156.98    4.80
  -5  -2   5  152.38    5.20
  -5  -2   5  153.08    5.20
  -5  -2   5  150.08    5.00
  -5  -2   5  144.49    5.10
   4   2  -5  248.68    6.70
   4   2  -5  246.78    6.50
   4   2  -5  242.68    6.50
  -4  -2   5  241.48    6.70
  -4  -2   5  245.88    6.70
  -4  -2   5  240.98    6.70
  -4  -2   5  240.38    6.70
   3   2  -5   12.00    1.30
   3   2  -5   11.40    1.40
   3   2  -5   11.40    1.40
   3   2  -5   13.70    1.00
  -3  -2   5   12.30    1.60
  -3  -2   5   12.10    1.50
  -3  -2   5   15.30    1.60
  -3  -2   5   15.90    1.70
   2   2  -5  438.66   10.40
   2   2  -5  446.26   10.00
   2   2  -5  430.26   10.30
   2   2  -5  442.06   10.30
   2   2  -5  431.26   10.20
  -2  -2   5  439.26   10.30
  -2  -2   5  437.86   10.40
  -2  -2   5  464.25   10.40
  -2  -2   5  440.36   10.40
   1   2  -5 1138.99   23.90
   1   2  -5 1108.59   23.90
   1   2  -5 1133.19   23.80
   1   2  -5 1098.69   24.00
   1   2  -5 1091.09   23.80
  -1  -2   5 1109.19   23.80
  -1  -2   5 1073.89   23.90
  -1  -2   5 1096.89   23.90
  -1  -2   5 1103.79   24.00
   0   2  -5  525.65   12.20
   0   2  -5  537.55   12.20
   0   2  -5  540.95   12.10
   0   2  -5  531.25   12.10
   0   2  -5  526.55   11.90
   0  -2   5  546.95   12.10
   0  -2   5  539.95   12.20
   0  -2   5  540.95   12.00
   0  -2   5  518.35   12.00
  -1   2  -5   96.19    3.00
  -1   2  -5   93.79    3.10
  -1   2  -5   95.59    3.10
  -1   2  -5   93.79    3.10
  -1   2  -5   90.29    3.20
   1  -2   5   95.19    3.20
   1  -2   5   92.69    2.90
   1  -2   5   94.49    3.00
  -2   2  -5   52.49    2.40
  -2   2  -5   50.79    2.20
  -2   2  -5   54.69    2.30
  -2   2  -5   54.39    2.30
  -2   2  -5   55.49    2.40
   2  -2   5   53.39    2.40
   2  -2   5   51.89    2.50
   2  -2   5   53.39    2.00
   2  -2   5   54.99    2.20
  -3   2  -5  290.47    7.80
  -3   2  -5  294.27    7.20
  -3   2  -5  298.17    7.30
  -3   2  -5  307.77    7.20
   3  -2   5  301.37    7.30
   3  -2   5  297.37    6.80
   3  -2   5  294.07    7.80
  -4   2  -5   88.69    3.10
  -4   2  -5   86.49    3.20
  -4   2  -5   90.99    3.70
  -4   2  -5   85.59    3.10
   4  -2   5   93.99    3.70
   4  -2   5   89.99    3.20
  -5   2  -5    2.60    1.50
  -5   2  -5    5.30    1.40
  -5   2  -5    4.80    1.30
  -5   2  -5    4.50    1.40
   5  -2   5    4.20    1.30
   5  -2   5    2.60    1.40
  -6   2  -5   17.90    2.00
  -6   2  -5   19.80    1.70
  -6   2  -5   19.60    2.10
  -6   2  -5   19.20    2.50
  -7   2  -5   58.69    2.80
  -7   2  -5   72.39    4.30
  -7   2  -5   56.49    3.80
  -7   2  -5   57.89    3.90
  -8   2  -5    4.50    2.60
  -8   2  -5    5.50    2.70
  -8   2  -5    5.40    2.70
  -9   2  -5    3.10    3.60
  -9   2  -5    7.90    3.40
  -9   2  -5    3.60    3.80
  -9  -1   5   18.70    4.00
  -9  -1   5   18.30    4.10
  -9  -1   5   23.50    4.00
  -9  -1   5   16.80    4.70
  -8  -1   5   13.30    3.00
  -8  -1   5    9.40    3.10
  -8  -1   5   10.50    3.20
  -8  -1   5   12.90    3.60
   7   1  -5   43.50    2.90
   7   1  -5   42.20    3.00
  -7  -1   5   43.90    3.40
  -7  -1   5   47.00    3.60
  -7  -1   5   43.70    4.10
  -7  -1   5   39.80    3.50
   6   1  -5  118.79    4.20
   6   1  -5  120.69    4.00
  -6  -1   5  115.89    5.00
  -6  -1   5  109.39    5.50
  -6  -1   5  117.59    4.80
  -6  -1   5  118.79    4.90
   5   1  -5  252.57    6.50
   5   1  -5  230.18    6.40
   5   1  -5  254.67    7.00
  -5  -1   5  252.77    7.00
  -5  -1   5  246.58    6.90
  -5  -1   5  242.18    7.10
   4   1  -5   18.90    0.90
   4   1  -5   22.10    1.80
   4   1  -5   21.20    1.90
   4   1  -5   23.70    2.10
  -4  -1   5   17.20    1.80
  -4  -1   5   25.50    2.20
  -4  -1   5   20.60    2.00
  -4  -1   5   18.90    1.90
   3   1  -5  378.36    9.10
   3   1  -5  381.96    8.50
   3   1  -5  385.66    9.10
   3   1  -5  381.16    9.20
  -3  -1   5  374.56    9.30
  -3  -1   5  393.26    9.20
  -3  -1   5  366.36    9.20
  -3  -1   5  369.56    9.30
   2   1  -5  295.67    7.30
   2   1  -5  293.47    6.90
   2   1  -5  295.97    7.30
   2   1  -5  286.47    7.20
  -2  -1   5  290.57    7.30
  -2  -1   5  288.87    7.30
  -2  -1   5  290.87    7.40
  -2  -1   5  288.87    7.30
   1   1  -5  933.01   20.40
   1   1  -5  957.70   20.40
   1   1  -5  941.71   20.30
   1   1  -5  911.41   20.40
  -1  -1   5  937.01   20.40
  -1  -1   5  934.41   20.40
  -1  -1   5  930.11   20.30
  -1  -1   5  909.21   20.50
  -1  -1   5  964.40   20.50
   0   1  -5   15.00    1.40
   0   1  -5   10.80    1.20
   0   1  -5   17.10    1.50
   0   1  -5   15.80    1.50
   0   1  -5   13.00    1.30
   0  -1   5   16.80    1.50
   0  -1   5   14.20    1.30
   0  -1   5   17.20    1.60
   0  -1   5   11.20    1.10
   0  -1   5   16.10    1.40
  -1   1  -5  627.04   13.90
  -1   1  -5  613.54   14.20
  -1   1  -5  615.24   13.90
  -1   1  -5  618.64   13.90
  -1   1  -5  616.34   13.80
   1  -1   5  621.44   13.90
   1  -1   5  626.84   13.80
   1  -1   5  619.34   13.70
   1  -1   5  613.84   14.20
  -2   1  -5  662.93   15.40
  -2   1  -5  668.33   14.90
  -2   1  -5  676.53   14.90
  -2   1  -5  664.93   14.90
  -2   1  -5  687.53   15.10
   2  -1   5  661.33   15.40
   2  -1   5  677.43   14.70
   2  -1   5  668.23   14.90
   2  -1   5  667.23   14.80
  -3   1  -5  209.18    5.60
  -3   1  -5  206.88    5.50
  -3   1  -5  209.08    5.40
   3  -1   5  214.78    6.20
   3  -1   5  207.48    5.50
   3  -1   5  216.58    5.30
  -4   1  -5   13.50    1.40
  -4   1  -5   16.10    1.70
  -4   1  -5   11.50    1.60
  -4   1  -5   12.60    1.80
   4  -1   5    6.90    2.40
   4  -1   5   14.00    1.20
   4  -1   5   15.80    1.20
   4  -1   5   12.80    1.40
  -5   1  -5  368.46    9.10
  -5   1  -5  371.16    8.60
  -5   1  -5  371.06    9.20
  -5   1  -5  367.86    9.90
   5  -1   5  371.16    8.60
   5  -1   5  379.56   10.00
  -6   1  -5  137.29    5.00
  -6   1  -5  148.59    5.50
  -6   1  -5  127.29    4.80
   6  -1   5  137.69    5.50
  -7   1  -5    1.80    2.10
  -7   1  -5    0.30    2.30
  -7   1  -5    4.30    2.40
   7  -1   5   -0.90    2.20
  -8   1  -5    2.10    3.00
  -8   1  -5    7.80    2.70
  -8   1  -5    1.90    3.10
  -9   0   5    3.60    3.40
  -9   0   5    2.10    4.20
  -9   0   5   -2.90    3.90
  -9   0   5   -0.90    3.40
  -8   0   5   36.90    3.60
  -8   0   5   33.60    4.00
  -8   0   5   37.00    3.90
  -8   0   5   33.40    3.80
   7   0  -5   30.60    2.10
   7   0  -5   29.40    2.20
  -7   0   5   33.90    3.40
  -7   0   5   29.40    3.10
  -7   0   5   34.50    3.30
  -7   0   5   29.00    2.90
   6   0  -5   24.50    2.00
   6   0  -5   26.70    1.90
  -6   0   5   19.70    2.30
  -6   0   5   29.30    2.90
  -6   0   5   24.70    2.60
  -6   0   5   26.30    2.80
   5   0  -5   -0.60    1.20
   5   0  -5   -0.60    1.30
   5   0  -5    0.40    1.30
  -5   0   5    1.40    1.20
  -5   0   5    0.30    2.00
  -5   0   5   -0.90    1.80
  -5   0   5   -0.60    1.40
   4   0  -5  263.77    6.60
   4   0  -5  261.07    6.60
   4   0  -5  225.88    7.50
  -4   0   5  259.47    6.90
  -4   0   5  262.57    7.10
  -4   0   5  256.27    6.90
  -4   0   5  254.27    7.10
   3   0  -5  202.18    5.50
   3   0  -5  198.08    5.60
   3   0  -5  196.88    5.40
   3   0  -5  201.08    4.90
  -3   0   5  209.28    5.60
  -3   0   5  198.18    5.70
  -3   0   5  198.58    5.80
  -3   0   5  201.68    5.60
  -3   0   5  197.78    4.90
   2   0  -5  215.88    5.70
   2   0  -5  207.58    5.80
   2   0  -5  214.48    5.40
   2   0  -5  219.58    5.70
  -2   0   5  215.08    5.80
  -2   0   5  212.58    5.90
  -2   0   5  217.38    5.90
  -2   0   5  211.98    5.40
  -2   0   5  209.18    5.70
   1   0  -5  816.62   18.10
   1   0  -5  829.82   18.20
   1   0  -5  826.62   18.30
   1   0  -5  830.42   18.20
  -1   0   5  808.12   18.20
  -1   0   5  819.02   18.20
  -1   0   5  818.22   18.10
  -1   0   5  837.42   18.30
  -1   0   5  826.42   18.30
   0   0  -5  600.94   13.40
   0   0  -5  591.54   13.30
   0   0  -5  590.34   13.50
   0   0  -5  570.94   13.30
   0   0   5  586.14   13.40
   0   0   5  598.34   13.30
   0   0   5  585.34   13.30
   0   0   5  594.54   13.30
   0   0   5  567.04   13.40
  -1   0  -5  534.35   12.40
  -1   0  -5  531.15   12.10
  -1   0  -5  513.85   12.20
  -1   0  -5  538.05   12.10
   1   0   5  532.65   12.00
   1   0   5  524.85   12.40
   1   0   5  519.35   12.00
   1   0   5  515.75   12.00
  -2   0  -5   90.89    3.40
  -2   0  -5   89.09    3.30
  -2   0  -5   90.79    3.50
  -2   0  -5   86.19    3.30
   2   0   5   87.39    3.00
   2   0   5   91.79    3.10
   2   0   5   89.39    3.30
  -3   0  -5   10.00    1.60
  -3   0  -5    9.70    1.60
  -3   0  -5    8.10    1.50
   3   0   5    7.60    1.40
   3   0   5    8.90    1.30
   3   0   5    8.90    1.60
  -4   0  -5  139.59    4.60
  -4   0  -5  136.09    4.60
  -4   0  -5  134.19    4.90
   4   0   5  133.79    4.00
   4   0   5  136.99    4.00
   4   0   5  136.19    4.90
   4   0   5  135.99    4.20
  -5   0  -5   50.89    3.30
  -5   0  -5   55.39    3.50
  -5   0  -5   47.70    4.20
   5   0   5   49.40    2.60
   5   0   5   53.29    2.50
   5   0   5   48.50    2.30
   5   0   5   52.09    3.60
  -6   0  -5   14.50    2.60
  -6   0  -5   15.50    2.60
  -6   0  -5   18.80    2.60
   6   0   5   17.20    2.70
  -7   0  -5    7.60    2.60
  -7   0  -5    6.80    2.90
  -7   0  -5    7.20    2.80
  -8   0  -5   31.50    4.20
  -8   0  -5   31.70    4.40
  -8   0  -5   24.70    5.80
   8   0   5   32.50    4.10
  -9   1   5   13.40    4.50
  -9   1   5    2.40    4.30
  -9   1   5   13.00    4.20
  -9   1   5    8.50    3.60
  -8   1   5   38.30    4.00
  -8   1   5   39.50    3.70
  -8   1   5   37.80    4.00
  -8   1   5   39.60    4.20
  -7   1   5   36.00    3.40
  -7   1   5   33.60    3.40
  -7   1   5   38.00    3.40
  -7   1   5   37.30    3.10
   6  -1  -5   44.00    3.60
   6  -1  -5   46.60    2.60
   6  -1  -5   46.20    2.60
  -6   1   5   44.70    3.80
  -6   1   5   46.80    4.10
  -6   1   5   43.70    3.40
  -6   1   5   49.00    3.90
   5  -1  -5  214.78    5.70
   5  -1  -5  211.38    5.70
   5  -1  -5  217.58    6.40
  -5   1   5  195.38    8.10
  -5   1   5  211.68    6.20
  -5   1   5  211.18    6.60
  -5   1   5  213.68    6.60
   4  -1  -5  231.08    6.60
   4  -1  -5  228.28    6.20
   4  -1  -5  232.48    6.20
  -4   1   5  229.28    5.50
  -4   1   5  235.88    6.50
  -4   1   5  229.98    6.80
  -4   1   5  238.18    6.50
   3  -1  -5  254.67    6.60
   3  -1  -5  251.07    6.80
   3  -1  -5  252.87    6.60
   3  -1  -5  248.88    6.20
  -3   1   5  246.88    6.70
  -3   1   5  253.37    6.80
  -3   1   5  255.87    7.00
  -3   1   5  250.17    6.10
   2  -1  -5  217.38    5.70
   2  -1  -5  212.58    6.00
   2  -1  -5  220.88    5.90
   2  -1  -5  218.48    5.90
  -2   1   5  221.68    6.00
  -2   1   5  220.88    6.10
  -2   1   5  217.08    5.60
  -2   1   5  218.28    6.10
  -2   1   5  210.38    5.90
   1  -1  -5  382.36    9.30
   1  -1  -5  373.06    9.20
   1  -1  -5  388.86    9.30
   1  -1  -5  380.36    9.20
  -1   1   5  385.56    9.20
  -1   1   5  387.36    9.40
  -1   1   5  378.56    9.30
  -1   1   5  381.56    9.30
  -1   1   5  371.56    9.20
   0  -1  -5  765.22   17.20
   0  -1  -5  741.63   17.10
   0  -1  -5  771.42   17.00
   0  -1  -5  733.63   17.20
   0   1   5  759.42   17.20
   0   1   5  781.62   17.00
   0   1   5  775.22   17.20
   0   1   5  761.22   17.00
   0   1   5  768.92   17.00
  -1  -1  -5   19.60    1.80
  -1  -1  -5   26.10    2.30
  -1  -1  -5   25.30    2.00
  -1  -1  -5   25.90    2.30
   1   1   5   24.50    2.30
   1   1   5   23.70    2.10
   1   1   5   24.30    2.10
   1   1   5   26.40    1.90
  -2  -1  -5  159.98    5.00
  -2  -1  -5  164.18    5.20
  -2  -1  -5  166.38    5.00
  -2  -1  -5  163.08    5.10
   2   1   5  159.78    4.70
   2   1   5  166.28    5.00
   2   1   5  164.68    5.20
   2   1   5  160.68    4.70
  -3  -1  -5  337.97    9.10
  -3  -1  -5  337.37    8.70
  -3  -1  -5  341.47    8.60
   3   1   5  329.57    8.20
   3   1   5  328.77    8.10
   3   1   5  329.87    9.00
   3   1   5  344.97    8.50
  -4  -1  -5  122.29    4.90
  -4  -1  -5  119.09    4.60
  -4  -1  -5  118.49    4.70
   4   1   5  119.19    4.70
   4   1   5  117.19    3.80
   4   1   5  115.79    4.30
   4   1   5  113.79    4.10
  -5  -1  -5    3.20    2.10
  -5  -1  -5    1.10    1.80
  -5  -1  -5    0.50    2.00
   5   1   5   -0.40    1.80
   5   1   5    3.90    1.70
   5   1   5    0.40    1.10
   5   1   5    1.60    1.80
  -6  -1  -5  106.99    5.60
  -6  -1  -5   98.29    5.40
  -6  -1  -5  103.49    5.20
   6   1   5  106.29    5.40
   6   1   5   96.39    3.80
   6   1   5  100.99    4.10
  -7  -1  -5   32.00    3.90
  -7  -1  -5   35.20    4.10
  -7  -1  -5   38.90    4.10
  -8  -1  -5   11.20    4.30
  -8  -1  -5   12.10    3.90
  -8  -1  -5    7.80    4.40
   8   1   5    2.50    3.70
  -9   2   5   16.30    4.80
  -9   2   5   16.80    3.80
  -9   2   5   19.10    5.10
  -9   2   5   13.30    4.30
  -8   2   5   18.00    3.20
  -8   2   5   18.50    3.60
  -8   2   5   21.90    4.10
  -8   2   5   16.90    3.70
   7  -2  -5   13.50    2.90
  -7   2   5   24.60    3.60
  -7   2   5   20.90    2.90
  -7   2   5   27.80    3.20
  -7   2   5   20.60    3.30
   6  -2  -5   44.00    3.80
   6  -2  -5   40.70    2.30
   6  -2  -5   38.00    2.40
  -6   2   5   43.90    3.70
  -6   2   5   50.59    4.20
  -6   2   5   44.30    3.40
   5  -2  -5   51.89    3.50
   5  -2  -5   54.09    2.90
   5  -2  -5   50.69    2.80
  -5   2   5   51.59    1.90
  -5   2   5   55.19    3.80
  -5   2   5   54.19    3.50
  -5   2   5   53.59    3.60
   4  -2  -5    0.10    1.30
   4  -2  -5    0.50    1.40
   4  -2  -5   -1.50    1.40
  -4   2   5   -0.20    1.40
  -4   2   5    0.80    1.50
  -4   2   5    0.00    0.90
   3  -2  -5  124.39    4.10
   3  -2  -5  123.79    4.70
   3  -2  -5  120.49    4.20
   3  -2  -5  118.89    3.80
  -3   2   5  116.09    4.40
  -3   2   5  118.89    3.70
  -3   2   5  125.59    4.30
  -3   2   5  122.09    4.50
   2  -2  -5  150.88    4.70
   2  -2  -5  147.19    4.40
   2  -2  -5  147.49    4.80
   2  -2  -5  146.69    4.60
  -2   2   5  139.59    4.80
  -2   2   5  147.29    4.90
  -2   2   5  143.69    4.60
  -2   2   5  143.59    4.40
   1  -2  -5   54.29    2.70
   1  -2  -5   53.49    2.90
   1  -2  -5   58.49    3.10
   1  -2  -5   59.39    3.00
  -1   2   5   57.69    2.70
  -1   2   5   58.99    3.00
  -1   2   5   55.89    2.90
  -1   2   5   59.19    3.20
   0  -2  -5   25.10    2.20
   0  -2  -5   22.40    1.90
   0  -2  -5   21.90    1.90
   0  -2  -5   22.00    1.90
   0   2   5   25.80    2.30
   0   2   5   25.20    2.10
   0   2   5   28.60    2.30
  -1  -2  -5  379.86    9.60
  -1  -2  -5  373.76    9.70
  -1  -2  -5  376.86    9.50
  -1  -2  -5  387.96    9.90
   1   2   5  384.76    9.80
   1   2   5  388.86    9.40
   1   2   5  387.26    9.40
   1   2   5  383.96    9.60
  -2  -2  -5  246.08    7.00
  -2  -2  -5  248.78    7.10
  -2  -2  -5  239.28    7.10
  -2  -2  -5  250.27    7.30
   2   2   5  253.87    6.80
   2   2   5  261.27    7.10
   2   2   5  249.68    7.30
   2   2   5  261.07    6.70
  -3  -2  -5   89.69    4.40
  -3  -2  -5   91.89    4.10
  -3  -2  -5   88.19    4.20
  -3  -2  -5   82.39    4.20
   3   2   5   95.39    4.30
   3   2   5   86.79    3.50
   3   2   5   90.79    3.80
   3   2   5   92.49    4.10
  -4  -2  -5    1.30    1.40
  -4  -2  -5    4.10    2.10
  -4  -2  -5    1.50    1.90
   4   2   5    3.20    1.70
   4   2   5   -0.40    2.10
   4   2   5    0.50    1.80
   4   2   5    0.30    1.40
  -5  -2  -5   71.79    4.60
  -5  -2  -5   58.09    4.80
  -5  -2  -5   62.69    4.80
   5   2   5   65.99    2.80
   5   2   5   74.49    4.00
   5   2   5   61.39    4.60
   5   2   5   63.09    4.30
  -6  -2  -5   51.99    4.30
  -6  -2  -5   56.29    5.10
  -6  -2  -5   46.40    4.30
   6   2   5   43.40    3.50
   6   2   5   47.90    4.00
  -7  -2  -5    6.60    4.00
  -7  -2  -5   10.60    3.90
  -7  -2  -5    4.10    3.30
   7   2   5    7.20    2.60
   7   2   5    8.40    2.40
   7   2   5    7.70    3.40
  -8   3   5   15.00    4.00
  -8   3   5   22.10    3.50
  -8   3   5   24.20    4.10
   7  -3  -5   35.80    3.60
  -7   3   5   43.30    3.60
  -7   3   5   39.70    5.80
  -7   3   5   39.90    3.90
   6  -3  -5   36.80    2.30
   6  -3  -5   38.90    2.20
  -6   3   5   44.00    3.50
  -6   3   5   43.00    3.50
  -6   3   5   44.20    4.00
  -6   3   5   42.60    1.90
   5  -3  -5    4.00    1.90
   5  -3  -5    5.10    1.60
   5  -3  -5    3.60    1.60
  -5   3   5    3.40    2.00
  -5   3   5    3.00    1.10
  -5   3   5    5.80    2.20
  -5   3   5   -0.20    2.20
   4  -3  -5  122.49    4.80
   4  -3  -5  125.99    4.50
   4  -3  -5  122.69    4.40
  -4   3   5  118.29    3.90
  -4   3   5  120.79    4.70
  -4   3   5  119.99    4.90
  -4   3   5  120.49    5.00
   3  -3  -5  527.95   12.40
   3  -3  -5  522.75   12.30
   3  -3  -5  522.85   12.80
  -3   3   5  523.55   12.60
  -3   3   5  505.75   12.50
  -3   3   5  516.05   12.20
  -3   3   5  532.05   12.80
   2  -3  -5  115.59    4.50
   2  -3  -5  115.29    4.10
   2  -3  -5  117.09    4.40
   2  -3  -5  116.29    4.40
  -2   3   5  116.09    4.30
  -2   3   5  114.79    4.00
  -2   3   5  115.19    4.50
  -2   3   5  114.69    4.50
   1  -3  -5   16.30    1.90
   1  -3  -5   18.30    2.30
   1  -3  -5   16.60    2.00
   1  -3  -5   16.80    2.10
  -1   3   5   19.20    2.30
  -1   3   5   18.80    2.00
  -1   3   5   14.20    1.80
  -1   3   5   18.30    2.20
   0  -3  -5  392.26   10.10
   0  -3  -5  403.66   10.30
   0  -3  -5  397.36   10.00
   0  -3  -5  400.36   10.00
   0   3   5  402.16   10.10
   0   3   5  403.26    9.90
   0   3   5  383.06   10.40
  -1  -3  -5  213.58    6.50
  -1  -3  -5  216.98    6.60
  -1  -3  -5  220.38    6.40
  -1  -3  -5  206.28    6.50
   1   3   5  209.28    6.50
   1   3   5  208.28    6.20
   1   3   5  208.88    6.50
  -2  -3  -5   26.90    2.60
  -2  -3  -5   28.50    2.70
  -2  -3  -5   26.60    2.60
  -2  -3  -5   27.30    2.90
   2   3   5   28.40    2.80
   2   3   5   26.90    2.60
   2   3   5   24.50    2.20
  -3  -3  -5   30.90    2.90
  -3  -3  -5   31.00    2.90
  -3  -3  -5   36.30    3.40
  -3  -3  -5   39.20    3.60
   3   3   5   37.50    3.10
   3   3   5   33.60    3.40
   3   3   5   34.20    2.80
   3   3   5   37.00    3.20
  -4  -3  -5   83.09    5.10
  -4  -3  -5   79.99    5.20
  -4  -3  -5   77.89    4.80
   4   3   5   79.69    3.60
   4   3   5   75.79    4.70
   4   3   5   86.39    4.60
   4   3   5   80.39    5.20
  -5  -3  -5   47.50    4.70
  -5  -3  -5   36.00    3.90
  -5  -3  -5   39.70    4.20
   5   3   5   41.70    3.90
   5   3   5   50.89    4.40
   5   3   5   39.90    2.90
  -6  -3  -5    1.90    3.00
  -6  -3  -5    2.50    3.70
  -6  -3  -5    4.70    3.70
   6   3   5    4.00    3.00
   6   3   5    1.40    3.60
   6   3   5    1.30    2.80
  -7  -3  -5   14.80    4.20
  -7  -3  -5    8.30    4.70
  -7  -3  -5   17.70    5.40
   7   3   5    6.10    3.40
   7   3   5    6.80    7.40
   7   3   5    9.30    3.90
  -8   4   5   18.80    3.80
  -8   4   5   13.10    4.10
  -8   4   5   21.90    4.70
   7  -4  -5   41.60    4.40
  -7   4   5   38.90    3.80
  -7   4   5   40.50    4.20
  -7   4   5   30.50    4.00
  -7   4   5   36.40    2.00
   6  -4  -5    5.90    1.30
  -6   4   5    3.80    2.50
  -6   4   5    2.50    2.60
  -6   4   5    2.70    3.00
  -6   4   5    4.10    1.50
   5  -4  -5   74.19    3.60
   5  -4  -5   74.89    4.70
   5  -4  -5   71.59    3.60
  -5   4   5   74.69    4.50
  -5   4   5   70.09    3.20
  -5   4   5   78.79    4.80
  -5   4   5   80.09    5.00
   4  -4  -5   17.00    2.20
   4  -4  -5   15.20    2.40
   4  -4  -5   18.60    2.40
  -4   4   5   15.30    2.60
  -4   4   5   16.00    1.90
  -4   4   5   15.40    2.50
  -4   4   5   15.50    2.60
   3  -4  -5   -0.10    1.80
   3  -4  -5    1.50    1.90
   3  -4  -5   -0.90    1.90
  -3   4   5    1.90    1.50
  -3   4   5    1.10    1.60
  -3   4   5    0.40    1.90
  -3   4   5   -0.30    1.90
   2  -4  -5   -0.90    2.10
   2  -4  -5   -0.70    1.80
   2  -4  -5   -1.40    1.80
  -2   4   5   -0.10    2.00
  -2   4   5    0.60    1.60
  -2   4   5    0.20    1.80
  -2   4   5    2.10    1.50
   1  -4  -5  109.69    4.80
   1  -4  -5  117.89    4.70
   1  -4  -5  120.79    4.90
   1  -4  -5  111.69    4.80
  -1   4   5  109.79    4.50
  -1   4   5  114.19    4.60
  -1   4   5  117.79    5.00
  -1   4   5  111.59    4.70
   0  -4  -5   51.39    3.90
   0  -4  -5   48.00    3.70
   0  -4  -5   53.19    3.80
   0  -4  -5   46.60    3.30
   0   4   5   52.39    3.40
   0   4   5   54.39    3.50
   0   4   5   48.20    4.10
  -1  -4  -5    2.40    2.10
  -1  -4  -5    1.70    1.70
  -1  -4  -5    1.30    2.00
  -1  -4  -5    0.00    1.90
   1   4   5    0.70    1.60
   1   4   5    0.70    1.60
   1   4   5    0.90    2.30
  -2  -4  -5   90.19    4.60
  -2  -4  -5   75.79    4.80
  -2  -4  -5   75.89    4.70
   2   4   5   84.99    4.50
   2   4   5   81.89    5.20
   2   4   5   62.29    4.20
  -3  -4  -5  119.19    5.50
  -3  -4  -5  124.39    6.10
   3   4   5  123.69    4.90
   3   4   5  127.19    5.50
   3   4   5  121.29    6.30
  -4  -4  -5   49.90    4.60
  -4  -4  -5   54.09    4.60
  -4  -4  -5   49.30    4.30
   4   4   5   47.50    3.80
   4   4   5   49.90    3.90
   4   4   5   49.10    4.30
  -5  -4  -5   -3.50    3.90
  -5  -4  -5    1.00    2.70
  -5  -4  -5    0.70    3.80
   5   4   5   -1.00    2.00
   5   4   5    0.40    2.90
   5   4   5   -4.90    2.80
   5   4   5   -0.50    3.80
  -6  -4  -5    7.60    5.80
  -6  -4  -5   11.80    3.90
  -6  -4  -5   19.50    4.60
   6   4   5   18.40    7.10
   6   4   5   18.80    4.90
   6   4   5   20.90    3.90
   7  -5  -5    5.10    3.50
  -7   5   5    3.50    3.50
  -7   5   5    7.50    1.90
  -7   5   5    4.00    4.20
  -7   5   5    7.30    3.30
   6  -5  -5   45.10    4.40
  -6   5   5   53.89    6.10
  -6   5   5   48.70    3.90
  -6   5   5   46.30    3.30
  -6   5   5   51.59    4.60
   5  -5  -5   33.70    2.70
   5  -5  -5   34.30    2.70
  -5   5   5   31.60    3.30
  -5   5   5   32.40    3.40
  -5   5   5   36.80    3.80
  -5   5   5   32.00    3.70
   4  -5  -5    8.10    2.40
   4  -5  -5    8.20    2.50
   4  -5  -5    7.30    2.30
  -4   5   5    7.90    2.40
  -4   5   5    4.60    2.50
  -4   5   5   10.60    3.60
  -4   5   5   12.60    3.10
   3  -5  -5  123.59    5.70
   3  -5  -5  123.29    5.60
   3  -5  -5  127.19    5.20
  -3   5   5  133.69    5.50
  -3   5   5  115.99    4.90
  -3   5   5  114.09    5.90
  -3   5   5  120.59    5.30
   2  -5  -5  260.17    8.20
   2  -5  -5  267.17    8.00
   2  -5  -5  263.07    7.80
  -2   5   5  259.87    7.90
  -2   5   5  252.17    7.80
  -2   5   5  258.57    8.30
  -2   5   5  257.97    8.00
   1  -5  -5   48.30    4.40
   1  -5  -5   48.40    4.40
   1  -5  -5   47.90    3.70
  -1   5   5   44.00    3.80
  -1   5   5   31.70    3.60
  -1   5   5   45.40    3.60
   0  -5  -5    0.80    2.50
   0  -5  -5   -1.40    1.80
   0  -5  -5    1.80    2.50
   0  -5  -5    2.50    2.20
   0   5   5   -1.90    1.90
   0   5   5   -1.50    1.70
  -1  -5  -5   98.29    5.20
  -1  -5  -5   97.79    5.50
  -1  -5  -5   93.19    5.50
  -1  -5  -5   92.99    5.70
   1   5   5   99.49    6.00
   1   5   5   96.49    5.00
  -2  -5  -5  117.79    5.80
  -2  -5  -5  109.79    6.10
   2   5   5  110.39    6.70
   2   5   5  119.79    5.70
  -3  -5  -5    5.10    3.00
  -3  -5  -5    7.50    3.60
  -3  -5  -5   10.10    3.60
   3   5   5    5.00    2.80
   3   5   5    7.00    2.90
  -4  -5  -5    1.90    4.00
  -4  -5  -5   -1.20    2.90
  -4  -5  -5    5.40    3.60
  -4  -5  -5    3.20    3.70
   4   5   5    0.20    3.10
   4   5   5    1.10    2.50
   4   5   5    1.30    3.30
  -5  -5  -5   11.80    4.30
  -5  -5  -5   22.40    4.40
   5   5   5   16.90    4.90
   5   5   5   16.10    2.90
  -7   6   5   16.10    5.50
  -7   6   5   20.20    4.50
  -7   6   5   17.80    2.90
  -7   6   5   18.60    4.20
   6  -6  -5   22.10    4.20
  -6   6   5   23.50    3.90
  -6   6   5   18.50    4.80
  -6   6   5   19.90    3.80
  -6   6   5   25.10    4.00
   5  -6  -5    4.70    2.50
   5  -6  -5    1.90    2.30
   5  -6  -5    1.80    3.10
  -5   6   5    8.10    3.90
  -5   6   5    0.00    3.00
  -5   6   5    3.70    2.40
  -5   6   5    0.30    2.90
   4  -6  -5   28.30    3.10
   4  -6  -5   29.10    3.40
  -4   6   5   27.90    3.10
  -4   6   5   29.10    4.20
  -4   6   5   26.40    3.50
  -4   6   5   34.20    3.80
   3  -6  -5   24.80    3.70
   3  -6  -5   22.40    3.30
   3  -6  -5   23.30    3.30
  -3   6   5   19.70    2.80
  -3   6   5   15.70    2.70
  -3   6   5   24.10    4.00
  -3   6   5   25.80    3.30
   2  -6  -5    8.40    3.00
   2  -6  -5    6.90    3.10
   2  -6  -5   12.50    3.00
  -2   6   5   11.50    3.40
  -2   6   5   10.30    2.70
  -2   6   5   13.90    3.00
   1  -6  -5   -2.00    2.50
   1  -6  -5    1.00    2.90
   1  -6  -5    1.90    2.80
  -1   6   5    0.20    3.10
  -1   6   5   -1.80    2.10
  -1   6   5    1.00    2.30
   0  -6  -5   46.80    4.10
   0   6   5   44.10    3.70
   0   6   5   42.80    4.00
  -1  -6  -5   26.10    3.60
   1   6   5   34.70    4.60
   1   6   5   34.50    6.10
   1   6   5   29.10    3.70
  -2  -6  -5    2.10    3.40
  -2  -6  -5    2.10    3.60
  -2  -6  -5   -1.90    3.70
  -2  -6  -5   -0.50    2.70
   2   6   5    3.40    3.20
   2   6   5    3.00    2.80
   2   6   5    3.00    4.10
  -3  -6  -5   11.30    4.10
  -3  -6  -5    8.90    4.00
  -3  -6  -5    5.10    2.80
  -3  -6  -5    7.10    4.00
   3   6   5   13.30    3.90
   3   6   5    8.20    4.70
   3   6   5    3.30    3.30
  -4  -6  -5   40.30    5.00
  -4  -6  -5   30.20    5.00
   4   6   5   27.30    6.00
   4   6   5   31.00    6.40
   4   6   5   37.20    4.70
   5  -7  -5   37.10    4.90
   5  -7  -5   29.80    3.20
   5  -7  -5   34.60    3.50
  -5   7   5   33.30    3.80
  -5   7   5   40.80    4.60
  -5   7   5   32.00    4.30
  -5   7   5   38.50    5.70
   4  -7  -5   11.40    3.90
   4  -7  -5   26.00    3.50
   4  -7  -5   17.10    3.70
  -4   7   5   12.30    4.80
  -4   7   5   14.40    3.30
  -4   7   5    7.00    6.10
  -4   7   5   20.70    3.70
   3  -7  -5    1.20    3.10
   3  -7  -5   -1.60    3.60
   3  -7  -5   -0.20    3.60
  -3   7   5   -1.80    4.20
  -3   7   5    2.00    3.20
  -3   7   5   -1.60    2.60
   2  -7  -5   21.90    4.00
   2  -7  -5   25.40    3.90
  -2   7   5   20.90    3.60
  -2   7   5   18.80    3.60
  -2   7   5   23.10    4.70
   1  -7  -5   65.39    6.20
  -1   7   5   54.49    5.10
  -1   7   5   49.90    4.20
  -1   7   5   66.89    5.80
   0  -7  -5   30.50    4.30
   0  -7  -5   32.80    4.70
   0  -7  -5   40.70    4.80
   0   7   5   27.70    4.60
   0   7   5   36.30    4.40
  -1  -7  -5   -3.10    4.20
  -1  -7  -5    1.70    3.80
  -1  -7  -5    2.30    3.70
   1   7   5    3.50    3.30
   1   7   5    6.30    5.00
   1   7   5    3.70    3.60
  -2  -7  -5   22.80    5.20
  -2  -7  -5   18.10    4.60
   2   7   5   17.70    4.60
  -3  -7  -5   28.20    5.20
   3   7   5   33.30    5.10
   4  -8  -5    6.20    4.30
   4  -8  -5    8.80    4.10
   4  -8  -5   13.50    5.00
  -4   8   5    5.40    4.00
  -4   8   5   16.50    4.30
   3  -8  -5    6.60    4.60
   3  -8  -5    6.70    4.60
   3  -8  -5    8.40    4.10
  -3   8   5    2.80    3.90
  -3   8   5   -3.40    3.60
   2  -8  -5   20.10    4.60
   2  -8  -5   23.90    5.10
   2  -8  -5   -2.20    5.50
  -2   8   5   29.50    4.70
  -2   8   5   27.80    4.50
   1  -8  -5    7.90    5.10
   1  -8  -5    1.60    4.30
   1  -8  -5    3.70    4.60
  -1   8   5   11.80    5.80
   0  -8  -5    1.10    5.20
   0  -8  -5   -1.90    4.40
   0  -8  -5    1.60    5.40
   0   8   5   -0.80    4.30
  -1  -8  -5    3.10    4.70
   1   8   5    7.90    4.70
   1  12  -6    7.50    4.50
   1  12  -6   10.80    5.10
  -1 -12   6    7.60    2.10
  -1 -12   6    6.90    2.50
  -1 -12   6   15.40    6.00
  -1 -12   6   10.20    4.60
   0  12  -6   -4.40    4.10
   0  12  -6    0.00    4.60
   0 -12   6   -1.90    7.80
  -1  12  -6    3.40    4.40
  -1  12  -6    5.90    4.20
   1 -12   6   13.60    4.30
   1 -12   6    9.40    3.80
  -2  12  -6   27.60    5.10
  -2  12  -6   31.00    4.80
  -2  12  -6   22.80    5.90
   2 -12   6   27.50    3.70
   2 -12   6   26.00    3.60
  -3  12  -6   11.90    5.40
  -3  12  -6   12.80    5.60
  -3  12  -6    7.50    4.10
   3  11  -6   24.20    5.10
   3  11  -6   27.40    4.90
  -3 -11   6   19.40    3.30
  -3 -11   6   18.10    4.80
   2  11  -6   23.00    4.40
   2  11  -6   16.00    4.30
  -2 -11   6   20.50    2.60
  -2 -11   6   13.60    4.60
  -2 -11   6   24.60    4.60
   1  11  -6   -1.20    4.50
   1  11  -6    1.50    3.70
   1  11  -6    1.10    3.70
  -1 -11   6    3.40    1.70
  -1 -11   6   -0.90    3.60
  -1 -11   6    2.00    4.60
   0  11  -6   52.59    4.80
   0  11  -6   38.50    4.90
   0  11  -6   51.19    4.80
   0 -11   6   44.10    4.20
   0 -11   6   47.40    4.50
  -1  11  -6   57.19    5.20
  -1  11  -6   66.99    5.70
  -1  11  -6   62.99    8.50
   1 -11   6   65.19    5.80
   1 -11   6   67.79    5.30
  -2  11  -6    6.50    4.20
  -2  11  -6    4.20    3.70
  -2  11  -6    4.00    3.30
   2 -11   6    5.80    2.70
   2 -11   6    6.30    2.60
  -3  11  -6   14.50    4.20
  -3  11  -6   10.90    4.10
  -3  11  -6    7.30    3.30
  -4  11  -6   49.70    4.40
  -4  11  -6   58.09    5.50
  -4  11  -6   52.19    5.00
  -5  11  -6   36.80    4.90
  -5  11  -6   34.50    4.20
  -5  11  -6   39.80    5.40
   4  10  -6   44.00    4.90
   4  10  -6   43.40    5.30
   4  10  -6   41.40    5.60
  -4 -10   6   36.50    5.10
  -4 -10   6   43.30    4.00
   3  10  -6   15.50    4.00
   3  10  -6   17.00    5.10
   3  10  -6   20.30    4.00
  -3 -10   6   15.40    2.80
  -3 -10   6   15.30    4.10
  -3 -10   6   14.10    4.50
   2  10  -6   -3.80    5.50
   2  10  -6    7.00    3.50
   2  10  -6    8.10    3.30
  -2 -10   6   10.50    4.80
  -2 -10   6    8.30    2.00
  -2 -10   6   -0.70    3.70
   1  10  -6   49.10    4.10
   1  10  -6   31.70    5.30
   1  10  -6   34.00    4.20
  -1 -10   6   41.70    4.10
  -1 -10   6   50.09    4.10
  -1 -10   6   50.89    2.90
   0  10  -6   59.49    5.10
   0  10  -6   75.99    5.70
   0  10  -6   47.30    4.20
   0 -10   6   67.59    5.00
   0 -10   6   52.99    5.00
  -1  10  -6    5.10    2.80
  -1  10  -6    3.50    3.00
  -1  10  -6    4.70    3.30
   1 -10   6    6.70    2.40
   1 -10   6    4.70    3.30
  -2  10  -6   30.10    3.70
  -2  10  -6   29.00    3.30
   2 -10   6   32.80    2.70
   2 -10   6   27.30    2.50
  -3  10  -6   44.00    3.70
  -3  10  -6   43.60    3.90
  -3  10  -6   47.00    4.70
  -4  10  -6   15.20    3.70
  -4  10  -6   15.90    3.10
  -4  10  -6   17.60    3.30
  -5  10  -6    0.10    2.80
  -5  10  -6    0.40    3.30
  -5  10  -6   -0.70    3.90
  -6  10  -6   14.20    3.40
  -6  10  -6   11.30    4.80
  -6  10  -6   14.80    3.60
   5   9  -6   31.90    4.20
   5   9  -6   15.70    6.10
   5   9  -6   28.90    4.40
  -5  -9   6   30.20    3.80
  -5  -9   6   29.00    4.60
  -5  -9   6   21.80    4.80
   4   9  -6    5.40    4.60
   4   9  -6    1.00    3.50
   4   9  -6    3.80    3.50
   4   9  -6    4.50    3.20
  -4  -9   6    6.70    3.60
  -4  -9   6   -3.50    3.30
  -4  -9   6    3.00    3.60
  -4  -9   6   -2.10    2.40
   3   9  -6    6.10    3.40
   3   9  -6   12.40    3.00
   3   9  -6    7.80    3.60
  -3  -9   6    9.50    2.20
  -3  -9   6    5.60    3.00
  -3  -9   6    8.70    3.20
   2   9  -6   85.59    5.30
   2   9  -6   90.89    5.40
  -2  -9   6   74.99    5.40
  -2  -9   6   78.09    3.70
  -2  -9   6   81.89    5.30
  -2  -9   6   78.29    5.80
   1   9  -6   63.69    4.70
   1   9  -6   64.59    4.70
  -1  -9   6   59.39    5.10
  -1  -9   6   63.69    2.90
  -1  -9   6   59.09    4.80
  -1  -9   6   61.49    4.60
   0   9  -6    2.20    2.30
   0   9  -6   -0.20    2.20
   0   9  -6   -1.50    2.40
   0  -9   6   -0.80    2.10
   0  -9   6    1.60    2.30
   0  -9   6   -1.20    2.10
   0  -9   6    1.60    0.90
  -1   9  -6   58.09    4.30
  -1   9  -6   54.89    4.60
  -1   9  -6   68.79    4.70
   1  -9   6   57.79    3.80
   1  -9   6   62.49    3.90
  -2   9  -6  151.68    5.70
  -2   9  -6  153.98    6.30
  -2   9  -6  146.39    6.00
   2  -9   6  147.39    4.80
   2  -9   6  147.99    4.80
  -3   9  -6   53.59    4.00
  -3   9  -6   57.89    4.60
  -3   9  -6   59.59    5.00
  -4   9  -6   35.20    3.20
  -4   9  -6   34.00    3.00
  -4   9  -6   33.10    3.70
  -5   9  -6  110.39   10.00
  -5   9  -6  106.99    4.90
  -5   9  -6  101.99    5.20
  -6   9  -6   56.59    5.00
  -6   9  -6   47.90    5.00
  -6   9  -6   51.69    4.30
  -6   9  -6   51.49    4.20
  -7   9  -6   -2.50    4.10
  -7   9  -6    7.30    3.50
  -7   9  -6    0.10    3.10
  -7   9  -6    3.70    1.30
  -7   9  -6    4.80    2.90
   6   8  -6   22.10    5.60
   6   8  -6   34.20    4.60
   6   8  -6   36.80    4.40
   6   8  -6   38.40    4.20
  -6  -8   6   35.60    4.40
  -6  -8   6   24.70    4.50
  -6  -8   6   29.60    4.30
   5   8  -6    6.80    3.30
   5   8  -6    3.80    3.20
   5   8  -6    7.00    3.20
   5   8  -6    4.00    4.20
  -5  -8   6    5.00    3.70
  -5  -8   6    0.80    3.30
  -5  -8   6   -1.10    2.70
  -5  -8   6    5.00    3.50
   4   8  -6   31.90    3.50
   4   8  -6   32.10    3.50
  -4  -8   6   30.60    3.70
  -4  -8   6   21.40    5.20
  -4  -8   6   27.70    2.90
   3   8  -6  180.58    6.80
   3   8  -6  173.08    6.60
  -3  -8   6  157.98    7.80
  -3  -8   6  170.38    6.80
  -3  -8   6  170.88    5.60
  -3  -8   6  177.48    6.80
   2   8  -6   47.30    4.30
   2   8  -6   58.19    4.30
  -2  -8   6   48.50    2.90
  -2  -8   6   51.49    4.30
  -2  -8   6   58.89    4.60
  -2  -8   6   53.59    4.60
   1   8  -6   -3.50    2.10
   1   8  -6   -1.70    1.90
   1   8  -6   -0.30    2.00
  -1  -8   6   -2.50    1.10
  -1  -8   6    1.40    1.90
  -1  -8   6   -2.00    2.20
  -1  -8   6    0.80    1.80
   0   8  -6  137.99    5.40
   0   8  -6  129.69    5.10
   0   8  -6  131.19    5.30
   0  -8   6  127.39    3.40
   0  -8   6  124.29    4.90
   0  -8   6  117.69    6.00
   0  -8   6  128.59    5.50
  -1   8  -6  165.88    5.80
  -1   8  -6  162.38    5.60
  -1   8  -6  155.38    5.90
   1  -8   6  155.78    6.10
   1  -8   6  159.78    5.10
   1  -8   6  162.98    5.20
  -2   8  -6   40.60    3.70
  -2   8  -6   43.80    3.40
  -2   8  -6   41.10    3.30
   2  -8   6   41.80    2.70
   2  -8   6   40.20    3.90
  -3   8  -6   22.60    2.80
  -3   8  -6   28.20    2.50
  -4   8  -6   26.30    2.60
  -4   8  -6   26.40    3.10
  -4   8  -6   25.50    2.40
  -5   8  -6   92.89    5.60
  -5   8  -6   90.49    4.40
  -5   8  -6   89.79    4.10
  -6   8  -6   22.80    2.70
  -6   8  -6   26.40    3.90
  -6   8  -6   28.50    2.60
  -6   8  -6   25.70    3.40
  -6   8  -6   22.20    2.00
  -6   8  -6   22.50    1.70
  -7   8  -6    7.10    2.50
  -7   8  -6   11.40    2.10
  -7   8  -6    8.80    2.50
  -7   8  -6   11.20    3.10
  -7   8  -6   10.40    3.70
   7   7  -6   15.80    4.30
   7   7  -6   16.30    3.40
   7   7  -6   12.90    5.20
  -7  -7   6   14.00    4.60
  -7  -7   6   17.70    4.10
  -7  -7   6   13.10    4.00
   6   7  -6    1.00    2.80
   6   7  -6    2.50    2.90
   6   7  -6   -2.70    6.10
  -6  -7   6    1.50    3.10
  -6  -7   6   -0.20    3.60
  -6  -7   6   -6.20    5.80
  -6  -7   6    1.20    4.00
   5   7  -6   36.10    3.40
   5   7  -6   35.70    3.40
   5   7  -6   35.40    3.50
  -5  -7   6   38.00    3.60
  -5  -7   6   34.20    3.30
  -5  -7   6   29.30    6.90
   4   7  -6  111.19    6.20
   4   7  -6  102.79    5.40
   4   7  -6  111.89    5.30
  -4  -7   6  103.89    5.30
  -4  -7   6  118.99    4.90
  -4  -7   6  112.59    5.60
   3   7  -6   40.90    3.50
   3   7  -6   45.80    3.90
   3   7  -6   46.80    3.90
  -3  -7   6   49.30    3.10
  -3  -7   6   43.00    4.10
  -3  -7   6   48.60    4.30
  -3  -7   6   47.30    4.10
   2   7  -6   15.50    2.30
   2   7  -6   12.60    2.60
   2   7  -6    9.50    2.00
  -2  -7   6   13.10    2.30
  -2  -7   6    9.00    2.10
  -2  -7   6   11.80    2.30
  -2  -7   6   11.10    1.60
   1   7  -6  187.08    6.20
   1   7  -6  181.68    6.00
   1   7  -6  190.98    6.10
  -1  -7   6  194.98    6.00
  -1  -7   6  183.28    4.90
  -1  -7   6  186.58    6.20
  -1  -7   6  188.18    6.00
   0   7  -6  132.89    4.90
   0   7  -6  137.99    5.10
   0   7  -6  139.99    5.10
   0  -7   6  136.59    3.60
   0  -7   6  137.79    5.20
   0  -7   6  143.09    4.80
   0  -7   6  145.69    4.80
  -1   7  -6   22.60    2.20
  -1   7  -6   18.50    2.30
  -1   7  -6   13.20    3.10
   1  -7   6   20.00    1.90
   1  -7   6   18.90    1.90
   1  -7   6   20.60    2.30
  -2   7  -6   85.79    4.30
  -2   7  -6   95.39    3.80
  -2   7  -6   95.49    4.00
   2  -7   6   95.39    4.40
   2  -7   6   94.59    3.30
   2  -7   6   96.29    3.30
  -3   7  -6  207.08    6.10
  -3   7  -6  212.28    6.70
  -3   7  -6  209.18    6.00
   3  -7   6  216.18    6.90
  -4   7  -6   64.09    1.60
  -4   7  -6   67.09    3.50
  -4   7  -6   65.09    3.40
  -4   7  -6   63.99    1.60
  -4   7  -6   66.09    4.30
  -5   7  -6   39.80    3.20
  -5   7  -6   43.90    2.30
  -5   7  -6   45.90    3.60
  -5   7  -6   42.80    3.40
  -5   7  -6   49.00    3.10
  -5   7  -6   44.80    2.00
  -6   7  -6   59.59    4.40
  -6   7  -6   55.59    3.70
  -6   7  -6   57.79    2.80
  -6   7  -6   55.59    3.50
  -6   7  -6   64.29    5.10
  -7   7  -6   64.09    3.60
  -7   7  -6   68.69    7.40
  -7   7  -6   66.19    3.70
  -7   7  -6   63.39    4.00
  -7   7  -6   62.99    5.60
  -8   7  -6   13.30    3.80
  -8   7  -6   11.30    2.60
  -8   7  -6    9.40    2.40
  -8   7  -6   10.90    2.70
  -8   7  -6   10.80    3.20
   7   6  -6    1.90    2.20
   7   6  -6    0.90    4.20
   7   6  -6    6.10    3.50
  -7  -6   6   -1.20    5.30
  -7  -6   6   -0.90    4.00
  -7  -6   6    1.40    3.20
  -7  -6   6    0.80    3.40
   6   6  -6   75.59    6.60
   6   6  -6   83.99    5.70
   6   6  -6   86.79    4.50
   6   6  -6   85.19    5.10
  -6  -6   6   63.09    4.90
  -6  -6   6   70.29    6.80
  -6  -6   6   89.09    5.70
  -6  -6   6   86.19    5.30
   5   6  -6   69.39    4.10
   5   6  -6   64.19    5.50
   5   6  -6   70.39    5.00
   5   6  -6   71.49    4.50
  -5  -6   6   62.69    4.70
  -5  -6   6   73.79    4.40
  -5  -6   6   65.59    4.90
   4   6  -6   25.00    2.70
   4   6  -6   30.30    2.80
   4   6  -6   26.00    3.10
  -4  -6   6   26.30    2.40
  -4  -6   6   23.20    2.70
  -4  -6   6   21.50    2.70
   3   6  -6   64.09    3.90
   3   6  -6   59.49    3.80
   3   6  -6   58.59    3.90
  -3  -6   6   61.39    4.00
  -3  -6   6   64.89    3.20
  -3  -6   6   65.39    3.90
  -3  -6   6   62.59    4.00
   2   6  -6  216.48    6.60
   2   6  -6  220.88    6.60
   2   6  -6  224.58    6.70
  -2  -6   6  224.18    6.60
  -2  -6   6  207.68    7.30
  -2  -6   6  226.78    6.60
  -2  -6   6  220.98    5.90
   1   6  -6  255.87    7.10
   1   6  -6  258.67    7.00
   1   6  -6  252.17    7.10
  -1  -6   6  258.47    7.00
  -1  -6   6  255.87    6.20
  -1  -6   6  258.77    7.00
  -1  -6   6  207.68    8.70
   0   6  -6   -0.30    1.50
   0   6  -6   -1.20    1.20
   0   6  -6    0.20    1.30
   0  -6   6   -0.50    1.30
   0  -6   6    0.10    1.20
   0  -6   6    0.00    0.80
   0  -6   6    0.00    1.80
  -1   6  -6   80.19    3.50
  -1   6  -6   77.09    3.30
  -1   6  -6   73.89    3.70
  -1   6  -6   74.39    2.10
   1  -6   6   78.09    3.10
   1  -6   6   72.89    3.10
   1  -6   6   70.09    3.70
  -2   6  -6  356.46    9.20
  -2   6  -6  356.56    8.70
  -2   6  -6  345.77    8.70
  -2   6  -6  338.97    7.50
   2  -6   6  345.67    9.20
   2  -6   6  346.17    8.10
   2  -6   6  355.46    8.10
  -3   6  -6  210.38    6.40
  -3   6  -6  203.48    4.80
  -3   6  -6  201.98    5.70
  -3   6  -6  208.58    5.70
   3  -6   6  197.78    6.40
  -4   6  -6    4.00    1.10
  -4   6  -6    3.90    1.50
  -4   6  -6    5.00    1.90
  -4   6  -6    2.80    1.30
  -4   6  -6    3.50    1.60
   4  -6   6    3.10    2.10
  -5   6  -6   52.99    3.60
  -5   6  -6   56.69    4.00
  -5   6  -6   52.09    3.10
  -5   6  -6   54.59    2.90
  -6   6  -6  111.79    4.20
  -6   6  -6  113.99    4.10
  -6   6  -6  122.39    5.40
  -6   6  -6  117.19    5.40
  -7   6  -6   18.10    3.20
  -7   6  -6   22.80    2.40
  -7   6  -6   22.70    3.30
  -7   6  -6   20.30    2.30
  -7   6  -6   22.00    2.20
  -8   6  -6   -3.40    2.10
  -8   6  -6   -0.40    2.40
  -8   6  -6   -3.00    3.30
  -8   6  -6   -1.00    2.40
  -8   6  -6    0.70    2.90
   8   5  -6    0.80    3.50
   8   5  -6    0.80    4.10
  -8  -5   6    4.60    4.30
  -8  -5   6    1.90    3.70
  -8  -5   6    3.00    3.70
   7   5  -6   27.00    3.50
   7   5  -6   30.90    2.60
   7   5  -6   25.70    4.10
  -7  -5   6   26.80    3.70
  -7  -5   6   24.50    3.80
  -7  -5   6   20.90    4.40
  -7  -5   6   29.20    3.70
   6   5  -6   67.39    4.90
   6   5  -6   65.59    3.40
   6   5  -6   63.49    5.50
  -6  -5   6   66.29    4.80
  -6  -5   6   62.79    5.80
  -6  -5   6   71.49    5.20
  -6  -5   6   62.39    5.10
   5   5  -6   70.79    4.50
   5   5  -6   71.09    4.20
   5   5  -6   73.19    4.90
   5   5  -6   63.89    3.40
  -5  -5   6   69.69    4.50
  -5  -5   6   72.39    4.70
  -5  -5   6   69.29    4.90
  -5  -5   6   68.29    4.20
   4   5  -6  109.19    4.90
   4   5  -6  112.99    4.70
   4   5  -6  107.29    4.50
  -4  -5   6   89.39    7.40
  -4  -5   6  118.09    5.10
  -4  -5   6  119.69    4.90
  -4  -5   6  115.29    4.50
   3   5  -6  233.68    6.60
   3   5  -6  215.58    6.70
   3   5  -6  222.58    6.60
  -3  -5   6  230.58    6.70
  -3  -5   6  211.48    6.60
  -3  -5   6  221.08    6.60
  -3  -5   6  216.58    6.20
   2   5  -6  262.77    8.40
   2   5  -6  293.37    7.70
   2   5  -6  302.47    7.80
  -2  -5   6  293.67    7.80
  -2  -5   6  301.17    7.40
  -2  -5   6  308.97    7.90
  -2  -5   6  246.78    9.60
   1   5  -6   29.30    2.50
   1   5  -6   28.70    1.80
   1   5  -6   29.30    2.50
   1   5  -6   33.50    2.60
  -1  -5   6   33.20    2.60
  -1  -5   6   31.60    1.90
  -1  -5   6   31.90    2.50
  -1  -5   6   32.30    2.70
   0   5  -6  237.08    6.50
   0   5  -6  232.28    6.50
   0   5  -6  228.28    6.40
   0   5  -6  235.38    5.70
   0  -5   6  238.18    6.30
   0  -5   6  238.68    6.30
   0  -5   6  239.58    5.80
   0  -5   6  243.78    6.70
  -1   5  -6  278.07    7.10
  -1   5  -6  280.17    7.40
  -1   5  -6  273.77    7.20
  -1   5  -6  267.97    6.40
   1  -5   6  276.27    6.90
   1  -5   6  285.57    6.90
   1  -5   6  275.57    7.50
  -2   5  -6    7.80    1.30
  -2   5  -6    9.50    1.50
  -2   5  -6    5.30    1.10
  -2   5  -6    7.60    1.00
  -2   5  -6    7.30    1.70
   2  -5   6    8.00    1.70
   2  -5   6    7.40    1.10
   2  -5   6    7.70    1.10
  -3   5  -6   40.70    3.10
  -3   5  -6   42.90    2.60
  -3   5  -6   45.10    2.60
  -3   5  -6   40.50    2.00
  -3   5  -6   43.00    2.50
   3  -5   6   38.80    1.50
   3  -5   6   42.20    3.20
   3  -5   6   46.60    1.50
  -4   5  -6  114.79    3.70
  -4   5  -6  111.69    3.80
  -4   5  -6  116.19    3.90
  -4   5  -6  114.39    4.60
  -4   5  -6  110.79    4.50
   4  -5   6  119.49    4.60
  -5   5  -6   48.40    2.80
  -5   5  -6   50.79    3.70
  -5   5  -6   49.00    2.90
  -5   5  -6   54.99    3.40
  -6   5  -6    3.70    1.60
  -6   5  -6    2.30    1.90
  -6   5  -6    2.70    2.10
  -6   5  -6    3.60    1.80
  -7   5  -6   33.00    2.60
  -7   5  -6   35.00    2.50
  -7   5  -6   33.60    3.50
  -7   5  -6   36.30    3.30
  -8   5  -6   54.99    4.20
  -8   5  -6   61.29    4.40
  -8   5  -6   62.29    5.20
  -8   5  -6   61.99    6.20
   8   4  -6   39.40    3.80
   8   4  -6   32.10    4.00
  -8  -4   6   48.00    5.00
  -8  -4   6   27.60    5.20
  -8  -4   6   35.20    4.20
  -8  -4   6   40.30    4.80
   7   4  -6   47.00    3.90
   7   4  -6   50.69    4.70
  -7  -4   6   40.70    3.90
  -7  -4   6   53.69    4.90
  -7  -4   6   47.60    4.10
  -7  -4   6   56.39    5.30
   6   4  -6   10.10    1.30
   6   4  -6   10.20    2.70
   6   4  -6    9.90    2.50
  -6  -4   6    8.80    2.30
  -6  -4   6   11.00    2.70
  -6  -4   6   10.60    2.70
  -6  -4   6   13.20    3.30
   5   4  -6  106.99    4.70
   5   4  -6  106.79    3.50
   5   4  -6  104.39    4.90
  -5  -4   6  111.29    5.00
  -5  -4   6   97.99    8.10
  -5  -4   6  110.39    4.70
  -5  -4   6  110.19    5.30
   4   4  -6   95.89    4.10
   4   4  -6   87.69    4.10
   4   4  -6   86.39    4.20
  -4  -4   6   84.29    4.20
  -4  -4   6   91.39    4.00
  -4  -4   6   86.69    4.20
  -4  -4   6   92.69    4.30
   3   4  -6  178.58    5.50
   3   4  -6  165.38    6.10
   3   4  -6  175.98    5.50
   3   4  -6  179.38    5.20
  -3  -4   6  178.88    5.30
  -3  -4   6  175.98    5.60
  -3  -4   6  182.68    5.70
  -3  -4   6  178.38    5.60
   2   4  -6   28.20    2.50
   2   4  -6   32.10    2.60
   2   4  -6   27.90    2.00
   2   4  -6   25.90    2.50
  -2  -4   6   26.00    2.00
  -2  -4   6   29.80    2.40
  -2  -4   6   30.40    2.50
  -2  -4   6   27.00    2.20
   1   4  -6  398.86    9.90
   1   4  -6  407.46    9.40
   1   4  -6  394.16    9.80
   1   4  -6  410.66    9.80
  -1  -4   6  402.16    9.80
  -1  -4   6  403.16    9.70
  -1  -4   6  401.66    9.40
  -1  -4   6  404.06    9.90
   0   4  -6  364.56    9.00
   0   4  -6  362.26    9.10
   0   4  -6  367.76    8.50
   0   4  -6  351.06    9.10
   0   4  -6  378.76    9.00
   0  -4   6  375.86    8.90
   0  -4   6  367.86    9.20
   0  -4   6  371.06    8.90
   0  -4   6  365.06    8.50
  -1   4  -6   57.49    2.90
  -1   4  -6   63.69    2.90
  -1   4  -6   61.29    2.70
  -1   4  -6   57.39    2.30
  -1   4  -6   60.59    2.60
   1  -4   6   57.69    3.00
   1  -4   6   63.99    2.60
   1  -4   6   60.69    2.60
  -2   4  -6   73.39    2.60
  -2   4  -6   77.69    3.10
  -2   4  -6   74.19    3.00
  -2   4  -6   75.99    3.30
   2  -4   6   72.99    2.60
   2  -4   6   75.99    2.70
   2  -4   6   73.39    3.30
  -3   4  -6  524.25   11.90
  -3   4  -6  522.35   12.40
  -3   4  -6  511.95   12.80
  -3   4  -6  519.95   12.00
  -3   4  -6  534.75   12.00
   3  -4   6  525.85   11.30
   3  -4   6  525.95   11.20
   3  -4   6  529.15   12.50
  -4   4  -6  265.47    6.80
  -4   4  -6  270.27    6.80
  -4   4  -6  277.17    7.30
  -4   4  -6  266.07    7.70
   4  -4   6  271.17    7.30
  -5   4  -6    0.70    1.30
  -5   4  -6   -1.10    1.50
  -5   4  -6    0.70    1.40
  -5   4  -6    0.60    1.40
   5  -4   6   -0.50    1.70
  -6   4  -6   34.80    2.90
  -6   4  -6   39.80    3.40
  -6   4  -6   35.40    3.00
  -6   4  -6   41.50    3.40
  -7   4  -6   64.69    3.70
  -7   4  -6   61.49    3.80
  -7   4  -6   61.09    4.50
  -7   4  -6   63.39    4.20
  -8   4  -6   25.70    2.90
  -8   4  -6   23.90    3.00
  -8   4  -6   26.30    3.10
   8   3  -6   20.40    3.20
   8   3  -6   16.80    2.90
  -8  -3   6   26.20    4.00
  -8  -3   6   28.00    4.90
  -8  -3   6   21.90    3.60
  -8  -3   6   19.70    5.50
   7   3  -6    8.40    2.80
   7   3  -6    8.40    2.50
  -7  -3   6    4.90    2.50
  -7  -3   6    2.30    2.70
  -7  -3   6    5.50    3.00
  -7  -3   6    2.60    3.20
   6   3  -6   38.20    3.60
   6   3  -6   28.50    5.10
  -6  -3   6   33.20    3.20
  -6  -3   6   36.90    3.30
  -6  -3   6   30.30    3.30
  -6  -3   6   36.20    3.20
   5   3  -6  313.57    9.10
   5   3  -6  316.67    7.30
   5   3  -6  330.97    7.30
   5   3  -6  331.27    8.60
  -5  -3   6  328.67    9.10
  -5  -3   6  296.37   10.60
  -5  -3   6  340.17    9.00
  -5  -3   6  319.47    8.90
   4   3  -6   90.29    4.10
   4   3  -6   88.79    3.70
   4   3  -6   93.99    2.90
   4   3  -6   94.39    3.90
  -4  -3   6   87.89    4.00
  -4  -3   6   92.29    4.20
  -4  -3   6   91.99    4.10
  -4  -3   6   93.29    4.00
   3   3  -6  108.59    4.10
   3   3  -6  105.79    4.00
   3   3  -6  105.99    3.70
   3   3  -6  108.89    4.10
   3   3  -6  106.69    3.30
  -3  -3   6  109.49    4.10
  -3  -3   6  108.29    4.10
  -3  -3   6  110.49    4.00
  -3  -3   6   99.19    4.70
   2   3  -6  308.47    7.80
   2   3  -6  311.47    8.00
   2   3  -6  306.57    8.00
   2   3  -6  325.87    8.00
   2   3  -6  317.77    7.70
  -2  -3   6  305.67    8.00
  -2  -3   6  308.07    7.90
  -2  -3   6  313.67    8.10
  -2  -3   6  318.67    8.00
   1   3  -6  420.66    9.80
   1   3  -6  414.66    9.80
   1   3  -6  404.26    9.90
   1   3  -6  404.86    9.80
   1   3  -6  405.86    9.50
  -1  -3   6  405.36    9.90
  -1  -3   6  390.56    9.70
  -1  -3   6  409.06    9.60
  -1  -3   6  403.76    9.80
   0   3  -6   16.90    1.80
   0   3  -6   11.90    1.40
   0   3  -6   17.40    1.40
   0   3  -6   11.90    1.40
   0   3  -6   14.40    1.60
   0  -3   6   16.10    1.40
   0  -3   6   17.30    1.80
   0  -3   6   15.80    1.60
   0  -3   6   15.10    1.60
  -1   3  -6  348.67    8.90
  -1   3  -6  355.66    8.60
  -1   3  -6  350.26    8.60
  -1   3  -6  357.96    8.80
  -1   3  -6  357.66    8.40
   1  -3   6  352.16    8.80
   1  -3   6  351.96    8.40
   1  -3   6  353.06    8.40
  -2   3  -6  105.39    3.70
  -2   3  -6   97.29    3.70
  -2   3  -6  108.19    3.60
  -2   3  -6  102.49    3.50
  -2   3  -6  103.69    3.40
   2  -3   6  101.39    3.20
   2  -3   6  103.69    3.80
   2  -3   6  105.59    3.30
  -3   3  -6   60.59    2.80
  -3   3  -6   62.99    3.00
  -3   3  -6   67.69    2.90
  -3   3  -6   57.89    2.90
  -3   3  -6   61.19    2.80
   3  -3   6   66.19    3.10
   3  -3   6   61.09    2.30
   3  -3   6   63.89    2.20
  -4   3  -6    1.50    1.30
  -4   3  -6    0.20    1.30
  -4   3  -6   -0.90    1.10
  -4   3  -6    0.80    1.30
   4  -3   6   -1.10    1.30
  -5   3  -6   81.89    4.00
  -5   3  -6   77.29    3.50
  -5   3  -6   81.39    3.60
  -5   3  -6   79.99    3.50
   5  -3   6   78.69    3.70
  -6   3  -6   31.70    2.50
  -6   3  -6   33.20    3.20
  -6   3  -6   35.30    3.40
  -6   3  -6   34.70    2.60
  -7   3  -6   -0.10    1.80
  -7   3  -6    0.70    2.30
  -7   3  -6   -1.50    2.00
  -7   3  -6    0.30    2.10
  -8   3  -6   13.10    3.10
  -8   3  -6   18.00    4.30
  -8   3  -6   10.70    2.20
  -8   3  -6   10.60    3.00
   8   2  -6    6.10    2.50
   8   2  -6    5.00    2.30
  -8  -2   6    6.00    3.40
  -8  -2   6    7.70    3.70
  -8  -2   6    9.80    4.10
   7   2  -6   36.50    3.00
   7   2  -6   39.30    2.90
  -7  -2   6   38.70    4.00
  -7  -2   6   34.60    3.50
  -7  -2   6   27.20    3.80
  -7  -2   6   32.30    3.50
   6   2  -6  136.19    5.00
   6   2  -6  139.29    5.20
  -6  -2   6  136.79    5.70
  -6  -2   6  134.09    5.70
  -6  -2   6  131.79    5.80
  -6  -2   6  146.59    5.80
   5   2  -6    3.60    1.80
   5   2  -6    5.00    1.50
   5   2  -6    2.70    1.70
  -5  -2   6    3.40    1.90
  -5  -2   6    1.20    1.70
  -5  -2   6    3.90    1.80
  -5  -2   6    1.60    1.70
   4   2  -6  101.99    2.80
   4   2  -6  106.09    4.00
   4   2  -6  104.29    4.00
   4   2  -6   96.99    4.00
  -4  -2   6  101.19    4.10
  -4  -2   6   99.59    4.10
  -4  -2   6   95.59    4.20
  -4  -2   6  104.39    4.30
   3   2  -6  244.88    6.00
   3   2  -6  241.68    6.70
   3   2  -6  249.78    6.70
   3   2  -6  246.48    6.70
  -3  -2   6  243.38    6.80
  -3  -2   6  252.97    6.80
  -3  -2   6  240.38    6.70
  -3  -2   6  238.48    6.80
   2   2  -6  497.45   11.40
   2   2  -6  510.75   11.60
   2   2  -6  486.75   11.70
   2   2  -6  492.25   11.70
   2   2  -6  496.55   11.70
  -2  -2   6  500.35   11.70
  -2  -2   6  495.05   11.70
  -2  -2   6  483.85   11.70
  -2  -2   6  501.35   11.80
   1   2  -6   13.70    1.60
   1   2  -6   14.00    1.50
   1   2  -6   10.10    1.40
   1   2  -6   10.80    1.20
   1   2  -6   10.80    1.50
  -1  -2   6   10.10    1.30
  -1  -2   6   12.30    1.40
  -1  -2   6   18.50    1.90
  -1  -2   6   14.20    1.70
   0   2  -6  425.16    9.80
   0   2  -6  409.26    9.80
   0   2  -6  409.96    9.80
   0   2  -6  406.46    9.60
   0   2  -6  394.06    9.80
   0  -2   6  401.66    9.70
   0  -2   6  408.86    9.70
   0  -2   6  412.56    9.90
   0  -2   6  406.16    9.70
  -1   2  -6  262.07    6.70
  -1   2  -6  259.37    7.00
  -1   2  -6  266.57    6.80
  -1   2  -6  254.57    6.70
  -1   2  -6  264.77    6.80
   1  -2   6  261.97    6.50
   1  -2   6  261.47    6.60
   1  -2   6  258.27    6.90
   1  -2   6  252.07    6.80
  -2   2  -6  128.29    4.30
  -2   2  -6  130.29    4.10
  -2   2  -6  124.69    4.10
  -2   2  -6  128.89    4.10
  -2   2  -6  128.19    4.10
   2  -2   6  128.29    3.90
   2  -2   6  127.49    4.30
   2  -2   6  128.29    4.20
   2  -2   6  130.59    3.80
  -3   2  -6   42.90    2.60
  -3   2  -6   42.50    2.60
  -3   2  -6   44.70    2.70
  -3   2  -6   45.80    2.60
  -3   2  -6   45.80    2.50
   3  -2   6   41.90    2.00
   3  -2   6   44.80    2.70
   3  -2   6   43.00    2.30
  -4   2  -6  278.37    7.30
  -4   2  -6  277.57    7.30
  -4   2  -6  288.97    7.30
  -4   2  -6  285.87    8.10
   4  -2   6  286.97    6.50
   4  -2   6  281.17    6.50
   4  -2   6  284.37    7.30
   4  -2   6  280.97    8.00
  -5   2  -6  152.18    5.00
  -5   2  -6  153.78    4.70
  -5   2  -6  149.79    5.00
  -5   2  -6  155.68    5.60
   5  -2   6  147.59    5.60
   5  -2   6  147.49    4.80
  -6   2  -6   19.00    1.90
  -6   2  -6   19.20    2.40
  -6   2  -6   22.00    2.60
  -6   2  -6   16.50    2.40
  -7   2  -6   18.30    2.90
  -7   2  -6   19.50    2.90
  -7   2  -6   19.50    2.90
  -8   2  -6   48.40    4.00
  -8   2  -6   41.70    4.00
  -8   2  -6   41.90    4.20
   8   1  -6   48.60    3.00
   8   1  -6   46.00    3.10
  -8  -1   6   60.79    4.60
  -8  -1   6   63.59    5.20
  -8  -1   6   51.69    4.80
  -8  -1   6   49.90    4.60
   7   1  -6   74.39    4.10
   7   1  -6   76.39    3.90
  -7  -1   6   82.39    5.10
  -7  -1   6   69.29    5.90
  -7  -1   6   69.29    5.40
  -7  -1   6   69.59    5.30
   6   1  -6    0.00    1.70
   6   1  -6    1.00    1.90
  -6  -1   6    1.30    2.20
  -6  -1   6    2.90    2.40
  -6  -1   6    1.40    1.90
  -6  -1   6    1.00    2.30
   5   1  -6  138.49    5.10
   5   1  -6  139.89    4.80
   5   1  -6  137.09    4.80
  -5  -1   6  135.79    5.30
  -5  -1   6  131.69    5.10
  -5  -1   6  140.19    5.20
  -5  -1   6  139.79    5.20
   4   1  -6  161.68    4.00
   4   1  -6  163.08    5.10
   4   1  -6  170.18    5.20
   4   1  -6  157.48    5.20
  -4  -1   6  156.98    5.30
  -4  -1   6  168.98    5.50
  -4  -1   6  166.88    5.40
  -4  -1   6  143.79    6.00
   3   1  -6  341.67    8.60
   3   1  -6  346.37    8.00
   3   1  -6  346.87    8.70
   3   1  -6  350.36    8.80
  -3  -1   6  343.27    8.90
  -3  -1   6  342.57    8.90
  -3  -1   6  346.97    8.80
  -3  -1   6  336.17    8.80
   2   1  -6   28.90    2.40
   2   1  -6   29.20    2.60
   2   1  -6   27.80    1.70
   2   1  -6   28.70    2.20
  -2  -1   6   27.00    2.50
  -2  -1   6   30.50    2.40
  -2  -1   6   28.70    2.30
  -2  -1   6   30.80    2.40
   1   1  -6  267.27    6.90
   1   1  -6  258.27    6.70
   1   1  -6  266.37    6.80
   1   1  -6  258.37    6.80
  -1  -1   6  257.87    6.80
  -1  -1   6  258.07    6.80
  -1  -1   6  260.87    6.90
  -1  -1   6  254.77    6.70
  -1  -1   6  258.17    6.80
   0   1  -6  674.43   15.80
   0   1  -6  693.53   15.70
   0   1  -6  720.23   15.70
   0   1  -6  677.23   15.60
   0  -1   6  687.73   15.70
   0  -1   6  706.63   15.70
   0  -1   6  692.53   15.60
   0  -1   6  685.43   15.60
   0  -1   6  696.13   15.80
  -1   1  -6   34.10    2.40
  -1   1  -6   35.50    2.40
  -1   1  -6   32.80    2.40
  -1   1  -6   31.90    2.30
  -1   1  -6   36.80    2.30
   1  -1   6   35.90    2.40
   1  -1   6   32.60    2.20
   1  -1   6   38.80    2.60
   1  -1   6   35.30    2.20
  -2   1  -6  105.29    3.90
  -2   1  -6  105.29    3.80
  -2   1  -6  111.89    3.80
  -2   1  -6  105.09    3.90
  -2   1  -6  103.89    3.70
   2  -1   6  105.09    3.80
   2  -1   6  104.09    3.70
   2  -1   6  104.79    3.90
   2  -1   6  103.39    3.50
  -3   1  -6  122.59    4.00
  -3   1  -6  128.49    4.30
  -3   1  -6  116.69    4.40
  -3   1  -6  121.89    4.50
  -3   1  -6  119.59    4.20
   3  -1   6  123.99    4.10
   3  -1   6  120.39    3.70
   3  -1   6  123.69    4.00
   3  -1   6  123.29    4.50
  -4   1  -6   76.49    3.70
  -4   1  -6   73.89    3.20
  -4   1  -6   67.39    3.60
  -4   1  -6   71.19    3.70
   4  -1   6   73.89    3.30
   4  -1   6   71.79    2.90
   4  -1   6   72.49    3.70
   4  -1   6   72.19    3.00
  -5   1  -6   -1.60    1.90
  -5   1  -6   -0.40    1.50
  -5   1  -6    2.10    2.00
   5  -1   6    0.80    1.40
   5  -1   6    0.60    1.10
   5  -1   6    1.60    1.60
   5  -1   6    1.00    1.10
  -6   1  -6   22.90    2.80
  -6   1  -6   31.10    3.00
  -6   1  -6   29.80    3.00
   6  -1   6   31.10    2.60
   6  -1   6   34.70    3.50
  -7   1  -6    3.80    2.70
  -7   1  -6    6.20    3.00
  -7   1  -6    2.90    2.80
   7  -1   6   -3.60    2.50
  -8   1  -6    3.20    3.90
  -8   1  -6   -4.30    3.70
  -8   1  -6    4.00    3.20
  -8   0   6   19.10    4.20
  -8   0   6   24.70    4.00
  -8   0   6   23.10    3.70
  -8   0   6   18.80    4.20
   7   0  -6   -0.50    1.90
   7   0  -6   -1.90    1.70
  -7   0   6   -3.00    2.80
  -7   0   6   -1.80    2.40
  -7   0   6    4.00    2.60
  -7   0   6    1.30    3.00
   6   0  -6   61.39    3.50
   6   0  -6   58.89    3.50
  -6   0   6   58.59    4.50
  -6   0   6   53.79    4.10
  -6   0   6   64.19    4.30
  -6   0   6   59.29    4.60
   5   0  -6  187.18    5.70
   5   0  -6  184.88    5.70
   5   0  -6  185.68    6.20
  -5   0   6  182.68    6.20
  -5   0   6  196.38    6.40
  -5   0   6  185.88    6.30
  -5   0   6  190.58    6.10
   4   0  -6  154.28    4.90
   4   0  -6  159.88    4.00
   4   0  -6  153.98    5.20
   4   0  -6  156.78    5.00
  -4   0   6  143.39    5.30
  -4   0   6  152.88    5.20
  -4   0   6  162.58    5.50
  -4   0   6  147.99    5.30
   3   0  -6  199.98    5.20
   3   0  -6  200.38    6.00
   3   0  -6  199.68    5.90
   3   0  -6  209.68    6.00
  -3   0   6  206.18    8.00
  -3   0   6  199.08    6.10
  -3   0   6  206.38    6.00
  -3   0   6  204.58    5.20
   2   0  -6  219.98    6.20
   2   0  -6  222.08    6.20
   2   0  -6  224.28    6.20
   2   0  -6  216.88    5.70
  -2   0   6  219.88    6.30
  -2   0   6  218.08    6.20
  -2   0   6  210.08    6.20
  -2   0   6  217.38    6.20
  -2   0   6  215.18    5.70
   1   0  -6  341.97    8.70
   1   0  -6  346.47    8.70
   1   0  -6  346.57    8.70
   1   0  -6  330.17    8.50
  -1   0   6  344.37    8.70
  -1   0   6  351.76    8.60
  -1   0   6  348.97    8.70
  -1   0   6  340.97    8.80
  -1   0   6  351.56    8.60
   0   0  -6   50.59    2.90
   0   0  -6   50.59    2.80
   0   0  -6   54.29    2.90
   0   0  -6   50.29    2.50
   0   0   6   54.79    2.60
   0   0   6   55.29    2.90
   0   0   6   52.99    2.90
   0   0   6   54.49    2.80
   0   0   6   50.39    2.70
  -1   0  -6  126.39    4.30
  -1   0  -6  116.49    4.20
  -1   0  -6  123.29    4.30
  -1   0  -6  120.49    4.20
   1   0   6  122.89    4.30
   1   0   6  122.59    4.20
   1   0   6  121.99    4.10
   1   0   6  126.39    4.20
  -2   0  -6  212.58    6.10
  -2   0  -6  213.58    6.10
  -2   0  -6  211.08    6.30
  -2   0  -6  215.78    6.20
   2   0   6  208.58    5.90
   2   0   6  220.28    6.10
   2   0   6  215.58    5.80
  -3   0  -6   60.09    3.20
  -3   0  -6   62.29    3.60
  -3   0  -6   59.09    3.40
   3   0   6   64.19    3.30
   3   0   6   57.09    3.00
   3   0   6   64.69    3.40
  -4   0  -6   -2.40    1.60
  -4   0  -6    0.90    1.80
  -4   0  -6   -1.30    1.30
   4   0   6   -1.10    1.30
   4   0   6   -0.70    1.50
   4   0   6    0.50    1.40
   4   0   6    1.60    1.80
  -5   0  -6   93.09    4.70
  -5   0  -6   94.89    4.60
  -5   0  -6   88.59    4.80
   5   0   6   95.39    3.60
   5   0   6   89.39    3.60
   5   0   6   92.59    4.70
   5   0   6   89.59    3.80
  -6   0  -6   93.39    5.40
  -6   0  -6  109.29    5.30
  -6   0  -6   97.39    5.60
   6   0   6   88.89    3.00
   6   0   6   88.39    3.20
   6   0   6   92.09    3.10
  -7   0  -6   15.60    3.80
  -7   0  -6   17.00    3.30
  -7   0  -6   12.50    3.70
   7   0   6   20.50    3.80
  -8   0  -6   10.90    4.80
  -8   0  -6   14.50    4.50
  -8   0  -6   10.70    3.80
   8   0   6    9.00    4.30
  -8   1   6    0.60    3.80
  -8   1   6    3.80    3.20
  -8   1   6    4.60    4.10
  -8   1   6    9.00    3.70
   7  -1  -6   60.29    3.10
   7  -1  -6   64.89    3.20
   7  -1  -6   71.29    5.10
  -7   1   6   68.49    5.70
  -7   1   6   59.79    5.40
  -7   1   6   67.89    5.80
  -7   1   6   66.19    5.10
   6  -1  -6   94.09    4.00
   6  -1  -6   94.09    4.00
  -6   1   6  100.59    5.60
  -6   1   6   95.79    5.00
  -6   1   6  101.49    5.40
  -6   1   6   86.49    5.20
   5  -1  -6    8.80    1.90
   5  -1  -6    7.70    1.80
   5  -1  -6   10.70    2.00
  -5   1   6    8.00    2.30
  -5   1   6    8.60    2.10
  -5   1   6   12.10    2.30
  -5   1   6   14.20    2.70
   4  -1  -6  105.39    4.40
   4  -1  -6  105.39    4.10
   4  -1  -6  107.99    4.20
  -4   1   6  103.09    4.40
  -4   1   6  107.09    4.70
  -4   1   6  104.29    3.20
  -4   1   6  101.09    4.70
  -4   1   6  104.19    4.60
   3  -1  -6  203.48    6.00
   3  -1  -6  198.98    5.40
   3  -1  -6  198.08    6.10
   3  -1  -6  202.58    5.90
  -3   1   6  198.78    6.20
  -3   1   6  196.18    6.20
  -3   1   6  199.78    5.30
  -3   1   6  195.98    6.00
  -3   1   6  197.68    6.10
   2  -1  -6  233.28    6.50
   2  -1  -6  241.48    6.50
   2  -1  -6  226.68    6.20
   2  -1  -6  221.98    6.70
  -2   1   6  231.58    6.10
  -2   1   6  201.48    7.10
  -2   1   6  226.88    6.40
  -2   1   6  232.18    6.70
  -2   1   6  222.38    6.70
   1  -1  -6   17.40    1.90
   1  -1  -6   17.40    2.00
   1  -1  -6   18.30    1.80
   1  -1  -6   20.80    2.10
  -1   1   6   14.50    1.70
  -1   1   6   17.30    1.90
  -1   1   6   20.70    2.20
  -1   1   6   21.40    2.40
  -1   1   6   19.60    2.10
   0  -1  -6  365.86    9.30
   0  -1  -6  350.36    9.00
   0  -1  -6  365.36    9.20
   0  -1  -6  364.46    9.20
   0   1   6  356.26    9.10
   0   1   6  355.26    8.90
   0   1   6  351.56    9.10
   0   1   6  359.56    9.20
   0   1   6  355.06    9.20
  -1  -1  -6  232.78    6.50
  -1  -1  -6  230.78    6.60
  -1  -1  -6  180.58    7.00
   1   1   6  216.58    6.60
   1   1   6  225.08    6.20
   1   1   6  229.18    6.60
   1   1   6  228.58    6.30
  -2  -1  -6   55.59    3.40
  -2  -1  -6   52.59    3.30
  -2  -1  -6   54.79    3.20
  -2  -1  -6   49.60    3.40
   2   1   6   54.49    3.00
   2   1   6   53.99    3.70
   2   1   6   57.49    3.20
   2   1   6   57.59    3.10
  -3  -1  -6    3.90    1.90
  -3  -1  -6    8.70    1.90
  -3  -1  -6    3.90    1.60
  -3  -1  -6    9.20    2.00
   3   1   6    4.70    1.30
   3   1   6    6.50    1.60
   3   1   6    8.60    2.10
  -4  -1  -6   67.79    4.40
  -4  -1  -6   66.49    4.20
  -4  -1  -6   66.29    4.00
  -4  -1  -6   59.19    4.70
   4   1   6   67.29    3.70
   4   1   6   60.69    3.80
   4   1   6   63.89    3.40
   4   1   6   68.69    4.20
  -5  -1  -6   37.10    3.40
  -5  -1  -6   44.50    3.70
  -5  -1  -6   33.50    3.40
   5   1   6   39.80    3.00
   5   1   6   37.60    2.90
   5   1   6   37.20    3.10
  -6  -1  -6    2.60    2.80
  -6  -1  -6   -0.20    3.30
  -6  -1  -6    4.80    3.20
   6   1   6    5.20    2.10
   6   1   6    4.40    2.60
   6   1   6    1.70    1.20
   6   1   6    1.70    2.40
  -7  -1  -6    4.10    3.10
  -7  -1  -6    5.30    4.20
  -7  -1  -6    0.30    3.80
   7   1   6    4.20    3.60
  -8   2   6   22.10    4.90
  -8   2   6   24.50    4.60
  -8   2   6   26.60    4.00
  -8   2   6   31.90    4.70
   7  -2  -6   54.59    4.50
  -7   2   6   44.60    4.60
  -7   2   6   43.30    4.30
  -7   2   6   52.99    4.20
  -7   2   6   58.59    4.70
   6  -2  -6    2.10    1.90
   6  -2  -6    2.10    1.80
  -6   2   6    0.80    2.40
  -6   2   6    2.80    2.90
  -6   2   6    4.50    2.90
  -6   2   6    2.10    2.40
   5  -2  -6   63.99    4.20
   5  -2  -6   68.49    3.80
   5  -2  -6   70.69    3.70
  -5   2   6   69.39    2.50
  -5   2   6   67.79    4.40
  -5   2   6   69.29    4.60
  -5   2   6   73.89    4.60
   4  -2  -6  184.18    5.90
   4  -2  -6  184.98    6.20
   4  -2  -6  189.68    5.90
  -4   2   6  182.78    6.30
  -4   2   6  186.98    6.10
  -4   2   6  189.08    5.20
  -4   2   6  186.28    6.50
   3  -2  -6  113.09    4.00
   3  -2  -6  115.79    4.50
   3  -2  -6  119.49    4.60
   3  -2  -6  121.19    4.70
  -3   2   6  114.69    3.90
  -3   2   6  114.89    4.90
  -3   2   6  111.39    4.60
  -3   2   6  118.89    4.80
   2  -2  -6    0.70    1.10
   2  -2  -6    0.30    3.00
   2  -2  -6    0.40    1.60
   2  -2  -6    1.40    1.50
  -2   2   6    1.70    1.40
  -2   2   6   -0.30    1.70
  -2   2   6    1.20    1.50
  -2   2   6    1.00    1.10
   1  -2  -6  271.27    7.50
   1  -2  -6  268.77    7.60
   1  -2  -6  262.07    7.40
   1  -2  -6  270.47    7.40
  -1   2   6  260.37    7.30
  -1   2   6  267.67    7.30
  -1   2   6  256.57    7.50
  -1   2   6  266.37    7.50
  -1   2   6  272.47    7.60
   0  -2  -6  195.48    6.00
   0  -2  -6  189.58    6.00
   0  -2  -6  192.58    6.00
   0  -2  -6  182.38    5.90
   0   2   6  161.08    7.50
   0   2   6  178.08    6.60
   0   2   6  186.88    6.00
   0   2   6  200.68    5.80
  -1  -2  -6  162.48    5.60
  -1  -2  -6  156.98    5.60
  -1  -2  -6  161.98    5.50
  -1  -2  -6  158.38    5.50
   1   2   6  155.88    5.20
   1   2   6  161.18    5.40
   1   2   6  155.98    5.40
   1   2   6  158.98    5.70
  -2  -2  -6   44.20    3.70
  -2  -2  -6   38.70    3.50
  -2  -2  -6   30.70    2.70
  -2  -2  -6   42.10    3.20
   2   2   6   39.10    3.10
   2   2   6   43.00    4.00
   2   2   6   41.70    3.10
   2   2   6   44.80    3.30
  -3  -2  -6  105.99    5.20
  -3  -2  -6   97.79    4.90
  -3  -2  -6  111.09    4.80
  -3  -2  -6  100.69    5.00
   3   2   6  103.09    5.10
   3   2   6  104.09    4.50
   3   2   6  102.49    4.30
  -4  -2  -6   37.00    3.60
  -4  -2  -6   38.10    3.50
  -4  -2  -6   39.40    4.00
   4   2   6   42.00    3.20
   4   2   6   38.30    3.50
   4   2   6   37.20    3.40
   4   2   6   41.60    3.90
  -5  -2  -6   -0.40    2.90
  -5  -2  -6   -3.30    3.10
  -5  -2  -6    1.10    2.40
   5   2   6   -6.30    2.20
   5   2   6   -3.20    3.70
   5   2   6    1.40    1.80
   5   2   6    1.20    2.50
  -6  -2  -6   24.60    4.30
  -6  -2  -6   23.10    4.40
  -6  -2  -6   16.30    3.50
   6   2   6   18.80    3.50
   6   2   6   29.50    4.30
   6   2   6   21.60    3.10
  -7  -2  -6   35.20    5.90
  -7  -2  -6   26.70    5.10
  -7  -2  -6   29.50    4.90
   7   2   6   24.30    3.50
   7   2   6   21.40    3.10
  -8   3   6   15.80    4.80
  -8   3   6   23.30    6.00
  -8   3   6   15.20    4.00
  -8   3   6   18.70    4.30
   7  -3  -6   -1.30    3.40
  -7   3   6   -0.80    2.90
  -7   3   6   -0.30    3.80
  -7   3   6    2.90    3.40
   6  -3  -6   41.30    3.50
   6  -3  -6   41.00    3.40
   6  -3  -6   41.10    3.70
  -6   3   6   44.10    3.70
  -6   3   6   41.90    4.00
  -6   3   6   56.09    6.20
  -6   3   6   45.30    2.20
   5  -3  -6  104.09    4.70
   5  -3  -6  106.99    4.60
  -5   3   6  113.29    3.90
  -5   3   6  114.79    5.70
  -5   3   6  107.09    5.80
  -5   3   6  114.59    5.30
   4  -3  -6   71.79    4.10
   4  -3  -6   67.69    4.40
   4  -3  -6   68.19    4.20
  -4   3   6   73.29    4.60
  -4   3   6   74.69    4.30
  -4   3   6   69.69    3.20
  -4   3   6   61.89    4.90
   3  -3  -6   91.59    4.70
   3  -3  -6   89.89    4.40
   3  -3  -6   84.89    4.60
  -3   3   6   83.39    4.40
  -3   3   6   90.49    3.80
  -3   3   6   87.29    4.90
  -3   3   6   94.59    4.70
   2  -3  -6  178.28    6.20
   2  -3  -6  179.28    6.10
   2  -3  -6  174.78    5.80
   2  -3  -6  185.98    6.40
  -2   3   6  178.58    5.80
  -2   3   6  185.38    6.30
  -2   3   6  183.38    6.00
  -2   3   6  190.78    6.50
   1  -3  -6   28.50    2.80
   1  -3  -6   30.20    2.80
   1  -3  -6   31.30    2.90
   1  -3  -6   24.20    2.60
  -1   3   6   32.90    3.00
  -1   3   6   29.90    2.90
  -1   3   6   31.50    2.70
  -1   3   6   28.40    2.70
   0  -3  -6   36.00    3.10
   0  -3  -6   31.20    2.80
   0  -3  -6   29.90    2.60
   0  -3  -6   32.10    2.80
   0   3   6   38.30    3.10
   0   3   6   36.50    3.20
   0   3   6   37.30    3.00
  -1  -3  -6   72.09    4.50
  -1  -3  -6   77.59    4.50
  -1  -3  -6   70.59    4.40
  -1  -3  -6   72.49    4.20
   1   3   6   77.99    3.90
   1   3   6   73.99    4.80
   1   3   6   79.79    4.40
   1   3   6   70.69    4.00
  -2  -3  -6  104.09    4.90
  -2  -3  -6  100.29    5.20
   2   3   6   94.59    4.50
   2   3   6   99.19    4.60
   2   3   6   98.69    5.50
   2   3   6   94.69    4.70
  -3  -3  -6   31.20    3.50
  -3  -3  -6   31.50    3.60
  -3  -3  -6   32.40    3.70
   3   3   6   40.40    3.80
   3   3   6   37.70    3.00
   3   3   6   40.30    3.30
  -4  -3  -6    0.80    2.40
  -4  -3  -6   -4.60    3.00
  -4  -3  -6    4.00    3.00
   4   3   6    1.10    3.30
   4   3   6    1.20    2.60
   4   3   6    2.80    2.20
   4   3   6   -0.40    2.40
  -5  -3  -6    7.00    3.90
  -5  -3  -6   14.60    8.10
  -5  -3  -6   16.20    4.10
  -5  -3  -6    9.80    3.40
   5   3   6   12.10    2.40
   5   3   6   11.60    4.00
   5   3   6   10.60    2.60
   5   3   6   12.90    3.30
  -6  -3  -6   26.20    4.10
  -6  -3  -6   24.50    5.60
  -6  -3  -6   27.10    4.90
   6   3   6   18.50    4.50
   6   3   6   24.20    3.90
  -7   4   6   30.80    4.10
  -7   4   6   36.50    5.00
  -7   4   6   27.30    4.30
  -7   4   6   33.10    2.00
   6  -4  -6   37.10    2.70
   6  -4  -6   37.60    3.50
   6  -4  -6   40.00    4.20
  -6   4   6   37.40    4.50
  -6   4   6   39.30    2.90
  -6   4   6   42.00    4.00
  -6   4   6   32.30    3.90
   5  -4  -6    8.80    2.50
   5  -4  -6    1.50    3.90
   5  -4  -6    9.10    2.50
  -5   4   6   12.70    3.10
  -5   4   6   10.40    1.80
  -5   4   6   11.80    3.60
  -5   4   6   10.40    2.90
   4  -4  -6   45.80    3.40
  -4   4   6   31.30    3.00
  -4   4   6   40.20    3.40
  -4   4   6   36.40    3.60
  -4   4   6   33.50    3.60
   3  -4  -6   66.09    4.60
   3  -4  -6   81.49    4.70
   3  -4  -6   72.59    4.90
  -3   4   6   67.79    5.30
  -3   4   6   66.79    3.80
  -3   4   6   71.59    4.70
  -3   4   6   79.19    4.60
   2  -4  -6  193.08    6.70
   2  -4  -6  193.08    6.90
   2  -4  -6  196.48    6.80
   2  -4  -6  195.68    6.50
  -2   4   6  183.38    7.00
  -2   4   6  179.08    6.20
  -2   4   6  196.88    6.70
  -2   4   6  190.98    6.80
   1  -4  -6   11.40    2.70
   1  -4  -6    7.10    2.40
   1  -4  -6   12.50    2.70
   1  -4  -6   10.50    2.20
  -1   4   6   10.90    2.10
  -1   4   6    8.60    2.10
   0  -4  -6  124.29    5.80
   0  -4  -6  131.39    5.50
   0  -4  -6  136.09    5.90
   0  -4  -6  124.59    5.80
   0   4   6  126.09    5.30
   0   4   6  118.39    5.30
  -1  -4  -6  114.69    5.40
  -1  -4  -6  108.19    5.50
  -1  -4  -6  118.39    5.80
  -1  -4  -6  115.99    5.70
   1   4   6  109.99    6.20
   1   4   6  114.19    5.20
   1   4   6  118.59    5.40
  -2  -4  -6   57.19    4.40
  -2  -4  -6   58.79    5.20
   2   4   6   57.39    4.80
   2   4   6   52.79    4.40
  -3  -4  -6    3.40    3.00
  -3  -4  -6    3.80    3.60
   3   4   6    0.10    2.80
   3   4   6    0.80    3.50
  -4  -4  -6   33.30    4.50
  -4  -4  -6   25.60    4.50
  -4  -4  -6   29.90    4.50
  -4  -4  -6   37.10    4.40
   4   4   6   35.90    4.00
   4   4   6   33.60    5.40
   4   4   6   39.30    4.10
   4   4   6   32.40    3.20
  -5  -4  -6   13.10    4.40
  -5  -4  -6   15.80    4.00
   5   4   6   11.70    3.90
   5   4   6   13.90    2.90
   5   4   6   16.20    5.80
  -6  -4  -6    2.90    4.20
   6   4   6   -3.70    4.20
   6   4   6   -2.10    5.70
  -7   5   6   14.10    4.70
  -7   5   6   16.40    2.30
  -7   5   6   20.20    4.40
  -7   5   6   16.00    5.70
   6  -5  -6    8.70    4.00
   6  -5  -6    1.20    2.20
   6  -5  -6    1.90    2.20
  -6   5   6    1.50    2.10
  -6   5   6    6.20    3.70
  -6   5   6    0.00    4.50
  -6   5   6    1.90    3.30
   5  -5  -6   21.50    3.10
   5  -5  -6   21.80    3.10
   5  -5  -6   22.10    3.90
  -5   5   6   24.70    3.60
  -5   5   6   27.90    4.50
  -5   5   6   15.20    3.20
  -5   5   6   23.50    4.00
   4  -5  -6   62.09    5.30
   4  -5  -6   80.59    5.10
  -4   5   6   75.19    6.80
  -4   5   6   67.69    4.30
  -4   5   6   72.69    5.40
  -4   5   6   69.59    5.60
   3  -5  -6   58.89    5.20
   3  -5  -6   54.39    5.20
  -3   5   6   62.09    5.00
  -3   5   6   51.09    4.70
  -3   5   6   54.59    4.30
  -3   5   6   52.69    4.00
   2  -5  -6   25.80    3.50
   2  -5  -6   26.60    3.40
  -2   5   6   28.90    3.90
  -2   5   6   25.80    3.20
  -2   5   6   22.40    3.00
  -2   5   6   31.50    3.50
   1  -5  -6   40.50    4.00
   1  -5  -6   28.20    3.40
  -1   5   6   33.90    3.60
  -1   5   6   34.70    3.40
   0  -5  -6   26.30    3.80
   0  -5  -6   25.40    3.10
   0   5   6   27.40    3.40
   0   5   6   17.50    2.80
  -1  -5  -6   21.00    3.30
  -1  -5  -6    1.60    4.10
  -1  -5  -6   26.00    4.00
   1   5   6   20.60    3.20
   1   5   6    2.60    3.70
   1   5   6   18.00    3.00
  -2  -5  -6    9.40    3.70
  -2  -5  -6    9.20    3.50
  -2  -5  -6    8.90    5.40
  -2  -5  -6    5.40    2.60
   2   5   6    1.10    2.60
   2   5   6   10.40    3.40
   2   5   6    5.50    4.20
   2   5   6   13.40    3.30
  -3  -5  -6   37.70    4.90
  -3  -5  -6   28.10    4.80
  -3  -5  -6   28.30    4.40
  -3  -5  -6   30.20    3.80
   3   5   6   34.40    4.30
   3   5   6   37.00    5.30
   3   5   6   24.50    4.00
   3   5   6   31.50    3.70
  -4  -5  -6   13.70    4.10
  -4  -5  -6   18.90    4.50
   4   5   6   15.50    4.20
   4   5   6   12.60    4.20
   4   5   6   17.20    5.50
  -5  -5  -6    3.70    5.30
  -5  -5  -6   -3.40    4.30
   5   5   6   -4.60    4.40
   5   5   6   10.00    6.40
   5   5   6    1.70    3.30
   6  -6  -6   15.80    2.50
   6  -6  -6   12.90    2.40
  -6   6   6   13.80    6.40
  -6   6   6   13.10    3.20
  -6   6   6   17.10    4.40
  -6   6   6   24.90    4.90
   5  -6  -6   39.60    4.00
   5  -6  -6   34.60    3.60
   5  -6  -6   33.80    5.00
  -5   6   6   34.80    4.50
  -5   6   6   34.40    4.40
  -5   6   6   37.90    5.80
  -5   6   6   37.00    3.70
   4  -6  -6   12.60    3.90
   4  -6  -6   14.90    3.50
   4  -6  -6   14.60    3.70
  -4   6   6   11.20    4.50
  -4   6   6   13.80    3.60
  -4   6   6   15.70    3.70
  -4   6   6   14.60    3.00
   3  -6  -6    9.40    3.80
   3  -6  -6    9.80    3.50
   3  -6  -6    8.20    3.70
  -3   6   6   11.60    4.20
  -3   6   6   12.00    3.10
  -3   6   6    8.80    3.50
  -3   6   6   15.00    3.80
   2  -6  -6   63.59    5.00
   2  -6  -6   56.39    4.80
   2  -6  -6   74.89    5.90
  -2   6   6   56.79    5.30
  -2   6   6   73.39    5.90
  -2   6   6   68.69    5.20
   1  -6  -6   75.99    7.00
   1  -6  -6   65.99    5.20
  -1   6   6   71.09    5.40
  -1   6   6   69.69    5.80
   0  -6  -6    9.50    4.10
   0  -6  -6    7.70    3.50
   0  -6  -6    9.30    4.20
   0   6   6    9.00    4.30
   0   6   6    5.00    3.10
   0   6   6    9.30    3.10
  -1  -6  -6   10.50    3.80
  -1  -6  -6   26.90    4.40
  -1  -6  -6   18.10    4.30
  -1  -6  -6   22.80    3.90
   1   6   6   17.10    3.80
   1   6   6   18.70    4.90
   1   6   6   21.40    3.90
  -2  -6  -6   36.40    4.10
  -2  -6  -6   41.20    4.80
  -2  -6  -6   26.50    5.00
   2   6   6   45.30    5.00
   2   6   6   32.90    6.00
  -3  -6  -6   24.60    5.20
  -3  -6  -6   17.60    3.90
   3   6   6   25.30    4.50
   3   6   6   22.70    4.90
   3   6   6   17.90    7.70
   4  -7  -6    1.60    4.30
   4  -7  -6    1.00    3.80
   4  -7  -6    7.90    6.40
  -4   7   6    4.90    4.00
  -4   7   6    5.70    3.60
  -4   7   6   -5.80    3.80
   3  -7  -6   23.60    4.50
   3  -7  -6   27.20    5.80
   3  -7  -6   22.40    5.00
  -3   7   6   19.30    4.00
  -3   7   6   24.70    4.60
   2  -7  -6   29.90    5.10
   2  -7  -6   32.70    4.80
   2  -7  -6   24.40    5.10
  -2   7   6   25.60    4.10
  -2   7   6   30.20    4.60
   1  -7  -6    2.10    4.80
   1  -7  -6   -1.10    4.20
   1  -7  -6    2.90    4.60
  -1   7   6    6.40    3.90
  -1   7   6   -4.60    3.70
   0  -7  -6   11.40    4.90
   0  -7  -6   13.10    5.60
   0  -7  -6   19.40    5.50
  -1  -7  -6   14.10    5.20
   1   7   6   25.10    4.70
  -2  -7  -6    2.40    5.10
   2   7   6    6.70    5.20
   1  12  -7   14.50    4.90
   1  12  -7   15.10    5.10
  -1 -12   7    2.40    4.70
  -1 -12   7   12.00    2.00
  -1 -12   7    7.60    2.00
   0  12  -7   29.80    5.20
   0  12  -7   25.70    5.30
   0 -12   7   21.10    5.70
  -1  12  -7   15.10    5.10
  -1  12  -7   21.10    4.60
   1 -12   7   23.90    4.50
   1 -12   7   16.10    4.00
  -2  12  -7    2.70    4.50
  -2  12  -7    1.40    4.20
   2 -12   7    4.30    3.20
   2 -12   7    1.50    3.40
  -3  12  -7   31.80    5.00
  -3  12  -7   32.80    5.30
  -3  12  -7   35.70    6.20
   3  11  -7    3.60    5.00
   3  11  -7    2.50    4.40
  -3 -11   7   -0.20    2.90
  -3 -11   7   -2.00    4.50
   2  11  -7   11.80    4.50
   2  11  -7   21.20    4.60
  -2 -11   7   17.30    4.40
  -2 -11   7   12.60    4.70
  -2 -11   7   17.50    2.70
   1  11  -7   28.80    4.40
   1  11  -7   32.30    4.30
  -1 -11   7   35.20    2.90
  -1 -11   7   24.80    4.20
  -1 -11   7   10.90    4.40
   0  11  -7   -4.90    3.60
   0  11  -7    8.10    4.90
   0  11  -7    4.20    3.40
   0 -11   7    2.40    3.60
   0 -11   7    0.50    3.30
  -1  11  -7   11.30    4.50
  -1  11  -7    4.40    3.90
  -1  11  -7    8.60    3.60
   1 -11   7   15.10    3.50
   1 -11   7   12.40    3.10
  -2  11  -7   37.70    5.10
  -2  11  -7   42.00    4.40
  -2  11  -7   35.10    4.50
   2 -11   7   39.50    3.30
   2 -11   7   39.50    3.30
  -3  11  -7   27.30    4.00
  -3  11  -7   17.30    4.50
  -3  11  -7   26.20    4.50
  -4  11  -7   -1.80    4.10
  -4  11  -7   -2.00    4.30
  -4  11  -7    0.40    3.50
  -5  11  -7   17.40    4.00
  -5  11  -7    6.30    4.80
  -5  11  -7   11.80    4.70
   4  10  -7    6.00    4.00
   4  10  -7   -2.40    4.40
   4  10  -7    4.30    7.50
  -4 -10   7    5.10    3.10
  -4 -10   7    9.00    4.40
  -4 -10   7    1.40    4.70
   3  10  -7   40.10    4.20
   3  10  -7   34.20    8.20
  -3 -10   7   37.10    4.60
  -3 -10   7   40.80    5.20
  -3 -10   7   40.30    3.40
  -3 -10   7   39.50    5.00
   2  10  -7   30.70    4.30
   2  10  -7   31.10    5.10
   2  10  -7   35.20    6.60
  -2 -10   7   25.70    4.00
  -2 -10   7   19.90    3.90
  -2 -10   7   23.40    4.40
  -2 -10   7   29.10    2.60
   1  10  -7    4.10    3.90
   1  10  -7   -1.80    2.90
   1  10  -7   -1.20    4.80
  -1 -10   7    0.30    3.00
  -1 -10   7    1.50    3.50
  -1 -10   7   -1.10    3.20
  -1 -10   7   -0.30    1.50
   0  10  -7   21.90    3.40
   0  10  -7   16.10    3.80
   0 -10   7   15.10    3.60
   0 -10   7   16.00    3.20
   0 -10   7   21.80    3.20
  -1  10  -7   68.99    5.10
  -1  10  -7   70.59    6.50
  -1  10  -7   84.79    5.50
   1 -10   7   65.09    4.80
   1 -10   7   79.69    4.90
  -2  10  -7   50.79    4.00
  -2  10  -7   44.30    4.30
  -2  10  -7   43.60    4.10
   2 -10   7   49.40    4.00
   2 -10   7   43.30    3.80
  -3  10  -7   -0.30    2.80
  -3  10  -7    2.70    3.30
  -3  10  -7    1.00    3.30
  -4  10  -7   22.50    3.90
  -4  10  -7   29.40    3.50
  -4  10  -7   22.90    3.90
  -5  10  -7   66.09    5.60
  -5  10  -7   78.59    7.40
  -5  10  -7   67.99    6.40
  -6  10  -7   21.60    3.80
  -6  10  -7   17.20    4.20
  -6  10  -7   21.10    4.90
  -6  10  -7   27.00    3.90
   5   9  -7   -1.60    4.00
   5   9  -7    4.80    3.90
  -5  -9   7   -3.80    4.30
  -5  -9   7    2.70    3.90
  -5  -9   7    1.80    3.20
   4   9  -7   28.10    4.10
   4   9  -7   30.10    5.50
   4   9  -7   19.60    4.00
  -4  -9   7   17.20    4.20
  -4  -9   7   23.00    3.20
  -4  -9   7   21.70    4.40
  -4  -9   7   24.10    4.10
   3   9  -7   53.19    4.50
   3   9  -7   40.10    3.90
   3   9  -7   34.90    4.40
  -3  -9   7   47.00    4.10
  -3  -9   7   50.29    4.90
  -3  -9   7   38.60    4.30
  -3  -9   7   38.70    4.10
   2   9  -7    4.10    2.70
   2   9  -7    7.10    3.10
  -2  -9   7    1.60    1.80
  -2  -9   7    2.10    3.20
  -2  -9   7    0.10    2.60
   1   9  -7   58.19    5.00
   1   9  -7   55.09    5.10
  -1  -9   7   52.29    4.80
  -1  -9   7   54.39    2.90
  -1  -9   7   60.19    4.80
  -1  -9   7   54.19    4.80
   0   9  -7   66.19    5.00
   0   9  -7   75.09    5.30
   0   9  -7   65.19    5.00
   0  -9   7   77.59    4.70
   0  -9   7   57.39    3.00
   0  -9   7   73.59    5.50
   0  -9   7   72.49    4.60
  -1   9  -7   39.90    3.40
  -1   9  -7   49.40    4.00
  -1   9  -7   35.20    3.50
   1  -9   7   39.70    3.80
   1  -9   7   42.40    3.10
  -2   9  -7    6.20    2.80
  -2   9  -7    4.10    2.70
  -2   9  -7    6.20    2.40
   2  -9   7    5.90    1.90
  -3   9  -7   82.89    4.80
  -3   9  -7   79.69    5.20
  -3   9  -7   84.39    5.60
  -4   9  -7   52.59    4.50
  -4   9  -7   53.39    4.70
  -4   9  -7   56.89    4.90
  -5   9  -7   -3.40    2.70
  -5   9  -7    2.00    2.60
  -5   9  -7    3.30    3.60
  -6   9  -7    0.10    3.00
  -6   9  -7    2.80    2.90
  -6   9  -7    3.00    2.90
  -6   9  -7   -0.10    3.80
   6   8  -7   12.90    4.00
   6   8  -7    4.40    4.10
   6   8  -7   10.90    5.60
   6   8  -7    9.10    4.00
  -6  -8   7   11.50    4.40
  -6  -8   7    7.40    3.60
  -6  -8   7    6.70    4.10
   5   8  -7   51.99    4.50
   5   8  -7   35.60    5.00
   5   8  -7   48.00    4.80
   5   8  -7   42.90    4.20
  -5  -8   7   52.59    4.10
  -5  -8   7   40.10    5.40
  -5  -8   7   39.00    4.40
  -5  -8   7   55.39    4.80
   4   8  -7   20.30    4.40
   4   8  -7   16.30    3.40
   4   8  -7   21.50    3.40
  -4  -8   7   20.20    3.80
  -4  -8   7   24.10    3.60
  -4  -8   7   18.70    3.30
  -4  -8   7   21.70    2.90
   3   8  -7    5.70    2.70
   3   8  -7    2.40    2.50
  -3  -8   7    3.60    2.70
  -3  -8   7    4.90    2.00
  -3  -8   7    5.40    3.00
   2   8  -7   71.69    4.90
   2   8  -7   72.39    4.60
  -2  -8   7   66.29    4.80
  -2  -8   7   66.69    5.10
  -2  -8   7   65.69    5.10
  -2  -8   7   70.09    3.50
   1   8  -7   84.59    4.70
   1   8  -7   86.09    4.80
   1   8  -7   85.89    5.00
  -1  -8   7   84.39    5.20
  -1  -8   7   84.19    4.80
  -1  -8   7   88.89    3.30
  -1  -8   7   84.19    4.70
   0   8  -7   16.50    2.70
   0   8  -7   19.20    2.80
   0   8  -7   21.00    2.70
   0  -8   7   22.40    3.10
   0  -8   7   21.30    1.70
   0  -8   7   19.40    2.40
   0  -8   7   19.70    2.40
  -1   8  -7   32.00    2.80
  -1   8  -7   25.10    2.80
  -1   8  -7   32.70    3.00
   1  -8   7   30.00    2.50
   1  -8   7   30.50    2.50
  -2   8  -7   92.29    5.00
  -2   8  -7  102.99    4.80
  -2   8  -7  100.19    4.70
   2  -8   7   92.09    3.70
   2  -8   7  101.69    3.70
   2  -8   7   96.29    5.40
  -3   8  -7  118.49    4.90
  -3   8  -7  117.29    5.60
  -3   8  -7  109.09    5.00
   3  -8   7  104.19    5.80
  -4   8  -7    7.40    2.50
  -4   8  -7   12.20    2.90
  -4   8  -7    9.70    2.20
  -5   8  -7   32.20    2.90
  -5   8  -7   37.30    4.00
  -5   8  -7   29.20    4.00
  -6   8  -7  110.49    3.80
  -6   8  -7  105.99    5.50
  -6   8  -7  111.59    5.10
  -6   8  -7  115.69    3.50
  -6   8  -7  117.39    6.80
  -6   8  -7  119.69    6.10
  -7   8  -7   24.60    2.30
  -7   8  -7   22.50    3.40
  -7   8  -7   19.60    3.50
  -7   8  -7   15.10    7.40
  -7   8  -7   23.40    3.00
  -7   8  -7   21.10    2.60
   7   7  -7   12.10    5.70
   7   7  -7   18.20    3.30
   7   7  -7   19.90    4.50
  -7  -7   7   12.10    4.70
  -7  -7   7   17.10    4.30
  -7  -7   7   12.70    4.50
   6   7  -7   37.10    4.10
   6   7  -7   37.00    5.20
   6   7  -7   35.40    5.90
   6   7  -7   36.50    4.30
  -6  -7   7   32.50    4.50
  -6  -7   7   43.60    4.30
  -6  -7   7   40.40    4.60
   5   7  -7   26.40    3.20
   5   7  -7   27.90    4.10
   5   7  -7   27.00    3.50
  -5  -7   7   26.30    3.90
  -5  -7   7   28.70    3.80
  -5  -7   7   28.30    3.20
   4   7  -7    4.40    2.60
   4   7  -7    3.90    2.40
  -4  -7   7    2.80    2.50
  -4  -7   7    3.70    3.10
  -4  -7   7    4.10    2.10
   3   7  -7   51.09    4.00
   3   7  -7   51.19    4.30
   3   7  -7   50.89    4.20
  -3  -7   7   53.09    3.40
  -3  -7   7   46.90    3.80
  -3  -7   7   51.39    4.80
  -3  -7   7   50.39    4.30
   2   7  -7  205.18    6.70
   2   7  -7  192.98    6.60
  -2  -7   7  192.38    5.70
  -2  -7   7  190.78    6.70
  -2  -7   7  196.98    6.60
  -2  -7   7  199.88    6.90
   1   7  -7    4.30    2.00
   1   7  -7    4.40    2.10
   1   7  -7    5.60    2.10
  -1  -7   7    7.60    1.90
  -1  -7   7    8.00    1.40
  -1  -7   7    3.70    2.00
  -1  -7   7    6.50    2.40
   0   7  -7   55.99    3.80
   0   7  -7   48.90    3.70
   0   7  -7   54.49    3.60
   0  -7   7   51.19    3.40
   0  -7   7   52.39    2.30
   0  -7   7   49.99    4.00
   0  -7   7   49.60    3.50
  -1   7  -7  124.49    4.90
  -1   7  -7  128.39    5.10
  -1   7  -7  128.29    4.80
   1  -7   7  122.29    4.40
   1  -7   7  124.79    4.40
   1  -7   7  120.89    5.30
  -2   7  -7  110.69    4.40
  -2   7  -7  104.59    4.50
  -2   7  -7  103.49    4.80
   2  -7   7  105.29    3.70
   2  -7   7  105.19    3.70
   2  -7   7  106.99    5.00
  -3   7  -7   -0.80    2.30
  -3   7  -7   -0.70    1.90
  -3   7  -7   -0.60    1.70
  -3   7  -7    0.20    0.50
   3  -7   7   -1.30    2.10
  -4   7  -7   71.79    4.10
  -4   7  -7   65.49    3.80
  -4   7  -7   65.69    2.30
  -4   7  -7   65.89    4.60
  -4   7  -7   67.09    4.00
   4  -7   7   67.49    4.90
  -5   7  -7   52.99    3.70
  -5   7  -7   50.19    3.90
  -5   7  -7   50.19    2.80
  -5   7  -7   53.79    4.80
  -5   7  -7   53.19    4.00
  -6   7  -7   20.70    2.80
  -6   7  -7   18.00    3.30
  -6   7  -7   19.30    2.50
  -6   7  -7   19.80    2.30
  -6   7  -7   17.80    1.80
  -7   7  -7   -1.10    2.60
  -7   7  -7   -1.10    1.90
  -7   7  -7    0.30    2.80
  -7   7  -7    0.00    3.40
  -7   7  -7    0.60    2.40
   7   6  -7   10.30    7.30
   7   6  -7   20.00    2.50
  -7  -6   7   17.20    4.30
  -7  -6   7   19.70    3.90
  -7  -6   7   21.30    4.40
   6   6  -7    3.20    2.30
   6   6  -7    5.60    3.20
  -6  -6   7    3.60    3.40
  -6  -6   7    0.50    3.70
  -6  -6   7   -2.50    4.00
  -6  -6   7    2.30    3.30
   5   6  -7   19.40    3.40
   5   6  -7   20.50    3.10
   5   6  -7   21.70    3.40
  -5  -6   7   16.60    2.70
  -5  -6   7   18.50    3.40
  -5  -6   7   22.00    3.30
   4   6  -7   41.20    3.50
   4   6  -7   29.60    3.20
   4   6  -7   28.60    2.80
  -4  -6   7   38.50    3.60
  -4  -6   7   38.60    3.60
  -4  -6   7   43.30    3.70
   3   6  -7  180.98    6.30
   3   6  -7  177.68    6.20
   3   6  -7  174.88    6.50
  -3  -6   7  176.78    6.30
  -3  -6   7  182.28    5.70
  -3  -6   7  180.38    6.50
  -3  -6   7  177.38    6.30
   2   6  -7   -0.50    1.70
   2   6  -7    0.60    2.00
   2   6  -7    1.40    1.70
  -2  -6   7    1.70    2.10
  -2  -6   7    0.80    1.20
  -2  -6   7    1.90    2.00
  -2  -6   7    1.80    1.60
   1   6  -7   55.19    3.40
   1   6  -7   62.69    3.60
   1   6  -7   57.29    3.60
  -1  -6   7   57.99    3.70
  -1  -6   7   59.49    3.60
  -1  -6   7   58.09    2.80
  -1  -6   7   60.59    3.50
   0   6  -7  234.48    6.80
   0   6  -7  216.98    5.50
   0   6  -7  225.58    6.60
   0   6  -7  226.68    6.60
   0  -6   7  229.68    5.70
   0  -6   7  222.88    6.40
   0  -6   7  215.88    6.80
   0  -6   7  218.08    6.40
  -1   6  -7   53.89    4.10
  -1   6  -7   65.69    3.40
  -1   6  -7   64.29    2.30
  -1   6  -7   66.89    3.60
   1  -6   7   68.09    3.90
   1  -6   7   62.49    3.10
   1  -6   7   69.19    3.30
  -2   6  -7    8.00    1.40
  -2   6  -7   11.80    1.80
  -2   6  -7   11.50    1.10
  -2   6  -7    8.50    1.90
  -2   6  -7   10.60    1.90
   2  -6   7    8.80    2.10
   2  -6   7   10.60    1.50
   2  -6   7   11.20    1.50
  -3   6  -7  183.98    5.70
  -3   6  -7  179.98    6.10
  -3   6  -7  186.68    6.10
  -3   6  -7  185.68    5.60
  -3   6  -7  182.18    4.70
   3  -6   7  179.58    4.30
   3  -6   7  179.68    4.40
   3  -6   7  177.78    6.20
  -4   6  -7  127.29    5.20
  -4   6  -7  114.89    3.80
  -4   6  -7  120.69    4.60
  -4   6  -7  114.69    4.40
  -4   6  -7  119.09    5.00
   4  -6   7  116.29    5.30
  -5   6  -7   12.30    2.70
  -5   6  -7   12.10    1.90
  -5   6  -7   10.50    2.20
  -5   6  -7   12.40    2.10
  -5   6  -7   14.00    2.40
   5  -6   7   10.50    2.70
  -6   6  -7   24.20    3.10
  -6   6  -7   22.50    2.60
  -6   6  -7   23.10    2.40
  -6   6  -7   15.40    2.60
  -7   6  -7   66.99    5.30
  -7   6  -7   69.49    5.60
  -7   6  -7   59.69    4.70
  -7   6  -7   60.89    4.40
  -8   6  -7   20.50    3.70
  -8   6  -7   25.00    4.00
  -8   6  -7   22.20    3.10
  -8   6  -7   23.20    3.50
   7   5  -7    1.60    3.30
   7   5  -7    6.80    4.00
   7   5  -7    5.20    1.20
  -7  -5   7    3.00    3.60
  -7  -5   7    2.50    4.40
  -7  -5   7    2.60    3.60
  -7  -5   7    6.30    3.50
   6   5  -7   15.10    3.50
   6   5  -7   16.60    2.00
   6   5  -7   15.00    3.10
  -6  -5   7   16.40    3.00
  -6  -5   7    9.40    3.90
  -6  -5   7   11.70    3.50
  -6  -5   7   13.90    3.20
   5   5  -7  201.48    7.40
   5   5  -7  213.88    7.10
   5   5  -7  209.88    7.20
  -5  -5   7  204.78    7.50
  -5  -5   7  215.38    7.30
  -5  -5   7  221.58    7.20
   4   5  -7   52.89    4.40
   4   5  -7   54.19    4.10
   4   5  -7   64.19    4.20
  -4  -5   7   52.69    4.30
  -4  -5   7   59.19    4.30
  -4  -5   7   53.09    3.60
   3   5  -7   27.60    2.80
   3   5  -7   26.70    2.80
   3   5  -7   28.20    2.70
  -3  -5   7   20.20    2.10
  -3  -5   7   26.90    2.90
  -3  -5   7   27.00    2.80
  -3  -5   7   26.50    2.70
   2   5  -7   57.79    2.80
   2   5  -7   57.29    3.60
   2   5  -7   51.79    3.50
   2   5  -7   61.69    3.40
  -2  -5   7   57.89    3.60
  -2  -5   7   55.69    3.60
  -2  -5   7   64.69    3.60
  -2  -5   7   56.99    3.00
   1   5  -7  277.07    7.60
   1   5  -7  275.87    7.50
   1   5  -7  270.47    6.80
   1   5  -7  272.77    7.70
  -1  -5   7  280.77    7.80
  -1  -5   7  274.17    7.50
  -1  -5   7  265.47    7.70
  -1  -5   7  272.87    7.00
   0   5  -7   64.49    2.50
   0   5  -7   61.69    3.00
   0   5  -7   63.59    3.40
   0   5  -7   59.99    3.20
   0  -5   7   56.79    3.10
   0  -5   7   68.39    3.70
   0  -5   7   65.89    3.30
   0  -5   7   63.09    2.70
  -1   5  -7   54.69    2.30
  -1   5  -7   54.59    3.10
  -1   5  -7   51.39    3.20
  -1   5  -7   61.99    3.40
   1  -5   7   61.59    2.90
   1  -5   7   54.59    3.50
   1  -5   7   57.69    3.00
  -2   5  -7   72.29    3.70
  -2   5  -7   81.79    2.90
  -2   5  -7   77.99    3.50
  -2   5  -7   77.79    3.50
  -2   5  -7   78.69    3.60
   2  -5   7   80.59    3.10
   2  -5   7   81.59    3.90
   2  -5   7   87.39    3.00
  -3   5  -7  154.68    5.40
  -3   5  -7  148.89    4.40
  -3   5  -7  158.98    4.90
  -3   5  -7  148.89    5.30
  -3   5  -7  153.88    5.00
   3  -5   7  153.38    3.90
   3  -5   7  147.89    5.40
   3  -5   7  150.28    4.00
  -4   5  -7   48.80    3.30
  -4   5  -7   48.40    3.10
  -4   5  -7   50.49    3.30
  -4   5  -7   50.39    3.70
  -4   5  -7   49.50    2.90
   4  -5   7   48.90    3.80
  -5   5  -7   42.20    3.20
  -5   5  -7   41.00    3.40
  -5   5  -7   40.90    3.30
  -5   5  -7   39.90    3.30
  -5   5  -7   25.70    2.70
   5  -5   7   38.70    3.20
  -6   5  -7   73.29    4.70
  -6   5  -7   70.99    4.60
  -6   5  -7   70.09    4.20
  -6   5  -7   74.59    4.10
  -7   5  -7   44.40    4.30
  -7   5  -7   39.90    3.30
  -7   5  -7   43.40    3.20
  -7   5  -7   39.00    3.60
  -8   5  -7    2.10    3.20
  -8   5  -7   -0.60    3.20
  -8   5  -7   -4.10    3.60
  -8   5  -7    2.50    2.90
   8   4  -7   -2.10    3.30
   8   4  -7   -5.20    4.00
  -8  -4   7   -2.10    4.10
  -8  -4   7   -3.90    4.10
  -8  -4   7   -2.60    3.60
   7   4  -7   16.80    3.70
   7   4  -7   15.90    3.20
  -7  -4   7   18.40    4.00
  -7  -4   7   18.90    4.50
  -7  -4   7   18.90    3.70
  -7  -4   7   24.10    3.80
   6   4  -7   76.49    2.60
   6   4  -7   81.09    5.40
   6   4  -7   78.09    3.20
   6   4  -7   76.79    5.00
  -6  -4   7   77.29    5.90
  -6  -4   7   78.09    5.60
  -6  -4   7   86.39    5.10
  -6  -4   7   87.59    5.60
   5   4  -7    1.80    2.40
   5   4  -7    2.20    1.10
   5   4  -7    3.60    2.20
  -5  -4   7   -0.60    1.80
  -5  -4   7   -0.50    2.30
  -5  -4   7    3.50    2.50
  -5  -4   7    0.60    2.20
   4   4  -7    4.30    2.20
   4   4  -7    4.90    1.90
   4   4  -7    3.90    1.10
   4   4  -7    5.10    2.10
  -4  -4   7    3.30    2.30
  -4  -4   7    4.90    1.70
  -4  -4   7    3.40    2.20
  -4  -4   7    6.20    2.00
   3   4  -7  126.49    4.90
   3   4  -7  123.79    4.70
   3   4  -7  114.09    4.90
   3   4  -7  125.89    4.80
   3   4  -7  125.99    4.00
  -3  -4   7  133.69    5.10
  -3  -4   7  127.69    4.50
  -3  -4   7  127.89    4.80
  -3  -4   7  116.79    4.90
   2   4  -7  384.96    9.40
   2   4  -7  389.96    9.30
   2   4  -7  388.56    9.80
   2   4  -7  369.06    9.70
   2   4  -7  370.26    9.70
  -2  -4   7  381.36    9.70
  -2  -4   7  385.96    9.90
  -2  -4   7  367.76    9.70
  -2  -4   7  383.26    9.40
   1   4  -7   75.29    3.60
   1   4  -7   68.59    2.90
   1   4  -7   69.59    3.00
   1   4  -7   77.39    3.50
  -1  -4   7   75.49    3.50
  -1  -4   7   70.19    3.60
  -1  -4   7   73.69    3.10
   0   4  -7  130.89    4.00
   0   4  -7  135.29    4.70
   0   4  -7  131.39    4.60
   0   4  -7  133.49    4.50
   0   4  -7  139.89    4.70
   0  -4   7  134.39    4.60
   0  -4   7  139.99    4.20
   0  -4   7  139.49    4.50
   0  -4   7  126.09    4.80
  -1   4  -7  134.39    4.60
  -1   4  -7  135.59    4.50
  -1   4  -7  133.09    4.00
  -1   4  -7  132.69    4.60
  -1   4  -7  135.89    4.80
   1  -4   7  136.39    4.40
   1  -4   7  138.49    4.30
   1  -4   7  136.59    4.80
  -2   4  -7  182.68    5.60
  -2   4  -7  185.68    5.50
  -2   4  -7  179.58    5.40
  -2   4  -7  177.38    5.70
  -2   4  -7  178.88    5.10
   2  -4   7  177.58    5.70
   2  -4   7  176.78    5.00
   2  -4   7  177.78    4.90
  -3   4  -7    1.70    1.20
  -3   4  -7    3.60    1.70
  -3   4  -7    3.30    1.60
  -3   4  -7    2.40    1.40
  -3   4  -7    5.80    1.40
   3  -4   7    5.20    1.20
   3  -4   7    6.90    1.10
   3  -4   7    4.40    1.90
  -4   4  -7  136.79    5.20
  -4   4  -7  137.59    5.00
  -4   4  -7  134.19    4.70
  -4   4  -7  134.59    4.70
  -4   4  -7  135.29    4.70
   4  -4   7  135.59    5.10
  -5   4  -7   50.29    3.40
  -5   4  -7   47.70    3.50
  -5   4  -7   52.59    3.70
  -5   4  -7   50.49    3.70
  -5   4  -7   45.40    3.70
   5  -4   7   49.20    4.00
  -6   4  -7   18.70    2.40
  -6   4  -7   14.70    2.50
  -6   4  -7   22.20    2.60
  -6   4  -7   21.30    2.70
  -7   4  -7    4.90    2.50
  -7   4  -7    3.90    2.60
  -7   4  -7    2.50    2.80
  -7   4  -7    6.90    2.70
  -8   4  -7   28.80    3.90
  -8   4  -7   24.00    3.60
  -8   4  -7   31.70    3.30
  -8   4  -7   28.20    4.30
   8   3  -7   13.70    3.20
  -8  -3   7   19.00    5.70
  -8  -3   7   21.50    4.40
  -8  -3   7   16.10    4.50
  -8  -3   7   14.20    4.30
   7   3  -7   53.69    4.20
   7   3  -7   55.09    4.80
  -7  -3   7   54.29    4.40
  -7  -3   7   62.89    5.00
  -7  -3   7   60.69    5.00
  -7  -3   7   53.09    4.90
   6   3  -7   12.40    2.60
   6   3  -7   12.10    2.80
  -6  -3   7   11.00    2.90
  -6  -3   7   14.70    2.60
  -6  -3   7   15.40    2.90
  -6  -3   7   12.30    3.30
   5   3  -7   15.80    1.40
   5   3  -7   15.90    2.60
   5   3  -7   20.70    2.60
  -5  -3   7   13.60    2.60
  -5  -3   7   15.90    2.50
  -5  -3   7   16.70    2.70
  -5  -3   7   10.10    2.60
   4   3  -7  284.57    7.80
   4   3  -7  278.27    6.80
   4   3  -7  271.67    7.80
   4   3  -7  268.87    7.90
  -4  -3   7  279.67    8.10
  -4  -3   7  284.57    8.20
  -4  -3   7  273.97    8.00
  -4  -3   7  280.47    8.00
   3   3  -7   55.29    3.50
   3   3  -7   57.89    3.40
   3   3  -7   60.09    3.40
   3   3  -7   59.79    3.60
   3   3  -7   62.19    2.50
  -3  -3   7   54.29    3.60
  -3  -3   7   56.09    3.50
  -3  -3   7   57.59    3.50
  -3  -3   7   61.39    3.30
   2   3  -7    0.90    0.90
   2   3  -7    1.80    1.20
   2   3  -7   -0.50    1.50
   2   3  -7    0.70    1.50
   2   3  -7   -0.10    1.70
  -2  -3   7    0.90    1.50
  -2  -3   7    1.20    1.60
  -2  -3   7    1.00    1.40
  -2  -3   7    1.30    1.30
   1   3  -7   73.79    3.50
   1   3  -7   72.19    3.00
   1   3  -7   84.29    3.60
   1   3  -7   75.79    3.10
   1   3  -7   73.39    3.40
  -1  -3   7   77.19    3.40
  -1  -3   7   78.29    3.50
  -1  -3   7   75.89    3.20
  -1  -3   7   78.39    3.60
   0   3  -7  264.97    7.30
   0   3  -7  270.17    7.30
   0   3  -7  264.77    7.30
   0   3  -7  275.67    7.30
   0   3  -7  276.47    7.00
   0  -3   7  274.87    7.40
   0  -3   7  276.77    7.20
   0  -3   7  271.87    7.10
   0  -3   7  272.87    7.20
  -1   3  -7  196.38    5.70
  -1   3  -7  188.78    5.40
  -1   3  -7  195.88    5.70
  -1   3  -7  195.68    5.80
  -1   3  -7  192.28    5.80
   1  -3   7  189.58    5.40
   1  -3   7  195.68    5.50
   1  -3   7  190.78    5.80
  -2   3  -7   20.10    2.10
  -2   3  -7   23.50    2.00
  -2   3  -7   25.60    2.20
  -2   3  -7   21.30    2.00
  -2   3  -7   22.20    2.20
   2  -3   7   27.10    2.40
   2  -3   7   21.90    1.90
   2  -3   7   23.70    2.10
  -3   3  -7   78.29    3.60
  -3   3  -7   79.89    3.70
  -3   3  -7   81.99    3.70
  -3   3  -7   79.99    3.60
  -3   3  -7   81.59    3.70
   3  -3   7   81.09    3.90
   3  -3   7   82.89    3.20
   3  -3   7   78.59    2.90
  -4   3  -7  166.38    5.50
  -4   3  -7  171.88    6.00
  -4   3  -7  165.38    5.40
  -4   3  -7  170.38    5.40
  -4   3  -7  158.58    5.30
   4  -3   7  165.78    4.20
   4  -3   7  170.28    5.60
   4  -3   7  168.28    4.30
  -5   3  -7   53.99    4.20
  -5   3  -7   56.89    3.80
  -5   3  -7   57.99    3.80
  -5   3  -7   65.99    3.70
   5  -3   7   63.09    3.90
  -6   3  -7   17.50    2.70
  -6   3  -7   12.70    2.30
  -6   3  -7   17.20    2.50
  -6   3  -7   14.70    2.60
   6  -3   7   15.50    2.40
  -7   3  -7   41.10    3.90
  -7   3  -7   40.80    3.60
  -7   3  -7   39.50    3.60
  -7   3  -7   46.70    4.80
  -8   3  -7   31.30    2.80
  -8   3  -7   29.30    4.20
  -8   3  -7   33.60    4.10
  -8   3  -7   30.70    4.20
   8   2  -7   17.40    3.20
   8   2  -7   16.20    3.00
  -8  -2   7   15.90    4.00
  -8  -2   7   14.40    5.10
  -8  -2   7   16.90    4.10
  -8  -2   7   20.80    4.70
   7   2  -7    7.80    3.10
   7   2  -7    6.50    2.50
  -7  -2   7    3.30    2.70
  -7  -2   7    2.80    3.60
  -7  -2   7   -0.80    3.20
  -7  -2   7    1.60    3.10
   6   2  -7   28.00    3.00
   6   2  -7   25.10    2.80
  -6  -2   7   25.40    3.30
  -6  -2   7   24.50    3.00
  -6  -2   7   28.80    3.60
  -6  -2   7   29.50    3.10
   5   2  -7  151.68    5.50
   5   2  -7  146.39    3.60
   5   2  -7  150.48    5.60
   5   2  -7  149.49    5.50
  -5  -2   7  155.28    6.00
  -5  -2   7  154.38    5.80
  -5  -2   7  145.59    6.00
  -5  -2   7  157.48    5.90
   4   2  -7  105.19    4.40
   4   2  -7  104.39    4.30
   4   2  -7  105.19    4.60
   4   2  -7  109.69    3.20
  -4  -2   7  106.39    4.70
  -4  -2   7  112.69    4.80
  -4  -2   7  103.09    4.80
  -4  -2   7  106.49    4.70
   3   2  -7    8.00    1.30
   3   2  -7    6.60    1.40
   3   2  -7    8.80    2.00
   3   2  -7    8.40    1.70
  -3  -2   7    9.60    2.10
  -3  -2   7    8.30    2.00
  -3  -2   7    4.30    1.60
  -3  -2   7    6.00    1.80
   2   2  -7   89.09    3.60
   2   2  -7   93.19    3.90
   2   2  -7   84.29    3.20
  -2  -2   7   85.99    3.80
  -2  -2   7   90.59    4.00
  -2  -2   7   98.59    3.90
   1   2  -7  310.87    8.10
   1   2  -7  296.97    8.10
   1   2  -7  299.27    7.80
   1   2  -7  306.87    7.90
   1   2  -7  307.87    8.10
  -1  -2   7  313.77    8.10
  -1  -2   7  305.37    7.90
  -1  -2   7  301.67    7.90
  -1  -2   7  302.37    8.20
   0   2  -7  193.08    5.70
   0   2  -7  192.68    5.70
   0   2  -7  187.98    5.80
   0   2  -7  190.38    5.60
   0   2  -7  187.38    5.70
   0  -2   7  198.48    5.60
   0  -2   7  189.78    5.60
   0  -2   7  191.08    5.70
   0  -2   7  198.78    5.80
  -1   2  -7   33.90    2.70
  -1   2  -7   27.50    2.50
  -1   2  -7   26.90    2.20
  -1   2  -7   30.40    2.50
  -1   2  -7   32.80    2.60
   1  -2   7   30.60    2.70
   1  -2   7   28.70    2.20
   1  -2   7   33.60    2.60
   1  -2   7   29.90    2.50
  -2   2  -7  130.09    4.60
  -2   2  -7  122.59    4.60
  -2   2  -7  129.89    4.50
  -2   2  -7  139.69    4.60
  -2   2  -7  129.79    4.50
   2  -2   7  131.39    4.70
   2  -2   7  133.49    4.40
   2  -2   7  122.09    4.60
   2  -2   7  137.99    4.20
  -3   2  -7  109.89    4.40
  -3   2  -7  105.99    4.10
  -3   2  -7  109.89    4.30
  -3   2  -7  112.29    4.40
  -3   2  -7  101.89    5.00
   3  -2   7  107.19    3.90
   3  -2   7  105.09    4.40
   3  -2   7  111.89    4.30
   3  -2   7  113.69    3.60
  -4   2  -7    8.60    2.00
  -4   2  -7    8.50    2.00
  -4   2  -7    9.60    1.90
  -4   2  -7   11.90    2.20
  -4   2  -7   10.60    2.00
   4  -2   7   12.00    2.10
   4  -2   7    7.30    1.80
   4  -2   7    9.80    1.50
   4  -2   7    8.00    1.50
  -5   2  -7   42.20    3.70
  -5   2  -7   30.90    2.80
  -5   2  -7   37.30    3.30
  -5   2  -7   36.30    3.00
   5  -2   7   36.10    3.40
   5  -2   7   34.40    3.60
  -6   2  -7   44.00    3.50
  -6   2  -7   41.10    3.40
  -6   2  -7   41.40    3.50
  -6   2  -7   48.60    4.30
   6  -2   7   39.80    3.60
  -7   2  -7   15.60    3.40
  -7   2  -7   14.90    3.00
  -7   2  -7   14.80    3.30
  -8   2  -7    0.40    3.90
  -8   2  -7   -0.50    4.30
  -8   2  -7    4.70    3.40
   8   1  -7   -0.30    2.40
   8   1  -7   -1.80    2.60
  -8  -1   7   -3.50    3.60
  -8  -1   7    1.60    3.10
  -8  -1   7   -6.80    4.20
  -8  -1   7   -2.30    4.20
   7   1  -7   41.60    3.20
   7   1  -7   42.20    3.30
  -7  -1   7   38.90    4.10
  -7  -1   7   36.80    4.20
  -7  -1   7   32.10    4.10
  -7  -1   7   30.60    3.60
   6   1  -7   45.60    4.20
   6   1  -7   49.50    4.00
  -6  -1   7   47.10    4.50
  -6  -1   7   51.39    4.10
  -6  -1   7   56.29    4.50
  -6  -1   7   52.59    5.10
   5   1  -7   65.59    4.00
  -5  -1   7   59.39    4.20
  -5  -1   7   62.99    4.30
  -5  -1   7   60.39    4.70
  -5  -1   7   62.89    4.40
   4   1  -7   11.70    2.30
   4   1  -7    9.40    2.00
   4   1  -7   11.10    2.00
   4   1  -7   10.70    1.20
  -4  -1   7   13.50    2.30
  -4  -1   7    8.60    2.00
  -4  -1   7   13.90    2.30
  -4  -1   7    6.60    2.20
   3   1  -7  108.99    3.50
   3   1  -7  103.19    4.40
   3   1  -7  108.79    4.20
   3   1  -7  105.59    4.30
  -3  -1   7   97.99    4.50
  -3  -1   7  108.49    4.50
  -3  -1   7  113.59    4.50
  -3  -1   7  107.99    4.30
   2   1  -7  243.98    6.30
   2   1  -7  233.58    6.70
   2   1  -7  206.58    7.30
   2   1  -7  226.48    6.80
  -2  -1   7  242.68    6.70
  -2  -1   7  235.08    6.20
  -2  -1   7  239.88    6.80
  -2  -1   7  231.98    6.70
  -2  -1   7  228.78    6.80
   1   1  -7   26.80    4.20
   1   1  -7   32.10    2.60
   1   1  -7   32.60    2.60
   1   1  -7   31.40    2.20
  -1  -1   7   27.50    2.00
  -1  -1   7   28.70    2.60
  -1  -1   7   30.30    2.70
   0   1  -7  149.99    4.80
   0   1  -7  138.49    4.80
   0   1  -7  113.99    6.90
   0   1  -7  138.69    4.70
   0  -1   7  142.29    4.60
   0  -1   7  142.79    4.70
   0  -1   7  143.19    4.60
   0  -1   7  140.89    4.90
   0  -1   7  144.29    4.90
  -1   1  -7  156.78    5.60
  -1   1  -7  153.78    5.20
  -1   1  -7  161.48    5.30
  -1   1  -7  163.28    5.20
   1  -1   7  144.89    5.50
   1  -1   7  170.68    5.00
   1  -1   7  163.98    5.20
   1  -1   7  165.48    5.30
  -2   1  -7   97.69    6.00
  -2   1  -7  104.79    4.20
  -2   1  -7  108.39    4.30
  -2   1  -7  113.09    4.40
   2  -1   7  107.09    4.20
   2  -1   7  115.99    4.30
   2  -1   7  107.69    4.30
   2  -1   7  108.89    4.00
  -3   1  -7    2.80    1.80
  -3   1  -7    3.20    1.30
  -3   1  -7    1.00    1.70
  -3   1  -7    1.90    1.60
   3  -1   7    1.90    1.70
   3  -1   7   -0.20    1.30
   3  -1   7    2.60    1.50
   3  -1   7    0.40    1.70
  -4   1  -7   77.39    4.50
  -4   1  -7   75.29    4.20
  -4   1  -7   77.09    4.30
  -4   1  -7   76.69    4.30
   4  -1   7   75.49    4.10
   4  -1   7   78.09    3.50
   4  -1   7   76.69    3.90
   4  -1   7   79.59    3.70
  -5   1  -7   74.89    4.60
  -5   1  -7   73.69    4.60
  -5   1  -7   74.69    4.80
   5  -1   7   80.49    4.00
   5  -1   7   77.29    3.30
   5  -1   7   75.69    3.40
  -6   1  -7   26.60    3.50
  -6   1  -7   25.90    3.40
  -6   1  -7   31.20    4.00
   6  -1   7   27.40    2.50
   6  -1   7   22.00    3.30
  -7   1  -7   -0.30    2.80
  -7   1  -7   -0.60    3.40
  -7   1  -7    0.60    3.70
   7  -1   7   -3.20    3.20
   8   0  -7   27.20    2.20
   8   0  -7   25.80    2.30
  -8   0   7   29.10    5.20
  -8   0   7   20.80    4.10
  -8   0   7   22.10    5.50
  -8   0   7   24.40    5.10
   7   0  -7   29.80    3.00
   7   0  -7   30.30    2.90
   7   0  -7   29.40    3.70
  -7   0   7   39.30    4.60
  -7   0   7   33.10    4.30
  -7   0   7   29.10    3.60
  -7   0   7   26.20    4.20
   6   0  -7   24.90    2.70
   6   0  -7   25.00    2.80
  -6   0   7   25.40    3.20
  -6   0   7   23.70    3.50
  -6   0   7   23.50    3.20
  -6   0   7   21.90    3.50
   5   0  -7   31.50    2.80
   5   0  -7   29.70    2.90
  -5   0   7   25.40    3.00
  -5   0   7   26.70    3.10
  -5   0   7   26.70    3.10
  -5   0   7   25.40    3.20
   4   0  -7  234.78    6.90
   4   0  -7  232.48    5.80
   4   0  -7  226.48    7.00
   4   0  -7  211.18    7.20
  -4   0   7  233.28    7.40
  -4   0   7  232.48    7.30
  -4   0   7  234.38    7.10
  -4   0   7  219.58    7.10
   3   0  -7  109.09    4.50
   3   0  -7  107.59    4.60
   3   0  -7  112.49    3.60
   3   0  -7  109.69    4.40
  -3   0   7  111.59    4.70
  -3   0   7  109.49    4.60
  -3   0   7  104.39    4.50
  -3   0   7  101.89    3.60
  -3   0   7  111.89    4.70
   2   0  -7    0.20    1.10
   2   0  -7   -0.60    1.40
   2   0  -7   -0.80    1.60
   2   0  -7    0.90    1.50
  -2   0   7   -0.10    1.50
  -2   0   7    1.60    1.80
  -2   0   7    0.30    0.90
  -2   0   7    0.30    1.60
  -2   0   7   -0.10    1.20
   1   0  -7   40.90    2.50
   1   0  -7   40.60    3.10
   1   0  -7   39.50    3.10
   1   0  -7   43.20    3.20
  -1   0   7   42.80    3.00
  -1   0   7   40.80    3.20
  -1   0   7   45.00    3.10
  -1   0   7   42.20    2.50
  -1   0   7   46.40    3.30
   0   0  -7  132.29    4.70
   0   0  -7  138.59    4.90
   0   0  -7  140.99    4.90
   0   0  -7  137.99    4.90
   0   0   7  141.09    4.70
   0   0   7  132.59    5.00
   0   0   7  138.69    4.90
   0   0   7  142.79    4.80
  -1   0  -7  325.87    8.90
  -1   0  -7  338.27    8.80
  -1   0  -7  315.17    8.60
  -1   0  -7  327.57    8.70
   1   0   7  326.97    8.60
   1   0   7  323.67    8.40
   1   0   7  331.57    8.90
  -2   0  -7    4.10    1.60
  -2   0  -7    3.40    1.40
  -2   0  -7    7.10    1.90
  -2   0  -7    5.80    2.00
   2   0   7    4.60    1.80
   2   0   7    5.00    1.60
   2   0   7    5.00    1.40
   2   0   7    5.60    2.10
  -3   0  -7   77.19    4.30
  -3   0  -7   84.49    4.20
  -3   0  -7   83.39    4.30
  -3   0  -7   83.39    4.40
   3   0   7   79.19    4.10
   3   0   7   83.99    4.40
   3   0   7   77.79    4.00
   3   0   7   82.99    3.70
  -4   0  -7   64.29    4.70
  -4   0  -7   61.39    4.50
  -4   0  -7   63.09    4.00
  -4   0  -7   56.19    4.40
   4   0   7   61.69    4.20
   4   0   7   64.39    3.90
   4   0   7   62.99    3.70
  -5   0  -7   13.90    3.30
  -5   0  -7   20.80    2.90
  -5   0  -7   16.60    3.00
  -5   0  -7   17.80    3.20
   5   0   7   19.30    2.70
   5   0   7   18.20    2.30
   5   0   7   17.40    2.30
  -6   0  -7    9.30    3.60
  -6   0  -7    6.60    3.40
  -6   0  -7    5.20    2.80
   6   0   7    4.40    2.00
   6   0   7   11.30    2.00
   6   0   7    6.30    2.10
   6   0   7    7.50    2.80
  -7   0  -7   17.50    4.60
  -7   0  -7   16.60    4.30
  -7   0  -7   21.20    3.90
  -8   1   7   29.10    4.80
  -8   1   7   19.30    5.20
  -8   1   7   22.60    5.50
  -8   1   7   17.90    4.30
   7  -1  -7   -1.30    2.30
   7  -1  -7    7.70    3.20
   7  -1  -7    0.40    2.20
  -7   1   7    9.50    3.50
  -7   1   7   -0.60    3.70
  -7   1   7    0.30    3.00
  -7   1   7    2.80    4.10
   6  -1  -7   14.40    3.90
   6  -1  -7   16.40    2.60
   6  -1  -7   16.30    2.50
  -6   1   7   18.00    3.50
  -6   1   7   14.70    3.40
  -6   1   7   17.90    3.70
  -6   1   7   20.60    3.20
   5  -1  -7   75.09    4.50
   5  -1  -7   76.19    4.40
  -5   1   7   78.69    5.40
  -5   1   7   84.59    5.00
  -5   1   7   82.69    5.50
  -5   1   7   88.79    4.90
   4  -1  -7   71.39    4.20
   4  -1  -7   80.29    4.40
   4  -1  -7   84.09    3.20
  -4   1   7   83.49    4.90
  -4   1   7   79.19    3.10
  -4   1   7   80.99    4.80
  -4   1   7   85.49    4.70
  -4   1   7   82.59    4.50
   3  -1  -7    0.60    1.80
   3  -1  -7    1.20    2.00
   3  -1  -7    0.00    1.80
   3  -1  -7    3.20    1.40
  -3   1   7    2.60    1.10
  -3   1   7    1.00    1.80
  -3   1   7    0.80    1.70
  -3   1   7    3.10    1.90
  -3   1   7    2.60    2.00
   2  -1  -7  111.49    4.70
   2  -1  -7  111.59    4.70
   2  -1  -7  114.09    4.20
   2  -1  -7  114.19    4.80
  -2   1   7  113.09    4.60
  -2   1   7  110.89    4.00
  -2   1   7  109.99    4.70
  -2   1   7  106.59    4.80
  -2   1   7  115.79    4.90
   1  -1  -7  100.49    4.00
   1  -1  -7   99.29    4.50
   1  -1  -7  101.49    4.60
   1  -1  -7  102.19    4.40
  -1   1   7  102.59    4.30
  -1   1   7  105.39    4.40
  -1   1   7  107.59    4.70
  -1   1   7   97.59    3.90
  -1   1   7  101.09    4.50
   0  -1  -7   71.89    3.90
   0  -1  -7   67.59    3.90
   0  -1  -7   71.49    3.60
   0  -1  -7   73.09    3.90
   0   1   7   69.89    3.90
   0   1   7   65.89    4.10
   0   1   7   70.69    3.50
   0   1   7   73.99    4.00
   0   1   7   69.19    3.70
  -1  -1  -7   45.60    3.50
  -1  -1  -7   39.90    3.50
  -1  -1  -7   42.90    3.10
  -1  -1  -7   40.10    3.60
   1   1   7   42.30    3.70
   1   1   7   45.00    3.30
   1   1   7   43.40    3.80
  -2  -1  -7   44.30    3.90
  -2  -1  -7   48.80    3.40
  -2  -1  -7   46.30    3.80
  -2  -1  -7   45.50    3.80
   2   1   7   43.00    3.10
   2   1   7   46.10    4.20
   2   1   7   48.30    3.30
   2   1   7   43.90    3.60
  -3  -1  -7   80.89    4.80
  -3  -1  -7   81.59    4.90
  -3  -1  -7   81.59    4.80
  -3  -1  -7   81.49    4.50
   3   1   7   85.29    4.30
   3   1   7   89.09    5.00
  -4  -1  -7    5.80    2.80
  -4  -1  -7   10.40    3.00
  -4  -1  -7    7.00    2.30
  -4  -1  -7    8.00    3.00
   4   1   7   12.60    2.90
   4   1   7    9.20    2.40
   4   1   7    7.60    2.20
  -5  -1  -7   20.20    3.80
  -5  -1  -7   28.00    3.80
  -5  -1  -7   15.00    3.80
  -5  -1  -7   20.30    3.70
   5   1   7   21.90    2.90
   5   1   7   22.20    2.50
   5   1   7   16.00    2.90
   5   1   7   20.00    3.30
  -6  -1  -7   33.70    4.10
  -6  -1  -7   39.30    4.50
  -6  -1  -7   30.80    4.60
   6   1   7   36.80    3.30
   6   1   7   31.80    2.40
   6   1   7   32.00    3.40
   6   1   7   31.10    4.50
  -7  -1  -7   23.50    4.60
  -7  -1  -7   15.00    4.80
  -7  -1  -7   17.00    5.60
   7   1   7   16.80    2.10
   7   1   7   10.70    2.40
   7  -2  -7   26.50    2.60
   7  -2  -7   29.60    2.70
  -7   2   7   23.40    4.70
  -7   2   7   34.80    4.60
  -7   2   7   27.10    5.00
  -7   2   7   31.20    4.00
   6  -2  -7   46.00    4.10
   6  -2  -7   35.60    3.80
   6  -2  -7   38.40    3.20
  -6   2   7   38.60    4.40
  -6   2   7   46.60    4.10
  -6   2   7   38.20    3.90
  -6   2   7   43.60    4.70
   5  -2  -7   20.40    3.50
   5  -2  -7   24.80    2.80
  -5   2   7   24.60    3.80
  -5   2   7   16.00    2.90
  -5   2   7   18.20    2.90
  -5   2   7   21.80    2.10
  -5   2   7   23.50    3.70
   4  -2  -7    0.50    2.10
   4  -2  -7   -0.20    2.20
  -4   2   7   -1.30    2.30
  -4   2   7    0.90    2.40
  -4   2   7   -0.20    1.20
  -4   2   7    1.10    2.30
  -4   2   7    0.90    2.20
   3  -2  -7  113.99    5.00
   3  -2  -7  115.49    4.40
   3  -2  -7  118.29    5.30
  -3   2   7  119.29    5.40
  -3   2   7  118.19    4.30
  -3   2   7  120.29    5.10
  -3   2   7  116.59    5.50
   2  -2  -7  171.98    5.70
   2  -2  -7  185.08    6.30
   2  -2  -7  173.88    6.10
   2  -2  -7  172.78    6.20
  -2   2   7  180.78    6.30
  -2   2   7  166.18    6.30
  -2   2   7  174.28    5.60
  -2   2   7  176.88    6.20
  -2   2   7  175.38    6.10
   1  -2  -7   12.30    2.50
   1  -2  -7   15.30    2.60
   1  -2  -7   11.80    2.50
   1  -2  -7   12.80    2.00
  -1   2   7   15.10    2.70
  -1   2   7   13.30    2.20
  -1   2   7    9.70    1.80
  -1   2   7   11.00    2.60
  -1   2   7   11.40    2.40
   0  -2  -7   42.60    3.80
   0  -2  -7   42.70    4.00
   0  -2  -7   47.20    3.40
   0  -2  -7   41.90    3.70
   0   2   7   41.20    3.50
   0   2   7   42.00    4.00
   0   2   7   41.50    3.40
   0   2   7   41.70    3.30
  -1  -2  -7   70.19    4.50
  -1  -2  -7   77.49    4.30
  -1  -2  -7   64.69    4.40
   1   2   7   71.49    4.00
   1   2   7   72.59    5.10
   1   2   7   72.09    4.10
   1   2   7   71.39    4.50
  -2  -2  -7  122.69    5.40
  -2  -2  -7  114.59    5.60
   2   2   7  114.19    6.00
   2   2   7  118.99    5.20
   2   2   7  115.89    4.90
   2   2   7  113.19    5.00
  -3  -2  -7    3.40    2.10
  -3  -2  -7   -1.50    2.60
  -3  -2  -7   -0.20    2.40
  -3  -2  -7   -2.60    2.80
   3   2   7    2.20    2.20
   3   2   7    2.70    2.40
   3   2   7   -5.40    3.00
  -4  -2  -7   22.80    3.80
  -4  -2  -7   23.00    3.80
  -4  -2  -7   19.50    3.70
   4   2   7   23.50    3.70
   4   2   7   24.90    2.90
   4   2   7   24.50    3.20
  -5  -2  -7   18.50    6.40
  -5  -2  -7   25.90    3.70
  -5  -2  -7   19.20    4.30
  -5  -2  -7   27.00    4.30
   5   2   7   25.50    3.70
   5   2   7   24.70    4.10
   5   2   7   29.20    3.50
   5   2   7   28.80    2.90
  -6  -2  -7   10.70    5.10
  -6  -2  -7   11.10    4.10
  -6  -2  -7    4.40    4.70
   6   2   7    9.60    2.20
   6   2   7    8.10    3.50
   6   2   7    9.80    4.30
   7  -3  -7   18.40    2.20
   7  -3  -7   19.50    2.20
  -7   3   7   15.60    4.10
  -7   3   7   12.80    4.10
  -7   3   7   23.10    5.30
   6  -3  -7    5.10    2.70
   6  -3  -7    8.50    3.20
   6  -3  -7    2.90    2.60
  -6   3   7    4.00    3.20
  -6   3   7    6.70    4.20
  -6   3   7   12.40    4.40
  -6   3   7    7.20    3.40
  -6   3   7    7.90    1.60
   5  -3  -7    6.50    3.10
   5  -3  -7    5.10    3.40
   5  -3  -7    9.80    2.80
  -5   3   7   13.50    3.20
  -5   3   7    8.00    1.70
  -5   3   7    9.00    3.60
  -5   3   7    6.80    2.90
   4  -3  -7   67.89    5.00
   4  -3  -7   71.79    4.90
  -4   3   7   62.39    5.60
  -4   3   7   69.19    3.60
  -4   3   7   70.99    5.00
  -4   3   7   71.89    4.90
   3  -3  -7   78.59    5.00
   3  -3  -7   75.59    5.10
   3  -3  -7   84.09    4.10
  -3   3   7   77.99    5.70
  -3   3   7   71.49    5.80
  -3   3   7   90.69    5.20
  -3   3   7   79.09    4.90
   2  -3  -7    1.70    1.80
   2  -3  -7   -2.10    2.10
   2  -3  -7   -0.70    2.60
   2  -3  -7    0.20    2.30
  -2   3   7   -1.10    2.10
  -2   3   7    0.00    2.10
  -2   3   7   -4.10    2.50
  -2   3   7    1.00    1.70
   1  -3  -7    2.60    2.50
   1  -3  -7    1.30    1.80
   1  -3  -7    0.70    2.60
  -1   3   7    5.90    2.20
  -1   3   7    2.40    1.80
  -1   3   7    0.30    1.90
  -1   3   7    1.80    2.30
   0  -3  -7   65.59    4.80
   0  -3  -7   55.79    4.70
   0  -3  -7   60.39    4.10
   0   3   7   63.89    4.30
   0   3   7   64.29    5.20
   0   3   7   57.39    4.00
   0   3   7   63.99    4.90
  -1  -3  -7   79.29    5.20
  -1  -3  -7   79.09    4.80
   1   3   7   84.89    4.80
   1   3   7   84.49    4.70
   1   3   7   82.79    5.30
   1   3   7   78.89    5.90
  -2  -3  -7    0.20    2.90
  -2  -3  -7   -2.20    2.30
   2   3   7    2.60    2.10
   2   3   7    0.50    2.30
   2   3   7    2.70    2.60
   2   3   7    4.20    3.30
  -3  -3  -7   20.50    4.00
  -3  -3  -7   13.60    3.70
   3   3   7   20.60    3.10
   3   3   7   19.20    4.00
   3   3   7   26.00    3.40
  -4  -3  -7   28.70    4.40
  -4  -3  -7   24.70    4.40
  -4  -3  -7   24.00    4.00
  -4  -3  -7   32.80    4.10
   4   3   7   35.40    3.90
   4   3   7   30.00    3.30
   4   3   7   44.40    5.10
   4   3   7   25.50    3.20
  -5  -3  -7    8.70    4.80
  -5  -3  -7   -0.80    3.10
   5   3   7    4.40    2.90
   5   3   7    5.50    4.80
   5   3   7    8.70    3.80
   6  -4  -7   16.00    3.10
   6  -4  -7   12.00    3.00
  -6   4   7   17.70    2.30
  -6   4   7   17.80    4.00
  -6   4   7   20.70    5.20
  -6   4   7   22.60    4.50
   5  -4  -7   26.10    3.50
   5  -4  -7   24.80    3.90
   5  -4  -7   30.20    3.60
  -5   4   7   30.70    7.20
  -5   4   7   21.80    4.50
  -5   4   7   26.20    3.80
  -5   4   7   26.40    2.80
   4  -4  -7   28.00    3.70
   4  -4  -7   33.00    3.60
   4  -4  -7   38.90    4.20
  -4   4   7   36.90    4.20
  -4   4   7   30.00    3.50
  -4   4   7   30.50    4.50
  -4   4   7   31.90    3.00
   3  -4  -7    5.70    3.20
   3  -4  -7   -2.80    2.70
   3  -4  -7   -0.20    2.90
  -3   4   7    1.00    2.50
  -3   4   7    2.60    1.90
  -3   4   7    0.60    2.50
  -3   4   7   -3.10    3.20
   2  -4  -7   45.60    4.00
   2  -4  -7   49.50    4.20
   2  -4  -7   48.70    4.30
  -2   4   7   44.40    3.70
  -2   4   7   43.50    3.90
  -2   4   7   44.40    3.90
   1  -4  -7  138.39    6.00
   1  -4  -7  131.79    7.60
   1  -4  -7  149.59    6.70
  -1   4   7  150.68    6.30
  -1   4   7  136.59    6.00
   0  -4  -7   -0.60    3.00
   0  -4  -7    1.20    2.30
   0   4   7    2.80    2.40
   0   4   7    6.20    3.00
   0   4   7   -0.40    2.20
  -1  -4  -7    5.90    3.90
  -1  -4  -7   14.30    3.60
  -1  -4  -7    8.50    2.50
  -1  -4  -7   15.30    4.90
   1   4   7   11.50    2.90
   1   4   7    4.90    4.30
   1   4   7    4.50    2.60
   1   4   7    9.30    3.20
  -2  -4  -7   13.20    3.80
  -2  -4  -7   16.70    4.30
  -2  -4  -7   12.10    2.70
   2   4   7   12.50    4.30
   2   4   7   17.10    3.30
   2   4   7   15.60    3.20
  -3  -4  -7   25.30    4.50
  -3  -4  -7   31.20    4.00
  -3  -4  -7   33.60    4.80
  -3  -4  -7   26.20    4.40
   3   4   7   29.50    5.20
   3   4   7   28.50    3.70
   3   4   7   32.80    4.20
   3   4   7   32.50    4.00
  -4  -4  -7    2.60    3.40
  -4  -4  -7   -5.30    4.70
   4   4   7   -3.80    3.80
   4   4   7    7.70    3.50
   4   4   7    5.10    5.30
  -5  -4  -7    1.70    5.70
  -5  -4  -7   -0.20    4.10
   5   4   7   -6.70    4.40
   5   4   7    3.30    6.30
   5   4   7    1.90    3.50
   6  -5  -7   20.60    3.40
   6  -5  -7   22.40    3.60
  -6   5   7   26.30    3.40
  -6   5   7   23.70    4.60
  -6   5   7   23.50    5.20
   5  -5  -7    6.20    3.40
   5  -5  -7    8.30    3.80
  -5   5   7    2.40    5.50
  -5   5   7   10.80    4.00
  -5   5   7   10.90    4.10
  -5   5   7    5.90    2.80
   4  -5  -7    4.30    3.80
   4  -5  -7    0.30    3.60
   4  -5  -7    1.10    3.30
  -4   5   7    2.20    2.60
  -4   5   7    2.00    3.10
  -4   5   7   -2.70    3.40
  -4   5   7    1.90    4.60
   3  -5  -7   25.10    4.10
   3  -5  -7   18.00    4.00
   3  -5  -7   31.70    4.20
  -3   5   7   22.50    3.30
  -3   5   7   23.90    4.90
  -3   5   7   28.50    4.10
  -3   5   7   27.80    3.70
   2  -5  -7   45.00    4.40
   2  -5  -7   37.70    4.40
  -2   5   7   43.70    4.10
  -2   5   7   38.40    4.00
  -2   5   7   46.20    5.00
   1  -5  -7    4.30    4.20
   1  -5  -7    7.70    3.60
   1  -5  -7    6.70    2.80
   1  -5  -7    3.60    3.60
  -1   5   7   11.60    3.00
  -1   5   7    2.00    4.50
  -1   5   7   10.00    3.40
   0  -5  -7    4.00    3.90
   0  -5  -7    1.90    3.50
   0  -5  -7    1.40    2.80
   0  -5  -7    1.00    3.70
   0   5   7   -0.40    2.90
   0   5   7    0.60    3.90
   0   5   7   -2.70    2.90
  -1  -5  -7   19.20    4.00
  -1  -5  -7   31.80    4.50
  -1  -5  -7   32.80    4.30
  -1  -5  -7   29.80    4.40
   1   5   7   41.00    4.60
   1   5   7   34.20    5.30
   1   5   7   30.40    3.90
  -2  -5  -7   29.20    4.40
  -2  -5  -7   24.20    6.30
  -2  -5  -7   21.40    4.80
   2   5   7   27.10    4.40
   2   5   7   31.20    6.00
   2   5   7   28.60    4.20
   2   5   7   33.60    5.90
  -3  -5  -7    0.60    4.80
  -3  -5  -7   -3.10    3.70
   3   5   7   -0.40    4.20
   3   5   7    3.70    6.00
   3   5   7    2.00    4.10
   4  -6  -7   20.50    4.50
   4  -6  -7   23.30    4.90
  -4   6   7   15.70    3.50
  -4   6   7   15.80    4.20
  -4   6   7   14.70    4.20
   3  -6  -7   12.40    7.80
  -3   6   7   14.70    3.80
  -3   6   7   17.90    4.00
  -3   6   7   15.00    3.50
   2  -6  -7   -0.70    5.00
   2  -6  -7    4.50    4.60
   2  -6  -7    3.50    4.00
  -2   6   7    0.50    3.30
  -2   6   7    4.20    3.40
   1  -6  -7    9.90    5.20
   1  -6  -7   -0.10    4.70
   1  -6  -7   15.90    4.60
  -1   6   7    8.50    3.80
  -1   6   7   10.40    3.80
   0  -6  -7   33.30    4.90
   0  -6  -7   18.10    5.50
   0   6   7   21.80    4.40
   0   6   7   23.10    4.30
  -1  -6  -7    9.90    4.60
  -1  -6  -7   13.10    4.10
  -2  -6  -7    1.10    4.00
  -2  -6  -7    3.30    5.40
   2   6   7    4.20    5.00
   2   6   7    7.30    5.20
   0  12  -8    0.70    4.80
   0  12  -8   -4.90    4.80
   0 -12   8    0.00    4.20
  -1  12  -8   28.30    5.20
  -1  12  -8   36.80    5.60
   1 -12   8   32.60    4.30
   1 -12   8   30.00    4.80
  -2  12  -8   32.60    5.50
  -2  12  -8   28.50    5.00
   2 -12   8   24.50    3.50
   2 -12   8   25.80    3.80
   2  11  -8    2.40    4.40
   2  11  -8    5.20    4.30
  -2 -11   8   -4.30    4.30
  -2 -11   8    1.80    2.50
  -2 -11   8    4.20    5.10
   1  11  -8   14.90    4.30
   1  11  -8   11.90    4.50
  -1 -11   8   10.40    4.50
  -1 -11   8   12.30    9.50
  -1 -11   8    9.40    4.10
  -1 -11   8    7.90    1.90
   0  11  -8   33.30    5.00
   0  11  -8   30.70    4.70
   0  11  -8   24.70    6.00
   0 -11   8   34.60    4.20
   0 -11   8   28.10    4.20
  -1  11  -8   21.10    5.20
  -1  11  -8   18.10    4.00
  -1  11  -8   22.10    4.40
   1 -11   8   24.20    3.60
  -2  11  -8   -3.30    5.20
  -2  11  -8   -2.00    3.80
  -2  11  -8    0.90    4.40
   2 -11   8   -0.20    2.70
   2 -11   8   -1.10    2.90
  -3  11  -8   13.00    4.40
  -3  11  -8   12.70    4.10
  -3  11  -8   13.90    4.80
  -4  11  -8   39.00    5.40
  -4  11  -8   44.40    5.60
  -4  11  -8   37.40    4.70
   4  10  -8    2.80    4.60
   4  10  -8    4.60    4.20
  -4 -10   8    6.60    4.80
  -4 -10   8   14.30    5.70
  -4 -10   8    6.50    3.40
   3  10  -8    2.10    4.00
   3  10  -8   -3.50    3.90
  -3 -10   8   -2.40    4.80
  -3 -10   8   -1.40    4.90
  -3 -10   8   -7.30    3.90
  -3 -10   8   -1.90    2.60
   2  10  -8    5.90    3.90
   2  10  -8   12.10    4.60
   2  10  -8    9.50    3.60
  -2 -10   8   10.60    2.40
  -2 -10   8    6.40    4.10
  -2 -10   8    2.70    4.30
  -2 -10   8    1.50    3.70
   1  10  -8   16.70    4.10
   1  10  -8   24.90    4.10
   1  10  -8   24.30    3.80
  -1 -10   8   23.70    2.10
  -1 -10   8   27.80    3.90
  -1 -10   8   20.30    4.30
   0  10  -8   21.30    4.30
   0  10  -8   23.50    5.30
   0  10  -8   23.70    3.80
   0 -10   8   19.50    3.30
   0 -10   8   18.90    3.50
   0 -10   8   19.60    4.20
  -1  10  -8   -1.20    3.40
  -1  10  -8    0.00    3.00
  -1  10  -8   -0.70    3.80
   1 -10   8    0.50    3.60
   1 -10   8    2.70    2.70
   1 -10   8    1.60    2.80
  -2  10  -8   37.50    4.50
  -2  10  -8   43.70    4.10
  -2  10  -8   24.20    4.20
   2 -10   8   28.10    4.60
   2 -10   8   37.10    3.00
  -3  10  -8   62.69    5.70
  -3  10  -8   43.30    4.60
  -3  10  -8   52.59    5.00
  -4  10  -8   18.10    3.50
  -4  10  -8   12.10    4.00
  -4  10  -8   13.00    4.10
  -5  10  -8    6.70    3.20
  -5  10  -8   11.60    3.50
  -5  10  -8    2.10    4.40
  -5  10  -8   -1.80    3.90
   5   9  -8   -4.90    4.20
   5   9  -8    0.30    7.20
   5   9  -8    1.10    4.80
  -5  -9   8   -1.20    3.60
  -5  -9   8   10.50    5.10
  -5  -9   8    5.60    4.50
   4   9  -8    3.00    6.50
   4   9  -8    6.20    7.20
   4   9  -8    2.80    3.80
  -4  -9   8   -1.10    2.70
  -4  -9   8   -0.30    4.20
  -4  -9   8   -1.10    3.80
   3   9  -8   36.20    4.80
   3   9  -8   38.20    4.20
   3   9  -8   49.00    4.50
  -3  -9   8   48.00    5.10
  -3  -9   8   43.00    4.80
  -3  -9   8   46.50    4.40
  -3  -9   8   37.20    4.20
   2   9  -8   89.59    6.20
  -2  -9   8   81.69    4.20
  -2  -9   8   83.19    6.00
  -2  -9   8   76.29    6.70
   1   9  -8   -1.80    2.90
   1   9  -8   12.30    2.90
   1   9  -8    9.00    3.00
  -1  -9   8    8.50    3.00
  -1  -9   8    8.90    3.30
  -1  -9   8    5.70    1.70
  -1  -9   8   11.90    3.40
   0   9  -8   20.50    3.00
   0   9  -8   18.90    3.60
   0   9  -8   28.00    3.70
   0  -9   8   20.30    1.90
   0  -9   8   17.90    3.00
   0  -9   8   17.50    2.90
  -1   9  -8   52.89    4.20
  -1   9  -8   47.90    3.80
  -1   9  -8   57.49    5.20
   1  -9   8   54.79    4.30
  -2   9  -8   71.29    5.60
  -2   9  -8   76.99    5.10
  -2   9  -8   78.89    5.90
   2  -9   8   70.69    4.00
   2  -9   8   76.49    3.90
  -3   9  -8    6.60    2.70
  -3   9  -8   -0.40    3.00
   3  -9   8    0.50    3.40
   3  -9   8    4.30    1.20
   3  -9   8    3.20    1.40
  -4   9  -8    9.80    3.10
  -4   9  -8   19.50    4.00
  -4   9  -8   10.30    2.60
  -4   9  -8   16.40    3.50
  -5   9  -8   35.60    3.70
  -5   9  -8   29.40    3.90
  -5   9  -8   31.10    4.40
  -5   9  -8   33.10    3.60
  -6   9  -8   43.20    4.50
  -6   9  -8   47.00    4.10
  -6   9  -8   49.90    5.30
  -6   9  -8   47.80    4.50
   6   8  -8   12.10    4.70
   6   8  -8   13.40    4.30
   6   8  -8    6.40    4.30
  -6  -8   8    9.00    5.10
  -6  -8   8   10.30    4.60
  -6  -8   8   12.40    4.10
   5   8  -8   -2.10    3.50
   5   8  -8    0.50    4.80
   5   8  -8    1.10    3.80
  -5  -8   8    2.10    4.30
  -5  -8   8   -3.60    3.70
  -5  -8   8    0.30    3.00
   4   8  -8   15.40    4.40
   4   8  -8   13.00    3.60
   4   8  -8   10.10    3.60
  -4  -8   8   10.90    4.00
  -4  -8   8    7.70    2.80
  -4  -8   8    5.70    3.50
  -4  -8   8    9.40    4.10
   3   8  -8   13.70    5.70
   3   8  -8   13.00    3.60
   3   8  -8   22.80    3.40
  -3  -8   8    4.50    3.40
  -3  -8   8   19.90    2.60
  -3  -8   8   20.00    4.00
  -3  -8   8   14.10    3.80
   2   8  -8    7.40    2.80
   2   8  -8    4.00    2.60
  -2  -8   8    2.70    1.80
  -2  -8   8    5.40    2.90
  -2  -8   8    4.30    2.60
  -2  -8   8    6.20    3.30
   1   8  -8    0.60    2.30
   1   8  -8    0.10    2.50
   1   8  -8   -1.00    2.50
  -1  -8   8    0.70    2.20
  -1  -8   8    0.40    2.70
  -1  -8   8    1.50    1.50
  -1  -8   8   -0.50    2.60
   0   8  -8   69.49    5.00
   0   8  -8   71.19    4.60
   0   8  -8   74.19    4.90
   0  -8   8   70.99    4.50
   0  -8   8   69.39    4.60
   0  -8   8   70.29    2.90
  -1   8  -8   58.39    4.70
  -1   8  -8   56.89    4.40
  -1   8  -8   57.49    4.50
   1  -8   8   52.49    3.90
   1  -8   8   59.39    4.00
  -2   8  -8    2.70    2.70
  -2   8  -8    0.80    2.60
  -2   8  -8    1.80    2.20
   2  -8   8    3.20    4.10
   2  -8   8    2.60    1.80
   2  -8   8    3.30    1.80
  -3   8  -8   37.40    3.40
  -3   8  -8   36.40    3.20
  -3   8  -8   35.20    3.60
  -3   8  -8   38.60    3.60
   3  -8   8   32.30    2.00
  -4   8  -8   73.39    5.80
  -4   8  -8   76.89    4.70
  -4   8  -8   70.39    5.10
  -4   8  -8   74.39    7.40
  -5   8  -8   36.40    3.60
  -5   8  -8   34.20    4.10
  -5   8  -8   33.30    1.90
  -5   8  -8   38.10    3.40
  -5   8  -8   29.30    3.30
  -6   8  -8    3.70    1.40
  -6   8  -8    2.30    1.90
  -6   8  -8    2.80    3.30
  -6   8  -8    3.50    6.00
  -6   8  -8    0.60    2.60
  -6   8  -8    5.80    2.90
  -7   8  -8   13.40    2.90
  -7   8  -8   17.90    3.90
  -7   8  -8   10.70    4.60
  -7   8  -8   19.20    2.30
  -7   8  -8    8.90    3.50
   6   7  -8    4.70    3.90
   6   7  -8    1.00    5.10
   6   7  -8    5.40    3.80
   6   7  -8    4.30    3.90
  -6  -7   8   -3.30    3.90
  -6  -7   8    0.10    4.40
  -6  -7   8    8.50    3.80
   5   7  -8   19.90    3.60
   5   7  -8   17.60    3.70
   5   7  -8   19.10    4.60
  -5  -7   8   20.20    4.10
  -5  -7   8   16.80    3.20
  -5  -7   8   17.70    4.50
  -5  -7   8   16.00    3.90
   4   7  -8   11.30    3.20
   4   7  -8    9.50    3.30
   4   7  -8   -4.90    4.10
  -4  -7   8    3.50    3.20
  -4  -7   8    7.20    2.40
  -4  -7   8    6.40    4.40
   3   7  -8    8.20    2.50
   3   7  -8    9.10    2.70
  -3  -7   8    8.20    3.00
  -3  -7   8    8.20    2.60
  -3  -7   8    9.30    2.10
   2   7  -8   42.40    3.60
   2   7  -8   46.20    4.20
  -2  -7   8   36.70    3.40
  -2  -7   8   50.09    4.00
  -2  -7   8   47.40    3.70
  -2  -7   8   49.99    3.40
   1   7  -8  153.08    5.80
   1   7  -8  151.98    6.00
   1   7  -8  159.38    6.10
  -1  -7   8  147.49    6.10
  -1  -7   8  150.98    4.80
  -1  -7   8  155.78    5.80
  -1  -7   8  152.98    5.90
   0   7  -8   17.40    2.50
   0   7  -8   19.10    2.60
   0   7  -8   28.80    2.90
   0  -7   8   21.40    1.80
   0  -7   8   21.20    2.50
   0  -7   8   19.80    4.20
   0  -7   8   25.70    2.60
  -1   7  -8    4.30    2.20
  -1   7  -8    2.30    1.90
  -1   7  -8    1.40    1.00
  -1   7  -8    3.10    2.20
   1  -7   8    2.70    2.90
   1  -7   8    3.60    2.00
   1  -7   8    1.80    1.70
  -2   7  -8   75.09    4.60
  -2   7  -8   82.49    4.10
  -2   7  -8   78.79    4.30
  -2   7  -8   71.29    2.50
  -2   7  -8   73.79    4.50
   2  -7   8   77.69    4.90
   2  -7   8   75.39    3.50
   2  -7   8   77.19    3.60
  -3   7  -8   96.29    3.00
  -3   7  -8  103.79    4.70
  -3   7  -8  103.99    5.00
  -3   7  -8   97.79    4.60
  -3   7  -8  100.49    5.20
   3  -7   8   95.69    3.10
   3  -7   8   95.79    3.10
   3  -7   8   92.39    5.50
  -4   7  -8   28.10    3.30
  -4   7  -8   37.90    3.50
  -4   7  -8   31.80    2.50
  -4   7  -8   35.20    3.30
  -4   7  -8   34.20    3.00
   4  -7   8   29.50    3.50
  -5   7  -8    5.40    1.80
  -5   7  -8   10.30    2.50
  -5   7  -8    6.90    2.80
  -5   7  -8    7.50    2.60
  -5   7  -8   11.60    3.30
   5  -7   8    4.30    3.10
  -6   7  -8   43.90    4.20
  -6   7  -8   35.60    3.70
  -6   7  -8   38.70    4.00
  -6   7  -8   34.70    3.00
  -6   7  -8   35.80    3.30
  -7   7  -8   78.49    6.90
  -7   7  -8   63.29    5.50
  -7   7  -8   62.79    4.60
  -7   7  -8   77.69    6.00
  -7   7  -8   60.69    5.30
   7   6  -8    4.40    2.10
   7   6  -8    3.70    1.70
   7   6  -8    0.40    5.10
   7   6  -8    0.70    4.00
  -7  -6   8    2.80    3.70
  -7  -6   8   -1.20    4.40
  -7  -6   8   14.10    5.00
   6   6  -8   22.30    3.80
   6   6  -8   32.40    3.00
   6   6  -8   16.80    4.80
   6   6  -8   36.40    3.00
  -6  -6   8   22.50    5.00
  -6  -6   8   24.00    3.60
  -6  -6   8   30.30    4.60
  -6  -6   8   29.60    4.70
   5   6  -8   31.90    3.70
   5   6  -8   29.70    3.70
  -5  -6   8   32.40    3.40
  -5  -6   8   31.40    4.00
  -5  -6   8   30.20    3.80
   4   6  -8   16.40    3.70
   4   6  -8   22.00    3.30
   4   6  -8   25.10    3.30
  -4  -6   8   15.70    3.10
  -4  -6   8   18.70    2.70
  -4  -6   8   12.50    3.10
   3   6  -8   27.80    3.10
   3   6  -8   28.10    3.50
   3   6  -8   20.00    2.80
  -3  -6   8   31.90    3.40
  -3  -6   8   21.40    2.40
  -3  -6   8   22.00    3.30
  -3  -6   8   27.40    3.10
   2   6  -8   89.49    4.60
   2   6  -8   88.09    6.10
   2   6  -8   87.69    4.70
  -2  -6   8   94.09    4.70
  -2  -6   8   95.89    4.00
  -2  -6   8   90.69    5.00
  -2  -6   8   88.59    5.10
   1   6  -8   18.00    2.40
   1   6  -8   18.80    2.30
   1   6  -8   24.90    2.80
   1   6  -8   22.60    1.80
  -1  -6   8   20.00    2.40
  -1  -6   8   30.00    2.90
  -1  -6   8   16.90    2.50
  -1  -6   8   22.80    2.10
   0   6  -8    2.80    1.90
   0   6  -8    3.90    2.20
   0   6  -8    0.80    1.80
   0   6  -8    1.80    1.40
   0   6  -8    3.60    1.20
   0  -6   8    2.90    1.40
   0  -6   8    3.20    1.90
   0  -6   8    3.30    2.10
   0  -6   8    1.90    1.80
  -1   6  -8   79.19    4.30
  -1   6  -8   77.39    4.00
  -1   6  -8   86.89    4.30
  -1   6  -8   80.59    3.90
  -1   6  -8   79.79    2.90
   1  -6   8   81.19    3.70
   1  -6   8   80.29    3.90
   1  -6   8   73.49    4.30
  -2   6  -8   94.49    4.70
  -2   6  -8  100.59    4.70
  -2   6  -8   97.99    3.30
  -2   6  -8   96.29    4.40
  -2   6  -8   96.49    4.30
   2  -6   8   95.69    5.20
   2  -6   8   94.59    3.90
   2  -6   8   99.19    3.70
  -3   6  -8   13.10    1.60
  -3   6  -8   17.50    2.60
  -3   6  -8   11.10    2.30
  -3   6  -8   14.10    2.30
  -3   6  -8   12.50    2.10
   3  -6   8   14.30    1.40
   3  -6   8   13.70    1.60
   3  -6   8   12.30    2.60
  -4   6  -8   27.70    2.90
  -4   6  -8   31.00    2.80
  -4   6  -8   24.70    2.60
  -4   6  -8   26.10    2.20
  -4   6  -8   25.20    2.80
   4  -6   8   29.20    3.40
  -5   6  -8   34.20    2.80
  -5   6  -8   34.20    3.00
  -5   6  -8   33.30    3.50
  -5   6  -8   32.40    3.20
  -5   6  -8   36.70    3.50
   5  -6   8   34.30    3.60
  -6   6  -8   44.60    3.60
  -6   6  -8   41.90    3.40
  -6   6  -8   50.39    4.50
  -6   6  -8   41.70    4.00
  -6   6  -8   54.09    4.80
  -7   6  -8    7.20    3.30
  -7   6  -8    0.30    3.30
  -7   6  -8    1.30    2.90
  -7   6  -8   -4.00    2.70
  -7   6  -8    0.10    3.40
   7   5  -8   15.80    4.40
  -7  -5   8   10.40    4.00
  -7  -5   8   16.90    4.60
  -7  -5   8   10.60    4.40
   6   5  -8    5.80    4.20
   6   5  -8    3.90    1.80
   6   5  -8    3.40    3.10
   6   5  -8    4.40    1.40
  -6  -5   8    7.40    4.00
  -6  -5   8    4.90    3.80
  -6  -5   8    4.10    3.40
  -6  -5   8   -0.80    2.80
   5   5  -8    2.60    2.80
   5   5  -8    4.80    3.10
   5   5  -8    6.30    1.60
  -5  -5   8    4.30    3.20
  -5  -5   8    1.00    2.50
  -5  -5   8    1.00    3.00
  -5  -5   8    6.90    2.80
   4   5  -8   82.89    5.10
   4   5  -8   75.19    5.30
   4   5  -8   83.39    5.10
   4   5  -8   84.09    3.50
  -4  -5   8   78.69    4.90
  -4  -5   8   83.79    4.50
  -4  -5   8   84.89    5.40
   3   5  -8    4.00    2.40
   3   5  -8    5.00    1.40
   3   5  -8    4.90    2.20
   3   5  -8    5.20    2.20
   3   5  -8    4.20    1.70
  -3  -5   8    3.40    2.10
  -3  -5   8    4.80    1.90
  -3  -5   8    5.30    2.50
  -3  -5   8    3.40    2.00
   2   5  -8    5.70    1.50
   2   5  -8    3.90    1.90
   2   5  -8    8.00    2.30
   2   5  -8    6.00    1.50
   2   5  -8    8.30    2.00
  -2  -5   8    6.90    2.10
  -2  -5   8    4.50    1.70
  -2  -5   8    4.00    2.00
  -2  -5   8    7.80    2.30
   1   5  -8   22.80    1.90
   1   5  -8   23.90    2.40
   1   5  -8   26.40    2.60
   1   5  -8   24.10    2.30
   1   5  -8   28.70    2.90
  -1  -5   8   29.20    2.70
  -1  -5   8   24.20    2.10
  -1  -5   8   25.50    2.80
  -1  -5   8   21.70    2.40
   0   5  -8  137.39    4.90
   0   5  -8  138.99    5.10
   0   5  -8  129.59    5.10
   0   5  -8  136.09    4.30
   0   5  -8  136.29    5.10
   0  -5   8  104.99    7.00
   0  -5   8  142.29    4.50
   0  -5   8  140.69    4.90
   0  -5   8  135.99    5.30
  -1   5  -8  109.29    4.80
  -1   5  -8  110.59    4.50
  -1   5  -8  115.79    4.50
  -1   5  -8  113.39    3.80
  -1   5  -8  115.39    4.80
   1  -5   8  112.69    4.90
   1  -5   8  112.29    4.20
   1  -5   8  118.69    4.40
  -2   5  -8    0.90    1.90
  -2   5  -8    1.80    1.20
  -2   5  -8   -0.60    1.70
  -2   5  -8    0.60    1.40
  -2   5  -8    0.70    1.60
   2  -5   8    2.10    1.60
   2  -5   8    1.70    2.00
   2  -5   8    0.80    1.40
  -3   5  -8   51.29    3.10
  -3   5  -8   52.89    3.90
  -3   5  -8   47.90    3.90
  -3   5  -8   49.80    3.50
   3  -5   8   47.40    4.20
   3  -5   8   45.80    2.40
   3  -5   8   47.40    2.70
  -4   5  -8  118.09    4.90
  -4   5  -8  118.29    5.10
  -4   5  -8  124.19    5.20
  -4   5  -8  113.09    5.10
  -4   5  -8  116.69    4.50
   4  -5   8  120.19    5.50
  -5   5  -8   51.09    4.00
  -5   5  -8   47.50    4.40
  -5   5  -8   47.50    4.00
  -5   5  -8   50.39    4.50
  -5   5  -8   52.89    4.10
   5  -5   8   43.20    3.70
  -6   5  -8    6.90    2.80
  -6   5  -8    5.70    2.80
  -6   5  -8    4.40    2.80
  -6   5  -8    0.90    2.50
  -6   5  -8    7.70    2.50
   6  -5   8    1.70    2.90
  -7   5  -8   31.00    4.10
  -7   5  -8   24.10    3.70
  -7   5  -8   32.90    3.60
  -7   5  -8   18.10    3.80
  -7   5  -8   25.00    3.60
   7   4  -8    7.50    4.20
   7   4  -8    6.90    3.40
  -7  -4   8    3.10    6.90
  -7  -4   8    4.90    3.80
  -7  -4   8    2.90    4.20
  -7  -4   8    5.10    3.30
   6   4  -8    1.80    1.10
   6   4  -8   -0.80    3.10
   6   4  -8    1.00    2.80
  -6  -4   8    0.60    3.10
  -6  -4   8    3.90    2.90
  -6  -4   8    0.10    3.60
  -6  -4   8    0.40    3.50
   5   4  -8   60.39    4.80
   5   4  -8   66.09    2.70
   5   4  -8   61.89    5.20
  -5  -4   8   68.89    5.10
  -5  -4   8   59.19    5.30
  -5  -4   8   58.49    4.60
   4   4  -8  104.09    4.60
   4   4  -8   95.99    5.00
   4   4  -8   89.99    3.50
   4   4  -8   99.89    5.20
  -4  -4   8   94.39    5.00
  -4  -4   8   99.69    4.80
  -4  -4   8   95.89    5.40
   3   4  -8   74.09    3.10
   3   4  -8   71.19    4.30
   3   4  -8   74.99    3.70
   3   4  -8   71.89    4.20
   3   4  -8   71.99    4.40
  -3  -4   8   82.49    4.60
  -3  -4   8   73.69    4.50
  -3  -4   8   72.49    4.20
  -3  -4   8   78.99    4.00
   2   4  -8   85.39    3.80
   2   4  -8   94.69    4.30
   2   4  -8   90.99    3.60
   2   4  -8   91.29    4.40
   2   4  -8   89.19    4.30
  -2  -4   8   93.49    4.40
  -2  -4   8   91.79    4.50
  -2  -4   8   89.99    4.00
  -2  -4   8   85.69    4.40
   1   4  -8   60.79    3.70
   1   4  -8   57.39    3.60
   1   4  -8   60.19    3.00
   1   4  -8   59.59    3.60
   1   4  -8   65.99    3.10
  -1  -4   8   60.29    3.30
  -1  -4   8   60.49    3.80
  -1  -4   8   64.49    4.00
  -1  -4   8   64.89    3.60
   0   4  -8   49.00    2.80
   0   4  -8   54.09    3.40
   0   4  -8   51.39    3.60
   0   4  -8   50.19    3.30
   0   4  -8   50.39    2.90
   0  -4   8   46.80    3.40
   0  -4   8   49.50    2.90
   0  -4   8   43.60    3.90
   0  -4   8   50.39    3.20
  -1   4  -8    2.00    1.70
  -1   4  -8    1.20    1.20
  -1   4  -8    0.50    1.30
  -1   4  -8    2.40    1.60
  -1   4  -8    0.10    1.70
   1  -4   8    1.70    1.60
   1  -4   8    1.60    1.40
   1  -4   8    4.20    1.70
  -2   4  -8   45.20    3.00
  -2   4  -8   49.00    3.40
  -2   4  -8   48.90    3.50
  -2   4  -8   47.90    3.10
  -2   4  -8   48.30    3.50
   2  -4   8   46.70    2.90
   2  -4   8   48.40    3.70
   2  -4   8   42.70    3.10
  -3   4  -8  104.79    4.60
  -3   4  -8  100.99    4.60
  -3   4  -8  100.49    4.50
  -3   4  -8   94.09    4.10
  -3   4  -8  104.29    4.50
   3  -4   8   97.89    4.80
   3  -4   8  100.49    3.50
   3  -4   8   97.59    3.70
  -4   4  -8   33.60    2.90
  -4   4  -8   30.40    2.80
  -4   4  -8   26.50    2.60
  -4   4  -8   27.90    3.00
  -4   4  -8   33.30    3.00
   4  -4   8   30.30    1.90
   4  -4   8   28.90    3.00
   4  -4   8   27.40    2.00
  -5   4  -8   -0.50    1.80
  -5   4  -8   -0.50    2.20
  -5   4  -8    1.40    2.20
  -5   4  -8    1.40    2.40
  -5   4  -8    0.40    2.20
   5  -4   8    3.30    2.50
  -6   4  -8   16.50    2.90
  -6   4  -8   19.00    3.00
  -6   4  -8   20.60    3.30
  -6   4  -8   16.60    3.00
  -6   4  -8   20.60    3.00
   6  -4   8   17.50    3.10
  -7   4  -8   41.70    4.20
  -7   4  -8   37.50    4.10
  -7   4  -8   45.90    3.70
  -7   4  -8   42.50    3.90
   7   3  -8    4.70    3.10
   7   3  -8    6.10    3.60
  -7  -3   8    2.90    4.00
  -7  -3   8   12.30    3.80
  -7  -3   8    3.70    4.50
  -7  -3   8    8.50    3.70
   6   3  -8   12.80    3.10
   6   3  -8   17.60    3.10
  -6  -3   8   15.60    3.50
  -6  -3   8   15.50    3.20
  -6  -3   8   24.80    4.10
  -6  -3   8   22.60    3.50
   5   3  -8   24.70    3.20
   5   3  -8   27.70    3.20
   5   3  -8   29.10    1.90
   5   3  -8   30.50    3.00
  -5  -3   8   29.90    3.60
  -5  -3   8   21.10    2.80
  -5  -3   8   30.50    3.50
  -5  -3   8   24.70    3.40
   4   3  -8    0.20    1.60
   4   3  -8    1.30    1.10
   4   3  -8   -0.10    2.00
   4   3  -8    0.20    2.10
  -4  -3   8    1.40    2.20
  -4  -3   8    1.30    2.10
  -4  -3   8   -1.00    2.40
  -4  -3   8   -2.20    2.00
   3   3  -8   31.50    2.80
   3   3  -8   32.00    2.30
   3   3  -8   38.70    3.10
   3   3  -8   32.40    2.80
  -3  -3   8   39.40    3.30
  -3  -3   8   41.20    3.30
  -3  -3   8   33.80    2.80
  -3  -3   8   40.50    3.90
   2   3  -8   18.90    1.90
   2   3  -8   21.10    2.50
   2   3  -8   14.30    2.10
   2   3  -8   15.80    1.80
   2   3  -8   11.90    2.20
  -2  -3   8   14.00    2.20
  -2  -3   8   13.60    1.90
  -2  -3   8   15.60    2.30
  -2  -3   8   14.40    2.10
   1   3  -8   40.40    3.20
   1   3  -8   41.60    2.90
   1   3  -8   36.30    3.40
   1   3  -8   39.60    3.20
   1   3  -8   40.00    2.50
  -1  -3   8   40.90    3.30
  -1  -3   8   38.50    3.40
  -1  -3   8   42.60    3.00
  -1  -3   8   38.10    3.10
   0   3  -8   12.80    1.90
   0   3  -8   11.10    2.00
   0   3  -8   13.60    1.80
   0   3  -8    9.70    1.80
   0   3  -8    8.90    1.50
   0  -3   8   12.90    2.60
   0  -3   8   13.80    2.20
   0  -3   8   11.50    1.90
   0  -3   8   12.00    1.80
  -1   3  -8   96.99    4.10
  -1   3  -8  105.29    4.40
  -1   3  -8  107.59    4.50
  -1   3  -8  110.09    4.20
  -1   3  -8  100.59    4.40
   1  -3   8  100.49    4.60
   1  -3   8  101.99    4.30
   1  -3   8  101.59    4.00
  -2   3  -8  107.99    4.50
  -2   3  -8  104.69    4.60
  -2   3  -8  108.89    4.40
  -2   3  -8  107.39    4.40
  -2   3  -8  109.49    4.50
   2  -3   8  103.79    4.10
   2  -3   8  104.99    3.90
   2  -3   8  104.09    4.70
  -3   3  -8   13.10    2.30
  -3   3  -8   16.80    2.20
  -3   3  -8   16.40    2.40
  -3   3  -8   14.00    2.20
  -3   3  -8   18.20    2.50
   3  -3   8   18.50    1.80
   3  -3   8   17.40    2.10
   3  -3   8   15.60    2.40
  -4   3  -8   27.00    3.10
  -4   3  -8   34.80    3.10
  -4   3  -8   27.80    2.80
  -4   3  -8   31.00    2.80
  -4   3  -8   32.80    3.00
   4  -3   8   31.00    2.40
   4  -3   8   31.30    3.00
   4  -3   8   28.80    2.10
  -5   3  -8   74.69    4.30
  -5   3  -8   67.49    4.60
  -5   3  -8   67.19    4.40
  -5   3  -8   63.69    4.90
  -5   3  -8   64.59    4.80
   5  -3   8   59.49    5.50
  -6   3  -8   23.20    2.90
  -6   3  -8   20.70    3.60
  -6   3  -8   23.40    3.70
  -6   3  -8   27.70    3.40
  -6   3  -8   26.20    3.40
   6  -3   8   25.00    3.50
  -7   3  -8   -1.50    2.60
  -7   3  -8    0.40    3.50
  -7   3  -8    6.00    3.10
  -7   3  -8   -1.40    3.60
   8   2  -8   15.70    3.40
  -8  -2   8   16.80    4.50
  -8  -2   8    6.50    4.30
  -8  -2   8    8.10    5.40
   7   2  -8   17.00    3.60
   7   2  -8   13.70    3.20
  -7  -2   8   17.50    4.40
  -7  -2   8   18.30    4.50
  -7  -2   8   22.90    3.80
  -7  -2   8   16.90    3.90
   6   2  -8   34.60    3.50
   6   2  -8   25.70    3.50
   6   2  -8   21.60    3.10
  -6  -2   8   26.00    3.50
  -6  -2   8   23.00    3.70
  -6  -2   8   21.60    3.20
  -6  -2   8   23.80    3.90
   5   2  -8    0.80    2.00
   5   2  -8    1.30    2.50
   5   2  -8    0.60    2.20
   5   2  -8    2.30    0.90
  -5  -2   8    1.70    2.40
  -5  -2   8    0.40    2.80
  -5  -2   8    2.30    2.70
  -5  -2   8    3.90    2.40
   4   2  -8   79.79    4.50
   4   2  -8   72.39    4.20
   4   2  -8   76.59    2.90
   4   2  -8   72.59    4.50
  -4  -2   8   77.59    4.60
  -4  -2   8   74.49    4.60
  -4  -2   8   76.89    4.60
  -4  -2   8   73.29    4.90
   3   2  -8  122.29    4.80
   3   2  -8  111.09    5.00
   3   2  -8  126.39    4.10
   3   2  -8  119.79    5.00
  -3  -2   8  123.09    5.20
  -3  -2   8  121.99    5.10
  -3  -2   8  122.89    5.20
  -3  -2   8  117.99    5.00
   2   2  -8   27.80    2.50
   2   2  -8   35.40    2.90
   2   2  -8   23.60    2.30
   2   2  -8   30.40    2.20
  -2  -2   8   37.80    3.10
  -2  -2   8   28.00    2.50
  -2  -2   8   31.30    2.80
  -2  -2   8   22.70    2.40
   1   2  -8    0.80    1.70
   1   2  -8    1.60    1.20
   1   2  -8    0.50    1.50
   1   2  -8   -0.30    1.50
  -1  -2   8    1.20    1.70
  -1  -2   8    0.00    1.60
  -1  -2   8    1.40    1.60
  -1  -2   8    1.90    1.60
   0   2  -8   65.29    3.80
   0   2  -8   64.79    3.30
   0   2  -8   68.39    3.60
   0   2  -8   69.79    3.80
   0  -2   8   68.49    3.50
   0  -2   8   62.79    3.90
   0  -2   8   65.69    3.50
   0  -2   8   68.69    3.80
  -1   2  -8   90.29    4.40
  -1   2  -8   79.39    6.60
  -1   2  -8  104.09    4.20
  -1   2  -8   98.89    4.50
  -1   2  -8   96.99    4.40
   1  -2   8   97.79    4.50
   1  -2   8   97.29    4.90
   1  -2   8   97.59    4.00
   1  -2   8   99.29    4.10
  -2   2  -8   -1.90    1.60
  -2   2  -8   -0.80    1.60
  -2   2  -8    1.30    1.80
  -2   2  -8   -1.80    1.10
  -2   2  -8    0.40    1.70
   2  -2   8    2.70    1.50
   2  -2   8    0.80    1.40
   2  -2   8   -0.50    1.90
   2  -2   8    0.60    1.70
  -3   2  -8   37.80    3.60
  -3   2  -8   31.20    2.90
  -3   2  -8   30.90    2.70
  -3   2  -8   34.50    2.90
  -3   2  -8   29.50    3.10
   3  -2   8   34.30    3.20
   3  -2   8   30.20    2.60
   3  -2   8   26.40    3.60
   3  -2   8   30.40    2.70
  -4   2  -8   65.99    4.50
  -4   2  -8   55.39    4.50
  -4   2  -8   68.69    4.30
  -4   2  -8   59.49    4.50
  -4   2  -8   69.99    4.10
   4  -2   8   65.89    3.40
   4  -2   8   65.29    3.60
   4  -2   8   65.89    5.00
  -5   2  -8   42.00    3.90
  -5   2  -8   43.80    4.10
  -5   2  -8   35.10    3.50
  -5   2  -8   42.30    3.60
   5  -2   8   33.70    2.70
   5  -2   8   36.40    2.70
   5  -2   8   38.90    3.30
  -6   2  -8   -1.40    2.50
  -6   2  -8   -0.80    3.00
  -6   2  -8   -4.90    3.20
  -6   2  -8    1.20    3.10
   6  -2   8    0.60    2.40
  -7   2  -8   11.80    3.60
  -7   2  -8    7.40    4.20
  -7   2  -8   13.90    4.00
   7   1  -8    9.80    2.90
   7   1  -8    3.70    3.20
  -7  -1   8    8.40    3.60
  -7  -1   8    8.00    4.50
  -7  -1   8   10.90    3.60
  -7  -1   8    5.20    4.40
   6   1  -8   -1.70    2.50
   6   1  -8   -1.20    2.90
   6   1  -8    2.30    2.50
  -6  -1   8   -0.60    3.40
  -6  -1   8    0.00    3.10
  -6  -1   8   -0.40    2.90
  -6  -1   8    3.10    2.80
   5   1  -8   25.90    3.00
   5   1  -8   26.90    1.80
   5   1  -8   28.20    3.20
  -5  -1   8   26.90    3.40
  -5  -1   8   30.80    3.60
  -5  -1   8   23.60    3.30
  -5  -1   8   23.90    3.10
   4   1  -8   48.80    4.00
   4   1  -8   46.80    4.20
   4   1  -8   50.49    2.50
   4   1  -8   49.60    3.80
  -4  -1   8   54.59    4.40
  -4  -1   8   49.30    4.10
  -4  -1   8   51.59    4.20
  -4  -1   8   54.09    4.50
   3   1  -8   20.00    2.70
   3   1  -8   20.40    2.00
   3   1  -8   20.60    2.70
   3   1  -8   15.00    2.20
  -3  -1   8   22.50    2.90
  -3  -1   8   24.10    2.80
  -3  -1   8   21.30    2.80
  -3  -1   8   11.20    2.20
   2   1  -8   39.20    2.50
   2   1  -8   41.20    3.30
   2   1  -8   42.50    3.50
   2   1  -8   36.90    3.10
  -2  -1   8   42.30    3.90
  -2  -1   8   42.10    2.60
  -2  -1   8   45.90    3.70
  -2  -1   8   42.50    3.40
  -2  -1   8   41.00    3.40
   1   1  -8   76.99    3.90
   1   1  -8   72.19    3.40
   1   1  -8   72.59    4.00
   1   1  -8   79.79    4.30
  -1  -1   8   79.29    4.00
  -1  -1   8   72.59    4.10
  -1  -1   8   70.79    3.80
  -1  -1   8   77.69    3.40
  -1  -1   8   77.49    4.10
   0   1  -8   18.90    2.00
   0   1  -8   20.20    2.40
   0   1  -8   15.40    2.20
   0   1  -8   15.00    2.30
   0  -1   8   21.30    2.20
   0  -1   8   19.60    2.40
   0  -1   8   18.90    2.30
   0  -1   8   17.70    2.20
   0  -1   8   16.60    2.50
  -1   1  -8    1.50    1.70
  -1   1  -8    1.70    1.30
  -1   1  -8    0.60    1.70
  -1   1  -8    1.30    1.90
   1  -1   8    0.60    1.40
   1  -1   8    1.70    1.60
   1  -1   8    1.10    1.80
   1  -1   8   -0.80    1.90
  -2   1  -8    8.70    2.20
  -2   1  -8    8.20    2.20
  -2   1  -8   10.70    2.10
  -2   1  -8    9.60    2.10
   2  -1   8    9.60    1.90
   2  -1   8   10.60    2.50
   2  -1   8    8.30    2.20
   2  -1   8    9.10    1.70
  -3   1  -8   93.49    4.80
  -3   1  -8   86.49    4.90
  -3   1  -8   86.99    4.50
  -3   1  -8   88.49    4.80
   3  -1   8   87.59    4.00
   3  -1   8   83.99    4.50
   3  -1   8   71.69    5.30
  -4   1  -8   24.00    3.20
  -4   1  -8   20.80    2.60
  -4   1  -8   30.70    3.30
  -4   1  -8   29.20    3.40
   4  -1   8   28.50    2.60
   4  -1   8   23.90    2.80
   4  -1   8   24.60    2.80
  -5   1  -8    8.10    3.40
  -5   1  -8    6.40    3.00
  -5   1  -8    4.50    2.60
  -5   1  -8    0.50    2.90
   5  -1   8    6.50    2.60
   5  -1   8    6.30    2.60
   5  -1   8    1.80    2.30
   5  -1   8    5.80    2.10
  -6   1  -8   20.90    3.60
  -6   1  -8   26.90    4.00
  -6   1  -8   21.70    4.70
  -6   1  -8   11.80    3.90
   6  -1   8   22.90    3.50
   6  -1   8   21.10    2.80
  -7   1  -8   14.10    4.60
  -7   1  -8   13.00    3.70
  -7   1  -8    9.30    4.80
   7   0  -8    8.00    3.40
   7   0  -8    5.20    2.90
  -7   0   8    9.40    4.70
  -7   0   8    4.60    4.60
  -7   0   8   13.80    4.10
  -7   0   8    5.50    3.80
   6   0  -8   43.80    3.70
   6   0  -8   52.19    3.80
  -6   0   8   52.59    4.70
  -6   0   8   52.29    4.90
  -6   0   8   60.09    5.30
  -6   0   8   51.79    4.30
   5   0  -8   11.90    2.80
   5   0  -8   18.00    2.80
  -5   0   8   12.20    2.70
  -5   0   8   14.00    3.20
  -5   0   8   11.50    2.70
  -5   0   8    8.80    3.30
   4   0  -8    7.40    2.30
   4   0  -8    6.30    2.50
   4   0  -8    8.20    1.60
  -4   0   8    4.40    2.60
  -4   0   8    8.00    2.50
  -4   0   8    5.20    2.40
  -4   0   8    5.70    2.80
   3   0  -8   50.69    3.80
   3   0  -8   59.59    3.00
   3   0  -8   54.09    4.10
   3   0  -8   60.19    4.50
  -3   0   8   52.09    2.80
  -3   0   8   58.19    4.20
  -3   0   8   56.39    4.60
  -3   0   8   50.69    4.10
   2   0  -8   75.09    4.60
   2   0  -8   70.69    3.40
   2   0  -8   69.79    4.30
   2   0  -8   72.19    4.10
  -2   0   8   73.19    4.20
  -2   0   8   75.29    4.50
  -2   0   8   78.09    5.00
  -2   0   8   67.49    4.20
  -2   0   8   71.09    3.40
   1   0  -8   54.89    3.10
   1   0  -8   56.49    3.80
   1   0  -8   56.19    4.10
   1   0  -8   48.10    3.80
  -1   0   8   51.99    3.80
  -1   0   8   46.20    3.40
  -1   0   8   56.99    4.10
  -1   0   8   49.70    3.50
  -1   0   8   46.40    4.00
   0   0  -8    1.90    2.00
   0   0  -8   -0.20    1.90
   0   0  -8   -0.10    1.30
   0   0  -8    0.80    1.90
   0   0   8    5.20    2.30
   0   0   8    2.90    1.80
   0   0   8    1.60    1.40
   0   0   8    1.20    2.00
   0   0   8    0.90    1.80
  -1   0  -8   55.79    4.10
  -1   0  -8   56.29    4.00
  -1   0  -8   54.99    3.50
  -1   0  -8   53.59    4.00
   1   0   8   61.59    4.40
   1   0   8   50.29    3.40
   1   0   8   57.39    3.70
   1   0   8   56.69    4.10
  -2   0  -8   70.39    4.50
  -2   0  -8   71.79    4.50
  -2   0  -8   78.89    4.20
  -2   0  -8   71.49    4.60
   2   0   8   75.59    4.50
   2   0   8   74.09    4.80
   2   0   8   78.79    4.10
   2   0   8   70.79    4.00
  -3   0  -8   -2.20    2.30
  -3   0  -8   -0.60    1.90
  -3   0  -8    3.40    2.70
  -3   0  -8   -2.60    2.40
   3   0   8   -1.20    1.90
   3   0   8    0.70    2.20
   3   0   8    2.10    2.70
  -4   0  -8    6.80    2.30
  -4   0  -8    4.60    2.80
  -4   0  -8    8.50    3.00
  -4   0  -8    6.70    3.20
   4   0   8    6.80    2.30
   4   0   8    6.90    2.60
   4   0   8    1.00    3.50
  -5   0  -8   35.80    4.50
  -5   0  -8   34.50    3.70
  -5   0  -8   40.30    4.30
  -5   0  -8   29.70    4.10
   5   0   8   30.80    3.10
   5   0   8   35.90    4.30
   5   0   8   35.50    3.20
   5   0   8   31.90    3.40
  -6   0  -8   13.50    4.60
  -6   0  -8   17.80    4.80
  -6   0  -8   25.50    5.90
  -6   0  -8   21.60    4.00
   6   0   8   22.40    2.90
   6   0   8   17.60    3.00
   6   0   8   22.00    2.90
   7  -1  -8   24.70    3.50
   7  -1  -8   28.70    3.50
  -7   1   8   28.00    4.40
  -7   1   8   30.50    4.60
  -7   1   8   31.50    5.50
  -7   1   8   33.20    5.40
   6  -1  -8    4.50    2.90
   6  -1  -8    2.20    3.20
   6  -1  -8    3.70    2.70
  -6   1   8    9.10    3.50
  -6   1   8    3.90    4.10
  -6   1   8   12.30    6.30
  -6   1   8    7.60    4.20
   5  -1  -8    2.70    2.70
   5  -1  -8    2.10    2.70
  -5   1   8    1.60    2.80
  -5   1   8    0.60    3.40
  -5   1   8   -1.40    2.50
  -5   1   8    0.20    3.30
   4  -1  -8   38.70    2.90
   4  -1  -8   43.00    3.70
   4  -1  -8   45.70    3.70
  -4   1   8   42.70    3.50
  -4   1   8   42.70    4.10
  -4   1   8   41.00    2.70
  -4   1   8   47.10    3.90
   3  -1  -8   56.09    4.40
   3  -1  -8   53.59    4.70
   3  -1  -8   57.79    3.40
  -3   1   8   65.69    4.70
  -3   1   8   54.99    4.40
  -3   1   8   53.79    3.10
   2  -1  -8   17.10    2.30
   2  -1  -8   12.00    2.80
   2  -1  -8   13.00    2.50
  -2   1   8   12.30    2.50
  -2   1   8   12.40    2.40
  -2   1   8   15.90    3.00
   1  -1  -8    4.60    2.30
   1  -1  -8    5.60    2.60
   1  -1  -8    2.60    1.60
   1  -1  -8    0.70    2.00
  -1   1   8    3.20    2.10
  -1   1   8    4.30    2.50
  -1   1   8    2.90    1.40
  -1   1   8   -2.20    1.70
  -1   1   8    2.50    2.20
   0  -1  -8   62.69    4.50
   0  -1  -8   57.89    4.30
   0  -1  -8   62.09    4.50
   0  -1  -8   65.39    3.80
   0   1   8   63.09    3.70
   0   1   8   56.09    4.10
   0   1   8   65.49    4.60
   0   1   8   61.39    4.90
  -1  -1  -8   34.60    3.50
  -1  -1  -8   33.30    3.30
  -1  -1  -8   32.80    3.10
   1   1   8   34.90    3.00
   1   1   8   29.60    3.10
   1   1   8   32.70    3.40
   1   1   8   32.60    3.40
  -2  -1  -8    0.60    2.20
  -2  -1  -8    0.60    2.80
  -2  -1  -8    1.10    2.30
  -2  -1  -8    0.30    2.00
   2   1   8    2.80    1.70
   2   1   8    1.50    2.80
   2   1   8    1.20    2.40
   2   1   8    1.90    2.00
  -3  -1  -8    1.70    2.00
  -3  -1  -8   -2.70    2.60
  -3  -1  -8    1.60    2.90
  -3  -1  -8    3.40    3.00
   3   1   8    5.10    3.10
   3   1   8    2.60    2.50
  -4  -1  -8   33.90    4.10
  -4  -1  -8   47.50    4.90
  -4  -1  -8   46.70    5.40
  -4  -1  -8   42.50    4.20
   4   1   8   44.50    3.70
   4   1   8   37.50    4.90
   4   1   8   40.00    4.30
  -5  -1  -8   13.10    4.10
  -5  -1  -8   12.70    4.10
  -5  -1  -8   11.90    4.30
  -5  -1  -8   11.90    3.40
   5   1   8   13.40    3.30
   5   1   8   15.70    3.10
   5   1   8   17.00    4.10
   5   1   8   16.70    3.50
  -6  -1  -8    7.50    3.80
  -6  -1  -8   -1.00    4.50
  -6  -1  -8   -6.50    9.00
   6   1   8    1.80    3.30
   6   1   8   -4.30    3.80
   6   1   8   -1.70    2.90
   7  -2  -8   17.30    3.50
   7  -2  -8   19.60    3.30
  -7   2   8   15.90    4.50
  -7   2   8   19.40    4.50
   6  -2  -8    3.90    3.10
   6  -2  -8    3.40    3.00
  -6   2   8    9.40    4.80
  -6   2   8    1.20    4.50
  -6   2   8    4.80    3.60
  -6   2   8    7.00    3.80
   5  -2  -8   45.70    3.90
   5  -2  -8   33.80    3.70
   5  -2  -8   32.10    3.80
  -5   2   8   38.80    2.90
  -5   2   8   33.40    4.30
  -5   2   8   42.70    5.30
  -5   2   8   42.40    4.70
  -5   2   8   37.70    4.00
   4  -2  -8   40.10    3.70
   4  -2  -8   35.10    3.70
  -4   2   8   33.90    3.80
  -4   2   8   29.30    3.90
  -4   2   8   27.70    2.80
   3  -2  -8   13.80    3.20
   3  -2  -8   10.50    2.70
   3  -2  -8    7.40    2.00
  -3   2   8    8.70    2.60
  -3   2   8    9.70    2.70
  -3   2   8    5.70    3.00
  -3   2   8    4.50    2.90
   2  -2  -8    9.40    2.20
   2  -2  -8    7.80    2.90
   2  -2  -8    7.30    3.00
  -2   2   8    6.10    2.50
  -2   2   8   10.10    2.60
  -2   2   8    8.30    1.90
   1  -2  -8   97.79    5.60
   1  -2  -8   96.99    5.40
   1  -2  -8   93.19    4.80
  -1   2   8   96.79    5.10
  -1   2   8   92.49    5.60
  -1   2   8  101.49    5.20
  -1   2   8   95.59    4.60
   0  -2  -8    6.60    3.00
   0  -2  -8    7.10    2.30
   0  -2  -8    6.70    2.60
   0   2   8    7.10    2.10
   0   2   8    6.10    2.30
   0   2   8    8.80    2.90
   0   2   8    8.80    3.20
  -1  -2  -8    2.80    2.50
  -1  -2  -8    0.80    2.10
   1   2   8   -0.80    3.20
   1   2   8    2.80    2.90
   1   2   8    2.40    2.30
   1   2   8    0.50    1.50
  -2  -2  -8    0.10    2.70
  -2  -2  -8    7.40    2.40
  -2  -2  -8    7.20    3.20
   2   2   8    9.00    2.40
   2   2   8    7.00    3.60
   2   2   8    6.70    2.60
   2   2   8    5.60    2.80
  -3  -2  -8   21.90    3.20
  -3  -2  -8   20.20    5.40
  -3  -2  -8   19.60    3.70
  -3  -2  -8   31.80    4.30
   3   2   8   25.30    3.50
   3   2   8   20.90    4.30
  -4  -2  -8    2.30    3.90
  -4  -2  -8    5.20    2.90
  -4  -2  -8    3.80    4.00
  -4  -2  -8    1.60    3.90
   4   2   8   -1.20    3.00
   4   2   8    4.60    3.20
   4   2   8    8.40    3.30
   4   2   8   10.90    4.40
  -5  -2  -8   -4.30    4.40
  -5  -2  -8    4.00    3.80
   5   2   8   -1.00    3.60
   5   2   8    3.20    4.80
   5   2   8    1.10    3.20
   6  -3  -8   20.00    3.80
   6  -3  -8   21.30    3.70
  -6   3   8   23.40    4.40
  -6   3   8   22.40    2.20
  -6   3   8   27.10    4.70
   5  -3  -8   12.40    3.50
   5  -3  -8   17.10    4.40
   5  -3  -8   15.80    3.70
  -5   3   8   16.50    4.70
  -5   3   8   15.90    6.80
  -5   3   8   15.60    2.30
  -5   3   8   18.70    3.60
  -5   3   8   18.50    4.00
   4  -3  -8    3.00    3.30
   4  -3  -8    0.90    3.10
   4  -3  -8    3.70    3.40
  -4   3   8    0.40    1.80
  -4   3   8    3.80    4.00
  -4   3   8   -0.50    3.00
  -4   3   8    2.40    3.30
  -4   3   8    0.70    3.50
   3  -3  -8    7.20    3.20
   3  -3  -8    3.00    2.90
   3  -3  -8   10.70    3.40
   3  -3  -8    7.30    2.40
  -3   3   8    7.00    2.10
  -3   3   8    5.10    3.50
  -3   3   8   -0.90    5.50
  -3   3   8    2.00    2.70
   2  -3  -8   34.30    3.30
   2  -3  -8   39.30    3.80
  -2   3   8   32.10    4.30
  -2   3   8   40.30    4.60
  -2   3   8   36.00    5.60
  -2   3   8   39.30    3.80
   1  -3  -8   22.50    3.40
   1  -3  -8   24.40    3.20
  -1   3   8   25.00    3.70
  -1   3   8   19.20    2.70
   0  -3  -8    1.20    3.30
   0  -3  -8    0.40    3.00
   0  -3  -8    4.10    2.20
   0   3   8    6.80    6.00
   0   3   8    0.30    3.60
   0   3   8    4.30    2.80
   0   3   8    4.20    2.30
  -1  -3  -8   52.89    5.10
  -1  -3  -8   63.29    5.00
  -1  -3  -8   65.49    7.70
   1   3   8   54.59    4.60
   1   3   8   34.80    4.80
   1   3   8   55.39    4.90
   1   3   8   65.39    7.60
  -2  -3  -8   33.00    4.60
  -2  -3  -8   32.10    4.00
   2   3   8   22.30    4.80
   2   3   8   30.50    4.00
   2   3   8   17.60    3.80
   2   3   8   26.50    3.90
  -3  -3  -8   -0.30    2.90
  -3  -3  -8    1.80    3.70
  -3  -3  -8    3.80    4.10
  -3  -3  -8    4.00    3.70
   3   3   8    0.30    5.00
   3   3   8   -1.30    3.20
   3   3   8    7.70    2.80
   3   3   8    1.10    3.40
  -4  -3  -8   -4.40    3.20
  -4  -3  -8   -7.10    4.80
   4   3   8    1.80    4.10
   4   3   8   -0.80    5.30
   4   3   8   -0.30    3.60
   5  -4  -8    1.40    3.70
   5  -4  -8   -0.70    4.10
  -5   4   8    1.60    2.50
  -5   4   8    0.30    3.90
  -5   4   8   -0.90    4.00
   4  -4  -8   20.50    4.10
   4  -4  -8   18.40    4.20
  -4   4   8   18.00    5.20
  -4   4   8   17.80    2.90
  -4   4   8   22.60    4.30
  -4   4   8   18.70    4.10
   3  -4  -8   32.30    4.30
   3  -4  -8   26.60    4.30
  -3   4   8   31.00    4.10
  -3   4   8   35.20    4.30
  -3   4   8   28.30    5.30
  -3   4   8   37.30    3.70
  -3   4   8   32.90    4.90
   2  -4  -8    4.70    2.60
   2  -4  -8    6.70    3.60
   2  -4  -8    5.80    4.40
   2  -4  -8    0.30    4.00
  -2   4   8    6.40    3.40
  -2   4   8    2.90    4.50
  -2   4   8    6.00    4.00
  -2   4   8    4.90    2.70
  -2   4   8    7.70    3.30
   1  -4  -8    2.20    3.70
   1  -4  -8    7.30    4.20
   1  -4  -8    5.10    3.60
   1  -4  -8    2.90    2.60
  -1   4   8    4.50    2.80
  -1   4   8    4.40    3.80
  -1   4   8    3.80    2.70
  -1   4   8    1.10    4.10
   0  -4  -8   12.40    3.90
   0  -4  -8   18.40    4.10
   0  -4  -8   12.30    4.10
   0  -4  -8   18.10    3.90
   0   4   8   16.60    3.40
   0   4   8   17.40    4.80
   0   4   8   13.10    4.30
   0   4   8   16.00    3.30
  -1  -4  -8   -0.40    4.20
  -1  -4  -8    5.20    3.20
  -1  -4  -8    5.90    3.80
  -1  -4  -8    8.40    4.30
   1   4   8    8.10    4.80
   1   4   8    6.10    3.50
   1   4   8    9.40    3.60
  -2  -4  -8    2.40    3.30
  -2  -4  -8    1.80    4.30
   2   4   8    5.10    5.50
  -3  -4  -8   -2.60    3.00
  -3  -4  -8    2.80    5.00
   3   4   8   -3.00    6.10
   3   4   8    4.00    4.30
   3   4   8   -2.60    4.10
  -4   5   8   10.30    4.20
  -4   5   8   15.60    4.40
  -4   5   8    9.10    3.40
   3  -5  -8   -0.30    4.40
   3  -5  -8    5.70    4.90
  -3   5   8    3.80    4.00
  -3   5   8    1.50    3.10
  -3   5   8   -4.50    3.90
   2  -5  -8    1.90    4.40
   2  -5  -8    1.60    5.20
  -2   5   8    3.40    3.40
  -2   5   8   -0.10    3.20
   1  -5  -8   15.30    3.80
   1  -5  -8    9.30    4.90
   1  -5  -8   14.10    4.70
  -1   5   8   11.80    5.00
  -1   5   8   18.90    4.00
  -1   5   8   19.80    4.10
   0  -5  -8   17.20    3.70
   0  -5  -8   25.10    5.30
   0   5   8   11.20    3.70
   0   5   8   16.40    5.40
   0   5   8   21.10    4.50
  -1  -5  -8   -2.00    4.90
  -1  -5  -8    4.00    3.50
   1   5   8   -2.70    4.80
   1   5   8   -1.20    3.60
  -2  -5  -8    1.70    5.60
  -2  -5  -8    7.10    4.20
   2   5   8   10.20    4.90
   2   5   8    4.50    5.30
   2  11  -9   10.00    4.60
   2  11  -9   10.00    5.30
  -2 -11   9   26.00    5.20
  -2 -11   9   13.70    3.00
   1  11  -9   16.50    4.50
   1  11  -9    9.20    4.50
  -1 -11   9   13.90    2.10
  -1 -11   9   16.20    5.00
  -1 -11   9   17.60    4.40
   0  11  -9   -0.30    4.10
   0  11  -9    7.40    4.10
   0 -11   9   -5.40    3.80
  -1  11  -9   11.40    4.30
  -1  11  -9   20.00    4.60
   1 -11   9   14.00    3.60
   1 -11   9   11.70    3.80
  -2  11  -9   36.40    5.20
  -2  11  -9   49.99    5.10
  -2  11  -9   40.30    6.00
   2 -11   9   43.80    3.60
   2 -11   9   42.30    3.80
  -3  11  -9   25.70    4.50
  -3  11  -9   14.40    5.60
  -3  11  -9   10.30    4.90
   3  10  -9   29.40    4.60
   3  10  -9   41.20    5.40
  -3 -10   9   28.30    5.00
  -3 -10   9   38.70    6.30
  -3 -10   9   31.30    3.70
   2  10  -9   19.20    4.50
   2  10  -9   15.90    4.30
  -2 -10   9   13.00    2.70
  -2 -10   9   15.20    5.00
  -2 -10   9   14.30    4.20
  -2 -10   9   22.70    5.10
   1  10  -9    1.80    3.40
   1  10  -9    2.30    4.50
   1  10  -9    4.20    3.70
  -1 -10   9   -2.10    3.80
  -1 -10   9    1.90    2.00
  -1 -10   9    0.00    3.50
  -1 -10   9    7.40    4.70
   0  10  -9   52.89    5.50
   0  10  -9   50.89    4.60
   0  10  -9   61.19    5.20
   0 -10   9   55.09    4.50
   0 -10   9   64.39    5.60
   0 -10   9   56.29    6.10
  -1  10  -9   72.59    6.00
  -1  10  -9   62.59    5.70
  -1  10  -9   86.69    6.80
   1 -10   9   82.69    7.80
   1 -10   9   66.99    5.50
   1 -10   9   72.79    5.70
  -2  10  -9    5.00    4.30
  -2  10  -9   12.00    3.60
  -2  10  -9    5.30    3.70
   2 -10   9    7.70    4.70
   2 -10   9   11.60    2.70
   2 -10   9    8.50    2.70
  -3  10  -9    6.40    4.20
  -3  10  -9    3.60    3.50
  -3  10  -9    7.00    3.80
  -4  10  -9   27.60    4.20
  -4  10  -9   21.80    4.80
  -4  10  -9   40.50    4.50
  -4  10  -9   22.30    4.70
  -5  10  -9   25.10    4.30
  -5  10  -9   17.40    5.20
  -5  10  -9   23.20    4.30
  -5  10  -9   17.90    4.90
   4   9  -9   37.00    5.20
   4   9  -9   43.60    5.20
  -4  -9   9   30.80    5.70
  -4  -9   9   32.40    5.30
  -4  -9   9   40.20    4.00
   3   9  -9   13.00    4.00
   3   9  -9   14.20    4.20
   3   9  -9   10.60    6.00
  -3  -9   9    6.30    2.90
  -3  -9   9   14.20    4.10
  -3  -9   9    9.80    4.80
  -3  -9   9   15.50    5.00
   2   9  -9    6.50    4.20
   2   9  -9    5.40    3.50
   2   9  -9    8.00    3.40
  -2  -9   9    2.10    2.30
  -2  -9   9    3.60    4.10
  -2  -9   9    0.60    3.80
  -2  -9   9    5.10    3.30
   1   9  -9   23.50    3.90
   1   9  -9   23.00    3.70
   1   9  -9   26.50    4.40
  -1  -9   9   22.50    4.10
  -1  -9   9   28.60    2.50
  -1  -9   9   25.20    3.60
   0   9  -9   10.80    3.70
   0   9  -9   16.90    3.30
   0   9  -9   19.50    3.40
   0  -9   9   18.10    1.80
   0  -9   9   22.30    3.30
   0  -9   9   17.80    3.30
  -1   9  -9   13.20    3.20
  -1   9  -9    8.90    3.70
  -1   9  -9    7.20    2.90
   1  -9   9    9.90    2.70
   1  -9   9   12.70    2.80
  -2   9  -9   14.10    3.20
  -2   9  -9   13.80    3.20
  -2   9  -9   12.10    3.70
   2  -9   9   14.40    2.60
   2  -9   9   11.70    3.80
   2  -9   9   18.10    2.60
  -3   9  -9   72.49    5.00
  -3   9  -9   59.19    4.80
  -3   9  -9   50.39    4.60
  -3   9  -9   67.79    5.60
   3  -9   9   62.79    2.80
   3  -9   9   61.59    5.40
  -4   9  -9   33.60    3.80
  -4   9  -9   36.90    3.90
  -4   9  -9   30.40    4.40
  -4   9  -9   34.60    4.30
   4  -9   9   38.60    5.40
  -5   9  -9    3.90    4.10
  -5   9  -9    1.40    3.40
  -5   9  -9    2.60    2.80
  -5   9  -9    2.70    4.00
   5   8  -9    8.20    4.30
   5   8  -9   11.00    4.30
  -5  -8   9    9.10    4.70
  -5  -8   9   11.80    5.30
   4   8  -9    5.50    3.70
   4   8  -9    3.90    4.30
   4   8  -9    0.00    3.40
  -4  -8   9   -1.60    4.40
  -4  -8   9   -2.70    4.90
  -4  -8   9    3.30    2.80
  -4  -8   9    0.10    3.60
   3   8  -9   28.90    4.10
   3   8  -9   34.70    4.70
   3   8  -9   42.90    5.90
  -3  -8   9   32.40    3.90
  -3  -8   9   29.50    4.70
  -3  -8   9   34.70    3.30
  -3  -8   9   27.60    4.30
   2   8  -9  105.49    6.40
   2   8  -9   92.99    7.10
  -2  -8   9  102.39    7.10
  -2  -8   9  107.99    4.90
  -2  -8   9  111.09    6.20
   1   8  -9   56.59    5.00
   1   8  -9   56.29    5.40
  -1  -8   9   65.19    5.00
  -1  -8   9   57.09    4.90
  -1  -8   9   48.70    4.10
  -1  -8   9   51.89    3.60
   0   8  -9    0.20    3.00
   0   8  -9    0.40    2.40
   0   8  -9    2.40    2.40
   0  -8   9    3.50    2.70
   0  -8   9    1.30    1.50
   0  -8   9    2.00    2.50
  -1   8  -9  107.39    6.00
  -1   8  -9  113.09    5.60
  -1   8  -9  107.29    6.10
   1  -8   9  118.79    5.10
   1  -8   9   99.59    5.30
  -2   8  -9  109.99    5.70
  -2   8  -9  118.19    6.10
  -2   8  -9  117.29    5.50
  -2   8  -9  113.49    6.30
   2  -8   9  107.49    4.60
   2  -8   9  106.09    4.80
  -3   8  -9   39.40    3.90
  -3   8  -9   44.30    3.80
  -3   8  -9   51.59    4.10
  -3   8  -9   41.00    1.80
  -3   8  -9   43.70    4.10
   3  -8   9   41.00    2.70
   3  -8   9   40.60    2.80
   3  -8   9   33.90    4.30
  -4   8  -9    5.00    3.10
  -4   8  -9    2.00    3.30
  -4   8  -9    1.10    2.10
  -4   8  -9    3.00    1.20
   4  -8   9    6.30    3.80
  -5   8  -9   22.70    2.00
  -5   8  -9   25.90    4.10
  -5   8  -9   20.00    4.00
  -5   8  -9   20.80    3.30
  -5   8  -9   25.40    3.50
   5  -8   9   18.80    4.70
  -6   8  -9   22.60    3.80
  -6   8  -9   28.00    4.60
  -6   8  -9   26.60    2.70
  -6   8  -9   24.10    4.50
  -6   8  -9   29.30    4.40
   6   7  -9   18.20    2.70
   6   7  -9   12.20    3.60
   6   7  -9    9.60    4.50
   6   7  -9   18.10    6.10
  -6  -7   9   20.40    4.40
  -6  -7   9   17.20    4.90
  -6  -7   9   13.30    5.40
   5   7  -9    1.00    3.80
   5   7  -9    4.20    2.00
   5   7  -9    2.90    8.30
   5   7  -9   -3.90    4.20
  -5  -7   9    7.10    3.70
  -5  -7   9    1.60    4.30
  -5  -7   9    1.50    3.20
   4   7  -9   39.60    4.90
   4   7  -9   41.30    4.40
   4   7  -9   26.30    3.70
  -4  -7   9   28.90    4.50
  -4  -7   9   36.80    4.30
  -4  -7   9   35.70    3.50
  -4  -7   9   22.10    4.00
   3   7  -9   65.09    5.10
   3   7  -9   60.29    5.50
  -3  -7   9   62.79    5.00
  -3  -7   9   65.19    4.60
  -3  -7   9   67.09    6.00
   2   7  -9   60.19    5.10
   2   7  -9   67.19    5.40
  -2  -7   9   66.49    4.10
  -2  -7   9   60.99    5.60
  -2  -7   9   63.49    5.00
  -2  -7   9   70.79    5.60
   1   7  -9    2.50    2.50
   1   7  -9    0.60    2.50
   1   7  -9    1.70    1.80
   1   7  -9    4.10    1.50
  -1  -7   9    1.90    1.80
  -1  -7   9   -0.90    2.80
  -1  -7   9    0.50    2.60
  -1  -7   9    1.10    2.50
   0   7  -9   39.00    3.80
   0   7  -9   35.50    3.50
   0   7  -9   32.40    2.60
   0   7  -9   36.90    3.30
   0   7  -9   27.80    2.90
   0  -7   9   38.10    3.20
   0  -7   9   33.40    3.30
   0  -7   9   32.30    2.40
  -1   7  -9   66.69    4.90
  -1   7  -9   56.79    5.00
  -1   7  -9   69.29    4.10
  -1   7  -9   58.19    4.40
  -1   7  -9   62.29    2.90
   1  -7   9   61.99    4.10
   1  -7   9   51.49    4.40
  -2   7  -9   45.80    3.90
  -2   7  -9   37.00    2.50
  -2   7  -9   37.50    3.30
  -2   7  -9   41.90    3.60
  -2   7  -9   43.30    3.60
   2  -7   9   42.80    3.50
   2  -7   9   40.00    3.70
  -3   7  -9   14.40    3.10
  -3   7  -9   12.60    2.80
  -3   7  -9   17.40    3.30
  -3   7  -9   10.00    2.10
  -3   7  -9   14.10    1.70
   3  -7   9   14.40    1.90
   3  -7   9   12.20    1.70
  -4   7  -9   64.29    3.50
  -4   7  -9   63.49    5.60
  -4   7  -9   61.79    4.60
  -4   7  -9   58.39    5.40
  -4   7  -9   60.99    4.90
  -5   7  -9   47.20    4.80
  -5   7  -9   50.89    4.00
  -5   7  -9   47.90    4.00
  -5   7  -9   48.00    4.40
  -5   7  -9   57.39    4.50
  -6   7  -9    5.60    3.10
  -6   7  -9    1.90    3.80
  -6   7  -9    6.10    2.80
  -6   7  -9    3.50    3.20
  -6   7  -9    1.70    3.80
   6   6  -9    0.90    1.90
   6   6  -9   -0.60    3.80
   6   6  -9    2.10    2.50
   6   6  -9    5.60    4.80
  -6  -6   9    6.00    4.10
  -6  -6   9    3.80    4.70
  -6  -6   9    3.50    3.70
   5   6  -9   24.20    4.60
   5   6  -9   33.40    3.30
   5   6  -9   33.50    4.20
   5   6  -9   34.30    4.20
  -5  -6   9   25.70    4.50
  -5  -6   9   32.00    4.30
  -5  -6   9   34.00    3.90
  -5  -6   9   25.90    4.70
   4   6  -9   24.00    3.50
   4   6  -9    9.50    4.30
   4   6  -9   26.30    2.50
  -4  -6   9   22.20    4.10
  -4  -6   9   20.20    3.00
  -4  -6   9   27.20    3.70
   3   6  -9    2.00    1.50
   3   6  -9   -1.30    2.50
   3   6  -9    0.20    2.50
  -3  -6   9    4.70    2.20
  -3  -6   9    2.10    2.50
  -3  -6   9    2.00    3.00
   2   6  -9  152.08    5.30
   2   6  -9  155.28    5.50
   2   6  -9  158.38    6.50
   2   6  -9  156.18    6.20
  -2  -6   9  155.28    6.60
  -2  -6   9  147.69    5.60
  -2  -6   9  144.59    6.60
  -2  -6   9  156.68    6.30
   1   6  -9  123.39    5.50
   1   6  -9  116.19    4.40
   1   6  -9  127.99    5.60
   1   6  -9  124.39    5.00
  -1  -6   9  125.59    4.80
  -1  -6   9  124.79    5.80
  -1  -6   9  120.69    5.50
   0   6  -9   76.69    4.80
   0   6  -9   79.29    3.50
   0   6  -9   83.49    4.20
   0   6  -9   81.89    4.60
   0   6  -9   86.59    4.90
   0  -6   9   80.39    4.80
   0  -6   9   81.49    3.70
   0  -6   9   82.19    4.40
  -1   6  -9    5.00    2.10
  -1   6  -9    2.30    1.50
  -1   6  -9    2.80    1.50
  -1   6  -9    0.20    2.20
  -1   6  -9    2.30    2.40
   1  -6   9    1.00    2.30
   1  -6   9    1.40    1.90
  -2   6  -9   58.89    4.30
  -2   6  -9   49.80    4.50
  -2   6  -9   60.69    4.80
  -2   6  -9   61.39    4.10
  -2   6  -9   59.29    3.20
   2  -6   9   55.89    4.80
   2  -6   9   55.29    3.80
   2  -6   9   59.49    3.50
  -3   6  -9  124.69    5.60
  -3   6  -9  136.59    5.60
  -3   6  -9  133.29    6.10
  -3   6  -9  130.49    5.90
  -3   6  -9  124.39    4.60
   3  -6   9  123.89    6.50
   3  -6   9  123.99    4.10
   3  -6   9  125.39    4.40
  -4   6  -9   66.29    5.30
  -4   6  -9   80.59    9.00
  -4   6  -9   72.89    5.30
  -4   6  -9   60.69    4.00
  -4   6  -9   60.69    4.70
   4  -6   9   59.99    4.60
  -5   6  -9    1.40    2.80
  -5   6  -9    0.80    2.00
  -5   6  -9   -0.90    2.30
  -5   6  -9    2.60    3.20
  -5   6  -9    0.20    2.90
   5  -6   9   -3.20    3.30
  -6   6  -9   11.40    2.90
  -6   6  -9   15.50    3.70
  -6   6  -9   11.30    3.20
  -6   6  -9   16.00    3.70
  -6   6  -9   16.00    3.40
   6  -6   9   11.00    4.40
   7   5  -9    7.20    4.20
   7   5  -9    3.70    5.50
  -7  -5   9    1.40    4.60
  -7  -5   9    2.20    4.30
  -7  -5   9    2.00    5.20
   6   5  -9   27.00    2.40
   6   5  -9   27.50    2.40
   6   5  -9   20.40    4.60
   6   5  -9   33.90    4.30
  -6  -5   9   28.00    4.00
  -6  -5   9   36.20    4.70
  -6  -5   9   30.30    5.10
   5   5  -9   31.90    5.10
   5   5  -9   25.10    2.70
  -5  -5   9   27.30    4.20
  -5  -5   9   26.00    3.50
  -5  -5   9   24.80    3.80
   4   5  -9    9.30    3.00
   4   5  -9   11.20    3.20
   4   5  -9   12.70    2.00
   4   5  -9    8.70    2.30
  -4  -5   9   13.20    3.60
  -4  -5   9    5.30    3.00
  -4  -5   9   14.10    2.80
   3   5  -9   17.70    2.50
   3   5  -9   17.90    2.10
   3   5  -9   15.40    3.20
   3   5  -9   17.30    3.20
   3   5  -9   18.50    3.10
  -3  -5   9   16.00    2.60
  -3  -5   9   16.80    2.80
  -3  -5   9   10.90    2.90
   2   5  -9   92.09    5.00
   2   5  -9   98.19    5.20
   2   5  -9   94.99    4.10
   2   5  -9   86.59    4.20
  -2  -5   9   89.39    4.50
  -2  -5   9   94.39    5.40
  -2  -5   9   97.09    5.30
  -2  -5   9   86.09    5.00
   1   5  -9  293.07    8.70
   1   5  -9  304.57    8.40
   1   5  -9  291.57    7.90
   1   5  -9  290.87    8.80
  -1  -5   9  300.37    8.60
  -1  -5   9  290.47    8.70
  -1  -5   9  301.57    8.10
   0   5  -9    8.50    2.00
   0   5  -9   10.20    2.40
   0   5  -9    9.20    1.80
   0   5  -9    5.70    2.10
   0   5  -9   10.20    2.50
   0  -5   9    7.60    2.40
   0  -5   9    8.30    2.30
   0  -5   9    8.60    2.00
   0  -5   9    6.70    2.10
  -1   5  -9   46.90    3.90
  -1   5  -9   38.40    3.10
  -1   5  -9   40.90    3.90
  -1   5  -9   38.00    3.30
  -1   5  -9   36.40    3.20
   1  -5   9   45.90    4.30
   1  -5   9   40.30    3.60
   1  -5   9   38.80    3.50
  -2   5  -9   95.39    5.00
  -2   5  -9   84.29    4.40
  -2   5  -9   89.69    5.10
  -2   5  -9   94.89    4.10
  -2   5  -9   93.69    4.80
   2  -5   9   93.39    4.30
   2  -5   9   97.79    5.40
   2  -5   9   96.19    4.10
  -3   5  -9   49.60    3.70
  -3   5  -9   56.79    3.90
  -3   5  -9   54.99    4.50
  -3   5  -9   52.29    3.70
  -3   5  -9   52.59    4.40
   3  -5   9   50.29    3.00
   3  -5   9   56.39    4.90
   3  -5   9   48.90    3.50
  -4   5  -9    5.50    2.50
  -4   5  -9    4.60    2.20
  -4   5  -9    3.40    2.30
  -4   5  -9    5.00    2.70
  -4   5  -9    6.80    2.60
   4  -5   9    2.50    1.20
   4  -5   9    4.60    3.10
  -5   5  -9   47.60    4.50
  -5   5  -9   48.80    3.70
  -5   5  -9   44.30    4.00
  -5   5  -9   52.79    5.10
  -5   5  -9   44.00    3.70
   5  -5   9   46.80    4.30
  -6   5  -9   28.60    3.70
  -6   5  -9   28.40    3.60
  -6   5  -9   28.00    3.70
  -6   5  -9   29.00    4.10
  -6   5  -9   24.60    3.80
   6  -5   9   23.20    4.00
  -7   5  -9    9.90    4.20
  -7   5  -9    8.80    3.50
  -7   5  -9    8.50    3.80
  -7   5  -9   13.20    4.50
  -7   5  -9    5.20    3.70
   7   4  -9   13.60    5.70
  -7  -4   9   13.40    5.50
  -7  -4   9   13.70    4.30
  -7  -4   9   14.60    4.70
   6   4  -9   14.10    3.70
  -6  -4   9   15.00    3.80
  -6  -4   9   16.90    4.30
  -6  -4   9   13.70    4.00
  -6  -4   9    9.80    4.60
   5   4  -9   -0.60    2.90
   5   4  -9   -1.70    2.20
   5   4  -9    0.60    1.30
  -5  -4   9   -1.10    3.00
  -5  -4   9    2.60    2.70
  -5  -4   9    2.40    3.50
  -5  -4   9   -4.40    3.30
   4   4  -9   38.90    2.70
   4   4  -9   46.20    3.60
   4   4  -9   33.80    3.80
   4   4  -9   49.90    4.00
  -4  -4   9   45.40    3.70
  -4  -4   9   43.30    4.00
  -4  -4   9   28.30    3.60
   3   4  -9   63.19    4.70
   3   4  -9   51.39    4.60
   3   4  -9   58.59    3.90
   3   4  -9   55.89    3.10
   3   4  -9   55.39    4.80
  -3  -4   9   53.89    4.20
  -3  -4   9   53.99    4.50
  -3  -4   9   53.09    4.80
   2   4  -9    2.90    1.80
   2   4  -9    5.70    2.40
   2   4  -9    0.30    2.30
   2   4  -9    1.00    2.20
   2   4  -9    4.80    1.50
  -2  -4   9    0.90    2.00
  -2  -4   9    3.30    2.00
  -2  -4   9    1.60    2.50
  -2  -4   9    2.50    2.20
   1   4  -9   80.29    4.60
   1   4  -9   84.19    4.00
   1   4  -9   80.59    4.60
   1   4  -9   85.99    3.90
  -1  -4   9   85.19    4.50
  -1  -4   9   91.19    4.30
  -1  -4   9   86.69    4.80
   0   4  -9  108.99    4.50
   0   4  -9  113.99    5.20
   0   4  -9  115.29    5.10
   0   4  -9  115.99    5.10
   0   4  -9  107.49    4.60
   0  -4   9  107.49    5.30
   0  -4   9  108.39    4.60
   0  -4   9  108.29    5.00
   0  -4   9  110.49    4.70
  -1   4  -9  128.79    5.30
  -1   4  -9  110.19    4.60
  -1   4  -9  113.29    5.30
  -1   4  -9  109.79    4.70
  -1   4  -9  106.19    5.00
   1  -4   9  112.29    5.30
   1  -4   9  110.79    4.90
   1  -4   9  113.19    4.70
  -2   4  -9   13.80    2.60
  -2   4  -9   21.30    2.40
  -2   4  -9   16.40    2.50
  -2   4  -9   16.00    2.40
  -2   4  -9   18.40    2.60
   2  -4   9   22.30    2.30
   2  -4   9   19.00    2.60
   2  -4   9   18.00    2.80
  -3   4  -9   22.40    3.00
  -3   4  -9   19.20    2.60
  -3   4  -9   16.90    3.00
  -3   4  -9   21.00    2.60
  -3   4  -9   19.10    2.70
   3  -4   9   22.50    3.20
   3  -4   9   20.70    2.30
   3  -4   9   21.80    2.10
  -4   4  -9   98.89    5.60
  -4   4  -9   92.99    5.10
  -4   4  -9  101.89    5.20
  -4   4  -9   98.59    5.30
  -4   4  -9   96.79    5.30
   4  -4   9  101.99    5.90
   4  -4   9   98.59    3.90
  -5   4  -9   63.49    5.20
  -5   4  -9   57.79    5.40
  -5   4  -9   67.69    5.30
  -5   4  -9   60.09    5.00
  -5   4  -9   67.99    4.90
   5  -4   9   65.49    5.70
  -6   4  -9    7.10    3.30
  -6   4  -9    6.20    3.00
  -6   4  -9    2.90    2.80
  -6   4  -9    4.80    3.70
  -6   4  -9    0.30    3.40
   6  -4   9    3.70    3.40
  -7   4  -9   10.10    4.60
  -7   4  -9   11.60    3.50
  -7   4  -9    9.10    3.70
  -7   4  -9    9.30    4.60
  -7   4  -9   16.60    4.20
   7   3  -9    4.30    4.20
   7   3  -9    8.30    3.70
  -7  -3   9    9.80    5.20
  -7  -3   9   -0.40    4.00
  -7  -3   9    5.00    3.80
   6   3  -9    0.40    3.60
   6   3  -9    0.40    3.10
  -6  -3   9    4.80    3.60
  -6  -3   9   -0.10    4.30
  -6  -3   9    3.20    4.00
  -6  -3   9    7.70    3.60
   5   3  -9   30.60    3.20
   5   3  -9   33.00    2.30
   5   3  -9   36.30    3.80
   5   3  -9   31.70    3.90
  -5  -3   9   41.90    5.30
  -5  -3   9   34.80    5.50
  -5  -3   9   41.20    4.40
  -5  -3   9   38.00    4.30
   4   3  -9   64.09    4.50
   4   3  -9   72.09    3.20
   4   3  -9   74.79    5.30
   4   3  -9   73.89    4.90
  -4  -3   9   68.29    5.00
  -4  -3   9   74.49    5.70
  -4  -3   9   72.39    5.10
   3   3  -9   28.40    2.80
   3   3  -9   32.10    3.40
   3   3  -9   32.90    3.60
   3   3  -9   29.50    2.60
  -3  -3   9   27.30    3.00
  -3  -3   9   31.80    3.60
  -3  -3   9   36.20    3.40
   2   3  -9    1.90    2.10
   2   3  -9    1.20    2.30
   2   3  -9    1.30    1.40
   2   3  -9    1.80    1.80
  -2  -3   9   -0.20    2.00
  -2  -3   9    1.20    2.40
  -2  -3   9    3.20    2.00
   1   3  -9  257.17    8.10
   1   3  -9  265.17    7.70
   1   3  -9  270.87    8.10
   1   3  -9  289.07   11.00
   1   3  -9  272.47    7.70
  -1  -3   9  267.57    7.90
  -1  -3   9  262.27    8.10
  -1  -3   9  271.47    7.90
  -1  -3   9  272.27    8.30
   0   3  -9  182.98    6.40
   0   3  -9  183.58    6.50
   0   3  -9  180.78    6.00
   0   3  -9  188.18    6.40
   0   3  -9  185.38    6.10
   0  -3   9  182.68    6.40
   0  -3   9  179.88    6.10
   0  -3   9  183.08    6.10
   0  -3   9  189.98    6.70
  -1   3  -9   20.10    2.90
  -1   3  -9   21.30    2.60
  -1   3  -9   23.70    2.80
  -1   3  -9   22.20    2.70
  -1   3  -9   19.50    2.70
   1  -3   9   21.40    2.50
   1  -3   9   18.50    2.60
   1  -3   9   20.80    2.80
  -2   3  -9   12.30    2.60
  -2   3  -9   10.90    2.40
  -2   3  -9   10.90    2.80
  -2   3  -9   11.20    2.30
  -2   3  -9   14.10    2.30
   2  -3   9   12.10    2.60
   2  -3   9    6.80    4.20
   2  -3   9   10.30    2.10
  -3   3  -9   82.29    4.80
  -3   3  -9   90.99    4.90
  -3   3  -9   94.49    5.00
  -3   3  -9   91.29    5.20
  -3   3  -9   89.09    4.80
   3  -3   9   92.69    5.30
   3  -3   9   91.99    4.10
   3  -3   9   93.89    4.40
  -4   3  -9   50.19    4.40
  -4   3  -9   49.90    4.70
  -4   3  -9   44.70    3.90
  -4   3  -9   47.70    4.50
  -4   3  -9   50.49    4.80
   4  -3   9   48.40    3.80
   4  -3   9   47.00    3.80
  -5   3  -9   -3.70    2.10
  -5   3  -9   -4.50    2.60
  -5   3  -9   -0.10    3.20
  -5   3  -9    1.60    3.00
  -5   3  -9    3.50    3.10
   5  -3   9   -0.90    3.00
   5  -3   9   -1.00    1.40
   5  -3   9    1.20    1.40
  -6   3  -9   14.70    3.10
  -6   3  -9   11.50    4.10
  -6   3  -9   22.30    4.00
  -6   3  -9   14.70    4.10
  -6   3  -9   17.70    3.50
   6  -3   9   17.60    3.60
   7   2  -9    4.60    3.60
   7   2  -9    0.40    3.90
  -7  -2   9   10.90    3.90
  -7  -2   9    6.40    4.00
  -7  -2   9    3.00    4.90
   6   2  -9   20.30    3.40
   6   2  -9   18.60    4.00
   6   2  -9   29.90    3.70
  -6  -2   9   24.20    4.90
  -6  -2   9   25.20    3.70
  -6  -2   9   31.40    4.20
  -6  -2   9   22.70    4.80
   5   2  -9   16.20    2.90
   5   2  -9   10.70    3.00
   5   2  -9   13.10    3.30
   5   2  -9   15.70    1.70
  -5  -2   9   12.40    3.60
  -5  -2   9   12.30    3.10
  -5  -2   9   14.30    3.50
   4   2  -9    4.40    2.10
   4   2  -9    5.10    1.50
   4   2  -9    6.10    2.70
   4   2  -9    5.00    2.70
  -4  -2   9    2.90    2.60
  -4  -2   9    7.90    3.30
  -4  -2   9    3.10    2.60
   3   2  -9   14.80    2.50
   3   2  -9   16.20    2.70
   3   2  -9   16.70    3.20
   3   2  -9   17.00    2.00
  -3  -2   9   14.10    2.60
  -3  -2   9   12.80    2.50
   2   2  -9   50.49    3.90
   2   2  -9   48.10    3.00
   2   2  -9   48.70    4.50
   2   2  -9   50.29    3.80
  -2  -2   9   48.00    3.80
  -2  -2   9   46.20    4.00
  -2  -2   9   40.30    3.40
   1   2  -9    2.00    2.30
   1   2  -9    1.40    1.90
   1   2  -9   -0.50    1.40
   1   2  -9    0.40    2.00
  -1  -2   9    0.00    2.10
  -1  -2   9    1.30    1.80
  -1  -2   9    0.80    2.00
  -1  -2   9    1.60    2.30
   0   2  -9    3.20    1.80
   0   2  -9    6.10    2.10
   0   2  -9    4.70    3.50
   0   2  -9    6.30    2.40
   0  -2   9    6.30    2.20
   0  -2   9    4.90    2.10
   0  -2   9    3.20    1.90
   0  -2   9    3.90    2.50
  -1   2  -9  137.79    5.70
  -1   2  -9  141.49    5.70
  -1   2  -9  145.49    6.00
  -1   2  -9  146.19    5.60
   1  -2   9  146.99    5.90
   1  -2   9  141.79    5.70
   1  -2   9  143.99    5.50
   1  -2   9  146.59    5.40
  -2   2  -9  105.79    4.90
  -2   2  -9  104.89    5.40
  -2   2  -9  108.09    5.20
  -2   2  -9   99.09    5.20
   2  -2   9  100.49    4.50
   2  -2   9  104.79    5.40
   2  -2   9  105.69    5.20
   2  -2   9   95.69    4.80
  -3   2  -9    8.70    2.50
  -3   2  -9    6.50    1.90
  -3   2  -9    4.30    2.60
  -3   2  -9    9.70    2.70
   3  -2   9   12.70    2.90
   3  -2   9    8.20    3.20
   3  -2   9   10.50    2.10
  -4   2  -9    2.40    2.80
  -4   2  -9   -0.70    2.80
  -4   2  -9    2.80    2.70
  -4   2  -9    1.30    3.20
   4  -2   9    1.30    2.70
   4  -2   9    2.00    2.50
  -5   2  -9   49.10    4.40
  -5   2  -9   33.40    4.10
  -5   2  -9   44.90    4.30
  -5   2  -9   42.70    4.40
   5  -2   9   35.90    3.70
   5  -2   9   39.30    3.60
   5  -2   9   41.60    3.90
   5  -2   9   41.90    3.90
  -6   2  -9   28.30    4.10
  -6   2  -9   32.70    4.80
  -6   2  -9   31.60    4.50
  -6   2  -9   35.10    5.20
   6  -2   9   32.60    3.70
   7   1  -9   18.30    4.10
   7   1  -9   18.40    3.80
  -7  -1   9   20.00    6.90
  -7  -1   9   10.60    4.30
  -7  -1   9   21.20    4.80
   6   1  -9    9.50    3.20
   6   1  -9    8.30    3.50
  -6  -1   9    3.60    4.10
  -6  -1   9    6.10    4.30
  -6  -1   9    7.60    3.60
  -6  -1   9   10.70    3.80
   5   1  -9    4.80    1.50
   5   1  -9    5.70    2.90
   5   1  -9    5.00    2.80
   5   1  -9    3.50    3.00
  -5  -1   9    2.30    3.60
  -5  -1   9    2.90    3.70
  -5  -1   9    8.30    4.40
  -5  -1   9    4.10    3.00
   4   1  -9   66.89    5.40
   4   1  -9   71.89    3.40
   4   1  -9   72.89    4.80
   4   1  -9   77.09    5.20
  -4  -1   9   71.79    5.30
  -4  -1   9   82.39    5.30
  -4  -1   9   64.09    5.60
   3   1  -9   73.29    3.60
   3   1  -9   64.19    4.90
   3   1  -9   72.89    4.70
   3   1  -9   79.99    5.50
  -3  -1   9   76.89    4.90
  -3  -1   9   77.09    4.90
   2   1  -9   24.00    3.20
   2   1  -9   27.10    3.10
   2   1  -9   26.30    2.40
   2   1  -9   22.50    2.60
  -2  -1   9   26.30    3.00
  -2  -1   9   27.60    3.10
   1   1  -9    0.40    2.10
   1   1  -9    0.50    2.50
   1   1  -9   -0.30    2.20
   1   1  -9   -1.50    1.40
  -1  -1   9    1.30    1.90
  -1  -1   9   -1.10    2.50
  -1  -1   9   -1.00    2.50
  -1  -1   9   -0.20    2.00
  -1  -1   9   -1.40    1.40
   0   1  -9  136.89    5.70
   0   1  -9  138.49    5.90
   0   1  -9  141.69    5.40
   0  -1   9  140.59    5.60
   0  -1   9  134.09    5.20
   0  -1   9  147.99    5.70
   0  -1   9  130.99    6.00
   0  -1   9  127.89    5.90
  -1   1  -9  103.69    5.50
  -1   1  -9  106.49    4.80
  -1   1  -9  109.99    5.50
   1  -1   9  111.79    5.60
   1  -1   9  109.49    5.60
   1  -1   9   99.99    4.90
   1  -1   9  102.89    4.70
  -2   1  -9   34.50    3.30
  -2   1  -9   35.60    3.70
  -2   1  -9   38.00    3.70
  -2   1  -9   35.00    3.60
   2  -1   9   34.70    3.60
   2  -1   9   36.90    3.10
   2  -1   9   36.60    3.50
   2  -1   9   35.80    3.40
  -3   1  -9   -1.20    2.60
  -3   1  -9    4.60    2.60
  -3   1  -9   -0.90    2.00
  -3   1  -9    1.40    2.70
   3  -1   9    0.80    2.70
   3  -1   9   -0.40    2.10
   3  -1   9    1.90    2.70
  -4   1  -9   68.59    6.20
  -4   1  -9   50.19    4.40
  -4   1  -9   70.79    5.10
  -4   1  -9   75.89    5.80
   4  -1   9   59.09    6.40
   4  -1   9   66.79    4.60
   4  -1   9   65.59    5.40
  -5   1  -9   30.10    4.50
  -5   1  -9   31.90    3.80
  -5   1  -9   28.30    4.60
  -5   1  -9   24.20    4.20
   5  -1   9   31.10    4.30
   5  -1   9   28.90    3.20
   5  -1   9   24.70    3.70
   5  -1   9   26.20    3.30
  -6   1  -9    3.00    6.20
  -6   1  -9    0.90    4.30
  -6   1  -9   -2.80    4.70
  -6   1  -9    0.10    3.10
   6  -1   9    0.50    2.20
   6  -1   9   -1.10    4.20
   6  -1   9    2.20    2.30
   7   0  -9    4.20    4.10
   7   0  -9    4.50    3.60
  -7   0   9    3.10    4.20
  -7   0   9    7.60    4.40
   6   0  -9   -2.30    3.20
   6   0  -9   -2.30    3.40
  -6   0   9   -6.40    4.40
  -6   0   9    4.90    3.70
  -6   0   9   -0.40    3.60
  -6   0   9    3.00    4.40
   5   0  -9   34.80    4.00
   5   0  -9   43.00    4.00
   5   0  -9   33.00    3.90
  -5   0   9   41.90    4.70
  -5   0   9   32.70    3.80
  -5   0   9   35.10    4.00
  -5   0   9   35.90    4.80
   4   0  -9    8.60    3.20
   4   0  -9   12.40    2.90
   4   0  -9   13.10    2.20
   4   0  -9   -0.60    2.30
  -4   0   9    1.20    3.10
  -4   0   9    8.80    3.20
  -4   0   9    7.00    3.50
  -4   0   9    6.90    3.40
   3   0  -9   18.40    2.30
   3   0  -9   19.80    3.00
   3   0  -9   18.50    3.50
  -3   0   9   17.10    2.90
  -3   0   9   17.40    3.00
  -3   0   9   18.40    2.20
   2   0  -9    1.10    1.60
   2   0  -9   -1.80    2.10
   2   0  -9    0.90    2.30
   2   0  -9    1.30    2.80
  -2   0   9   -2.30    2.20
  -2   0   9    1.60    2.20
  -2   0   9    0.40    1.40
   1   0  -9   55.99    3.80
   1   0  -9   58.59    5.10
   1   0  -9   63.49    4.70
   1   0  -9   52.59    4.60
  -1   0   9   63.49    5.40
  -1   0   9   57.69    4.90
  -1   0   9   58.09    3.60
  -1   0   9   58.69    4.50
  -1   0   9   56.49    4.40
   0   0  -9   10.80    2.50
   0   0  -9   15.40    2.60
   0   0  -9   14.00    2.90
   0   0   9   18.00    2.80
   0   0   9    9.70    2.80
   0   0   9   11.90    3.00
   0   0   9   11.30    2.10
  -1   0  -9    3.40    2.70
  -1   0  -9    2.00    2.00
  -1   0  -9    2.90    2.40
   1   0   9    1.20    2.70
   1   0   9    2.80    3.00
   1   0   9    2.20    1.80
   1   0   9   -0.20    2.10
  -2   0  -9   48.70    4.00
  -2   0  -9   60.89    4.30
  -2   0  -9   40.90    3.70
  -2   0  -9   55.29    5.00
   2   0   9   54.19    5.20
   2   0   9   53.59    4.40
   2   0   9   48.70    4.10
   2   0   9   55.39    4.40
  -3   0  -9   33.90    4.10
  -3   0  -9   39.30    4.20
  -3   0  -9   43.20    4.50
  -3   0  -9   47.20    4.40
   3   0   9   43.80    3.50
   3   0   9   42.50    4.00
   3   0   9   42.80    4.30
  -4   0  -9   12.90    4.10
  -4   0  -9   12.40    3.10
  -4   0  -9   11.00    6.20
  -4   0  -9    9.20    3.70
   4   0   9   13.50    3.50
   4   0   9    9.60    3.00
   4   0   9   16.70    3.20
   4   0   9   14.70    3.80
  -5   0  -9    2.40    4.20
  -5   0  -9   -2.20    3.10
  -5   0  -9   -0.90    4.70
  -5   0  -9   -1.00    4.50
   5   0   9   -1.10    3.20
   5   0   9    0.80    3.70
   5   0   9    1.70    3.40
   6  -1  -9   13.40    4.00
   6  -1  -9    9.90    3.60
  -6   1   9   10.40    4.10
  -6   1   9   14.00    4.20
   5  -1  -9   17.70    3.90
   5  -1  -9   23.60    3.70
   5  -1  -9   16.70    4.10
  -5   1   9   23.90    4.00
  -5   1   9   25.30    4.90
  -5   1   9   18.90    3.70
  -5   1   9   20.30    4.40
   4  -1  -9    4.30    2.20
   4  -1  -9    0.90    2.90
   4  -1  -9    5.30    3.50
   4  -1  -9    0.20    3.00
  -4   1   9    6.10    3.60
  -4   1   9    2.80    1.60
  -4   1   9    2.10    3.80
  -4   1   9    4.80    2.80
  -4   1   9    1.30    3.20
   3  -1  -9   34.10    3.50
   3  -1  -9   33.90    6.20
   3  -1  -9   24.70    3.40
  -3   1   9   28.60    2.70
  -3   1   9   24.60    4.70
  -3   1   9   22.70    4.80
   2  -1  -9   64.79    5.40
   2  -1  -9   68.29    4.20
  -2   1   9   67.59    5.10
  -2   1   9   71.79    5.10
  -2   1   9   59.69    3.80
   1  -1  -9   17.40    2.70
   1  -1  -9   15.40    3.00
  -1   1   9   15.00    3.00
  -1   1   9   16.70    2.60
  -1   1   9    9.50    2.70
   0  -1  -9    2.50    2.70
   0  -1  -9    3.90    2.00
   0  -1  -9   -0.40    2.80
   0   1   9    6.40    2.50
   0   1   9    3.50    3.30
   0   1   9    5.20    2.00
  -1  -1  -9   63.79    4.50
  -1  -1  -9   59.99    5.50
  -1  -1  -9   68.79    5.80
   1   1   9   58.49    4.60
   1   1   9   67.99    4.90
   1   1   9   60.39    5.50
  -2  -1  -9   56.19    4.70
  -2  -1  -9   64.89    6.30
  -2  -1  -9   61.59    6.80
   2   1   9   68.49    5.10
   2   1   9   68.79    5.00
   2   1   9   55.89    4.40
  -3  -1  -9   19.10    3.30
  -3  -1  -9   13.90    3.90
  -3  -1  -9   14.70    4.10
  -3  -1  -9   15.80    3.70
   3   1   9   16.20    3.70
   3   1   9   13.80    2.70
   3   1   9   14.10    4.30
  -4  -1  -9    2.70    4.50
  -4  -1  -9    3.00    3.80
  -4  -1  -9    0.00    4.30
  -4  -1  -9    2.10    2.70
   4   1   9    5.60    4.40
   4   1   9    4.20    3.30
   4   1   9    0.40    3.60
  -5  -1  -9   15.30    4.90
  -5  -1  -9   22.40    4.20
   5   1   9   19.10    4.20
   5   1   9   14.70    4.00
   5   1   9   12.40    4.80
   6  -2  -9   11.10    4.00
   6  -2  -9    7.90    4.10
  -6   2   9    2.90    4.50
  -6   2   9   17.20    4.40
   5  -2  -9   -4.30    3.70
   5  -2  -9   -3.00    3.60
  -5   2   9   -2.70    1.90
  -5   2   9    3.60    3.70
  -5   2   9    0.00    3.60
   4  -2  -9   11.40    3.50
   4  -2  -9   12.80    2.60
   4  -2  -9   11.80    3.70
  -4   2   9   18.60    5.10
  -4   2   9   14.20    2.40
  -4   2   9    8.80    3.80
  -4   2   9    9.80    4.00
  -4   2   9   10.20    3.30
   3  -2  -9   25.40    3.70
   3  -2  -9   23.50    3.00
   3  -2  -9   36.10    4.20
  -3   2   9   35.20    4.20
  -3   2   9   28.00    4.60
  -3   2   9   26.50    2.90
  -3   2   9   26.70    4.00
  -3   2   9   29.00    4.70
   2  -2  -9   -1.20    3.90
   2  -2  -9   10.00    5.70
   2  -2  -9    3.80    2.40
  -2   2   9    2.60    3.40
  -2   2   9    5.90    3.10
  -2   2   9    3.00    2.90
  -2   2   9    6.10    2.10
   1  -2  -9    0.50    2.30
   1  -2  -9    1.10    3.80
   1  -2  -9    1.40    3.40
  -1   2   9    3.00    2.70
  -1   2   9   -1.30    2.40
  -1   2   9   -0.10    1.90
  -1   2   9    1.60    3.50
  -1   2   9    0.80    3.80
   0  -2  -9    1.30    3.50
   0  -2  -9   15.00    3.40
   0  -2  -9   19.80    3.30
   0  -2  -9   21.20    4.00
   0   2   9   18.90    3.30
   0   2   9   16.70    4.00
   0   2   9   10.90    2.30
  -1  -2  -9   13.10    3.80
  -1  -2  -9   11.80    3.90
  -1  -2  -9    1.40    3.50
  -1  -2  -9   11.80    3.00
   1   2   9   17.20    4.50
   1   2   9   12.00    2.90
   1   2   9   10.70    3.10
  -2  -2  -9   -1.60    3.60
  -2  -2  -9    3.50    4.30
  -2  -2  -9    2.00    3.60
  -2  -2  -9    8.00    2.70
   2   2   9    3.40    3.70
   2   2   9   -5.50    2.80
   2   2   9    8.60    4.60
   2   2   9   -0.30    2.90
  -3  -2  -9    7.20    3.00
  -3  -2  -9    2.30    4.50
   3   2   9   10.40    5.10
   3   2   9    7.70    3.90
  -4  -2  -9   17.90    5.00
  -4  -2  -9   21.70    4.40
   4   2   9   11.10    4.30
   4   2   9   20.80    4.40
   4   2   9    3.10    5.60
   5  -3  -9    9.70    4.10
   5  -3  -9    9.30    7.30
  -5   3   9    8.90    4.70
  -5   3   9    5.00    4.20
  -5   3   9    6.70    2.60
   4  -3  -9   22.80    4.50
  -4   3   9   19.10    4.40
  -4   3   9   16.80    4.00
  -4   3   9   22.40    2.90
   3  -3  -9    4.50    3.80
   3  -3  -9    6.40    2.80
   3  -3  -9    5.50    4.50
  -3   3   9    2.90    3.60
  -3   3   9    5.10    2.60
  -3   3   9    2.60    3.50
   2  -3  -9    1.30    2.80
   2  -3  -9    2.70    3.70
   2  -3  -9   -1.30    3.70
   2  -3  -9    0.20    4.10
  -2   3   9    3.50    3.50
  -2   3   9    1.50    4.50
  -2   3   9    4.40    4.50
  -2   3   9    0.60    2.50
  -2   3   9    3.60    3.40
   1  -3  -9   41.70    4.30
   1  -3  -9   31.90    4.40
   1  -3  -9   38.40    5.30
   1  -3  -9   33.40    4.50
  -1   3   9   32.20    4.60
  -1   3   9   34.20    5.00
  -1   3   9   29.50    3.30
  -1   3   9   33.10    4.00
   0  -3  -9   23.70    4.50
   0  -3  -9   21.20    4.90
   0  -3  -9   24.50    3.80
   0  -3  -9   22.70    4.70
   0   3   9   25.30    3.70
   0   3   9   23.20    3.70
   0   3   9   11.80    4.90
   0   3   9   23.70    4.80
  -1  -3  -9   -1.80    4.10
  -1  -3  -9    2.10    3.10
   1   3   9   -0.90    4.30
   1   3   9    0.60    3.00
   1   3   9    0.50    3.30
   1   3   9   -2.90    4.90
  -2  -3  -9   14.50    3.90
  -2  -3  -9   18.80    4.60
   2   3   9   16.60    4.10
   2   3   9   10.80    5.70
  -3  -3  -9   11.40    4.20
  -3  -3  -9    7.50    5.40
   3   3   9   12.30    6.50
   3   3   9   15.00    4.60
   4  -4  -9    4.70    5.20
   4  -4  -9    2.40    4.70
  -4   4   9    4.80    4.60
  -4   4   9    4.70    4.40
  -4   4   9   -1.20    3.00
   3  -4  -9    3.10    4.50
   3  -4  -9    6.60    5.40
  -3   4   9    3.30    3.10
  -3   4   9    7.40    4.40
  -3   4   9   -2.00    3.70
   2  -4  -9   12.40    4.20
   2  -4  -9   14.50    4.90
   2  -4  -9   12.80    5.50
  -2   4   9   16.90    4.70
  -2   4   9   16.50    3.70
   1  -4  -9    1.30    4.40
   1  -4  -9    3.60    3.40
  -1   4   9    3.70    3.50
  -1   4   9    4.50    3.50
   0  -4  -9   -0.60    3.40
   0  -4  -9   -0.10    5.00
   0   4   9    2.30    3.90
   0   4   9   -2.20    3.90
   0   4   9   -3.20    4.80
  -1  -4  -9   -3.70    5.00
  -1  -4  -9    5.00    4.10
   1   4   9    5.50    5.20
   1   4   9   -2.80    4.00
   0  11 -10   25.40    4.90
   0  11 -10   25.20    5.70
   0 -11  10   29.90    4.60
  -1  11 -10   15.40    4.80
  -1  11 -10   13.10    4.80
   1 -11  10    9.70    4.20
   1 -11  10   13.10    4.00
  -2  11 -10    6.60    4.50
  -2  11 -10   -5.10    4.60
   2 -11  10    1.50    3.10
   2  10 -10   16.30    4.70
   2  10 -10   11.30    4.90
  -2 -10  10   16.80    3.10
  -2 -10  10   14.70    4.60
  -2 -10  10   14.70    5.80
   1  10 -10   33.00    4.90
   1  10 -10   25.70    5.10
  -1 -10  10   30.00    4.50
  -1 -10  10   27.50    2.80
  -1 -10  10   22.20    5.00
   0  10 -10    7.50    4.10
   0  10 -10   -0.80    4.00
   0 -10  10    0.20    3.50
  -1  10 -10   12.00    3.90
  -1  10 -10    0.30    4.00
  -1  10 -10    7.80    5.00
   1 -10  10    9.30    3.20
   1 -10  10    8.30    3.60
  -2  10 -10   22.70    3.60
  -2  10 -10   25.20    4.40
  -2  10 -10   31.70    5.10
  -2  10 -10   21.20    5.10
   2 -10  10   24.30    3.10
   2 -10  10   23.90    3.40
  -3  10 -10   15.20    4.60
  -3  10 -10   21.70    4.80
  -3  10 -10   26.50    3.70
  -3  10 -10   15.00    5.30
   3 -10  10   18.80    1.80
   3 -10  10   18.80    1.90
  -4  10 -10   -2.40    4.80
  -4  10 -10    1.70    4.80
  -4  10 -10    1.50    3.20
  -4  10 -10    5.00    5.40
   4   9 -10    8.20    4.80
   4   9 -10    6.60    4.90
  -4  -9  10   12.00    5.00
  -4  -9  10    8.20    3.80
   3   9 -10   31.80    4.70
   3   9 -10   50.49    5.40
  -3  -9  10   34.00    8.50
  -3  -9  10   30.00    3.80
  -3  -9  10   31.40    4.80
   2   9 -10   22.30    4.40
   2   9 -10   23.00    4.20
  -2  -9  10   20.40    3.00
  -2  -9  10   24.30    4.40
  -2  -9  10   28.70    5.80
  -2  -9  10   16.70    4.70
   1   9 -10    1.20    3.70
   1   9 -10    2.00    3.40
   1   9 -10    2.60    4.20
  -1  -9  10    1.50    2.30
  -1  -9  10   -1.30    3.70
  -1  -9  10    3.50    4.80
  -1  -9  10    2.00    4.10
   0   9 -10   17.40    3.70
   0   9 -10   21.80    4.60
   0   9 -10   14.80    4.00
   0  -9  10    9.90    3.80
   0  -9  10   10.30    4.40
   0  -9  10   21.90    3.60
   0  -9  10   17.30    2.20
  -1   9 -10   72.99    5.10
  -1   9 -10   65.59    5.60
  -1   9 -10   70.59    5.70
  -1   9 -10   64.89    5.60
   1  -9  10   58.89    5.40
   1  -9  10   69.09    5.30
   1  -9  10   58.29    4.50
  -2   9 -10   46.50    5.00
  -2   9 -10   36.20    4.20
  -2   9 -10   45.60    4.80
  -2   9 -10   50.39    4.90
   2  -9  10   42.00    3.50
   2  -9  10   45.40    3.40
   2  -9  10   44.30    5.50
  -3   9 -10    2.40    3.40
  -3   9 -10    1.50    4.20
  -3   9 -10    0.50    2.30
  -3   9 -10    0.10    3.70
   3  -9  10  -10.10    5.00
   3  -9  10    1.10    1.80
  -4   9 -10   26.00    3.60
  -4   9 -10   25.20    4.30
  -4   9 -10   26.60    5.00
  -4   9 -10   25.80    4.70
  -5   9 -10   16.60    4.90
  -5   9 -10   21.10    4.10
   4   8 -10   25.80    4.70
   4   8 -10   21.20    3.00
   4   8 -10   25.00    4.90
  -4  -8  10   22.20    4.50
  -4  -8  10   21.30    3.70
  -4  -8  10   18.00    5.30
   3   8 -10   39.70    6.00
   3   8 -10   52.99    5.10
   3   8 -10   42.30    4.60
   3   8 -10   60.19    4.50
  -3  -8  10   45.50    3.90
  -3  -8  10   39.80    4.80
  -3  -8  10   33.80    4.90
  -3  -8  10   35.60    5.40
   2   8 -10   -4.20    4.00
   2   8 -10    5.20    2.30
   2   8 -10    1.10    3.30
   2   8 -10    2.20    3.20
  -2  -8  10   -1.50    2.50
  -2  -8  10    1.10    3.20
  -2  -8  10    3.10    3.70
  -2  -8  10   -1.30    3.80
   1   8 -10   35.30    4.30
   1   8 -10   33.80    4.20
   1   8 -10   42.90    4.10
  -1  -8  10   28.50    4.20
  -1  -8  10   31.30    3.80
  -1  -8  10   32.10    3.00
   0   8 -10   48.50    4.50
   0   8 -10   41.60    5.40
   0   8 -10   56.99    4.50
   0   8 -10   41.90    4.70
   0  -8  10   45.40    4.20
   0  -8  10   47.30    3.90
   0  -8  10   44.10    3.60
  -1   8 -10   17.90    1.90
  -1   8 -10   11.00    3.20
  -1   8 -10   12.50    3.40
  -1   8 -10   13.30    3.80
  -1   8 -10   22.70    4.30
   1  -8  10   19.30    3.00
   1  -8  10   16.30    3.20
   1  -8  10   23.30    4.50
  -2   8 -10   -0.10    2.90
  -2   8 -10    2.40    2.10
  -2   8 -10    4.80    3.30
  -2   8 -10   -0.70    1.40
  -2   8 -10   -1.30    3.50
   2  -8  10   -3.30    4.00
   2  -8  10    1.90    2.60
   2  -8  10    1.10    2.30
  -3   8 -10   23.70    1.90
  -3   8 -10   23.20    4.30
  -3   8 -10   28.80    4.40
  -3   8 -10   27.30    3.80
  -3   8 -10   27.90    3.80
   3  -8  10   23.80    2.20
   3  -8  10   22.20    4.70
   3  -8  10   23.40    2.40
  -4   8 -10   36.10    4.60
  -4   8 -10   39.40    4.20
  -4   8 -10   34.20    4.70
  -4   8 -10   36.20    4.30
  -4   8 -10   35.60    3.10
   4  -8  10   30.00    5.20
  -5   8 -10    2.10    2.20
  -5   8 -10    1.00    3.70
  -5   8 -10    8.20    4.60
  -5   8 -10   -2.50    3.00
  -5   8 -10   -2.40    4.10
   5  -8  10   -1.00    4.80
   5   7 -10   24.20    4.70
   5   7 -10   30.10    5.00
   5   7 -10   28.60    3.20
  -5  -7  10   23.20    4.90
  -5  -7  10   24.40    6.20
  -5  -7  10   20.60    4.10
   4   7 -10   13.70    4.10
   4   7 -10   13.30    4.10
   4   7 -10   18.10    2.70
   4   7 -10    9.90    5.10
  -4  -7  10   19.30    3.50
  -4  -7  10   13.00    4.70
  -4  -7  10   12.90    7.70
  -4  -7  10   12.10    3.90
   3   7 -10    5.60    3.40
   3   7 -10    6.20    4.10
   3   7 -10    8.70    2.30
   3   7 -10    4.50    3.50
  -3  -7  10    0.70    3.20
  -3  -7  10   10.80    4.20
  -3  -7  10    4.40    2.80
  -3  -7  10    3.30    4.10
   2   7 -10   35.60    3.80
   2   7 -10   40.60    4.20
   2   7 -10   29.50    3.90
  -2  -7  10   38.30    3.30
  -2  -7  10   46.90    7.80
  -2  -7  10   44.60    4.90
   1   7 -10   89.79    5.90
   1   7 -10   90.89    4.80
   1   7 -10   77.49    4.70
  -1  -7  10   85.09    4.50
  -1  -7  10   81.99    5.50
  -1  -7  10   91.49    6.40
   0   7 -10    6.80    3.00
   0   7 -10    4.90    1.80
   0   7 -10    4.90    3.30
   0   7 -10    0.00    3.10
   0   7 -10    3.60    2.00
   0  -7  10    2.70    1.90
   0  -7  10    1.40    2.80
   0  -7  10    3.90    2.50
  -1   7 -10   22.90    3.50
  -1   7 -10   30.10    3.70
  -1   7 -10   22.50    3.60
  -1   7 -10   24.60    2.90
  -1   7 -10   24.70    2.30
   1  -7  10   14.10    3.30
   1  -7  10   23.50    3.20
   1  -7  10   29.00    3.10
  -2   7 -10   96.99    5.80
  -2   7 -10   98.59    6.10
  -2   7 -10   92.39    6.40
  -2   7 -10   93.29    4.10
   2  -7  10  105.49    5.20
   2  -7  10  106.89    4.80
   2  -7  10   81.29    6.80
  -3   7 -10   56.29    4.40
  -3   7 -10   61.99    4.80
  -3   7 -10   48.60    5.60
  -3   7 -10   50.19    3.60
  -3   7 -10   53.59    4.70
   3  -7  10   50.69    3.90
   3  -7  10   53.19    5.10
   3  -7  10   55.09    3.50
  -4   7 -10   -0.20    3.70
  -4   7 -10    1.00    6.30
  -4   7 -10   -2.70    2.30
  -4   7 -10   -2.50    2.20
  -4   7 -10   -3.30    3.00
   4  -7  10    3.30    4.10
  -5   7 -10   18.00    4.20
  -5   7 -10   16.70    4.50
  -5   7 -10   25.20    3.70
  -5   7 -10   17.60    3.90
  -5   7 -10   17.80    3.10
   5  -7  10   14.90    4.80
  -6  -6  10   18.10    4.50
   5   6 -10    3.70    2.20
   5   6 -10    6.60    3.80
   5   6 -10    9.80    5.00
  -5  -6  10   15.40    3.60
  -5  -6  10    4.20    3.90
  -5  -6  10    9.70    5.20
   4   6 -10    4.90    4.10
   4   6 -10   11.90    2.20
   4   6 -10    3.60    3.60
   4   6 -10    8.20    3.70
  -4  -6  10    6.50    3.90
  -4  -6  10    3.10    3.20
  -4  -6  10    9.40    3.30
  -4  -6  10    8.00    4.20
   3   6 -10   50.29    4.90
   3   6 -10   43.90    4.40
   3   6 -10   29.50    5.70
   3   6 -10   46.30    3.60
   3   6 -10   45.10    3.70
  -3  -6  10   45.30    4.80
  -3  -6  10   45.80    4.80
  -3  -6  10   41.60    3.60
  -3  -6  10   37.60    4.20
   2   6 -10   63.99    5.30
   2   6 -10   73.09    4.30
   2   6 -10   79.69    4.40
   2   6 -10   76.29    5.60
  -2  -6  10   67.89    6.30
  -2  -6  10   73.79    5.50
  -2  -6  10   70.89    4.70
   1   6 -10   24.20    2.60
   1   6 -10   24.20    3.30
   1   6 -10   22.40    2.50
   1   6 -10   20.30    3.20
  -1  -6  10   25.60    2.80
  -1  -6  10   23.90    3.30
  -1  -6  10   25.50    3.70
   0   6 -10    2.90    2.60
   0   6 -10    5.70    2.10
   0   6 -10    2.50    1.80
   0   6 -10   -1.10    2.40
   0   6 -10    2.60    2.90
   0  -6  10    4.20    2.50
   0  -6  10    2.80    2.00
   0  -6  10    3.00    2.80
  -1   6 -10   80.49    5.80
  -1   6 -10   81.89    4.60
  -1   6 -10   81.49    5.30
  -1   6 -10   82.19    4.00
  -1   6 -10   74.49    5.30
   1  -6  10   76.59    4.70
   1  -6  10   81.19    5.20
  -2   6 -10   54.69    5.10
  -2   6 -10   47.10    4.00
  -2   6 -10   48.00    3.70
  -2   6 -10   56.09    4.30
  -2   6 -10   49.40    4.30
   2  -6  10   52.49    4.00
   2  -6  10   46.40    3.50
  -3   6 -10    4.00    2.90
  -3   6 -10    1.10    1.90
  -3   6 -10    2.50    2.90
  -3   6 -10    5.50    3.40
  -3   6 -10    2.20    2.20
   3  -6  10    3.50    1.90
   3  -6  10    5.20    2.30
  -4   6 -10   22.50    4.20
  -4   6 -10   31.10    3.90
  -4   6 -10   30.90    3.90
  -4   6 -10   24.10    3.60
  -4   6 -10   23.70    5.50
   4  -6  10   22.30    2.20
  -5   6 -10   33.10    4.60
  -5   6 -10   32.90    3.70
  -5   6 -10   29.60    4.10
  -5   6 -10   31.70    3.90
  -5   6 -10   34.60    4.10
   5  -6  10    7.30    4.90
  -6   6 -10    8.10    4.00
  -6   6 -10    4.80    3.30
  -6   6 -10   10.20    4.80
  -6   6 -10    2.50    3.90
  -6   6 -10   -1.20    3.70
   6  -6  10    1.30    4.70
   6   5 -10    1.20    4.90
   6   5 -10    3.80    1.70
   6   5 -10    4.30    4.30
  -6  -5  10    3.80    5.80
  -6  -5  10    3.30    4.00
  -6  -5  10   -1.40    4.40
   5   5 -10   10.80    2.00
   5   5 -10    8.60    4.70
   5   5 -10    9.00    3.60
  -5  -5  10   13.00    3.50
  -5  -5  10    8.70    3.70
  -5  -5  10    8.40    5.10
   4   5 -10   28.30    4.10
   4   5 -10   36.20    4.00
   4   5 -10   37.00    3.10
   4   5 -10   43.30    3.90
  -4  -5  10   38.00    4.90
  -4  -5  10   44.40    4.20
  -4  -5  10   38.20    3.90
  -4  -5  10   32.30    4.40
   3   5 -10   41.60    4.60
   3   5 -10   44.90    4.60
   3   5 -10   37.50    3.20
   3   5 -10   40.00    3.30
  -3  -5  10   28.70    4.90
  -3  -5  10   43.70    4.50
  -3  -5  10   43.70    4.60
  -3  -5  10   38.40    3.50
   2   5 -10    4.20    2.90
   2   5 -10    3.80    2.80
   2   5 -10    3.70    1.80
   2   5 -10    4.60    2.20
  -2  -5  10    8.00    2.40
  -2  -5  10    4.40    2.60
  -2  -5  10   -1.50    2.80
   1   5 -10  131.09    5.20
   1   5 -10  129.79    6.20
   1   5 -10  127.69    6.10
   1   5 -10  126.59    5.30
  -1  -5  10  130.29    5.40
  -1  -5  10  134.09    5.90
  -1  -5  10  121.09    6.40
   0   5 -10   75.79    5.30
   0   5 -10   73.19    5.20
   0   5 -10   75.29    4.20
   0   5 -10   82.19    4.40
   0  -5  10   75.99    4.80
   0  -5  10   80.59    4.40
   0  -5  10   75.49    5.30
  -1   5 -10   -2.10    2.00
  -1   5 -10   -3.00    2.30
  -1   5 -10    0.00    3.00
  -1   5 -10   -0.20    1.60
  -1   5 -10    2.00    2.50
   1  -5  10    0.80    2.20
   1  -5  10    0.30    2.50
  -2   5 -10   14.10    3.00
  -2   5 -10   10.40    2.90
  -2   5 -10   10.80    3.20
  -2   5 -10   13.10    2.60
  -2   5 -10    8.50    2.30
   2  -5  10    9.20    2.30
   2  -5  10    8.40    3.00
  -3   5 -10   73.39    4.80
  -3   5 -10   75.39    6.00
  -3   5 -10   83.69    5.90
  -3   5 -10   88.99    5.80
  -3   5 -10   79.19    5.60
   3  -5  10   87.59    4.70
   3  -5  10   79.39    4.20
  -4   5 -10   50.49    4.40
  -4   5 -10   50.59    4.60
  -4   5 -10   58.29    4.80
  -4   5 -10   48.90    4.10
  -4   5 -10   46.40    3.80
   4  -5  10   41.30    3.40
  -5   5 -10    6.20    3.60
  -5   5 -10    2.00    4.00
  -5   5 -10    8.20    3.20
  -5   5 -10   -0.80    3.40
  -5   5 -10    3.10    3.20
  -6   5 -10    6.40    4.30
  -6   5 -10   -7.50    3.60
  -6   5 -10    5.20    3.90
  -6   5 -10    0.80    4.70
  -6   5 -10    5.60    3.50
   6   4 -10    7.20    4.80
   6   4 -10    9.20    3.80
  -6  -4  10    9.10    4.30
  -6  -4  10    9.40    5.40
  -6  -4  10   13.50    4.30
   5   4 -10   45.40    4.30
   5   4 -10   57.99    3.20
   5   4 -10   50.89    4.70
   5   4 -10   43.50    4.80
  -5  -4  10   42.50    5.40
  -5  -4  10   40.70    4.40
  -5  -4  10   48.40    4.60
  -5  -4  10   34.70    5.00
   4   4 -10   11.90    3.90
   4   4 -10   13.50    3.50
   4   4 -10   14.40    3.00
   4   4 -10   17.40    2.20
  -4  -4  10   17.30    3.30
  -4  -4  10   17.50    3.50
  -4  -4  10    8.70    4.00
   3   4 -10    0.10    2.80
   3   4 -10    1.40    1.70
   3   4 -10   -2.10    2.10
  -3  -4  10    0.20    2.90
  -3  -4  10   -0.10    3.30
  -3  -4  10   -0.50    3.10
  -3  -4  10   -1.10    2.30
   2   4 -10   63.59    5.10
   2   4 -10   63.19    3.80
   2   4 -10   62.79    5.00
   2   4 -10   66.39    4.40
  -2  -4  10   68.19    5.00
  -2  -4  10   67.79    4.70
   1   4 -10   75.39    4.20
   1   4 -10   72.59    4.50
   1   4 -10   83.89    5.20
   1   4 -10   78.99    5.10
  -1  -4  10   82.09    5.50
  -1  -4  10   80.09    5.00
  -1  -4  10   83.99    4.90
   0   4 -10  169.98    6.20
   0   4 -10  179.88    6.90
   0   4 -10  172.88    6.90
   0   4 -10  163.78    6.10
   0  -4  10  164.88    6.70
   0  -4  10  192.88   10.20
   0  -4  10  174.58    6.30
   0  -4  10  159.58    6.40
  -1   4 -10    3.00    2.60
  -1   4 -10    1.80    2.20
  -1   4 -10    1.80    2.50
  -1   4 -10    0.90    1.80
  -1   4 -10    1.50    2.80
   1  -4  10    0.10    2.20
   1  -4  10    0.20    2.80
   1  -4  10    1.70    2.60
  -2   4 -10   92.89    5.50
  -2   4 -10   94.59    5.50
  -2   4 -10   91.69    5.00
  -2   4 -10   86.09    6.00
  -2   4 -10   95.59    5.20
   2  -4  10   83.09    6.20
   2  -4  10   88.99    5.30
   2  -4  10   94.29    4.80
  -3   4 -10   48.90    3.90
  -3   4 -10   43.20    3.90
  -3   4 -10   48.30    4.30
  -3   4 -10   46.30    5.40
  -3   4 -10   48.40    4.00
   3  -4  10   45.50    4.10
   3  -4  10   45.30    3.50
   3  -4  10   44.70    3.80
  -4   4 -10   12.60    3.90
  -4   4 -10    6.00    2.60
  -4   4 -10   10.60    3.20
  -4   4 -10   11.80    3.30
  -4   4 -10   11.10    3.10
   4  -4  10   11.50    3.70
   4  -4  10   13.10    2.50
  -5   4 -10    8.30    4.20
  -5   4 -10   11.40    3.50
  -5   4 -10   12.70    3.80
  -5   4 -10    7.60    3.70
  -5   4 -10    8.10    3.00
   5  -4  10   15.50    4.10
  -6   4 -10   18.70    3.90
  -6   4 -10   12.60    4.60
  -6   4 -10   26.40    4.60
  -6   4 -10   18.50    5.00
  -6   4 -10   25.60    4.70
   6  -4  10   24.70    4.90
   6   3 -10   26.50    5.00
   6   3 -10   31.90    4.40
  -6  -3  10   27.70    4.50
  -6  -3  10   35.90    5.10
  -6  -3  10   32.50    6.40
   5   3 -10    7.90    4.10
   5   3 -10    7.60    3.10
   5   3 -10    7.70    3.40
   5   3 -10    8.80    1.80
  -5  -3  10    3.50    4.20
  -5  -3  10    4.80    3.50
  -5  -3  10    3.90    3.30
  -5  -3  10    7.30    4.40
   4   3 -10    7.60    1.80
   4   3 -10    0.40    4.00
   4   3 -10    8.10    3.00
  -4  -3  10    3.60    6.20
  -4  -3  10    8.90    4.10
  -4  -3  10    6.30    3.30
   3   3 -10   41.00    3.50
   3   3 -10   49.50    3.40
   3   3 -10   47.30    4.20
  -3  -3  10   54.39    4.90
  -3  -3  10   61.29    5.90
   2   3 -10   34.40    3.20
   2   3 -10   44.40    4.00
   2   3 -10   44.80    3.40
  -2  -3  10   42.60    3.80
  -2  -3  10   40.90    3.50
   1   3 -10   11.30    3.00
   1   3 -10    7.80    2.10
   1   3 -10   16.90    2.70
  -1  -3  10   11.00    2.50
  -1  -3  10    9.80    2.50
  -1  -3  10    7.50    3.00
   0   3 -10   91.79    5.50
   0   3 -10   92.49    5.00
   0   3 -10   86.49    4.60
   0  -3  10   88.19    5.00
   0  -3  10   79.89    7.10
   0  -3  10   87.79    5.60
   0  -3  10   86.49    5.00
  -1   3 -10   38.30    4.00
  -1   3 -10   33.00    3.40
  -1   3 -10   41.10    3.80
  -1   3 -10   37.10    3.50
  -1   3 -10   27.90    3.20
   1  -3  10   32.60    3.60
   1  -3  10   33.10    3.80
   1  -3  10   34.30    3.20
  -2   3 -10    8.80    2.80
  -2   3 -10    8.10    3.00
  -2   3 -10    6.50    3.30
  -2   3 -10    6.10    2.30
  -2   3 -10    8.80    2.80
   2  -3  10   10.30    3.30
   2  -3  10   10.40    3.00
   2  -3  10   10.00    2.50
  -3   3 -10   -0.50    2.90
  -3   3 -10   -2.30    2.60
  -3   3 -10   -1.70    3.10
  -3   3 -10    2.80    3.00
  -3   3 -10   -2.60    2.10
   3  -3  10   -2.60    3.20
   3  -3  10    1.00    2.20
   3  -3  10    0.20    2.60
  -4   3 -10   46.80    4.10
  -4   3 -10   46.10    4.50
  -4   3 -10   48.10    4.90
  -4   3 -10   46.00    4.40
  -4   3 -10   47.90    4.40
   4  -3  10   57.09    4.90
   4  -3  10   48.50    4.50
  -5   3 -10   29.60    4.60
  -5   3 -10   37.10    4.30
  -5   3 -10   27.20    4.90
  -5   3 -10   31.80    4.40
   5  -3  10   26.40    4.50
   5  -3  10   30.50    2.60
   5  -3  10   31.80    2.50
  -6   3 -10    5.00    5.10
  -6   3 -10    6.90    5.20
  -6   3 -10   11.40    4.70
  -6   3 -10    7.80    3.70
   6  -3  10    8.00    4.30
   6   2 -10   -5.50    4.90
   6   2 -10    1.50    3.80
  -6  -2  10    1.40    3.80
  -6  -2  10    4.00    4.10
   5   2 -10    4.10    3.10
   5   2 -10   12.20    4.00
   5   2 -10   -1.70    3.80
   5   2 -10   10.70    2.00
  -5  -2  10    5.00    3.40
  -5  -2  10    6.60    4.30
  -5  -2  10   12.30    4.80
  -5  -2  10   11.90    3.70
   4   2 -10   30.80    3.30
   4   2 -10   42.50    7.00
   4   2 -10   39.10    3.20
  -4  -2  10   47.70    4.40
  -4  -2  10   46.20    4.40
  -4  -2  10   45.80    5.00
   3   2 -10   52.79    3.50
   3   2 -10   56.99    4.40
   3   2 -10   60.19    5.00
  -3  -2  10   31.20    5.40
  -3  -2  10   55.79    5.30
   2   2 -10   -2.80    1.50
   2   2 -10    1.10    2.50
   2   2 -10   -1.50    2.70
  -2  -2  10    1.00    2.50
  -2  -2  10    1.10    2.50
   1   2 -10   76.39    4.30
   1   2 -10   75.19    5.20
   1   2 -10   72.09    5.40
  -1  -2  10   77.89    5.00
  -1  -2  10   79.29    5.20
   0   2 -10  125.29    6.10
   0   2 -10  122.69    6.10
   0   2 -10  141.99    5.70
   0  -2  10  128.59    6.40
   0  -2  10  134.89    5.90
   0  -2  10  128.69    5.90
  -1   2 -10  116.29    6.00
  -1   2 -10  117.19    6.10
  -1   2 -10  125.39    5.50
   1  -2  10  113.69    6.20
   1  -2  10  112.69    5.60
   1  -2  10  110.49    5.30
   1  -2  10  104.79    6.20
  -2   2 -10    0.20    2.80
  -2   2 -10    0.40    3.00
  -2   2 -10   -2.00    3.00
  -2   2 -10    3.90    2.10
   2  -2  10    0.30    2.10
   2  -2  10   -1.60    2.90
   2  -2  10   -2.10    2.30
   2  -2  10    0.50    3.30
  -3   2 -10   29.10    3.90
  -3   2 -10   28.10    3.20
  -3   2 -10   32.00    4.00
  -3   2 -10   28.20    3.70
   3  -2  10   27.00    3.70
   3  -2  10   23.40    2.90
   3  -2  10   29.70    3.90
   3  -2  10   33.10    3.20
  -4   2 -10   32.60    4.40
  -4   2 -10   40.00    4.40
  -4   2 -10   34.70    6.50
  -4   2 -10   29.90    4.40
   4  -2  10   35.50    4.20
   4  -2  10   35.60    4.90
   4  -2  10   35.30    4.30
  -5   2 -10   16.10    4.20
  -5   2 -10    9.20    4.40
  -5   2 -10    1.70    4.70
  -5   2 -10    8.70    3.40
   5  -2  10   11.40    3.30
   5  -2  10    6.70    3.00
   5  -2  10   10.50    4.10
   6   1 -10   13.20    4.20
  -6  -1  10    4.80    4.30
  -6  -1  10    9.40    4.50
   5   1 -10   26.20    4.70
   5   1 -10   29.90    2.50
  -5  -1  10   30.80    4.80
  -5  -1  10   28.50    6.10
  -5  -1  10   37.20    4.70
   4   1 -10   -2.30    4.60
   4   1 -10   19.40    6.70
   4   1 -10   21.60    3.80
   4   1 -10   25.00    2.60
  -4  -1  10   17.70    3.70
  -4  -1  10   18.80    3.80
  -4  -1  10   22.90    3.70
  -4  -1  10   20.40    4.10
   3   1 -10   13.20    4.00
   3   1 -10    4.10    2.90
   3   1 -10    1.30    4.40
   3   1 -10    5.90    2.10
  -3  -1  10    7.20    3.10
  -3  -1  10    5.40    3.00
   2   1 -10   22.60    2.70
   2   1 -10   20.40    3.30
   2   1 -10   23.40    3.40
   2   1 -10   -0.40    4.60
  -2  -1  10   20.50    5.40
  -2  -1  10   24.60    3.80
  -2  -1  10   21.30    3.50
   1   1 -10   27.80    3.60
   1   1 -10   20.20    2.70
   1   1 -10   24.40    3.60
  -1  -1  10   17.20    2.40
  -1  -1  10   22.30    3.00
  -1  -1  10   27.20    3.40
   0   1 -10   27.60    3.40
   0   1 -10   25.10    3.50
   0   1 -10   32.50    3.40
   0  -1  10   25.70    3.20
   0  -1  10   28.50    3.30
  -1   1 -10   15.30    2.90
  -1   1 -10   16.10    3.60
  -1   1 -10   -2.90    5.00
  -1   1 -10   13.30    3.40
   1  -1  10   13.10    3.60
   1  -1  10   16.50    3.00
   1  -1  10   11.50    2.60
  -2   1 -10   34.80    4.20
  -2   1 -10   38.60    4.30
  -2   1 -10   40.90    4.80
   2  -1  10   29.80    3.50
   2  -1  10   39.40    3.50
   2  -1  10   34.20    4.00
   2  -1  10   37.10    4.20
  -3   1 -10   17.40    3.20
  -3   1 -10   12.20    3.90
  -3   1 -10   18.50    3.80
  -3   1 -10   10.10    4.00
   3  -1  10   16.90    3.80
   3  -1  10   16.50    3.90
   3  -1  10   16.40    3.10
   3  -1  10   18.30    3.30
  -4   1 -10   -5.60    3.90
  -4   1 -10   -0.80    4.10
  -4   1 -10    2.60    2.90
  -4   1 -10   -3.10    4.20
   4  -1  10   -1.10    3.60
   4  -1  10    1.00    3.80
   4  -1  10    3.20    3.10
  -5   1 -10   16.10    3.70
  -5   1 -10    7.50    4.70
   5  -1  10   11.20    4.40
   5  -1  10   10.70    3.50
   6   0 -10   11.50    5.00
  -6   0  10   10.80    4.50
  -6   0  10    8.40    4.50
   5   0 -10    1.30    4.20
   5   0 -10    7.30    2.20
   5   0 -10    6.10    3.80
  -5   0  10    8.80    3.90
  -5   0  10   10.80    3.80
   4   0 -10    3.40    3.20
   4   0 -10    5.70    4.00
   4   0 -10    3.30    2.20
   4   0 -10    6.20    3.40
  -4   0  10    0.70    4.10
  -4   0  10    1.60    4.20
  -4   0  10    2.60    3.60
  -4   0  10    6.60    3.30
   3   0 -10   46.90    4.80
   3   0 -10   40.80    4.00
   3   0 -10   45.60    4.10
   3   0 -10   48.40    4.40
  -3   0  10   39.50    4.80
  -3   0  10   44.10    4.10
  -3   0  10   43.70    4.70
  -3   0  10   53.19    4.80
  -3   0  10   42.30    3.70
   2   0 -10   58.59    4.20
   2   0 -10   61.39    4.80
   2   0 -10   56.59    4.90
   2   0 -10   48.30    4.20
  -2   0  10   59.69    4.50
  -2   0  10   58.49    5.30
  -2   0  10   50.39    3.90
  -2   0  10   58.29    5.10
  -2   0  10   44.80    4.40
   1   0 -10    7.30    3.40
   1   0 -10    2.20    2.20
   1   0 -10    3.40    3.70
   1   0 -10    6.20    3.10
  -1   0  10    7.50    3.20
  -1   0  10    1.10    3.70
  -1   0  10    7.20    2.40
  -1   0  10    1.40    3.60
  -1   0  10    3.90    3.60
   0   0 -10   52.59    4.40
   0   0 -10   36.50    4.10
   0   0 -10   45.00    4.10
   0   0  10   38.10    4.70
   0   0  10   41.20    4.30
   0   0  10   34.20    6.50
  -1   0 -10   68.19    6.00
  -1   0 -10   79.59    6.20
  -1   0 -10   60.29    4.90
   1   0  10   87.39    6.30
   1   0  10   71.29    5.30
  -2   0 -10   58.09    5.30
  -2   0 -10   67.29    5.40
  -2   0 -10   49.99    4.80
  -2   0 -10   56.29    4.90
   2   0  10   61.89    5.50
   2   0  10   54.39    5.20
  -3   0 -10    2.10    4.00
  -3   0 -10    0.10    3.70
  -3   0 -10   -0.90    4.50
  -3   0 -10   -2.40    2.80
   3   0  10    2.30    3.00
   3   0  10    6.30    4.90
   3   0  10    0.70    3.90
   3   0  10    2.10    3.80
  -4   0 -10    5.70    4.60
  -4   0 -10   14.60    3.80
   4   0  10    6.50    4.30
   4   0  10   11.70    4.70
   4   0  10   12.00    3.80
   5  -1 -10    1.50    4.70
   5  -1 -10    0.80    3.90
  -5   1  10    7.60    4.10
  -5   1  10    3.80    4.20
   4  -1 -10   34.90    3.40
   4  -1 -10   27.80    4.40
   4  -1 -10   32.50    5.10
  -4   1  10   37.00    5.00
  -4   1  10   33.80    4.50
  -4   1  10   29.50    3.00
   3  -1 -10   16.80    3.80
   3  -1 -10   17.30    4.50
   3  -1 -10   22.50    3.10
   3  -1 -10   25.40    4.60
  -3   1  10   16.50    3.60
  -3   1  10   20.20    2.90
  -3   1  10   21.70    5.30
  -3   1  10   18.00    3.90
  -3   1  10   25.50    5.20
   2  -1 -10   -0.80    4.00
   2  -1 -10   -4.60    3.20
   2  -1 -10    2.40    3.80
   2  -1 -10   -0.50    2.40
  -2   1  10    1.60    4.30
  -2   1  10   -0.20    2.90
  -2   1  10    1.60    2.40
  -2   1  10   -0.70    3.10
  -2   1  10   -3.90    3.80
   1  -1 -10   10.20    3.90
   1  -1 -10    1.50    3.30
   1  -1 -10    7.00    3.80
   1  -1 -10   14.70    3.00
  -1   1  10    9.30    2.70
  -1   1  10   10.10    3.50
  -1   1  10   12.80    4.50
  -1   1  10    2.40    4.00
  -1   1  10   11.80    3.30
   0  -1 -10   18.60    4.10
   0  -1 -10   21.10    3.30
   0  -1 -10   21.90    4.40
   0  -1 -10   17.50    4.10
   0   1  10   18.80    3.40
   0   1  10   18.00    4.30
   0   1  10   23.30    4.80
   0   1  10   14.80    3.20
  -1  -1 -10   14.10    4.10
  -1  -1 -10   18.40    3.20
  -1  -1 -10   21.80    4.50
  -1  -1 -10   19.70    4.10
   1   1  10   13.40    3.10
   1   1  10   21.60    3.80
   1   1  10   18.90    4.30
   1   1  10   20.50    5.00
  -2  -1 -10    7.00    3.10
  -2  -1 -10    2.70    3.90
  -2  -1 -10   -2.00    4.30
   2   1  10    2.60    3.30
   2   1  10    6.80    5.20
   2   1  10   -0.80    3.30
  -3  -1 -10   22.90    4.20
  -3  -1 -10   12.20    4.50
   3   1  10   15.30    5.60
   4  -2 -10   19.20    5.40
   4  -2 -10   14.20    4.60
   4  -2 -10   17.30    3.40
  -4   2  10   13.00    4.40
  -4   2  10   15.10    4.80
  -4   2  10   10.50    2.90
   3  -2 -10   -2.20    2.80
   3  -2 -10    1.00    4.10
   3  -2 -10   -6.90    4.70
  -3   2  10   -0.70    3.40
  -3   2  10    1.00    2.60
  -3   2  10   -1.90    3.80
   2  -2 -10   25.60    5.50
   2  -2 -10   23.80    3.50
   2  -2 -10   27.50    4.80
  -2   2  10   25.80    3.50
  -2   2  10   29.00    4.50
  -2   2  10   17.80    3.80
   1  -2 -10   26.30    5.70
   1  -2 -10   29.70    4.90
  -1   2  10   27.80    3.60
  -1   2  10   30.10    5.10
  -1   2  10   35.30    4.60
   0  -2 -10    4.50    3.00
   0  -2 -10    4.80    4.30
   0   2  10    8.60    6.50
   0   2  10    3.90    3.80
   0   2  10    1.40    4.70
   0   2  10   11.80    3.40
  -1  -2 -10    4.90    4.60
  -1  -2 -10    8.60    3.70
   1   2  10    9.70    3.60
   1   2  10   12.80    5.70
   1   2  10    6.30    4.60
   1   2  10   10.60    3.80
  -2  -2 -10   53.49    6.10
  -2  -2 -10   50.79    5.60
   2   2  10   33.10    4.60
   2   2  10   45.40    7.00
   2   2  10   36.30    5.70
   3  -3 -10   14.80    3.70
   3  -3 -10    2.60    6.60
   3  -3 -10   12.50    5.00
  -3   3  10    7.60    4.60
  -3   3  10   14.00    4.70
  -3   3  10   10.60    3.20
   2  -3 -10   25.80    5.40
   2  -3 -10   16.40    3.90
  -2   3  10   25.50    4.90
  -2   3  10   23.00    5.00
  -2   3  10   23.20    3.80
   1  -3 -10   -1.20    4.80
   1  -3 -10   -2.00    3.20
  -1   3  10   -2.00    3.50
  -1   3  10    1.10    4.00
   0  -3 -10    4.80    3.40
   0  -3 -10   11.50    5.20
   0   3  10    4.70    4.50
  -1  -3 -10    8.50    4.20
  -1  -3 -10    6.40    5.20
   1   3  10    4.80    4.20
   1   3  10    8.90    5.90
   1  10 -11    6.80    3.10
   1  10 -11    2.40    5.00
   1  10 -11   10.90    5.00
  -1 -10  11    1.10    5.40
  -1 -10  11    5.90    4.50
  -1 -10  11    5.10    2.90
   0  10 -11   17.50    4.70
   0  10 -11   20.40    3.60
   0  10 -11   27.40    5.50
   0 -10  11    5.50    4.90
   0 -10  11   22.00    4.40
  -1  10 -11   12.40    4.60
  -1  10 -11   11.10    4.80
  -1  10 -11   16.20    3.40
   1 -10  11   10.70    4.20
   1 -10  11   11.10    4.00
  -2  10 -11   -0.90    4.40
  -2  10 -11   -1.60    3.20
  -2  10 -11   -2.90    4.90
   2 -10  11    0.20    3.20
   3   9 -11    6.80    5.10
   2   9 -11   10.60    3.00
   2   9 -11   13.70    4.60
   2   9 -11    7.40    4.50
  -2  -9  11    8.10    4.40
  -2  -9  11    8.60    3.30
  -2  -9  11    2.20    6.10
   1   9 -11   24.10    4.60
   1   9 -11   25.40    3.50
   1   9 -11   22.20    4.30
  -1  -9  11   17.40    4.30
  -1  -9  11   25.30    5.10
  -1  -9  11   21.80    3.20
   0   9 -11   11.90    4.00
   0   9 -11   11.60    3.00
   0   9 -11   11.70    4.20
   0  -9  11   10.00    6.00
  -1   9 -11    7.10    4.30
  -1   9 -11    2.40    2.90
  -1   9 -11   -1.50    6.60
  -1   9 -11    8.30    4.10
   1  -9  11    2.10    3.30
   1  -9  11    5.00    3.90
  -2   9 -11   31.70    3.70
  -2   9 -11   35.10    5.80
  -2   9 -11   33.50    4.80
  -2   9 -11   40.00    5.20
   2  -9  11   39.10    3.70
   2  -9  11   32.00    6.30
  -3   9 -11   18.00    4.40
  -3   9 -11   18.00    5.80
  -3   9 -11   21.10    3.80
  -3   9 -11   18.20    5.00
   3  -9  11   17.00    2.60
   3  -9  11   15.50    2.70
   3   8 -11   22.50    3.30
   3   8 -11   22.00    5.00
   3   8 -11   22.80    4.70
  -3  -8  11   17.90    3.80
  -3  -8  11   19.10    4.70
   2   8 -11   48.10    4.20
   2   8 -11   42.30    4.80
   2   8 -11   36.60    4.60
  -2  -8  11   41.40    4.70
  -2  -8  11   43.10    3.90
  -2  -8  11   38.70    5.80
   1   8 -11    4.20    6.60
   1   8 -11    5.60    4.40
   1   8 -11    6.40    3.80
   1   8 -11    1.80    3.60
  -1  -8  11    4.90    2.70
  -1  -8  11    3.40    4.20
  -1  -8  11    3.80    3.50
   0   8 -11    7.30    3.60
   0   8 -11    5.00    4.20
   0   8 -11    4.10    2.40
   0   8 -11    4.60    2.20
   0   8 -11    0.30    3.50
   0  -8  11    7.70    4.40
   0  -8  11    3.90    2.40
   0  -8  11    8.70    3.40
  -1   8 -11   23.50    4.10
  -1   8 -11   28.40    3.60
  -1   8 -11   25.30    4.20
  -1   8 -11   34.10    5.30
  -1   8 -11   22.30    2.50
   1  -8  11   24.50    3.50
   1  -8  11   29.00    4.10
   1  -8  11   19.20    5.30
  -2   8 -11   21.80    4.10
  -2   8 -11   22.10    4.30
  -2   8 -11   28.30    3.70
  -2   8 -11   21.20    2.40
  -2   8 -11   14.60    4.90
   2  -8  11   20.20    3.20
   2  -8  11   22.80    5.70
   2  -8  11   22.20    3.70
  -3   8 -11    4.00    2.30
  -3   8 -11    6.60    2.90
  -3   8 -11    1.80    4.70
  -3   8 -11   -0.20    4.50
  -3   8 -11    3.20    4.20
   3  -8  11    5.80    2.40
   3  -8  11    3.10    2.70
  -4   8 -11   14.80    5.40
  -4   8 -11   12.70    2.60
  -4   8 -11   15.00    4.60
  -4   8 -11   14.50    3.90
   4   7 -11    5.60    4.80
   4   7 -11    9.90    4.70
   4   7 -11   12.50    2.90
  -4  -7  11   14.90    4.50
  -4  -7  11   16.40    4.30
   3   7 -11   18.50    2.90
   3   7 -11    9.80    4.30
   3   7 -11   13.50    4.10
  -3  -7  11   20.50    8.70
  -3  -7  11    8.90    4.00
  -3  -7  11   17.90    9.20
  -3  -7  11   14.50    3.50
   2   7 -11    0.20    3.50
   2   7 -11   -3.10    4.30
   2   7 -11    2.90    2.60
   2   7 -11    1.30    2.20
   2   7 -11    2.10    3.30
  -2  -7  11    0.90    3.50
  -2  -7  11    6.90    4.30
  -2  -7  11    1.50    4.40
  -2  -7  11    1.80    2.70
   1   7 -11    8.10    2.50
   1   7 -11    6.80    3.70
   1   7 -11    7.70    3.40
   1   7 -11    9.90    4.40
   1   7 -11   13.10    2.70
  -1  -7  11   10.50    2.80
  -1  -7  11    5.40    4.30
  -1  -7  11    8.40    3.50
  -1  -7  11   11.70    4.00
   0   7 -11   30.50    4.30
   0   7 -11   32.20    4.20
   0   7 -11   38.10    4.50
   0   7 -11   33.40    4.20
   0   7 -11   42.60    4.10
   0  -7  11   31.40    4.30
   0  -7  11   36.20    3.30
   0  -7  11   43.10    4.80
   0  -7  11   38.60    4.00
  -1   7 -11   15.50    3.90
  -1   7 -11   19.40    4.00
  -1   7 -11    8.30    4.00
  -1   7 -11   14.70    2.50
  -1   7 -11   11.60    2.50
   1  -7  11   11.50    3.10
   1  -7  11    9.20    3.60
   1  -7  11   10.60    3.70
  -2   7 -11    2.30    4.00
  -2   7 -11    1.30    2.40
  -2   7 -11    0.60    2.30
  -2   7 -11   -3.40    3.20
   2  -7  11   -3.40    4.80
   2  -7  11   -0.90    3.10
   2  -7  11    2.00    2.70
  -3   7 -11   18.10    4.00
  -3   7 -11   13.30    4.70
  -3   7 -11   26.20    3.10
  -3   7 -11   24.40    4.80
  -3   7 -11   26.20    3.70
   3  -7  11   19.90    5.20
   3  -7  11   23.50    3.20
   3  -7  11   26.00    2.80
  -4   7 -11   17.30    4.40
  -4   7 -11   11.10    4.70
  -4   7 -11   16.70    5.40
  -4   7 -11   24.20    3.80
   4  -7  11   14.30    5.20
   5   6 -11   20.40    2.80
   5   6 -11   22.20    5.20
  -5  -6  11   21.60    4.60
  -5  -6  11   18.10    4.80
   4   6 -11    6.50    4.10
   4   6 -11   17.10    2.80
  -4  -6  11    9.30    4.00
  -4  -6  11   11.00    3.80
   3   6 -11   -0.90    2.80
   3   6 -11    3.60    4.40
   3   6 -11   -1.30    3.50
   3   6 -11    0.60    2.10
   3   6 -11   -1.40    3.60
  -3  -6  11    0.10    4.00
  -3  -6  11    0.30    4.20
  -3  -6  11   -4.10    2.90
  -3  -6  11   -2.10    3.60
   2   6 -11   13.00    3.80
   2   6 -11   14.90    4.10
   2   6 -11   16.60    3.90
   2   6 -11   14.20    3.10
   2   6 -11   13.90    2.60
  -2  -6  11   15.50    4.20
  -2  -6  11   16.30    4.30
  -2  -6  11   19.70    3.20
  -2  -6  11   18.00    3.70
   1   6 -11   35.30    4.10
   1   6 -11   39.10    4.00
   1   6 -11   39.90    3.40
   1   6 -11   37.70    4.00
  -1  -6  11   41.70    3.70
   0   6 -11   40.70    3.40
   0   6 -11   42.60    4.40
   0   6 -11   40.70    3.80
   0   6 -11   33.00    4.20
   0   6 -11   41.10    4.50
   0  -6  11   43.40    4.60
   0  -6  11   43.70    4.00
   0  -6  11   41.60    3.60
   0  -6  11   47.00    5.00
  -1   6 -11    7.80    3.90
  -1   6 -11    1.60    3.20
  -1   6 -11    4.20    2.40
  -1   6 -11   -1.50    6.80
  -1   6 -11    8.50    3.40
   1  -6  11    2.80    3.60
   1  -6  11    2.10    3.20
   1  -6  11    5.10    2.70
  -2   6 -11   44.20    4.30
  -2   6 -11   44.30    3.50
  -2   6 -11   54.19    4.70
  -2   6 -11   46.60    5.10
  -2   6 -11   55.39    5.20
   2  -6  11   45.40    4.00
   2  -6  11   50.19    3.70
   2  -6  11   46.30    5.20
  -3   6 -11   15.00    3.80
  -3   6 -11   15.40    4.70
  -3   6 -11   16.50    3.10
  -3   6 -11   20.40    3.20
  -3   6 -11   18.40    3.80
   3  -6  11   24.90    4.90
   3  -6  11   18.60    2.80
   3  -6  11   21.20    3.20
  -4   6 -11    2.30    4.70
  -4   6 -11   -0.20    3.70
  -4   6 -11    3.80    3.30
  -4   6 -11    1.60    2.60
  -4   6 -11    3.80    4.30
   4  -6  11    3.90    4.70
   4  -6  11    3.00    2.20
  -5   6 -11   10.00    4.20
  -5   6 -11   10.40    5.50
  -5   6 -11   16.20    4.00
  -5   6 -11   11.90    4.00
   5  -6  11    6.90    5.40
   5   5 -11    5.20    4.30
   5   5 -11    3.80    2.30
  -5  -5  11    3.20    4.30
  -5  -5  11    5.80    4.00
   4   5 -11    0.40    4.60
   4   5 -11   -0.20    2.10
   4   5 -11    2.30    3.80
   4   5 -11    2.10    3.30
  -4  -5  11   -4.20    3.30
  -4  -5  11    0.80    3.60
  -4  -5  11    2.80    6.60
   3   5 -11   20.10    3.40
   3   5 -11   32.40    4.60
   3   5 -11   32.30    4.40
   3   5 -11   27.80    3.10
  -3  -5  11   21.50    4.80
  -3  -5  11   27.00    4.50
  -3  -5  11   31.40    4.30
  -3  -5  11   29.10    4.00
   2   5 -11   24.60    4.00
   2   5 -11   26.00    4.00
   2   5 -11   34.40    3.30
   2   5 -11   29.90    3.40
   2   5 -11   24.00    4.40
  -2  -5  11   26.40    4.60
  -2  -5  11   28.00    3.50
  -2  -5  11   29.90    4.00
   1   5 -11    3.70    3.50
   1   5 -11    5.20    2.30
   1   5 -11    7.00    2.70
   1   5 -11    6.10    3.00
  -1  -5  11    5.80    2.70
  -1  -5  11    5.20    4.00
   0   5 -11   15.60    2.80
   0   5 -11    5.20    3.50
   0   5 -11   16.60    3.50
   0   5 -11   17.40    2.90
   0   5 -11   10.20    3.40
   0  -5  11    9.40    3.40
   0  -5  11   15.00    2.90
   0  -5  11   13.40    3.20
   0  -5  11   16.70    4.20
  -1   5 -11    2.60    3.30
  -1   5 -11    6.00    2.40
  -1   5 -11    7.60    5.00
  -1   5 -11    4.30    2.60
   1  -5  11    0.50    3.30
   1  -5  11    4.30    3.80
   1  -5  11    8.50    2.90
  -2   5 -11   25.90    3.40
  -2   5 -11   37.70    6.20
  -2   5 -11   25.40    4.50
  -2   5 -11   22.60    3.30
   2  -5  11   26.20    3.30
   2  -5  11   28.80    3.70
   2  -5  11   25.20    4.20
  -3   5 -11   11.20    4.80
  -3   5 -11   16.70    3.30
  -3   5 -11   12.90    4.50
  -3   5 -11   10.10    3.20
   3  -5  11   13.10    2.70
   3  -5  11    9.50    4.10
  -4   5 -11   14.00    3.80
  -4   5 -11    4.80    8.20
  -4   5 -11   14.90    7.00
  -4   5 -11   11.90    4.80
  -4   5 -11    6.10    2.70
   4  -5  11   11.70    2.90
   4  -5  11    8.40    5.00
  -5   5 -11    9.60    3.40
  -5   5 -11   12.40    4.40
  -5   5 -11    7.80    4.60
  -5   5 -11    6.90    4.90
  -5   5 -11   17.40    5.50
   5  -5  11   11.90    5.10
   5   4 -11    0.30    1.90
   5   4 -11    0.00    4.60
   5   4 -11   -1.50    4.10
  -5  -4  11   -3.10    3.90
  -5  -4  11   -0.80    4.20
   4   4 -11   38.10    3.60
   4   4 -11   29.40    4.00
   4   4 -11   24.40    4.20
   4   4 -11   26.50    4.80
  -4  -4  11   27.00    6.40
  -4  -4  11   30.30    4.50
  -4  -4  11   31.70    4.20
   3   4 -11   18.80    3.30
   3   4 -11   19.80    2.70
   3   4 -11   20.80    4.60
   3   4 -11   11.80    3.60
  -3  -4  11   15.20    3.80
  -3  -4  11   12.80    4.40
  -3  -4  11    9.70    4.20
  -3  -4  11   18.20    4.30
   2   4 -11    4.60    3.50
   2   4 -11    3.20    3.20
   2   4 -11    1.90    2.70
   2   4 -11    3.00    2.10
  -2  -4  11    3.00    3.20
  -2  -4  11    5.20    2.90
  -2  -4  11   -0.10    4.20
  -2  -4  11    3.60    3.80
   1   4 -11    8.90    3.10
   1   4 -11    8.10    2.40
   1   4 -11    7.90    2.80
  -1  -4  11   -1.30    3.40
  -1  -4  11    9.40    2.90
  -1  -4  11    6.80    3.40
   0   4 -11   41.70    4.60
   0   4 -11   53.09    4.70
   0   4 -11   49.40    4.30
   0   4 -11   50.79    4.90
   0  -4  11   41.00    4.30
   0  -4  11   50.79    4.00
   0  -4  11   53.89    4.90
  -1   4 -11   48.10    4.00
  -1   4 -11   50.49    4.60
  -1   4 -11   32.80    5.40
  -1   4 -11   46.30    4.80
   1  -4  11   38.20    4.40
   1  -4  11   44.60    3.90
   1  -4  11   49.90    4.50
  -2   4 -11    5.50    2.60
  -2   4 -11    2.10    4.70
  -2   4 -11    7.70    3.60
  -2   4 -11    7.70    4.00
  -2   4 -11   10.00    3.10
   2  -4  11    9.20    3.60
   2  -4  11    9.40    2.90
   2  -4  11    8.20    4.00
  -3   4 -11   28.90    4.10
  -3   4 -11   27.00    4.60
  -3   4 -11   24.70    4.00
  -3   4 -11   27.90    3.90
  -3   4 -11   24.20    4.30
   3  -4  11   27.20    3.30
   3  -4  11   24.80    3.80
   3  -4  11   21.40    4.60
  -4   4 -11   15.30    4.20
  -4   4 -11   16.00    3.50
  -4   4 -11   17.90    4.20
  -4   4 -11   15.20    5.10
  -4   4 -11   15.00    3.90
   4  -4  11    7.80    4.50
   4  -4  11   14.40    3.40
  -5   4 -11    3.80    4.50
  -5   4 -11    4.00    5.60
  -5   4 -11    3.10    4.30
  -5   4 -11    4.10    4.00
  -5   4 -11   -0.40    3.20
   5  -4  11    0.90    2.70
   5  -4  11    0.10    5.00
   5   3 -11   20.90    2.50
   5   3 -11   17.60    4.50
   5   3 -11   14.20    5.00
  -5  -3  11   16.60    4.40
  -5  -3  11   21.80    4.90
   4   3 -11   16.70    4.10
   4   3 -11   14.30    2.50
   4   3 -11   20.80    4.10
   4   3 -11   14.40    4.90
  -4  -3  11   19.70    4.30
  -4  -3  11   18.20    4.20
   3   3 -11   -1.70    3.80
   3   3 -11   -1.30    3.00
   3   3 -11   -1.10    2.10
   3   3 -11   -4.30    3.20
  -3  -3  11   -0.10    3.50
  -3  -3  11    0.20    3.10
  -3  -3  11   -2.80    3.30
  -3  -3  11   -2.10    4.10
   2   3 -11   10.10    3.40
   2   3 -11   10.80    3.90
   2   3 -11    7.70    3.20
   2   3 -11   14.80    2.60
  -2  -3  11   12.00    4.10
  -2  -3  11   13.50    4.00
  -2  -3  11   13.70    3.30
  -2  -3  11   12.90    3.30
   1   3 -11   33.50    5.70
   1   3 -11   30.10    3.60
   1   3 -11   27.10    3.80
   1   3 -11   37.80    4.00
  -1  -3  11   28.70    4.40
  -1  -3  11   28.80    4.10
  -1  -3  11   30.80    3.90
  -1  -3  11   38.90    3.90
   0   3 -11   16.60    2.80
   0   3 -11   14.90    3.60
   0   3 -11   14.90    3.40
   0   3 -11    5.90    6.10
   0  -3  11   11.60    3.20
   0  -3  11   11.80    3.90
   0  -3  11   16.10    3.40
  -1   3 -11   -1.80    2.80
  -1   3 -11   -1.90    3.60
  -1   3 -11    4.10    3.10
  -1   3 -11   -2.10    3.00
   1  -3  11   -1.80    3.80
   1  -3  11   -1.60    2.70
   1  -3  11    0.00    3.70
  -2   3 -11   10.20    4.20
  -2   3 -11   10.10    2.90
  -2   3 -11    5.70    3.60
  -2   3 -11    6.50    3.50
   2  -3  11    9.80    3.00
   2  -3  11    8.50    3.60
   2  -3  11    6.50    3.80
  -3   3 -11   25.10    5.00
  -3   3 -11   39.30    4.80
  -3   3 -11   41.40    4.40
  -3   3 -11   30.30    4.40
   3  -3  11   38.40    3.70
   3  -3  11   34.30    4.10
  -4   3 -11    7.60    5.10
  -4   3 -11   12.30    4.50
  -4   3 -11    7.60    4.30
  -4   3 -11   12.20    3.10
   4  -3  11    3.60    5.30
   4  -3  11    7.70    4.70
   5   2 -11   11.90    5.00
   5   2 -11    9.70    4.30
   5   2 -11    5.90    2.40
  -5  -2  11    8.30    4.40
  -5  -2  11    7.00    4.40
   4   2 -11    3.80    2.10
   4   2 -11    0.10    4.50
   4   2 -11   -4.10    3.80
  -4  -2  11    1.10    3.50
  -4  -2  11   -3.70    3.60
   3   2 -11   17.90    4.00
   3   2 -11   18.00    3.80
   3   2 -11   20.00    4.60
   3   2 -11   18.60    2.60
  -3  -2  11   12.70    3.60
  -3  -2  11   17.60    3.70
  -3  -2  11    9.80    4.10
  -3  -2  11   11.00    4.50
   2   2 -11   37.00    5.00
   2   2 -11   31.20    4.30
   2   2 -11   31.20    3.90
   2   2 -11   38.90    3.60
  -2  -2  11   33.80    4.30
  -2  -2  11   37.00    4.80
  -2  -2  11   34.30    4.60
  -2  -2  11   32.50    4.00
   1   2 -11    1.30    3.40
   1   2 -11   -0.70    3.10
   1   2 -11   -1.60    4.00
   1   2 -11   -2.10    2.00
  -1  -2  11   -0.30    2.90
  -1  -2  11    0.90    3.60
  -1  -2  11    4.50    4.00
   0   2 -11    4.40    3.30
   0   2 -11    0.40    3.30
   0   2 -11    2.10    4.00
   0   2 -11    1.50    2.30
   0  -2  11    4.50    3.00
   0  -2  11    0.90    3.40
   0  -2  11    5.30    3.90
  -1   2 -11   12.10    3.70
  -1   2 -11   22.80    4.10
  -1   2 -11   25.90    4.40
  -1   2 -11   16.30    2.90
   1  -2  11   18.70    3.90
   1  -2  11   14.50    4.30
  -2   2 -11   14.10    3.80
  -2   2 -11    8.00    4.30
  -2   2 -11   13.40    4.20
  -2   2 -11   14.30    3.30
   2  -2  11   20.10    4.50
   2  -2  11   11.90    3.40
   2  -2  11   15.70    4.90
  -3   2 -11    1.40    3.90
  -3   2 -11    7.40    5.10
  -3   2 -11   -3.30    4.10
  -3   2 -11   -4.30    3.00
   3  -2  11    0.60    3.10
   3  -2  11    1.10    4.20
   3  -2  11    3.30    4.20
  -4   2 -11   11.70    4.60
  -4   2 -11    4.50    3.40
  -4   2 -11    0.60    4.80
   4  -2  11    4.90    4.20
   4  -2  11    0.20    6.30
   5   1 -11    3.20    4.20
   5   1 -11    0.20    2.40
   5   1 -11   -2.60    5.00
  -5  -1  11    4.60    4.40
  -5  -1  11   -2.20    4.50
   4   1 -11   14.10    2.80
   4   1 -11   16.10    4.20
   4   1 -11   12.30    4.80
  -4  -1  11   17.20    4.40
  -4  -1  11   18.50    4.10
   3   1 -11   19.50    4.40
   3   1 -11   24.10    5.10
   3   1 -11   23.90    4.90
   3   1 -11   24.90    3.10
  -3  -1  11   22.30    4.10
  -3  -1  11   27.30    4.40
   2   1 -11    5.00    4.50
   2   1 -11    0.30    2.40
   2   1 -11    1.50    3.60
   2   1 -11    5.60    4.00
  -2  -1  11    6.60    3.30
  -2  -1  11   -1.70    4.20
  -2  -1  11    0.20    4.50
  -2  -1  11    4.80    3.30
   1   1 -11   -2.10    3.70
   1   1 -11   -1.00    3.30
   1   1 -11    0.80    4.50
   1   1 -11    5.60    2.50
  -1  -1  11   -0.80    3.00
  -1  -1  11    5.30    3.50
  -1  -1  11   -0.80    2.40
  -1  -1  11    0.20    4.40
  -1  -1  11    5.20    4.10
   0   1 -11   44.00    4.80
   0   1 -11   32.70    4.70
   0   1 -11   26.90    4.80
   0   1 -11   22.40    4.30
   0  -1  11   34.40    4.30
   0  -1  11   33.40    5.00
   0  -1  11   29.40    3.80
   0  -1  11   37.20    5.20
  -1   1 -11   22.50    4.50
  -1   1 -11   24.10    5.00
  -1   1 -11   22.70    4.20
  -1   1 -11   23.90    3.40
   1  -1  11   28.60    4.00
   1  -1  11   27.50    3.80
   1  -1  11   27.80    5.10
   1  -1  11   24.20    4.80
  -2   1 -11    1.80    4.50
  -2   1 -11    4.70    4.20
  -2   1 -11    2.20    2.70
   2  -1  11    0.70    3.20
   2  -1  11    1.00    4.60
   2  -1  11    0.30    4.50
   2  -1  11   -0.60    2.90
  -3   1 -11    7.60    4.70
  -3   1 -11    9.60    6.60
  -3   1 -11    7.80    2.90
   3  -1  11   10.60    4.80
   3  -1  11    5.40    4.30
   4   0 -11    5.50    4.40
   4   0 -11   10.50    5.30
   4   0 -11   11.20    2.90
  -4   0  11    8.20    4.50
  -4   0  11   15.10    4.50
   3   0 -11   -5.40    2.50
   3   0 -11    4.40    3.90
   3   0 -11    2.10    5.10
  -3   0  11   -3.50    3.50
  -3   0  11   -3.30    3.90
   2   0 -11    7.80    2.90
   2   0 -11    5.10    5.20
   2   0 -11    6.60    3.90
  -2   0  11    7.70    3.70
  -2   0  11    5.40    2.80
  -2   0  11    5.70    3.30
   1   0 -11   23.60    3.60
   1   0 -11   21.80    5.50
   1   0 -11   24.40    4.40
  -1   0  11   18.60    4.20
  -1   0  11   21.30    5.70
  -1   0  11   19.10    3.60
  -1   0  11   17.90    3.70
  -1   0  11   13.40    6.00
   0   0 -11    0.20    3.90
   0   0 -11   -0.60    4.70
   0   0 -11    3.40    2.90
   0   0  11   -2.70    4.70
   0   0  11   -5.00    4.60
   0   0  11    5.90    3.70
   0   0  11    1.40    2.70
  -1   0 -11   -0.20    2.70
  -1   0 -11   -4.00    3.90
   1   0  11    1.80    3.60
   1   0  11    3.70    5.00
   1   0  11    0.60    3.30
   1   0  11   -2.40    5.00
  -2   0 -11    1.80    3.20
  -2   0 -11   -2.60    4.30
   2   0  11    7.70    3.80
   2   0  11   -1.30    5.20
   2   0  11    3.80    4.90
  -3   0 -11    3.70    4.90
  -3   0 -11    6.80    3.60
   3   0  11    5.40    5.80
   3   0  11    2.50    3.90
   3   0  11    5.90    5.50
   3  -1 -11    4.00    4.60
   3  -1 -11    6.30    3.20
  -3   1  11    2.20    4.40
  -3   1  11    7.20    4.40
  -3   1  11    3.50    3.10
   2  -1 -11   14.50    4.50
   2  -1 -11   17.40    3.70
  -2   1  11   18.00    4.20
  -2   1  11   18.40    3.50
  -2   1  11   14.90    4.50
   1  -1 -11    5.00    4.60
   1  -1 -11    2.20    3.30
  -1   1  11    2.40    3.40
  -1   1  11   -3.70    3.80
   0  -1 -11    0.30    4.70
   0  -1 -11    0.50    3.40
   0   1  11    2.40    3.70
   0   1  11   -4.50    4.10
  -1  -1 -11   20.40    4.40
  -1  -1 -11   15.50    5.20
   1   1  11   15.90    5.70
   1   1  11   15.50    4.50
   0   9 -12   24.50    4.10
   0   9 -12   25.60    5.10
   0   9 -12   12.70    5.00
   0  -9  12   25.40    5.50
   0  -9  12   23.90    4.70
  -1   9 -12   15.60    5.10
  -1   9 -12    9.30    3.60
  -1   9 -12    7.80    4.80
   1  -9  12    6.60    5.10
   1  -9  12   10.70    4.10
   2   8 -12    7.30    4.90
   2   8 -12    4.30    4.60
   2   8 -12   11.10    3.30
  -2  -8  12    7.20    3.70
  -2  -8  12    5.30    4.60
   1   8 -12    8.70    3.10
   1   8 -12    4.50    4.40
   1   8 -12   11.50    3.30
   1   8 -12    6.20    4.70
  -1  -8  12    8.20    5.30
  -1  -8  12   11.40    4.30
  -1  -8  12    8.70    3.30
   0   8 -12    2.50    2.80
   0   8 -12    5.00    4.40
   0   8 -12    7.10    3.00
   0   8 -12    5.80    4.40
   0  -8  12    4.30    4.00
   0  -8  12    4.40    4.70
  -1   8 -12    3.50    3.10
  -1   8 -12    4.70    4.30
  -1   8 -12   -1.50    4.50
  -1   8 -12   -0.80    3.50
   1  -8  12   -1.80    4.40
   1  -8  12    1.30    3.60
  -2   8 -12   17.30    4.90
  -2   8 -12    7.80    3.20
  -2   8 -12    9.90    4.70
  -2   8 -12    7.40    2.80
   2  -8  12   12.40    4.20
   2  -8  12   10.60    3.60
   3   7 -12   -0.10    4.60
   3   7 -12    5.20    3.70
   3   7 -12   -0.10    4.70
   3   7 -12    1.60    2.80
  -3  -7  12   10.50    4.50
  -3  -7  12    4.50    4.60
   2   7 -12   18.50    4.90
   2   7 -12   14.40    4.20
   2   7 -12   21.50    4.70
   2   7 -12   17.30    3.80
  -2  -7  12   22.20    4.50
  -2  -7  12   19.20    4.00
   1   7 -12    4.10    4.10
   1   7 -12    3.50    2.80
   1   7 -12    5.30    3.10
   1   7 -12    6.80    4.00
  -1  -7  12   14.50    3.30
  -1  -7  12    8.20    4.10
  -1  -7  12   11.30    5.30
   0   7 -12   -3.80    4.00
   0   7 -12    1.80    3.00
   0   7 -12   -3.60    2.80
   0   7 -12   -3.00    4.20
   0  -7  12    6.20    4.60
   0  -7  12   -3.40    3.50
  -1   7 -12   14.10    3.10
  -1   7 -12   13.70    3.10
  -1   7 -12    6.80    4.10
  -1   7 -12    7.50    4.20
   1  -7  12   15.30    4.70
   1  -7  12   20.00    3.80
  -2   7 -12   16.10    4.50
  -2   7 -12   29.70    4.10
  -2   7 -12   22.00    5.00
  -2   7 -12   15.60    3.30
   2  -7  12   19.70    4.30
   2  -7  12   18.20    3.60
  -3   7 -12    3.90    3.30
  -3   7 -12    3.30    4.70
  -3   7 -12    7.30    4.50
  -3   7 -12    7.50    3.70
   3  -7  12    1.90    3.00
   3  -7  12    6.80    3.70
   3   6 -12   15.20    4.70
   3   6 -12   14.70    3.10
   3   6 -12   18.10    4.10
   3   6 -12   19.50    4.90
  -3  -6  12   19.60    4.60
  -3  -6  12   12.50    4.10
   2   6 -12    9.00    3.40
   2   6 -12    6.60    4.40
   2   6 -12    8.90    4.10
   2   6 -12    4.60    2.80
  -2  -6  12    2.20    3.50
  -2  -6  12    8.90    4.10
   1   6 -12   -2.20    3.10
   1   6 -12    1.70    4.00
   1   6 -12    3.60    3.70
  -1  -6  12    0.40    4.60
  -1  -6  12    3.20    3.10
  -1  -6  12    0.10    3.60
   0   6 -12   17.10    3.30
   0   6 -12   14.50    4.20
   0   6 -12   14.60    3.00
   0   6 -12   15.30    4.40
   0  -6  12   11.10    4.50
   0  -6  12   15.40    3.80
  -1   6 -12    7.20    2.90
  -1   6 -12    7.80    4.00
  -1   6 -12   14.00    3.30
  -1   6 -12    9.20    4.10
   1  -6  12   12.30    3.50
  -2   6 -12    1.60    3.20
  -2   6 -12   -2.40    2.60
  -2   6 -12    6.40    4.20
  -2   6 -12    3.50    3.90
   2  -6  12    6.60    4.00
   2  -6  12    4.60    3.20
  -3   6 -12    8.40    4.30
  -3   6 -12    6.70    3.60
  -3   6 -12    2.50    3.10
  -3   6 -12   12.20    4.50
   3  -6  12    7.30    3.20
   3  -6  12    1.40    4.40
   4   5 -12   11.30    4.90
   4   5 -12    7.90    2.90
  -4  -5  12   16.50    4.90
  -4  -5  12    6.00    4.50
   3   5 -12    8.30    4.30
   3   5 -12    3.00    2.70
   3   5 -12    1.40    3.70
  -3  -5  12    7.30    3.70
  -3  -5  12    6.20    4.30
   2   5 -12    2.00    3.50
   2   5 -12    8.00    4.00
   2   5 -12    5.30    2.70
  -2  -5  12    7.40    4.10
  -2  -5  12    5.40    6.40
  -2  -5  12    8.90    8.90
   1   5 -12   23.40    4.10
   1   5 -12   20.50    3.30
   1   5 -12   17.30    4.00
   1   5 -12   22.00    3.80
  -1  -5  12   23.00    5.20
  -1  -5  12   19.90    3.70
  -1  -5  12   20.80    4.00
   0   5 -12   12.10    3.50
   0   5 -12    7.90    3.90
   0   5 -12   17.30    4.00
   0   5 -12   10.50    3.10
   0  -5  12   14.00    3.60
   0  -5  12   12.50    4.80
   0  -5  12    6.00    7.30
  -1   5 -12    1.50    3.80
  -1   5 -12   -2.30    2.40
  -1   5 -12    4.10    3.40
  -1   5 -12   -1.90    3.70
   1  -5  12   -1.90    3.80
   1  -5  12   -1.30    5.50
  -2   5 -12    5.00    3.60
  -2   5 -12    2.70    4.00
  -2   5 -12    9.60    4.30
  -2   5 -12    5.60    3.00
   2  -5  12    1.30    4.00
   2  -5  12    2.00    3.30
   2  -5  12    4.30    5.00
  -3   5 -12   29.30    4.50
  -3   5 -12   26.20    4.80
  -3   5 -12   28.30    3.90
  -3   5 -12   35.70    5.20
   3  -5  12   37.20    4.60
   3  -5  12   25.10    5.70
   3  -5  12   43.20    4.00
   4   4 -12    0.20    4.40
   4   4 -12   -3.40    2.50
  -4  -4  12    2.10    4.50
  -4  -4  12    0.70    4.20
   3   4 -12   11.80    2.80
   3   4 -12    8.40    4.10
   3   4 -12    4.50    4.50
  -3  -4  12   11.10    4.50
  -3  -4  12   11.60    4.00
   2   4 -12   31.90    3.80
   2   4 -12   26.70    4.60
   2   4 -12   31.50    4.20
  -2  -4  12   23.40    4.40
  -2  -4  12   23.20    4.00
   1   4 -12    5.00    3.90
   1   4 -12   12.20    3.20
   1   4 -12    9.30    3.90
  -1  -4  12   12.30    4.00
  -1  -4  12   12.30    4.40
  -1  -4  12   12.70    4.80
   0   4 -12   -0.10    3.30
   0   4 -12    4.50    2.80
   0   4 -12    1.10    3.80
   0  -4  12    3.20    6.20
   0  -4  12   -2.30    4.20
   0  -4  12    0.00    3.50
  -1   4 -12   15.40    4.40
  -1   4 -12    6.20    3.80
  -1   4 -12   17.50    3.50
   1  -4  12   17.10    5.40
   1  -4  12   14.10    3.80
   1  -4  12    0.90    4.30
  -2   4 -12    5.20    3.10
  -2   4 -12    1.20    3.90
  -2   4 -12    0.90    4.00
   2  -4  12    3.50    3.50
   2  -4  12    0.20    5.20
   2  -4  12    3.40    5.00
  -3   4 -12   -0.50    4.60
  -3   4 -12    0.60    3.60
  -3   4 -12    5.60    4.50
   3  -4  12   -2.70    3.30
   3  -4  12    3.00    5.60
   3  -4  12    0.00    4.30
  -4  -3  12   10.70    4.50
   3   3 -12   20.00    4.70
   3   3 -12   24.40    3.30
  -3  -3  12   24.20    4.70
  -3  -3  12   20.90    4.60
   2   3 -12    2.60    2.50
   2   3 -12    3.30    4.00
   2   3 -12   -0.90    3.90
  -2  -3  12   -1.60    3.50
  -2  -3  12    2.00    3.80
   1   3 -12    2.00    4.10
   1   3 -12    2.20    2.60
   1   3 -12    4.50    3.90
  -1  -3  12    1.00    4.80
  -1  -3  12    1.60    3.60
  -1  -3  12   -2.20    3.20
   0   3 -12   25.70    4.40
   0   3 -12   27.20    4.50
   0   3 -12   32.10    3.90
   0  -3  12   22.80    4.30
   0  -3  12   26.10    5.50
  -1   3 -12   17.40    4.60
  -1   3 -12   17.20    4.40
  -1   3 -12   18.20    3.30
   1  -3  12   21.60    5.70
   1  -3  12   13.10    4.90
   1  -3  12   16.80    4.00
  -2   3 -12    1.20    4.50
  -2   3 -12    2.00    4.70
  -2   3 -12    2.90    3.10
   2  -3  12    0.30    3.60
   2  -3  12    3.90    5.30
  -3   3 -12   -0.10    5.00
  -3   3 -12    3.60    3.50
  -3   3 -12    8.80    4.70
   3  -3  12    6.90    4.70
   3  -3  12   -1.00    5.60
   3  -3  12    9.90    3.70
   3   2 -12    3.70    4.60
   3   2 -12    0.60    2.70
  -3  -2  12    3.40    4.30
  -3  -2  12   -1.60    4.10
   2   2 -12    4.30    4.20
   2   2 -12    4.90    2.70
  -2  -2  12    4.60    3.90
  -2  -2  12    0.50    3.60
   1   2 -12   20.40    4.40
   1   2 -12   21.90    4.40
   1   2 -12   22.00    4.40
  -1  -2  12   19.40    4.30
  -1  -2  12   25.00    4.40
   0   2 -12   14.10    3.50
   0   2 -12   15.70    4.80
   0   2 -12    4.00    4.50
   0  -2  12    4.00    5.00
   0  -2  12    9.20    4.00
  -1   2 -12    1.10    4.50
  -1   2 -12   -0.40    4.00
  -1   2 -12   -1.10    3.10
   1  -2  12   -1.10    5.20
   1  -2  12    6.10    4.00
  -2   2 -12    3.10    4.50
  -2   2 -12   -1.40    3.50
   2  -2  12    4.30    5.80
   2  -2  12    5.10    3.90
   2  -2  12   -1.60    5.20
   2   1 -12   23.50    3.60
   2   1 -12   32.10    5.50
  -2  -1  12   22.80    4.80
  -2  -1  12   21.10    4.20
   1   1 -12   10.80    4.60
   1   1 -12    6.10    3.20
  -1  -1  12    4.40    4.30
  -1  -1  12    2.10    3.90
   0   1 -12   -2.10    3.10
   0   1 -12    2.20    4.10
   0  -1  12   -1.20    3.20
   0  -1  12   -1.10    4.20
  -1   1 -12   15.90    3.80
  -1   1 -12   22.50    5.40
   1  -1  12   12.30    4.40
   1  -1  12   27.10   10.30
   0   6 -13   -6.60    4.40
   0   5 -13    0.00    4.70
   0   5 -13    3.80    3.30
   0   5 -13    4.80    4.20
   0  -5  13    5.60    4.40
   0  -5  13   11.60    6.30

_computing_structure_solution     'SHELXT 2014/4 (Sheldrick, 2014)'
;
_shelx_hkl_checksum              63085
loop_
_space_group_symop_operation_xyz
'x, y, z'
'-x, -y, -z'
loop_
_atom_site_label
_atom_site_type_symbol
_atom_site_fract_x
_atom_site_fract_y
_atom_site_fract_z
_atom_site_U_iso_or_equiv
_atom_site_adp_type
_atom_site_occupancy
_atom_site_site_symmetry_order
_atom_site_calc_flag
_atom_site_refinement_flags_posn
_atom_site_refinement_flags_adp
_atom_site_refinement_flags_occupancy
_atom_site_disorder_assembly
_atom_site_disorder_group
Pd1 Pd 0.36526(2) 0.83490(2) 0.71483(2) 0.04892(9) Uani 1 1 d . . . . .
F1 F 1.028(2) 0.6954(12) 0.1935(15) 0.148(5) Uani 0.51(2) 1 d D U P A 1
F1A F 0.8837(18) 0.4752(15) 0.1112(10) 0.156(5) Uani 0.49(2) 1 d D U P A 2
F2 F 0.8535(11) 0.5131(11) 0.1056(8) 0.091(2) Uani 0.51(2) 1 d D U P A 1
F2A F 1.1058(12) 0.562(2) 0.2254(19) 0.109(3) Uani 0.49(2) 1 d D U P A 2
F3 F 1.0624(18) 0.5067(19) 0.2134(16) 0.139(5) Uani 0.51(2) 1 d D U P A 1
F3A F 0.9804(16) 0.6940(12) 0.1691(14) 0.111(3) Uani 0.49(2) 1 d D U P A 2
N1 N 0.4168(3) 0.8047(2) 0.9069(2) 0.0499(5) Uani 1 1 d . . . . .
N2 N 0.5869(2) 0.7412(2) 0.6890(2) 0.0474(5) Uani 1 1 d . . . . .
N3 N 0.6318(3) 0.6904(3) 0.7721(2) 0.0575(6) Uani 1 1 d . . . . .
C1 C 0.7274(3) 0.8037(3) 0.5182(3) 0.0540(6) Uani 1 1 d . . . . .
H1 H 0.693661 0.897413 0.559989 0.065 Uiso 1 1 calc R . . . .
C2 C 0.8196(3) 0.7687(3) 0.4043(3) 0.0585(7) Uani 1 1 d . . . . .
H2 H 0.851424 0.839008 0.368514 0.070 Uiso 1 1 calc R . . . .
C3 C 0.8650(3) 0.6327(3) 0.3431(3) 0.0547(6) Uani 1 1 d . . . . .
C4 C 0.8227(3) 0.5308(3) 0.3960(3) 0.0597(7) Uani 1 1 d . . . . .
H4 H 0.855305 0.436758 0.353105 0.072 Uiso 1 1 calc R . . . .
C5 C 0.7332(3) 0.5656(3) 0.5113(3) 0.0555(6) Uani 1 1 d . . . . .
H5 H 0.705202 0.496365 0.549129 0.067 Uiso 1 1 calc R . . . .
C6 C 0.6847(3) 0.7019(3) 0.5710(2) 0.0462(5) Uani 1 1 d . . . . .
C7 C 0.5415(3) 0.7259(3) 0.8909(3) 0.0558(6) Uani 1 1 d . . . . .
C8 C 0.5974(4) 0.6783(4) 0.9857(3) 0.0753(9) Uani 1 1 d . . . . .
H8 H 0.686333 0.622046 0.968114 0.090 Uiso 1 1 calc R . . . .
C9 C 0.5197(4) 0.7154(4) 1.1082(3) 0.0816(10) Uani 1 1 d . . . . .
H9 H 0.552943 0.683617 1.176352 0.098 Uiso 1 1 calc R . . . .
C10 C 0.3953(4) 0.7979(4) 1.1283(3) 0.0720(9) Uani 1 1 d . . . . .
H10 H 0.343279 0.826822 1.212805 0.086 Uiso 1 1 calc R . . . .
C11 C 0.3428(3) 0.8409(3) 1.0273(3) 0.0590(7) Uani 1 1 d . . . . .
C12 C 0.2035(4) 0.9265(4) 1.0505(4) 0.0822(10) Uani 1 1 d . . . . .
H12A H 0.228973 1.004151 1.018706 0.123 Uiso 1 1 calc GR . . . .
H12B H 0.186135 0.969310 1.149331 0.123 Uiso 1 1 calc GR . . . .
H12C H 0.102807 0.862908 0.998977 0.123 Uiso 1 1 calc GR . . . .
C13 C 0.9566(4) 0.5895(4) 0.2142(3) 0.0707(8) Uani 1 1 d D U . . .
C14 C 0.3346(4) 0.8361(4) 0.5247(3) 0.0705(8) Uani 1 1 d . . . . .
H14A H 0.431308 0.804274 0.473050 0.106 Uiso 1 1 calc R . . . .
H14B H 0.234840 0.769785 0.474634 0.106 Uiso 1 1 calc R . . . .
H14C H 0.322842 0.934761 0.534906 0.106 Uiso 1 1 calc R . . . .
C15 C 0.1384(4) 0.9052(5) 0.7372(4) 0.0875(11) Uani 1 1 d . . . . .
H15A H 0.064898 0.847704 0.773567 0.131 Uiso 1 1 calc GR . . . .
H15B H 0.090814 0.893753 0.647242 0.131 Uiso 1 1 calc GR . . . .
H15C H 0.150706 1.008023 0.801554 0.131 Uiso 1 1 calc GR . . . .
loop_
_atom_site_aniso_label
_atom_site_aniso_U_11
_atom_site_aniso_U_22
_atom_site_aniso_U_33
_atom_site_aniso_U_23
_atom_site_aniso_U_13
_atom_site_aniso_U_12
Pd1 0.04541(13) 0.04657(13) 0.05817(14) 0.02354(10) 0.00450(8) 0.01169(8)
F1 0.152(8) 0.126(7) 0.134(8) 0.030(5) 0.087(6) -0.029(6)
F1A 0.165(9) 0.137(7) 0.079(5) -0.021(4) 0.058(5) -0.064(7)
F2 0.091(4) 0.131(5) 0.043(3) 0.022(3) 0.002(2) 0.036(4)
F2A 0.069(3) 0.181(9) 0.104(5) 0.074(6) 0.043(3) 0.055(4)
F3 0.128(8) 0.244(13) 0.106(7) 0.101(10) 0.075(7) 0.135(9)
F3A 0.143(7) 0.140(7) 0.107(5) 0.090(6) 0.080(5) 0.074(6)
N1 0.0461(11) 0.0526(12) 0.0484(12) 0.0185(10) 0.0058(9) 0.0049(9)
N2 0.0459(11) 0.0521(12) 0.0495(11) 0.0248(10) 0.0054(9) 0.0122(9)
N3 0.0556(13) 0.0722(15) 0.0569(13) 0.0348(12) 0.0109(10) 0.0230(11)
C1 0.0611(15) 0.0510(15) 0.0551(15) 0.0248(12) 0.0087(12) 0.0162(12)
C2 0.0629(16) 0.0628(17) 0.0584(16) 0.0335(14) 0.0096(12) 0.0088(13)
C3 0.0461(13) 0.0677(18) 0.0490(14) 0.0224(13) 0.0057(11) 0.0089(12)
C4 0.0603(16) 0.0532(16) 0.0627(17) 0.0184(14) 0.0139(13) 0.0160(13)
C5 0.0584(15) 0.0524(15) 0.0635(16) 0.0291(13) 0.0135(12) 0.0153(12)
C6 0.0437(12) 0.0514(14) 0.0465(13) 0.0215(11) 0.0062(10) 0.0120(11)
C7 0.0547(15) 0.0668(17) 0.0513(15) 0.0284(13) 0.0076(12) 0.0129(13)
C8 0.074(2) 0.106(3) 0.0656(19) 0.0513(19) 0.0125(15) 0.0273(18)
C9 0.086(2) 0.110(3) 0.0621(19) 0.051(2) 0.0020(17) 0.009(2)
C10 0.074(2) 0.086(2) 0.0501(16) 0.0250(16) 0.0109(14) -0.0018(17)
C11 0.0578(16) 0.0559(16) 0.0533(15) 0.0154(13) 0.0085(12) -0.0039(12)
C12 0.082(2) 0.085(2) 0.072(2) 0.0189(18) 0.0301(17) 0.0243(18)
C13 0.0634(18) 0.087(2) 0.0603(18) 0.0267(17) 0.0150(14) 0.0155(16)
C14 0.0676(19) 0.087(2) 0.074(2) 0.0484(18) 0.0037(15) 0.0193(16)
C15 0.064(2) 0.123(3) 0.092(2) 0.052(2) 0.0185(17) 0.046(2)
loop_
_atom_type_symbol
_atom_type_description
_atom_type_scat_dispersion_real
_atom_type_scat_dispersion_imag
_atom_type_scat_source
C C 0.0033 0.0016 'International Tables Vol C Tables 4.2.6.8 and 6.1.1.4'
H H 0.0000 0.0000 'International Tables Vol C Tables 4.2.6.8 and 6.1.1.4'
F F 0.0171 0.0103 'International Tables Vol C Tables 4.2.6.8 and 6.1.1.4'
N N 0.0061 0.0033 'International Tables Vol C Tables 4.2.6.8 and 6.1.1.4'
Pd Pd -0.9988 1.0072 'International Tables Vol C Tables 4.2.6.8 and 6.1.1.4'
loop_
_geom_angle_atom_site_label_1
_geom_angle_atom_site_label_2
_geom_angle_atom_site_label_3
_geom_angle
N2 Pd1 N1 74.13(7)
C14 Pd1 N1 171.57(10)
C14 Pd1 N2 98.62(10)
C14 Pd1 C15 82.78(14)
C15 Pd1 N1 104.00(12)
C15 Pd1 N2 174.12(13)
C7 N1 Pd1 109.69(16)
C7 N1 C11 116.6(2)
C11 N1 Pd1 133.52(19)
N3 N2 Pd1 119.62(16)
N3 N2 C6 111.67(19)
C6 N2 Pd1 127.71(15)
N2 N3 C7 114.6(2)
C2 C1 H1 120.2
C6 C1 H1 120.2
C6 C1 C2 119.6(2)
C1 C2 H2 120.1
C3 C2 C1 119.8(2)
C3 C2 H2 120.1
C2 C3 C4 120.6(2)
C2 C3 C13 120.7(3)
C4 C3 C13 118.6(3)
C3 C4 H4 120.0
C3 C4 C5 120.0(3)
C5 C4 H4 120.0
C4 C5 H5 120.4
C6 C5 C4 119.2(3)
C6 C5 H5 120.4
C1 C6 N2 118.3(2)
C1 C6 C5 120.7(2)
C5 C6 N2 121.0(2)
N1 C7 N3 120.4(2)
N1 C7 C8 125.0(3)
C8 C7 N3 114.5(2)
C7 C8 H8 121.1
C7 C8 C9 117.7(3)
C9 C8 H8 121.1
C8 C9 H9 120.8
C10 C9 C8 118.4(3)
C10 C9 H9 120.8
C9 C10 H10 119.5
C9 C10 C11 121.0(3)
C11 C10 H10 119.5
N1 C11 C10 121.1(3)
N1 C11 C12 119.2(3)
C10 C11 C12 119.7(3)
C11 C12 H12A 109.5
C11 C12 H12B 109.5
C11 C12 H12C 109.5
H12A C12 H12B 109.5
H12A C12 H12C 109.5
H12B C12 H12C 109.5
F1 C13 F2 106.3(7)
F1 C13 F3 109.0(8)
F1 C13 C3 114.1(7)
F1A C13 F3A 106.2(7)
F1A C13 C3 114.1(5)
F2 C13 C3 110.0(5)
F2A C13 F1A 104.5(9)
F2A C13 F3A 102.1(7)
F2A C13 C3 116.1(8)
F3 C13 F2 105.4(8)
F3 C13 C3 111.5(8)
F3A C13 C3 112.7(6)
Pd1 C14 H14A 109.5
Pd1 C14 H14B 109.5
Pd1 C14 H14C 109.5
H14A C14 H14B 109.5
H14A C14 H14C 109.5
H14B C14 H14C 109.5
Pd1 C15 H15A 109.5
Pd1 C15 H15B 109.5
Pd1 C15 H15C 109.5
H15A C15 H15B 109.5
H15A C15 H15C 109.5
H15B C15 H15C 109.5
loop_
_geom_bond_atom_site_label_1
_geom_bond_atom_site_label_2
_geom_bond_distance
Pd1 N1 2.221(2)
Pd1 N2 2.111(2)
Pd1 C14 2.034(3)
Pd1 C15 2.043(3)
F1 C13 1.261(9)
F1A C13 1.295(8)
F2 C13 1.311(7)
F2A C13 1.293(9)
F3 C13 1.270(8)
F3A C13 1.328(7)
N1 C7 1.338(3)
N1 C11 1.355(3)
N2 N3 1.257(3)
N2 C6 1.440(3)
N3 C7 1.412(3)
C1 H1 0.9500
C1 C2 1.380(4)
C1 C6 1.378(3)
C2 H2 0.9500
C2 C3 1.367(4)
C3 C4 1.379(4)
C3 C13 1.502(4)
C4 H4 0.9500
C4 C5 1.379(4)
C5 H5 0.9500
C5 C6 1.379(4)
C7 C8 1.372(4)
C8 H8 0.9500
C8 C9 1.389(4)
C9 H9 0.9500
C9 C10 1.356(5)
C10 H10 0.9500
C10 C11 1.389(4)
C11 C12 1.475(4)
C12 H12A 0.9800
C12 H12B 0.9800
C12 H12C 0.9800
C14 H14A 0.9800
C14 H14B 0.9800
C14 H14C 0.9800
C15 H15A 0.9800
C15 H15B 0.9800
C15 H15C 0.9800
loop_
_geom_torsion_atom_site_label_1
_geom_torsion_atom_site_label_2
_geom_torsion_atom_site_label_3
_geom_torsion_atom_site_label_4
_geom_torsion
Pd1 N1 C7 N3 7.7(3)
Pd1 N1 C7 C8 -175.2(3)
Pd1 N1 C11 C10 175.0(2)
Pd1 N1 C11 C12 -4.6(4)
Pd1 N2 N3 C7 -11.0(3)
Pd1 N2 C6 C1 50.0(3)
Pd1 N2 C6 C5 -129.4(2)
N1 C7 C8 C9 -0.4(5)
N2 N3 C7 N1 1.4(4)
N2 N3 C7 C8 -176.0(3)
N3 N2 C6 C1 -141.6(2)
N3 N2 C6 C5 39.0(3)
N3 C7 C8 C9 176.9(3)
C1 C2 C3 C4 -1.5(4)
C1 C2 C3 C13 176.4(3)
C2 C1 C6 N2 -179.3(2)
C2 C1 C6 C5 0.1(4)
C2 C3 C4 C5 0.3(4)
C2 C3 C13 F1 19.8(10)
C2 C3 C13 F1A -123.2(11)
C2 C3 C13 F2 -99.6(6)
C2 C3 C13 F2A 115.2(9)
C2 C3 C13 F3 143.8(10)
C2 C3 C13 F3A -2.0(8)
C3 C4 C5 C6 1.0(4)
C4 C3 C13 F1 -162.3(10)
C4 C3 C13 F1A 54.7(11)
C4 C3 C13 F2 78.3(6)
C4 C3 C13 F2A -66.9(9)
C4 C3 C13 F3 -38.2(10)
C4 C3 C13 F3A 175.9(7)
C4 C5 C6 N2 178.2(2)
C4 C5 C6 C1 -1.2(4)
C6 N2 N3 C7 179.6(2)
C6 C1 C2 C3 1.3(4)
C7 N1 C11 C10 0.2(4)
C7 N1 C11 C12 -179.4(3)
C7 C8 C9 C10 -1.0(5)
C8 C9 C10 C11 2.0(5)
C9 C10 C11 N1 -1.6(5)
C9 C10 C11 C12 178.0(3)
C11 N1 C7 N3 -176.4(2)
C11 N1 C7 C8 0.8(4)
C13 C3 C4 C5 -177.6(3)
