#------------------------------------------------------------------------------
#$Date: 2019-11-25 23:48:13 +0200 (Mon, 25 Nov 2019) $
#$Revision: 242090 $
#$URL: file:///home/coder/svn-repositories/cod/cif/4/13/20/4132048.cif $
#------------------------------------------------------------------------------
#
# This file is available in the Crystallography Open Database (COD),
# http://www.crystallography.net/
#
# All data on this site have been placed in the public domain by the
# contributors.
#
data_4132048
loop_
_publ_author_name
'Spanopoulos, Ioannis'
'Ke, Weijun'
'Stoumpos, Constantinos C.'
'Schueller, Emily C.'
'Kontsevoi, Oleg Y.'
'Seshadri, Ram'
'Kanatzidis, Mercouri G.'
_publ_section_title
;
 Unraveling the Chemical Nature of the 3D &quot;Hollow&quot; Hybrid Halide
 Perovskites.
;
_journal_issue                   17
_journal_name_full               'Journal of the American Chemical Society'
_journal_page_first              5728
_journal_page_last               5742
_journal_paper_doi               10.1021/jacs.8b01034
_journal_volume                  140
_journal_year                    2018
_chemical_formula_moiety
(H2NCHNH2)0.61(H3NCH2CH2NH3)0.39(Pb)0.727(I)2.844
_chemical_formula_sum            'C H5 I3 N2 Pb0.743'
_chemical_formula_weight         579.7
_chemical_name_common
'39% ethylenediamonium formamidinium lead iodide'
_space_group_IT_number           100
_space_group_name_Hall           'P 4 -2ab'
_space_group_name_H-M_alt        'P 4 b m'
_symmetry_cell_setting           tetragonal
_symmetry_Int_Tables_number      100
_symmetry_space_group_name_Hall  'P 4 -2ab'
_symmetry_space_group_name_H-M   'P 4 b m'
_cell_angle_alpha                90
_cell_angle_beta                 90
_cell_angle_gamma                90
_cell_formula_units_Z            2
_cell_length_a                   9.0452(8)
_cell_length_b                   9.0452(8)
_cell_length_c                   6.4036(11)
_cell_measurement_reflns_used    1604
_cell_measurement_temperature    293
_cell_measurement_theta_max      23.85
_cell_measurement_theta_min      3.18
_cell_volume                     523.91(11)
_diffrn_ambient_temperature      293
_diffrn_detector                 'image plate (34 cm diameter)'
_diffrn_detector_area_resol_mean 6.67
_diffrn_measured_fraction_theta_full 0.99
_diffrn_measured_fraction_theta_max 0.99
_diffrn_measurement_device       'four-circle diffractometer'
_diffrn_measurement_device_type  'IPDS Stoe'
_diffrn_measurement_method       'rotation method'
_diffrn_radiation_monochromator  graphite
_diffrn_radiation_probe          x-ray
_diffrn_radiation_source         'X-ray tube'
_diffrn_radiation_type           'Mo K\a'
_diffrn_radiation_wavelength     0.71073
_diffrn_reflns_av_R_equivalents  0.0884
_diffrn_reflns_av_unetI/netI     0.0311
_diffrn_reflns_limit_h_max       12
_diffrn_reflns_limit_h_min       -12
_diffrn_reflns_limit_k_max       12
_diffrn_reflns_limit_k_min       -12
_diffrn_reflns_limit_l_max       8
_diffrn_reflns_limit_l_min       -8
_diffrn_reflns_number            4394
_diffrn_reflns_theta_full        29.18
_diffrn_reflns_theta_max         29.18
_diffrn_reflns_theta_min         3.18
_diffrn_source
'sealed X-ray tube, 12 x 0.4 mm long-fine focus'
_diffrn_source_current           40
_diffrn_source_power             1.20
_diffrn_source_voltage           50
_exptl_absorpt_coefficient_mu    20.757
_exptl_absorpt_correction_T_max  0.2492
_exptl_absorpt_correction_T_min  0.1434
_exptl_absorpt_correction_type   integration
_exptl_absorpt_process_details   X-Shape
_exptl_crystal_colour            red
_exptl_crystal_density_diffrn    3.6748
_exptl_crystal_description       'Red octahedron'
_exptl_crystal_F_000             490
_exptl_crystal_size_max          0.0567
_exptl_crystal_size_mid          0.0403
_exptl_crystal_size_min          0.0323
_refine_diff_density_max         2.12
_refine_diff_density_min         -2.24
_refine_ls_abs_structure_details
'  379 of Friedel pairs used in the refinement'
_refine_ls_abs_structure_Flack   0.54(8)
_refine_ls_extinction_method     none
_refine_ls_goodness_of_fit_gt    3.65
_refine_ls_goodness_of_fit_ref   3.32
_refine_ls_hydrogen_treatment    constr
_refine_ls_number_constraints    10
_refine_ls_number_parameters     20
_refine_ls_number_reflns         1105
_refine_ls_number_restraints     2
_refine_ls_R_factor_all          0.0877
_refine_ls_R_factor_gt           0.0769
_refine_ls_shift/su_max          0.0434
_refine_ls_shift/su_mean         0.0071
_refine_ls_structure_factor_coef Fsqd
_refine_ls_weighting_details     w=1/(\s^2^(I)+0.0004I^2^)
_refine_ls_weighting_scheme      sigma
_refine_ls_wR_factor_gt          0.1475
_refine_ls_wR_factor_ref         0.1483
_reflns_number_gt                904
_reflns_number_total             1105
_reflns_threshold_expression     I>2\s(I)
_cod_data_source_file            ja8b01034_si_002.cif
_cod_data_source_block           39%_EN_FAPbI3
_cod_depositor_comments
;
The following automatic conversions were performed:

data item '_diffrn_radiation_probe' value 'X-ray' was changed to
'x-ray' in accordance with the
/home/saulius/struct/COD-crude-data/automatic-downloads/DataCite-retrospective/ACS/depositions/lib/dictionaries/cif_core.dic
dictionary named 'cif_core.dic' version 2.4.2 last updated on
2011-04-26.

data item '_exptl_absorpt_correction_type' value 'Integration' was
changed to 'integration' in accordance with the
/home/saulius/struct/COD-crude-data/automatic-downloads/DataCite-retrospective/ACS/depositions/lib/dictionaries/cif_core.dic
dictionary named 'cif_core.dic' version 2.4.2 last updated on
2011-04-26.

Automatic conversion script
Id: cif_fix_values 6909 2019-04-08 15:41:33Z antanas 
;
_cod_original_sg_symbol_Hall     'P 4;-2ab'
_cod_original_formula_sum        'C1 H5 I3 N2 Pb0.743'
_cod_database_code               4132048
loop_
_space_group_symop_id
_space_group_symop_operation_xyz
1 x,y,z
2 -x,-y,z
3 -y,x,z
4 y,-x,z
5 x+1/2,-y+1/2,z
6 -x+1/2,y+1/2,z
7 -y+1/2,-x+1/2,z
8 y+1/2,x+1/2,z
loop_
_atom_site_label
_atom_site_type_symbol
_atom_site_fract_x
_atom_site_fract_y
_atom_site_fract_z
_atom_site_adp_type
_atom_site_U_iso_or_equiv
_atom_site_site_symmetry_multiplicity
_atom_site_occupancy
_atom_site_calc_flag
I1 I 0 0 0.0012(16) Uani 0.0850(10) 2 1 d
Pb1 Pb 0 0 0.5063(9) Uani 0.0571(6) 2 0.743(6) d
I2 I 0.2154(3) 0.7154(3) 0.5178(13) Uani 0.1206(10) 4 1 d
C C 0 0.5 0.016(8) Uiso 0.20(2) 2 1 d
N N 0.09134(7) 0.40866(7) 0.105(8) Uiso 0.20(2) 4 1 d
H1c H 0 0.5 -0.134369 Uiso 0.2448 2 1 d
H1n H 0.096086 0.403914 0.240071 Uiso 0.2448 4 1 d
H2n H 0.147727 0.352273 0.028568 Uiso 0.2448 4 1 d
loop_
_atom_site_aniso_label
_atom_site_aniso_type_symbol
_atom_site_aniso_U_11
_atom_site_aniso_U_22
_atom_site_aniso_U_33
_atom_site_aniso_U_12
_atom_site_aniso_U_13
_atom_site_aniso_U_23
I1 I 0.1075(14) 0.1075(14) 0.040(2) 0 0 0
Pb1 Pb 0.0577(8) 0.0577(8) 0.0558(15) 0 0 0
I2 I 0.1331(17) 0.1331(17) 0.0956(19) 0.0778(18) 0.005(5) 0.005(5)
loop_
_atom_type_symbol
_atom_type_scat_dispersion_real
_atom_type_scat_dispersion_imag
_atom_type_scat_source
C 0.0033 0.0016 'International Tables Vol C tables 4.2.6.8 and 6.1.1.1'
H 0.0000 0.0000 'International Tables Vol C tables 4.2.6.8 and 6.1.1.1'
I -0.4742 1.8119 'International Tables Vol C tables 4.2.6.8 and 6.1.1.1'
N 0.0061 0.0033 'International Tables Vol C tables 4.2.6.8 and 6.1.1.1'
Pb -3.3944 10.1111 'International Tables Vol C tables 4.2.6.8 and 6.1.1.1'
loop_
_exptl_crystal_face_index_h
_exptl_crystal_face_index_k
_exptl_crystal_face_index_l
_exptl_crystal_face_perp_dist
30 -20 -23 0.0567
-5 -30 -11 0.0403
-1 -2 -30 0.0561
7 30 11 0.0323
-30 1 -20 0.0437
30 23 -19 0.0456
-3 30 28 0.0513
30 -30 9 0.0558
-21 -30 -3 0.0433
21 30 11 0.0357
-5 -19 30 0.0450
-30 29 -10 0.0475
loop_
_geom_angle_atom_site_label_1
_geom_angle_atom_site_label_2
_geom_angle_atom_site_label_3
_geom_angle_site_symmetry_1
_geom_angle_site_symmetry_3
_geom_angle
Pb1 I1 Pb1 1_554 . 180.0(5)
Pb1 I1 N 1_554 . 99.9(8)
Pb1 I1 N 1_554 2_555 99.9(8)
Pb1 I1 N 1_554 3_555 99.9(8)
Pb1 I1 N 1_554 4_555 99.9(8)
Pb1 I1 N . . 80.1(8)
Pb1 I1 N . 2_555 80.1(8)
Pb1 I1 N . 3_555 80.1(8)
Pb1 I1 N . 4_555 80.1(8)
N I1 N . 2_555 160.2(11)
N I1 N . 3_555 88.30(19)
N I1 N . 4_555 88.30(19)
N I1 N 2_555 3_555 88.30(19)
N I1 N 2_555 4_555 88.30(19)
N I1 N 3_555 4_555 160.2(11)
I1 Pb1 I1 . 1_556 180.0(5)
I1 Pb1 I2 . 1_545 91.31(17)
I1 Pb1 I2 . 2_565 91.31(17)
I1 Pb1 I2 . 3_655 91.31(17)
I1 Pb1 I2 . 4_455 91.31(17)
I1 Pb1 I2 1_556 1_545 88.69(17)
I1 Pb1 I2 1_556 2_565 88.69(17)
I1 Pb1 I2 1_556 3_655 88.69(17)
I1 Pb1 I2 1_556 4_455 88.69(17)
I2 Pb1 I2 1_545 2_565 177.4(3)
I2 Pb1 I2 1_545 3_655 89.97(7)
I2 Pb1 I2 1_545 4_455 89.97(7)
I2 Pb1 I2 2_565 3_655 89.97(7)
I2 Pb1 I2 2_565 4_455 89.97(7)
I2 Pb1 I2 3_655 4_455 177.4(3)
Pb1 I2 Pb1 1_565 5_555 164.02(11)
Pb1 I2 N 1_565 . 111.7(3)
Pb1 I2 N 1_565 2_565 77.87(15)
Pb1 I2 N 1_565 4_565 83.67(14)
Pb1 I2 N 5_555 . 77.87(15)
Pb1 I2 N 5_555 2_565 111.7(3)
Pb1 I2 N 5_555 4_565 83.67(14)
N I2 N . 2_565 34.0(2)
N I2 N . 4_565 89.2(8)
N I2 N 2_565 4_565 89.2(8)
N C N . 2_565 128(5)
N C H1c . . 116
N C H1c 2_565 . 116
I1 N I1 . 5_555 112.6(4)
I1 N I2 . . 147.3(13)
I1 N I2 . 2_565 72.2(3)
I1 N I2 . 3_655 76.4(3)
I1 N C . . 113.5(16)
I1 N H1n . . 97.75
I1 N H2n . . 57.73
I1 N I2 5_555 . 72.2(3)
I1 N I2 5_555 2_565 147.3(13)
I1 N I2 5_555 3_655 76.4(3)
I1 N C 5_555 . 113.5(16)
I1 N H1n 5_555 . 97.75
I1 N H2n 5_555 . 57.73
I2 N I2 . 2_565 87.2(9)
I2 N I2 . 3_655 73.5(8)
I2 N C . . 91.6(19)
I2 N H1n . . 50.17
I2 N H2n . . 127.8
I2 N I2 2_565 3_655 73.5(8)
I2 N C 2_565 . 91.6(19)
I2 N H1n 2_565 . 50.17
I2 N H2n 2_565 . 127.8
I2 N C 3_655 . 159(3)
I2 N H1n 3_655 . 39.05
I2 N H2n 3_655 . 80.95
C N H1n . . 120
C N H2n . . 120
H1n N H2n . . 120
loop_
_geom_bond_atom_site_label_1
_geom_bond_atom_site_label_2
_geom_bond_site_symmetry_2
_geom_bond_distance
I1 Pb1 1_554 3.169(12)
I1 Pb1 . 3.235(12)
I1 N . 3.845(9)
I1 N 2_555 3.845(9)
I1 N 3_555 3.845(9)
I1 N 4_555 3.845(9)
Pb1 I2 1_545 3.229(3)
Pb1 I2 2_565 3.229(3)
Pb1 I2 3_655 3.229(3)
Pb1 I2 4_455 3.229(3)
I2 N . 3.99(3)
I2 N 2_565 3.99(3)
I2 N 4_565 3.62(4)
C N . 1.30(3)
C N 2_565 1.30(3)
C H1c . 0.96
N H1n . 0.87
N H2n . 0.87
loop_
_twin_individual_id
_twin_individual_mass_fraction_refined
_twin_individual_twin_matrix_11
_twin_individual_twin_matrix_12
_twin_individual_twin_matrix_13
_twin_individual_twin_matrix_21
_twin_individual_twin_matrix_22
_twin_individual_twin_matrix_23
_twin_individual_twin_matrix_31
_twin_individual_twin_matrix_32
_twin_individual_twin_matrix_33
1 0.41(8) 1 0 0 0 1 0 0 0 1
2 0.54(8) -1 0 0 0 -1 0 0 0 -1
3 0.054(7) -0.5 0.5 0.5 0.5 -0.5 0.5 1 1 0
loop_
_restr_distance_atom_site_label_1
_restr_distance_atom_site_label_2
_restr_distance_target
_restr_distance_target_weight_param
C N 1.3 0.001
loop_
_restr_angle_atom_site_label_1
_restr_angle_atom_site_label_2
_restr_angle_atom_site_label_3
_restr_angle_site_symmetry_3
_restr_angle_target
_restr_angle_target_weight_param
N C N 2_565 128 0.01
loop_
_twin_refln_datum_id
_twin_refln_individual_id
_twin_refln_index_h
_twin_refln_index_k
_twin_refln_index_l
_twin_refln_f_squared_calc
_twin_refln_f_squared_meas
_twin_refln_f_squared_sigma
_twin_refln_include_status
1 3 1 -1 0 25138.00 24564.60 314.06 o
1 2 1 -1 0 25138.00 24564.60 314.06 o
1 1 -1 1 0 25138.00 24564.60 314.06 o
2 3 0 0 1 25320.10 20550.80 241.32 o
2 2 -1 -1 0 25320.10 20550.80 241.32 o
2 1 1 1 0 25320.10 20550.80 241.32 o
3 3 0 0 -1 25340.70 19892.60 235.22 o
3 2 1 1 0 25340.70 19892.60 235.22 o
3 1 -1 -1 0 25340.70 19892.60 235.22 o
4 3 1 -1 1 2974.85 3098.85 96.33 o
4 2 0 -2 0 2974.85 3098.85 96.33 o
4 1 0 2 0 2974.85 3098.85 96.33 o
5 3 1 -1 -1 2949.65 2791.10 88.79 o
5 2 2 0 0 2949.65 2791.10 88.79 o
5 1 -2 0 0 2949.65 2791.10 88.79 o
6 2 -1 -2 0 2540.71 2619.75 45.29 o
6 1 1 2 0 2540.71 2619.75 45.29 o
7 3 0 0 2 88147.30 84673.70 352.16 o
7 2 -2 -2 0 88147.30 84673.70 352.16 o
7 1 2 2 0 88147.30 84673.70 352.16 o
8 3 0 0 -2 88046.50 79322.50 335.65 o
8 2 2 2 0 88046.50 79322.50 335.65 o
8 1 -2 -2 0 88046.50 79322.50 335.65 o
9 3 3 -3 0 4386.96 5139.23 109.43 o
9 2 3 -3 0 4386.96 5139.23 109.43 o
9 1 -3 3 0 4386.96 5139.23 109.43 o
10 3 2 -2 1 31795.00 34326.70 248.35 o
10 2 1 -3 0 31795.00 34326.70 248.35 o
10 1 -1 3 0 31795.00 34326.70 248.35 o
11 3 2 -2 -1 31776.10 34021.80 300.79 o
11 2 3 -1 0 31776.10 34021.80 300.79 o
11 1 -3 1 0 31776.10 34021.80 300.79 o
12 3 1 -1 2 32131.90 32504.70 159.74 o
12 2 -1 -3 0 32131.90 32504.70 159.74 o
12 1 1 3 0 32131.90 32504.70 159.74 o
13 3 1 -1 -2 32172.90 29068.00 149.96 o
13 2 3 1 0 32172.90 29068.00 149.96 o
13 1 -3 -1 0 32172.90 29068.00 149.96 o
14 2 -2 -3 0 1103.95 1183.30 33.41 o
14 1 2 3 0 1103.95 1183.30 33.41 o
15 3 0 0 3 4846.71 4945.63 88.82 o
15 2 -3 -3 0 4846.71 4945.63 88.82 o
15 1 3 3 0 4846.71 4945.63 88.82 o
16 3 0 0 -3 4812.03 4289.83 91.19 o
16 2 3 3 0 4812.03 4289.83 91.19 o
16 1 -3 -3 0 4812.03 4289.83 91.19 o
17 3 4 -4 0 17635.40 16154.40 238.44 o
17 2 4 -4 0 17635.40 16154.40 238.44 o
17 1 -4 4 0 17635.40 16154.40 238.44 o
18 3 3 -3 1 3464.75 3830.13 104.49 o
18 2 2 -4 0 3464.75 3830.13 104.49 o
18 1 -2 4 0 3464.75 3830.13 104.49 o
19 3 3 -3 -1 3467.28 3441.57 97.97 o
19 2 4 -2 0 3467.28 3441.57 97.97 o
19 1 -4 2 0 3467.28 3441.57 97.97 o
20 3 2 -2 2 37199.50 39876.40 188.25 o
20 2 0 -4 0 37199.50 39876.40 188.25 o
20 1 0 4 0 37199.50 39876.40 188.25 o
21 3 2 -2 -2 37176.70 32929.60 165.34 o
21 2 4 0 0 37176.70 32929.60 165.34 o
21 1 -4 0 0 37176.70 32929.60 165.34 o
22 2 -1 -4 0 4799.36 5250.63 50.16 o
22 1 1 4 0 4799.36 5250.63 50.16 o
23 3 1 -1 3 3443.79 3531.36 61.17 o
23 2 -2 -4 0 3443.79 3531.36 61.17 o
23 1 2 4 0 3443.79 3531.36 61.17 o
24 3 1 -1 -3 3428.65 3111.00 59.23 o
24 2 4 2 0 3428.65 3111.00 59.23 o
24 1 -4 -2 0 3428.65 3111.00 59.23 o
25 2 -3 -4 0 827.58 827.22 27.35 o
25 1 3 4 0 827.58 827.22 27.35 o
26 3 0 0 4 18313.40 19830.10 136.66 o
26 2 -4 -4 0 18313.40 19830.10 136.66 o
26 1 4 4 0 18313.40 19830.10 136.66 o
27 3 0 0 -4 18288.10 16683.30 129.21 o
27 2 4 4 0 18288.10 16683.30 129.21 o
27 1 -4 -4 0 18288.10 16683.30 129.21 o
28 3 5 -5 0 407.56 570.32 79.85 o
28 2 5 -5 0 407.56 570.32 79.85 o
28 1 -5 5 0 407.56 570.32 79.85 o
29 3 4 -4 1 13992.30 16566.70 172.40 o
29 2 3 -5 0 13992.30 16566.70 172.40 o
29 1 -3 5 0 13992.30 16566.70 172.40 o
30 3 4 -4 -1 13987.50 13519.10 161.47 o
30 2 5 -3 0 13987.50 13519.10 161.47 o
30 1 -5 3 0 13987.50 13519.10 161.47 o
31 3 3 -3 2 6882.71 8229.95 114.99 o
31 2 1 -5 0 6882.71 8229.95 114.99 o
31 1 -1 5 0 6882.71 8229.95 114.99 o
32 3 3 -3 -2 6895.99 7147.52 109.15 o
32 2 5 -1 0 6895.99 7147.52 109.15 o
32 1 -5 1 0 6895.99 7147.52 109.15 o
33 3 2 -2 3 7013.15 7535.42 76.96 o
33 2 -1 -5 0 7013.15 7535.42 76.96 o
33 1 1 5 0 7013.15 7535.42 76.96 o
34 3 2 -2 -3 6982.62 7118.61 91.79 o
34 2 5 1 0 6982.62 7118.61 91.79 o
34 1 -5 -1 0 6982.62 7118.61 91.79 o
35 2 -2 -5 0 36.62 29.75 23.40 <
35 1 2 5 0 36.62 29.75 23.40 <
36 3 1 -1 4 14289.20 15184.00 87.16 o
36 2 -3 -5 0 14289.20 15184.00 87.16 o
36 1 3 5 0 14289.20 15184.00 87.16 o
37 3 1 -1 -4 14303.10 13142.10 80.47 o
37 2 5 3 0 14303.10 13142.10 80.47 o
37 1 -5 -3 0 14303.10 13142.10 80.47 o
38 2 -4 -5 0 0.00 31.41 24.44 <
38 1 4 5 0 0.00 31.41 24.44 <
39 3 0 0 5 504.06 729.72 57.66 o
39 2 -5 -5 0 504.06 729.72 57.66 o
39 1 5 5 0 504.06 729.72 57.66 o
40 3 0 0 -5 480.35 611.43 57.07 o
40 2 5 5 0 480.35 611.43 57.07 o
40 1 -5 -5 0 480.35 611.43 57.07 o
41 3 5 -5 1 931.33 812.02 82.22 o
41 2 4 -6 0 931.33 812.02 82.22 o
41 1 -4 6 0 931.33 812.02 82.22 o
42 3 5 -5 -1 932.84 637.76 87.13 o
42 2 6 -4 0 932.84 637.76 87.13 o
42 1 -6 4 0 932.84 637.76 87.13 o
43 3 4 -4 2 8009.31 9796.08 122.35 o
43 2 2 -6 0 8009.31 9796.08 122.35 o
43 1 -2 6 0 8009.31 9796.08 122.35 o
44 3 4 -4 -2 8002.56 8690.15 111.01 o
44 2 6 -2 0 8002.56 8690.15 111.01 o
44 1 -6 2 0 8002.56 8690.15 111.01 o
45 3 3 -3 3 4121.61 4213.16 71.29 o
45 2 0 -6 0 4121.61 4213.16 71.29 o
45 1 0 6 0 4121.61 4213.16 71.29 o
46 3 3 -3 -3 4124.38 3360.74 63.90 o
46 2 6 0 0 4124.38 3360.74 63.90 o
46 1 -6 0 0 4124.38 3360.74 63.90 o
47 2 -1 -6 0 1551.43 1806.07 31.09 o
47 1 1 6 0 1551.43 1806.07 31.09 o
48 3 2 -2 4 8265.94 9533.33 79.29 o
48 2 -2 -6 0 8265.94 9533.33 79.29 o
48 1 2 6 0 8265.94 9533.33 79.29 o
49 3 2 -2 -4 8254.59 7607.60 70.16 o
49 2 6 2 0 8254.59 7607.60 70.16 o
49 1 -6 -2 0 8254.59 7607.60 70.16 o
50 2 -3 -6 0 613.66 553.12 26.01 o
50 1 3 6 0 613.66 553.12 26.01 o
51 3 1 -1 5 928.56 835.90 42.93 o
51 2 -4 -6 0 928.56 835.90 42.93 o
51 1 4 6 0 928.56 835.90 42.93 o
52 3 1 -1 -5 922.53 711.47 47.99 o
52 2 6 4 0 922.53 711.47 47.99 o
52 1 -6 -4 0 922.53 711.47 47.99 o
53 2 -5 -6 0 54.81 35.90 30.49 <
53 1 5 6 0 54.81 35.90 30.49 <
54 3 0 0 6 3303.12 3913.20 76.55 o
54 2 -6 -6 0 3303.12 3913.20 76.55 o
54 1 6 6 0 3303.12 3913.20 76.55 o
55 3 0 0 -6 3300.09 3235.98 73.92 o
55 2 6 6 0 3300.09 3235.98 73.92 o
55 1 -6 -6 0 3300.09 3235.98 73.92 o
56 3 6 -6 1 2692.83 3011.85 114.73 o
56 2 5 -7 0 2692.83 3011.85 114.73 o
56 1 -5 7 0 2692.83 3011.85 114.73 o
57 3 6 -6 -1 2691.57 2265.79 110.58 o
57 2 7 -5 0 2691.57 2265.79 110.58 o
57 1 -7 5 0 2691.57 2265.79 110.58 o
58 3 5 -5 2 948.22 1138.95 75.61 o
58 2 3 -7 0 948.22 1138.95 75.61 o
58 1 -3 7 0 948.22 1138.95 75.61 o
59 3 5 -5 -2 953.86 1031.83 76.38 o
59 2 7 -3 0 953.86 1031.83 76.38 o
59 1 -7 3 0 953.86 1031.83 76.38 o
60 3 4 -4 3 3826.93 4535.13 93.42 o
60 2 1 -7 0 3826.93 4535.13 93.42 o
60 1 -1 7 0 3826.93 4535.13 93.42 o
61 3 4 -4 -3 3817.73 3996.14 85.73 o
61 2 7 -1 0 3817.73 3996.14 85.73 o
61 1 -7 1 0 3817.73 3996.14 85.73 o
62 3 3 -3 4 3851.96 4419.38 68.01 o
62 2 -1 -7 0 3851.96 4419.38 68.01 o
62 1 1 7 0 3851.96 4419.38 68.01 o
63 3 3 -3 -4 3862.47 3380.09 60.04 o
63 2 7 1 0 3862.47 3380.09 60.04 o
63 1 -7 -1 0 3862.47 3380.09 60.04 o
64 2 -2 -7 0 123.93 177.61 27.28 o
64 1 2 7 0 123.93 177.61 27.28 o
65 3 2 -2 5 987.29 1128.49 45.10 o
65 2 -3 -7 0 987.29 1128.49 45.10 o
65 1 3 7 0 987.29 1128.49 45.10 o
66 3 2 -2 -5 972.01 929.42 47.68 o
66 2 7 3 0 972.01 929.42 47.68 o
66 1 -7 -3 0 972.01 929.42 47.68 o
67 2 -4 -7 0 111.71 128.20 26.54 o
67 1 4 7 0 111.71 128.20 26.54 o
68 3 1 -1 6 2763.42 2831.24 50.63 o
68 2 -5 -7 0 2763.42 2831.24 50.63 o
68 1 5 7 0 2763.42 2831.24 50.63 o
69 3 1 -1 -6 2768.24 2363.46 49.07 o
69 2 7 5 0 2768.24 2363.46 49.07 o
69 1 -7 -5 0 2768.24 2363.46 49.07 o
70 2 -6 -7 0 11.44 27.56 34.33 <
70 1 6 7 0 11.44 27.56 34.33 <
71 3 0 0 7 54.62 64.69 60.20 <
71 2 -7 -7 0 54.62 64.69 60.20 <
71 1 7 7 0 54.62 64.69 60.20 <
72 3 0 0 -7 48.58 84.84 61.56 <
72 2 7 7 0 48.58 84.84 61.56 <
72 1 -7 -7 0 48.58 84.84 61.56 <
73 3 7 -7 -1 80.75 96.95 106.94 <
73 2 8 -6 0 80.75 96.95 106.94 <
73 1 -8 6 0 80.75 96.95 106.94 <
74 3 6 -6 2 1484.91 2179.33 95.68 o
74 2 4 -8 0 1484.91 2179.33 95.68 o
74 1 -4 8 0 1484.91 2179.33 95.68 o
75 3 6 -6 -2 1483.27 1766.97 92.80 o
75 2 8 -4 0 1483.27 1766.97 92.80 o
75 1 -8 4 0 1483.27 1766.97 92.80 o
76 3 5 -5 3 1318.49 1062.83 65.37 o
76 2 2 -8 0 1318.49 1062.83 65.37 o
76 1 -2 8 0 1318.49 1062.83 65.37 o
77 3 5 -5 -3 1321.04 1031.83 77.65 o
77 2 8 -2 0 1321.04 1031.83 77.65 o
77 1 -8 2 0 1321.04 1031.83 77.65 o
78 3 4 -4 4 1696.01 2412.48 64.94 o
78 2 0 -8 0 1696.01 2412.48 64.94 o
78 1 0 8 0 1696.01 2412.48 64.94 o
79 3 4 -4 -4 1692.78 1952.70 61.21 o
79 2 8 0 0 1692.78 1952.70 61.21 o
79 1 -8 0 0 1692.78 1952.70 61.21 o
80 2 -1 -8 0 208.60 250.29 27.35 o
80 1 1 8 0 208.60 250.29 27.35 o
81 3 3 -3 5 1318.91 1184.12 51.12 o
81 2 -2 -8 0 1318.91 1184.12 51.12 o
81 1 2 8 0 1318.91 1184.12 51.12 o
82 3 3 -3 -5 1319.00 956.14 59.86 o
82 2 8 2 0 1319.00 956.14 59.86 o
82 1 -8 -2 0 1319.00 956.14 59.86 o
83 2 -3 -8 0 179.62 185.73 27.35 o
83 1 3 8 0 179.62 185.73 27.35 o
84 3 2 -2 6 1548.24 2138.65 58.29 o
84 2 -4 -8 0 1548.24 2138.65 58.29 o
84 1 4 8 0 1548.24 2138.65 58.29 o
85 3 2 -2 -6 1546.72 1703.38 55.77 o
85 2 8 4 0 1546.72 1703.38 55.77 o
85 1 -8 -4 0 1546.72 1703.38 55.77 o
86 2 -5 -8 0 70.33 77.60 28.97 o
86 1 5 8 0 70.33 77.60 28.97 o
87 3 1 -1 7 82.76 70.07 48.56 <
87 2 -6 -8 0 82.76 70.07 48.56 <
87 1 6 8 0 82.76 70.07 48.56 <
88 3 1 -1 -7 80.42 43.73 44.24 <
88 2 8 6 0 80.42 43.73 44.24 <
88 1 -8 -6 0 80.42 43.73 44.24 <
89 2 -7 -8 0 4.95 116.19 32.70 o
89 1 7 8 0 4.95 116.19 32.70 o
90 3 7 -7 2 133.90 169.52 82.98 o
90 2 5 -9 0 133.90 169.52 82.98 o
90 1 -5 9 0 133.90 169.52 82.98 o
91 3 7 -7 -2 134.91 168.59 88.31 <
91 2 9 -5 0 134.91 168.59 88.31 <
91 1 -9 5 0 134.91 168.59 88.31 <
92 3 6 -6 3 748.80 771.63 83.32 o
92 2 3 -9 0 748.80 771.63 83.32 o
92 1 -3 9 0 748.80 771.63 83.32 o
93 3 6 -6 -3 746.61 781.20 83.57 o
93 2 9 -3 0 746.61 781.20 83.57 o
93 1 -9 3 0 746.61 781.20 83.57 o
94 3 5 -5 4 755.60 609.65 76.63 o
94 2 1 -9 0 755.60 609.65 76.63 o
94 1 -1 9 0 755.60 609.65 76.63 o
95 3 5 -5 -4 759.70 715.58 85.28 o
95 2 9 -1 0 759.70 715.58 85.28 o
95 1 -9 1 0 759.70 715.58 85.28 o
96 3 4 -4 5 758.14 853.22 50.50 o
96 2 -1 -9 0 758.14 853.22 50.50 o
96 1 1 9 0 758.14 853.22 50.50 o
97 3 4 -4 -5 753.21 650.21 48.51 o
97 2 9 1 0 753.21 650.21 48.51 o
97 1 -9 -1 0 753.21 650.21 48.51 o
98 2 -2 -9 0 30.56 63.63 29.22 o
98 1 2 9 0 30.56 63.63 29.22 o
99 3 3 -3 6 761.62 894.32 53.89 o
99 2 -3 -9 0 761.62 894.32 53.89 o
99 1 3 9 0 761.62 894.32 53.89 o
100 3 3 -3 -6 765.51 668.46 50.63 o
100 2 9 3 0 765.51 668.46 50.63 o
100 1 -9 -3 0 765.51 668.46 50.63 o
101 2 -4 -9 0 57.70 77.32 28.80 o
101 1 4 9 0 57.70 77.32 28.80 o
102 3 2 -2 7 138.36 195.72 54.05 o
102 2 -5 -9 0 138.36 195.72 54.05 o
102 1 5 9 0 138.36 195.72 54.05 o
103 3 2 -2 -7 134.42 206.73 51.56 o
103 2 9 5 0 134.42 206.73 51.56 o
103 1 -9 -5 0 134.42 206.73 51.56 o
104 2 -6 -9 0 26.58 62.95 34.95 <
104 1 6 9 0 26.58 62.95 34.95 <
105 3 7 -7 3 177.93 94.24 80.86 <
105 2 4 -10 0 177.93 94.24 80.86 <
105 1 -4 10 0 177.93 94.24 80.86 <
106 3 7 -7 -3 178.65 95.17 79.85 <
106 2 10 -4 0 178.65 95.17 79.85 <
106 1 -10 4 0 178.65 95.17 79.85 <
107 3 6 -6 4 329.60 568.41 77.56 o
107 2 2 -10 0 329.60 568.41 77.56 o
107 1 -2 10 0 329.60 568.41 77.56 o
108 3 6 -6 -4 328.59 453.85 84.34 o
108 2 10 -2 0 328.59 453.85 84.34 o
108 1 -10 2 0 328.59 453.85 84.34 o
109 3 5 -5 5 479.82 463.72 63.56 o
109 2 0 -10 0 479.82 463.72 63.56 o
109 1 0 10 0 479.82 463.72 63.56 o
110 3 5 -5 -5 480.77 294.28 59.28 o
110 2 10 0 0 480.77 294.28 59.28 o
110 1 -10 0 0 480.77 294.28 59.28 o
111 2 -1 -10 0 12.78 48.52 29.15 <
111 1 1 10 0 12.78 48.52 29.15 <
112 3 4 -4 6 337.16 520.62 59.20 o
112 2 -2 -10 0 337.16 520.62 59.20 o
112 1 2 10 0 337.16 520.62 59.20 o
113 3 4 -4 -6 336.80 494.03 55.53 o
113 2 10 2 0 336.80 494.03 55.53 o
113 1 -10 -2 0 336.80 494.03 55.53 o
114 2 -3 -10 0 21.90 84.40 32.92 o
114 1 3 10 0 21.90 84.40 32.92 o
115 3 3 -3 7 178.76 152.54 51.28 o
115 2 -4 -10 0 178.76 152.54 51.28 o
115 1 4 10 0 178.76 152.54 51.28 o
116 3 3 -3 -7 178.18 134.04 53.59 o
116 2 10 4 0 178.18 134.04 53.59 o
116 1 -10 -4 0 178.18 134.04 53.59 o
117 3 1 1 -7 10.53 53.94 59.61 <
117 2 7 7 -1 10.53 53.94 59.61 <
117 1 -7 -7 1 10.53 53.94 59.61 <
118 3 -1 -1 7 11.72 23.88 59.19 <
118 2 -7 -7 1 11.72 23.88 59.19 <
118 1 7 7 -1 11.72 23.88 59.19 <
119 3 2 0 -7 13.03 71.13 45.90 <
119 2 8 6 -1 13.03 71.13 45.90 <
119 1 -8 -6 1 13.03 71.13 45.90 <
120 3 0 -2 7 11.98 38.48 43.26 <
120 2 -6 -8 1 11.98 38.48 43.26 <
120 1 6 8 -1 11.98 38.48 43.26 <
121 3 1 1 -6 1381.19 1502.45 63.76 o
121 2 6 6 -1 1381.19 1502.45 63.76 o
121 1 -6 -6 1 1381.19 1502.45 63.76 o
122 3 -1 -1 6 1379.40 1955.79 75.87 o
122 2 -6 -6 1 1379.40 1955.79 75.87 o
122 1 6 6 -1 1379.40 1955.79 75.87 o
123 3 3 -1 -7 29.62 104.06 48.03 o
123 2 9 5 -1 29.62 104.06 48.03 o
123 1 -9 -5 1 29.62 104.06 48.03 o
124 3 1 -3 7 31.28 122.69 52.98 o
124 2 -5 -9 1 31.28 122.69 52.98 o
124 1 5 9 -1 31.28 122.69 52.98 o
125 3 2 0 -6 1215.32 940.17 42.85 o
125 2 7 5 -1 1215.32 940.17 42.85 o
125 1 -7 -5 1 1215.32 940.17 42.85 o
126 3 0 -2 6 1208.36 1143.86 45.64 o
126 2 -5 -7 1 1208.36 1143.86 45.64 o
126 1 5 7 -1 1208.36 1143.86 45.64 o
127 3 1 1 -5 172.43 165.71 56.31 o
127 2 5 5 -1 172.43 165.71 56.31 o
127 1 -5 -5 1 172.43 165.71 56.31 o
128 3 -1 -1 5 174.79 190.09 56.39 o
128 2 -5 -5 1 174.79 190.09 56.39 o
128 1 5 5 -1 174.79 190.09 56.39 o
129 3 3 -1 -6 614.14 827.77 50.40 o
129 2 8 4 -1 614.14 827.77 50.40 o
129 1 -8 -4 1 614.14 827.77 50.40 o
130 3 1 -3 6 613.48 978.15 53.26 o
130 2 -4 -8 1 613.48 978.15 53.26 o
130 1 4 8 -1 613.48 978.15 53.26 o
131 3 2 0 -5 82.92 53.73 43.70 <
131 2 6 4 -1 82.92 53.73 43.70 <
131 1 -6 -4 1 82.92 53.73 43.70 <
132 3 0 -2 5 72.09 138.87 41.95 o
132 2 -4 -6 1 72.09 138.87 41.95 o
132 1 4 6 -1 72.09 138.87 41.95 o
133 3 1 1 -4 4267.50 4304.48 84.50 o
133 2 4 4 -1 4267.50 4304.48 84.50 o
133 1 -4 -4 1 4267.50 4304.48 84.50 o
134 3 -1 -1 4 4265.33 4960.61 89.92 o
134 2 -4 -4 1 4265.33 4960.61 89.92 o
134 1 4 4 -1 4265.33 4960.61 89.92 o
135 3 4 -2 -6 306.83 153.34 62.40 o
135 2 9 3 -1 306.83 153.34 62.40 o
135 1 -9 -3 1 306.83 153.34 62.40 o
136 3 2 -4 6 303.19 322.99 50.77 o
136 2 -3 -9 1 303.19 322.99 50.77 o
136 1 3 9 -1 303.19 322.99 50.77 o
137 3 3 -1 -5 44.04 99.20 43.77 o
137 2 7 3 -1 44.04 99.20 43.77 o
137 1 -7 -3 1 44.04 99.20 43.77 o
138 3 1 -3 5 48.92 66.60 46.08 <
138 2 -3 -7 1 48.92 66.60 46.08 <
138 1 3 7 -1 48.92 66.60 46.08 <
139 3 2 0 -4 3752.06 3767.86 56.39 o
139 2 5 3 -1 3752.06 3767.86 56.39 o
139 1 -5 -3 1 3752.06 3767.86 56.39 o
140 3 0 -2 4 3735.13 4360.32 54.84 o
140 2 -3 -5 1 3735.13 4360.32 54.84 o
140 1 3 5 -1 3735.13 4360.32 54.84 o
141 3 1 1 -3 664.64 714.48 58.85 o
141 2 3 3 -1 664.64 714.48 58.85 o
141 1 -3 -3 1 664.64 714.48 58.85 o
142 3 -1 -1 3 673.67 814.48 60.12 o
142 2 -3 -3 1 673.67 814.48 60.12 o
142 1 3 3 -1 673.67 814.48 60.12 o
143 3 5 -3 -6 146.62 228.92 53.26 o
143 2 10 2 -1 146.62 228.92 53.26 o
143 1 -10 -2 1 146.62 228.92 53.26 o
144 3 3 -5 6 146.81 222.57 58.83 o
144 2 -2 -10 1 146.81 222.57 58.83 o
144 1 2 10 -1 146.81 222.57 58.83 o
145 3 4 -2 -5 265.59 120.45 40.58 o
145 2 8 2 -1 265.59 120.45 40.58 o
145 1 -8 -2 1 265.59 120.45 40.58 o
146 3 2 -4 5 263.48 121.38 43.96 o
146 2 -2 -8 1 263.48 121.38 43.96 o
146 1 2 8 -1 263.48 121.38 43.96 o
147 3 3 -1 -4 1858.97 1967.14 49.23 o
147 2 6 2 -1 1858.97 1967.14 49.23 o
147 1 -6 -2 1 1858.97 1967.14 49.23 o
148 3 1 -3 4 1864.69 2351.39 48.41 o
148 2 -2 -6 1 1864.69 2351.39 48.41 o
148 1 2 6 -1 1864.69 2351.39 48.41 o
149 3 2 0 -3 1369.92 1391.36 50.84 o
149 2 4 2 -1 1369.92 1391.36 50.84 o
149 1 -4 -2 1 1369.92 1391.36 50.84 o
150 3 0 -2 3 1336.50 1536.74 47.57 o
150 2 -2 -4 1 1336.50 1536.74 47.57 o
150 1 2 4 -1 1336.50 1536.74 47.57 o
151 3 1 1 -2 15536.40 18422.00 164.01 o
151 2 2 2 -1 15536.40 18422.00 164.01 o
151 1 -2 -2 1 15536.40 18422.00 164.01 o
152 3 -1 -1 2 15541.20 19022.00 167.99 o
152 2 -2 -2 1 15541.20 19022.00 167.99 o
152 1 2 2 -1 15541.20 19022.00 167.99 o
153 3 5 -3 -5 216.16 259.69 49.79 o
153 2 9 1 -1 216.16 259.69 49.79 o
153 1 -9 -1 1 216.16 259.69 49.79 o
154 3 3 -5 5 220.37 261.52 50.41 o
154 2 -1 -9 1 220.37 261.52 50.41 o
154 1 1 9 -1 220.37 261.52 50.41 o
155 3 4 -2 -4 796.04 756.35 50.97 o
155 2 7 1 -1 796.04 756.35 50.97 o
155 1 -7 -1 1 796.04 756.35 50.97 o
156 3 2 -4 4 785.43 951.65 50.25 o
156 2 -1 -7 1 785.43 951.65 50.25 o
156 1 1 7 -1 785.43 951.65 50.25 o
157 3 3 -1 -3 128.69 146.23 49.11 o
157 2 5 1 -1 128.69 146.23 49.11 o
157 1 -5 -1 1 128.69 146.23 49.11 o
158 3 1 -3 3 132.77 189.67 42.49 o
158 2 -1 -5 1 132.77 189.67 42.49 o
158 1 1 5 -1 132.77 189.67 42.49 o
159 3 2 0 -2 2494.26 2734.45 58.54 o
159 2 3 1 -1 2494.26 2734.45 58.54 o
159 1 -3 -1 1 2494.26 2734.45 58.54 o
160 3 0 -2 2 2471.63 2879.50 63.39 o
160 2 -1 -3 1 2471.63 2879.50 63.39 o
160 1 1 3 -1 2471.63 2879.50 63.39 o
161 3 1 1 -1 648.00 1043.18 85.18 o
161 2 1 1 -1 648.00 1043.18 85.18 o
161 1 -1 -1 1 648.00 1043.18 85.18 o
162 3 -1 -1 1 734.27 1048.60 85.86 o
162 2 -1 -1 1 734.27 1048.60 85.86 o
162 1 1 1 -1 734.27 1048.60 85.86 o
163 3 6 -4 -5 191.54 100.08 62.67 <
163 2 10 0 -1 191.54 100.08 62.67 <
163 1 -10 0 1 191.54 100.08 62.67 <
164 3 4 -6 5 191.12 82.81 58.68 <
164 2 0 -10 1 191.12 82.81 58.68 <
164 1 0 10 -1 191.12 82.81 58.68 <
165 3 5 -3 -4 453.57 424.34 53.92 o
165 2 8 0 -1 453.57 424.34 53.92 o
165 1 -8 0 1 453.57 424.34 53.92 o
166 3 3 -5 4 456.48 638.61 53.97 o
166 2 0 -8 1 456.48 638.61 53.97 o
166 1 0 8 -1 456.48 638.61 53.97 o
167 3 4 -2 -3 205.30 159.02 45.50 o
167 2 6 0 -1 205.30 159.02 45.50 o
167 1 -6 0 1 205.30 159.02 45.50 o
168 3 2 -4 3 200.07 195.51 48.49 o
168 2 0 -6 1 200.07 195.51 48.49 o
168 1 0 6 -1 200.07 195.51 48.49 o
169 3 3 -1 -2 7719.48 9112.93 92.62 o
169 2 4 0 -1 7719.48 9112.93 92.62 o
169 1 -4 0 1 7719.48 9112.93 92.62 o
170 3 1 -3 2 7769.90 10472.50 100.92 o
170 2 0 -4 1 7769.90 10472.50 100.92 o
170 1 0 4 -1 7769.90 10472.50 100.92 o
171 3 2 0 -1 19005.70 24806.10 208.80 o
171 2 2 0 -1 19005.70 24806.10 208.80 o
171 1 -2 0 1 19005.70 24806.10 208.80 o
172 3 0 -2 1 18928.20 24627.10 207.71 o
172 2 0 -2 1 18928.20 24627.10 207.71 o
172 1 0 2 -1 18928.20 24627.10 207.71 o
173 3 1 1 0 28551.10 26086.10 262.49 o
173 2 0 0 -1 28551.10 26086.10 262.49 o
173 1 0 0 1 28551.10 26086.10 262.49 o
174 3 -1 -1 0 28501.40 26089.20 260.96 o
174 2 0 0 1 28501.40 26089.20 260.96 o
174 1 0 0 -1 28501.40 26089.20 260.96 o
175 3 6 -4 -4 230.49 255.80 72.65 o
175 2 9 -1 -1 230.49 255.80 72.65 o
175 1 -9 1 1 230.49 255.80 72.65 o
176 3 4 -6 4 227.55 254.87 67.23 o
176 2 1 -9 1 227.55 254.87 67.23 o
176 1 -1 9 -1 227.55 254.87 67.23 o
177 3 5 -3 -3 758.07 732.47 63.10 o
177 2 7 -1 -1 758.07 732.47 63.10 o
177 1 -7 1 1 758.07 732.47 63.10 o
178 3 3 -5 3 767.84 843.35 70.79 o
178 2 1 -7 1 767.84 843.35 70.79 o
178 1 -1 7 -1 767.84 843.35 70.79 o
179 3 4 -2 -2 272.19 165.07 53.66 o
179 2 5 -1 -1 272.19 165.07 53.66 o
179 1 -5 1 1 272.19 165.07 53.66 o
180 3 2 -4 2 247.66 191.28 68.33 o
180 2 1 -5 1 247.66 191.28 68.33 o
180 1 -1 5 -1 247.66 191.28 68.33 o
181 3 3 -1 -1 2460.21 2912.33 70.55 o
181 2 3 -1 -1 2460.21 2912.33 70.55 o
181 1 -3 1 1 2460.21 2912.33 70.55 o
182 3 1 -3 1 2473.51 2849.27 89.67 o
182 2 1 -3 1 2473.51 2849.27 89.67 o
182 1 -1 3 -1 2473.51 2849.27 89.67 o
183 3 2 0 0 789.71 979.42 61.24 o
183 2 1 -1 -1 789.71 979.42 61.24 o
183 1 -1 1 1 789.71 979.42 61.24 o
184 3 0 -2 0 850.77 971.12 102.88 o
184 2 1 -1 1 850.77 971.12 102.88 o
184 1 -1 1 -1 850.77 971.12 102.88 o
185 3 1 1 1 673.21 748.94 82.81 o
185 2 -1 -1 -1 673.21 748.94 82.81 o
185 1 1 1 1 673.21 748.94 82.81 o
186 3 -1 -1 -1 709.06 718.80 81.71 o
186 2 1 1 1 709.06 718.80 81.71 o
186 1 -1 -1 -1 709.06 718.80 81.71 o
187 3 7 -5 -4 138.64 198.65 78.15 o
187 2 10 -2 -1 138.64 198.65 78.15 o
187 1 -10 2 1 138.64 198.65 78.15 o
188 3 5 -7 4 139.63 265.96 63.93 o
188 2 2 -10 1 139.63 265.96 63.93 o
188 1 -2 10 -1 139.63 265.96 63.93 o
189 3 6 -4 -3 263.59 178.92 60.20 o
189 2 8 -2 -1 263.59 178.92 60.20 o
189 1 -8 2 1 263.59 178.92 60.20 o
190 3 4 -6 3 261.35 154.61 58.76 o
190 2 2 -8 1 261.35 154.61 58.76 o
190 1 -2 8 -1 261.35 154.61 58.76 o
191 3 5 -3 -2 1947.36 2240.64 80.27 o
191 2 6 -2 -1 1947.36 2240.64 80.27 o
191 1 -6 2 1 1947.36 2240.64 80.27 o
192 3 3 -5 2 1959.11 2529.04 80.78 o
192 2 2 -6 1 1959.11 2529.04 80.78 o
192 1 -2 6 -1 1959.11 2529.04 80.78 o
193 3 4 -2 -1 1146.31 1535.98 80.27 o
193 2 4 -2 -1 1146.31 1535.98 80.27 o
193 1 -4 2 1 1146.31 1535.98 80.27 o
194 3 2 -4 1 1132.28 1516.00 71.30 o
194 2 2 -4 1 1132.28 1516.00 71.30 o
194 1 -2 4 -1 1132.28 1516.00 71.30 o
195 3 3 -1 0 16093.30 16190.30 146.32 o
195 2 2 -2 -1 16093.30 16190.30 146.32 o
195 1 -2 2 1 16093.30 16190.30 146.32 o
196 3 1 -3 0 16139.10 15299.90 220.49 o
196 2 2 -2 1 16139.10 15299.90 220.49 o
196 1 -2 2 -1 16139.10 15299.90 220.49 o
197 3 2 0 1 18983.00 13955.20 126.20 o
197 2 0 -2 -1 18983.00 13955.20 126.20 o
197 1 0 2 1 18983.00 13955.20 126.20 o
198 3 0 -2 -1 18950.80 17421.00 137.11 o
198 2 2 0 1 18950.80 17421.00 137.11 o
198 1 -2 0 -1 18950.80 17421.00 137.11 o
199 2 -1 -2 -1 4281.33 4519.13 42.61 o
199 1 1 2 1 4281.33 4519.13 42.61 o
200 2 -1 -2 1 4287.58 4582.63 45.27 o
200 1 1 2 -1 4287.58 4582.63 45.27 o
201 3 1 1 2 15495.30 12520.60 140.13 o
201 2 -2 -2 -1 15495.30 12520.60 140.13 o
201 1 2 2 1 15495.30 12520.60 140.13 o
202 3 -1 -1 -2 15582.30 12154.50 138.19 o
202 2 2 2 1 15582.30 12154.50 138.19 o
202 1 -2 -2 -1 15582.30 12154.50 138.19 o
203 3 7 -5 -3 289.17 263.51 66.38 o
203 2 9 -3 -1 289.17 263.51 66.38 o
203 1 -9 3 1 289.17 263.51 66.38 o
204 3 5 -7 3 292.03 376.12 78.75 o
204 2 3 -9 1 292.03 376.12 78.75 o
204 1 -3 9 -1 292.03 376.12 78.75 o
205 3 6 -4 -2 85.21 34.29 67.06 <
205 2 7 -3 -1 85.21 34.29 67.06 <
205 1 -7 3 1 85.21 34.29 67.06 <
206 3 4 -6 2 79.89 144.71 65.28 o
206 2 3 -7 1 79.89 144.71 65.28 o
206 1 -3 7 -1 79.89 144.71 65.28 o
207 3 5 -3 -1 3796.27 4439.28 97.12 o
207 2 5 -3 -1 3796.27 4439.28 97.12 o
207 1 -5 3 1 3796.27 4439.28 97.12 o
208 3 3 -5 1 3813.66 4621.58 99.24 o
208 2 3 -5 1 3813.66 4621.58 99.24 o
208 1 -3 5 -1 3813.66 4621.58 99.24 o
209 3 4 -2 0 859.26 792.15 49.58 o
209 2 3 -3 -1 859.26 792.15 49.58 o
209 1 -3 3 1 859.26 792.15 49.58 o
210 3 2 -4 0 853.14 748.01 90.43 o
210 2 3 -3 1 853.14 748.01 90.43 o
210 1 -3 3 -1 853.14 748.01 90.43 o
211 3 3 -1 1 2464.10 2029.50 66.72 o
211 2 1 -3 -1 2464.10 2029.50 66.72 o
211 1 -1 3 1 2464.10 2029.50 66.72 o
212 3 1 -3 -1 2469.63 2299.44 69.16 o
212 2 3 -1 1 2469.63 2299.44 69.16 o
212 1 -3 1 -1 2469.63 2299.44 69.16 o
213 3 2 0 2 2462.22 1801.98 57.40 o
213 2 -1 -3 -1 2462.22 1801.98 57.40 o
213 1 1 3 1 2462.22 1801.98 57.40 o
214 3 0 -2 -2 2503.68 1854.23 57.04 o
214 2 3 1 1 2503.68 1854.23 57.04 o
214 1 -3 -1 -1 2503.68 1854.23 57.04 o
215 2 -2 -3 -1 256.60 303.89 24.98 o
215 1 2 3 1 256.60 303.89 24.98 o
216 2 -2 -3 1 254.19 292.17 27.97 o
216 1 2 3 -1 254.19 292.17 27.97 o
217 3 1 1 3 679.79 598.30 58.51 o
217 2 -3 -3 -1 679.79 598.30 58.51 o
217 1 3 3 1 679.79 598.30 58.51 o
218 3 -1 -1 -3 658.52 472.48 57.07 o
218 2 3 3 1 658.52 472.48 57.07 o
218 1 -3 -3 -1 658.52 472.48 57.07 o
219 3 7 -5 -2 601.59 889.50 84.00 o
219 2 8 -4 -1 601.59 889.50 84.00 o
219 1 -8 4 1 601.59 889.50 84.00 o
220 3 5 -7 2 604.39 949.28 82.98 o
220 2 4 -8 1 604.39 949.28 82.98 o
220 1 -4 8 -1 604.39 949.28 82.98 o
221 3 6 -4 -1 39.67 73.58 74.77 <
221 2 6 -4 -1 39.67 73.58 74.77 <
221 1 -6 4 1 39.67 73.58 74.77 <
222 3 5 -3 0 4524.27 5077.89 75.87 o
222 2 4 -4 -1 4524.27 5077.89 75.87 o
222 1 -4 4 1 4524.27 5077.89 75.87 o
223 3 3 -5 0 4535.98 4322.00 145.05 o
223 2 4 -4 1 4535.98 4322.00 145.05 o
223 1 -4 4 -1 4535.98 4322.00 145.05 o
224 3 4 -2 1 1142.21 1129.63 58.46 o
224 2 2 -4 -1 1142.21 1129.63 58.46 o
224 1 -2 4 1 1142.21 1129.63 58.46 o
225 3 2 -4 -1 1136.37 1041.74 75.87 o
225 2 4 -2 1 1136.37 1041.74 75.87 o
225 1 -4 2 -1 1136.37 1041.74 75.87 o
226 3 3 -1 2 7720.40 6656.59 78.69 o
226 2 0 -4 -1 7720.40 6656.59 78.69 o
226 1 0 4 1 7720.40 6656.59 78.69 o
227 3 1 -3 -2 7768.98 6904.21 109.31 o
227 2 4 0 1 7768.98 6904.21 109.31 o
227 1 -4 0 -1 7768.98 6904.21 109.31 o
228 2 -1 -4 -1 3654.85 3826.95 39.54 o
228 1 1 4 1 3654.85 3826.95 39.54 o
229 2 -1 -4 1 3652.53 3991.23 36.61 o
229 1 1 4 -1 3652.53 3991.23 36.61 o
230 3 2 0 3 1346.44 1084.46 43.81 o
230 2 -2 -4 -1 1346.44 1084.46 43.81 o
230 1 2 4 1 1346.44 1084.46 43.81 o
231 3 0 -2 -3 1359.99 1051.22 43.62 o
231 2 4 2 1 1359.99 1051.22 43.62 o
231 1 -4 -2 -1 1359.99 1051.22 43.62 o
232 2 -3 -4 -1 1034.30 1044.96 29.16 o
232 1 3 4 1 1034.30 1044.96 29.16 o
233 2 -3 -4 1 1035.51 958.63 29.55 o
233 1 3 4 -1 1035.51 958.63 29.55 o
234 3 1 1 4 4253.62 3929.54 73.24 o
234 2 -4 -4 -1 4253.62 3929.54 73.24 o
234 1 4 4 1 4253.62 3929.54 73.24 o
235 3 -1 -1 -4 4279.21 3458.42 79.59 o
235 2 4 4 1 4279.21 3458.42 79.59 o
235 1 -4 -4 -1 4279.21 3458.42 79.59 o
236 3 8 -6 -2 34.22 -28.54 79.34 <
236 2 9 -5 -1 34.22 -28.54 79.34 <
236 1 -9 5 1 34.22 -28.54 79.34 <
237 3 7 -5 -1 1199.91 869.85 87.81 o
237 2 7 -5 -1 1199.91 869.85 87.81 o
237 1 -7 5 1 1199.91 869.85 87.81 o
238 3 6 -4 0 224.72 191.42 57.06 o
238 2 5 -5 -1 224.72 191.42 57.06 o
238 1 -5 5 1 224.72 191.42 57.06 o
239 3 4 -6 0 221.04 182.90 122.10 <
239 2 5 -5 1 221.04 182.90 122.10 <
239 1 -5 5 -1 221.04 182.90 122.10 <
240 3 5 -3 1 3801.36 3942.64 71.75 o
240 2 3 -5 -1 3801.36 3942.64 71.75 o
240 1 -3 5 1 3801.36 3942.64 71.75 o
241 3 3 -5 -1 3808.58 3170.61 96.27 o
241 2 5 -3 1 3808.58 3170.61 96.27 o
241 1 -5 3 -1 3808.58 3170.61 96.27 o
242 3 4 -2 2 254.48 161.90 47.15 o
242 2 1 -5 -1 254.48 161.90 47.15 o
242 1 -1 5 1 254.48 161.90 47.15 o
243 3 2 -4 -2 265.37 169.98 46.15 o
243 2 5 -1 1 265.37 169.98 46.15 o
243 1 -5 1 -1 265.37 169.98 46.15 o
244 3 3 -1 3 139.60 115.75 42.16 o
244 2 -1 -5 -1 139.60 115.75 42.16 o
244 1 1 5 1 139.60 115.75 42.16 o
245 3 1 -3 -3 121.86 142.72 36.09 o
245 2 5 1 1 121.86 142.72 36.09 o
245 1 -5 -1 -1 121.86 142.72 36.09 o
246 2 -2 -5 -1 23.56 57.08 23.55 o
246 1 2 5 1 23.56 57.08 23.55 o
247 2 -2 -5 1 23.51 57.27 23.40 o
247 1 2 5 -1 23.51 57.27 23.40 o
248 3 2 0 4 3722.82 3415.02 53.23 o
248 2 -3 -5 -1 3722.82 3415.02 53.23 o
248 1 3 5 1 3722.82 3415.02 53.23 o
249 3 0 -2 -4 3764.37 3032.42 51.73 o
249 2 5 3 1 3764.37 3032.42 51.73 o
249 1 -5 -3 -1 3764.37 3032.42 51.73 o
250 2 -4 -5 -1 0.34 27.65 23.42 <
250 1 4 5 1 0.34 27.65 23.42 <
251 2 -4 -5 1 0.34 24.72 27.11 <
251 1 4 5 -1 0.34 24.72 27.11 <
252 3 1 1 5 178.46 227.35 55.29 o
252 2 -5 -5 -1 178.46 227.35 55.29 o
252 1 5 5 1 178.46 227.35 55.29 o
253 3 -1 -1 -5 168.76 124.13 58.68 o
253 2 5 5 1 168.76 124.13 58.68 o
253 1 -5 -5 -1 168.76 124.13 58.68 o
254 3 8 -6 -1 9.03 34.42 63.47 <
254 2 8 -6 -1 9.03 34.42 63.47 <
254 1 -8 6 1 9.03 34.42 63.47 <
255 3 7 -5 0 1383.88 1548.64 83.85 o
255 2 6 -6 -1 1383.88 1548.64 83.85 o
255 1 -6 6 1 1383.88 1548.64 83.85 o
256 3 6 -4 1 37.98 80.81 58.05 <
256 2 4 -6 -1 37.98 80.81 58.05 <
256 1 -4 6 1 37.98 80.81 58.05 <
257 3 4 -6 -1 35.56 57.41 77.65 <
257 2 6 -4 1 35.56 57.41 77.65 <
257 1 -6 4 -1 35.56 57.41 77.65 <
258 3 5 -3 2 1950.08 1799.91 67.38 o
258 2 2 -6 -1 1950.08 1799.91 67.38 o
258 1 -2 6 1 1950.08 1799.91 67.38 o
259 3 3 -5 -2 1956.39 1902.37 81.71 o
259 2 6 -2 1 1956.39 1902.37 81.71 o
259 1 -6 2 -1 1956.39 1902.37 81.71 o
260 3 4 -2 3 198.58 129.13 47.85 o
260 2 0 -6 -1 198.58 129.13 47.85 o
260 1 0 6 1 198.58 129.13 47.85 o
261 3 2 -4 -3 206.79 134.93 48.38 o
261 2 6 0 1 206.79 134.93 48.38 o
261 1 -6 0 -1 206.79 134.93 48.38 o
262 2 -1 -6 -1 1334.83 1263.60 26.94 o
262 1 1 6 1 1334.83 1263.60 26.94 o
263 2 -1 -6 1 1334.65 1501.56 29.93 o
263 1 1 6 -1 1334.65 1501.56 29.93 o
264 3 3 -1 4 1855.65 1870.61 49.32 o
264 2 -2 -6 -1 1855.65 1870.61 49.32 o
264 1 2 6 1 1855.65 1870.61 49.32 o
265 3 1 -3 -4 1868.00 1769.43 47.05 o
265 2 6 2 1 1868.00 1769.43 47.05 o
265 1 -6 -2 -1 1868.00 1769.43 47.05 o
266 2 -3 -6 -1 576.36 525.45 27.67 o
266 1 3 6 1 576.36 525.45 27.67 o
267 2 -3 -6 1 576.48 496.89 27.44 o
267 1 3 6 -1 576.48 496.89 27.44 o
268 3 2 0 5 76.20 107.07 39.13 o
268 2 -4 -6 -1 76.20 107.07 39.13 o
268 1 4 6 1 76.20 107.07 39.13 o
269 3 0 -2 -5 78.81 103.26 39.73 o
269 2 6 4 1 78.81 103.26 39.73 o
269 1 -6 -4 -1 78.81 103.26 39.73 o
270 2 -5 -6 -1 48.52 57.43 26.37 o
270 1 5 6 1 48.52 57.43 26.37 o
271 2 -5 -6 1 48.51 53.43 30.93 <
271 1 5 6 -1 48.51 53.43 30.93 <
272 3 1 1 6 1376.36 1563.67 69.60 o
272 2 -6 -6 -1 1376.36 1563.67 69.60 o
272 1 6 6 1 1376.36 1563.67 69.60 o
273 3 -1 -1 -6 1384.23 1475.27 69.52 o
273 2 6 6 1 1384.23 1475.27 69.52 o
273 1 -6 -6 -1 1384.23 1475.27 69.52 o
274 3 7 -5 1 1201.26 1006.52 94.24 o
274 2 5 -7 -1 1201.26 1006.52 94.24 o
274 1 -5 7 1 1201.26 1006.52 94.24 o
275 3 5 -7 -1 1203.18 913.54 95.34 o
275 2 7 -5 1 1203.18 913.54 95.34 o
275 1 -7 5 -1 1203.18 913.54 95.34 o
276 3 6 -4 2 81.61 102.03 62.32 <
276 2 3 -7 -1 81.61 102.03 62.32 <
276 1 -3 7 1 81.61 102.03 62.32 <
277 3 4 -6 -2 83.49 86.62 67.49 <
277 2 7 -3 1 83.49 86.62 67.49 <
277 1 -7 3 -1 83.49 86.62 67.49 <
278 3 5 -3 3 765.92 767.27 58.13 o
278 2 1 -7 -1 765.92 767.27 58.13 o
278 1 -1 7 1 765.92 767.27 58.13 o
279 3 3 -5 -3 759.99 734.63 55.40 o
279 2 7 -1 1 759.99 734.63 55.40 o
279 1 -7 1 -1 759.99 734.63 55.40 o
280 3 4 -2 4 783.51 767.19 48.15 o
280 2 -1 -7 -1 783.51 767.19 48.15 o
280 1 1 7 1 783.51 767.19 48.15 o
281 3 2 -4 -4 797.97 753.47 46.49 o
281 2 7 1 1 797.97 753.47 46.49 o
281 1 -7 -1 -1 797.97 753.47 46.49 o
282 2 -2 -7 -1 94.21 124.36 28.92 o
282 1 2 7 1 94.21 124.36 28.92 o
283 2 -2 -7 1 94.13 98.36 25.99 o
283 1 2 7 -1 94.13 98.36 25.99 o
284 3 3 -1 5 50.65 70.41 41.84 <
284 2 -3 -7 -1 50.65 70.41 41.84 <
284 1 3 7 1 50.65 70.41 41.84 <
285 3 1 -3 -5 42.32 94.24 38.48 o
285 2 7 3 1 42.32 94.24 38.48 o
285 1 -7 -3 -1 42.32 94.24 38.48 o
286 2 -4 -7 -1 107.11 119.71 26.87 o
286 1 4 7 1 107.11 119.71 26.87 o
287 2 -4 -7 1 107.14 112.56 24.63 o
287 1 4 7 -1 107.14 112.56 24.63 o
288 3 2 0 6 1205.09 1002.24 47.15 o
288 2 -5 -7 -1 1205.09 1002.24 47.15 o
288 1 5 7 1 1205.09 1002.24 47.15 o
289 3 0 -2 -6 1218.59 835.56 45.20 o
289 2 7 5 1 1218.59 835.56 45.20 o
289 1 -7 -5 -1 1218.59 835.56 45.20 o
290 2 -6 -7 -1 10.56 -1.09 29.42 <
290 1 6 7 1 10.56 -1.09 29.42 <
291 2 -6 -7 1 10.56 52.73 30.94 <
291 1 6 7 -1 10.56 52.73 30.94 <
292 3 1 1 7 12.87 83.91 69.94 <
292 2 -7 -7 -1 12.87 83.91 69.94 <
292 1 7 7 1 12.87 83.91 69.94 <
293 3 -1 -1 -7 9.37 58.00 60.54 <
293 2 7 7 1 9.37 58.00 60.54 <
293 1 -7 -7 -1 9.37 58.00 60.54 <
294 3 6 -8 -1 8.13 53.26 118.63 <
294 2 8 -6 1 8.13 53.26 118.63 <
294 1 -8 6 -1 8.13 53.26 118.63 <
295 3 7 -5 2 602.77 849.87 87.98 o
295 2 4 -8 -1 602.77 849.87 87.98 o
295 1 -4 8 1 602.77 849.87 87.98 o
296 3 5 -7 -2 603.21 774.17 81.03 o
296 2 8 -4 1 603.21 774.17 81.03 o
296 1 -8 4 -1 603.21 774.17 81.03 o
297 3 6 -4 3 261.48 143.06 68.63 o
297 2 2 -8 -1 261.48 143.06 68.63 o
297 1 -2 8 1 261.48 143.06 68.63 o
298 3 4 -6 -3 263.46 146.32 70.87 o
298 2 8 -2 1 263.46 146.32 70.87 o
298 1 -8 2 -1 263.46 146.32 70.87 o
299 3 5 -3 4 455.22 425.99 49.63 o
299 2 0 -8 -1 455.22 425.99 49.63 o
299 1 0 8 1 455.22 425.99 49.63 o
300 3 3 -5 -4 454.84 489.46 50.43 o
300 2 8 0 1 454.84 489.46 50.43 o
300 1 -8 0 -1 454.84 489.46 50.43 o
301 2 -1 -8 -1 195.48 219.68 28.97 o
301 1 1 8 1 195.48 219.68 28.97 o
302 2 -1 -8 1 195.52 244.02 26.26 o
302 1 1 8 -1 195.52 244.02 26.26 o
303 3 4 -2 5 263.61 157.11 46.32 o
303 2 -2 -8 -1 263.61 157.11 46.32 o
303 1 2 8 1 263.61 157.11 46.32 o
304 3 2 -4 -5 265.46 152.16 52.16 o
304 2 8 2 1 265.46 152.16 52.16 o
304 1 -8 -2 -1 265.46 152.16 52.16 o
305 2 -3 -8 -1 151.92 167.16 25.88 o
305 1 3 8 1 151.92 167.16 25.88 o
306 2 -3 -8 1 151.88 169.02 26.74 o
306 1 3 8 -1 151.88 169.02 26.74 o
307 3 3 -1 6 611.86 839.92 50.11 o
307 2 -4 -8 -1 611.86 839.92 50.11 o
307 1 4 8 1 611.86 839.92 50.11 o
308 3 1 -3 -6 615.76 752.45 46.35 o
308 2 8 4 1 615.76 752.45 46.35 o
308 1 -8 -4 -1 615.76 752.45 46.35 o
309 2 -5 -8 -1 63.93 94.02 28.01 o
309 1 5 8 1 63.93 94.02 28.01 o
310 2 -5 -8 1 63.93 53.04 28.50 <
310 1 5 8 -1 63.93 53.04 28.50 <
311 3 2 0 7 12.88 68.67 44.25 <
311 2 -6 -8 -1 12.88 68.67 44.25 <
311 1 6 8 1 12.88 68.67 44.25 <
312 3 0 -2 -7 12.13 78.75 44.14 <
312 2 8 6 1 12.13 78.75 44.14 <
312 1 -8 -6 -1 12.13 78.75 44.14 <
313 2 -7 -8 -1 4.60 52.77 43.53 <
313 1 7 8 1 4.60 52.77 43.53 <
314 2 -7 -8 1 4.60 82.56 34.55 o
314 1 7 8 -1 4.60 82.56 34.55 o
315 3 8 -6 2 33.43 72.82 90.85 <
315 2 5 -9 -1 33.43 72.82 90.85 <
315 1 -5 9 1 33.43 72.82 90.85 <
316 3 6 -8 -2 33.71 27.26 91.02 <
316 2 9 -5 1 33.71 27.26 91.02 <
316 1 -9 5 -1 33.71 27.26 91.02 <
317 3 7 -5 3 291.27 197.54 77.65 o
317 2 3 -9 -1 291.27 197.54 77.65 o
317 1 -3 9 1 291.27 197.54 77.65 o
318 3 5 -7 -3 289.93 265.20 77.73 o
318 2 9 -3 1 289.93 265.20 77.73 o
318 1 -9 3 -1 289.93 265.20 77.73 o
319 3 6 -4 4 227.32 241.15 61.80 o
319 2 1 -9 -1 227.32 241.15 61.80 o
319 1 -1 9 1 227.32 241.15 61.80 o
320 3 4 -6 -4 230.72 239.84 57.02 o
320 2 9 -1 1 230.72 239.84 57.02 o
320 1 -9 1 -1 230.72 239.84 57.02 o
321 3 5 -3 5 220.14 196.95 46.60 o
321 2 -1 -9 -1 220.14 196.95 46.60 o
321 1 1 9 1 220.14 196.95 46.60 o
322 3 3 -5 -5 216.39 223.84 45.71 o
322 2 9 1 1 216.39 223.84 45.71 o
322 1 -9 -1 -1 216.39 223.84 45.71 o
323 2 -2 -9 -1 29.13 51.26 27.92 <
323 1 2 9 1 29.13 51.26 27.92 <
324 2 -2 -9 1 29.14 68.60 31.99 o
324 1 2 9 -1 29.14 68.60 31.99 o
325 3 4 -2 6 302.43 291.11 51.80 o
325 2 -3 -9 -1 302.43 291.11 51.80 o
325 1 3 9 1 302.43 291.11 51.80 o
326 3 2 -4 -6 307.59 208.85 51.52 o
326 2 9 3 1 307.59 208.85 51.52 o
326 1 -9 -3 -1 307.59 208.85 51.52 o
327 2 -4 -9 -1 50.91 73.31 30.01 o
327 1 4 9 1 50.91 73.31 30.01 o
328 2 -4 -9 1 50.90 58.59 30.07 <
328 1 4 9 -1 50.90 58.59 30.07 <
329 3 3 -1 7 31.79 82.94 46.24 <
329 2 -5 -9 -1 31.79 82.94 46.24 <
329 1 5 9 1 31.79 82.94 46.24 <
330 3 1 -3 -7 29.12 23.50 51.67 <
330 2 9 5 1 29.12 23.50 51.67 <
330 1 -9 -5 -1 29.12 23.50 51.67 <
331 3 7 -5 4 139.49 230.65 82.22 o
331 2 2 -10 -1 139.49 230.65 82.22 o
331 1 -2 10 1 139.49 230.65 82.22 o
332 3 5 -7 -4 138.78 228.45 76.29 o
332 2 10 -2 1 138.78 228.45 76.29 o
332 1 -10 2 -1 138.78 228.45 76.29 o
333 3 6 -4 5 190.92 102.24 52.49 <
333 2 0 -10 -1 190.92 102.24 52.49 <
333 1 0 10 1 190.92 102.24 52.49 <
334 3 4 -6 -5 191.73 114.18 51.86 o
334 2 10 0 1 191.73 114.18 51.86 o
334 1 -10 0 -1 191.73 114.18 51.86 o
335 2 -1 -10 -1 11.35 55.18 29.87 <
335 1 1 10 1 11.35 55.18 29.87 <
336 2 -1 -10 1 11.35 39.71 29.93 <
336 1 1 10 -1 11.35 39.71 29.93 <
337 3 5 -3 6 146.67 195.68 55.43 o
337 2 -2 -10 -1 146.67 195.68 55.43 o
337 1 2 10 1 146.67 195.68 55.43 o
338 3 3 -5 -6 146.76 178.37 54.61 o
338 2 10 2 1 146.76 178.37 54.61 o
338 1 -10 -2 -1 146.76 178.37 54.61 o
339 2 -3 -10 -1 19.98 78.35 29.98 o
339 1 3 10 1 19.98 78.35 29.98 o
340 2 -3 -10 1 19.98 93.51 32.16 o
340 1 3 10 -1 19.98 93.51 32.16 o
341 3 2 2 -7 54.89 116.43 59.44 <
341 2 7 7 -2 54.89 116.43 59.44 <
341 1 -7 -7 2 54.89 116.43 59.44 <
342 3 -2 -2 7 56.40 134.04 63.17 o
342 2 -7 -7 2 56.40 134.04 63.17 o
342 1 7 7 -2 56.40 134.04 63.17 o
343 3 3 1 -7 79.78 126.76 44.16 o
343 2 8 6 -2 79.78 126.76 44.16 o
343 1 -8 -6 2 79.78 126.76 44.16 o
344 3 -1 -3 7 80.02 126.63 49.38 o
344 2 -6 -8 2 80.02 126.63 49.38 o
344 1 6 8 -2 80.02 126.63 49.38 o
345 3 2 2 -6 2322.26 2618.71 70.28 o
345 2 6 6 -2 2322.26 2618.71 70.28 o
345 1 -6 -6 2 2322.26 2618.71 70.28 o
346 3 -2 -2 6 2327.76 3138.01 73.50 o
346 2 -6 -6 2 2327.76 3138.01 73.50 o
346 1 6 6 -2 2327.76 3138.01 73.50 o
347 3 4 0 -7 115.53 140.05 53.33 o
347 2 9 5 -2 115.53 140.05 53.33 o
347 1 -9 -5 2 115.53 140.05 53.33 o
348 3 0 -4 7 116.86 190.64 53.70 o
348 2 -5 -9 2 116.86 190.64 53.70 o
348 1 5 9 -2 116.86 190.64 53.70 o
349 3 3 1 -6 2019.11 1834.67 49.70 o
349 2 7 5 -2 2019.11 1834.67 49.70 o
349 1 -7 -5 2 2019.11 1834.67 49.70 o
350 3 -1 -3 6 2019.70 2145.46 55.87 o
350 2 -5 -7 2 2019.70 2145.46 55.87 o
350 1 5 7 -2 2019.70 2145.46 55.87 o
351 3 2 2 -5 502.16 645.64 60.20 o
351 2 5 5 -2 502.16 645.64 60.20 o
351 1 -5 -5 2 502.16 645.64 60.20 o
352 3 -2 -2 5 503.77 760.37 60.80 o
352 2 -5 -5 2 503.77 760.37 60.80 o
352 1 5 5 -2 503.77 760.37 60.80 o
353 3 4 0 -6 1118.06 1369.22 56.31 o
353 2 8 4 -2 1118.06 1369.22 56.31 o
353 1 -8 -4 2 1118.06 1369.22 56.31 o
354 3 0 -4 6 1119.83 1617.27 53.18 o
354 2 -4 -8 2 1119.83 1617.27 53.18 o
354 1 4 8 -2 1119.83 1617.27 53.18 o
355 3 3 1 -5 811.74 666.55 43.23 o
355 2 6 4 -2 811.74 666.55 43.23 o
355 1 -6 -4 2 811.74 666.55 43.23 o
356 3 -1 -3 5 809.63 801.06 45.64 o
356 2 -4 -6 2 809.63 801.06 45.64 o
356 1 4 6 -2 809.63 801.06 45.64 o
357 3 2 2 -4 12350.20 13511.90 119.64 o
357 2 4 4 -2 12350.20 13511.90 119.64 o
357 1 -4 -4 2 12350.20 13511.90 119.64 o
358 3 -2 -2 4 12377.90 15769.40 121.25 o
358 2 -4 -4 2 12377.90 15769.40 121.25 o
358 1 4 4 -2 12377.90 15769.40 121.25 o
359 3 5 -1 -6 585.33 643.60 76.21 o
359 2 9 3 -2 585.33 643.60 76.21 o
359 1 -9 -3 2 585.33 643.60 76.21 o
360 3 1 -5 6 583.58 650.04 56.23 o
360 2 -3 -9 2 583.58 650.04 56.23 o
360 1 3 9 -2 583.58 650.04 56.23 o
361 3 4 0 -5 814.88 924.04 49.29 o
361 2 7 3 -2 814.88 924.04 49.29 o
361 1 -7 -3 2 814.88 924.04 49.29 o
362 3 0 -4 5 818.01 1145.26 48.39 o
362 2 -3 -7 2 818.01 1145.26 48.39 o
362 1 3 7 -2 818.01 1145.26 48.39 o
363 3 3 1 -4 10301.60 11651.00 79.00 o
363 2 5 3 -2 10301.60 11651.00 79.00 o
363 1 -5 -3 2 10301.60 11651.00 79.00 o
364 3 -1 -3 4 10304.80 13119.90 83.82 o
364 2 -3 -5 2 10304.80 13119.90 83.82 o
364 1 3 5 -2 10304.80 13119.90 83.82 o
365 3 2 2 -3 4068.36 4990.33 81.29 o
365 2 3 3 -2 4068.36 4990.33 81.29 o
365 1 -3 -3 2 4068.36 4990.33 81.29 o
366 3 -2 -2 3 4066.74 5309.55 88.48 o
366 2 -3 -3 2 4066.74 5309.55 88.48 o
366 1 3 3 -2 4066.74 5309.55 88.48 o
367 3 6 -2 -6 253.46 341.87 55.35 o
367 2 10 2 -2 253.46 341.87 55.35 o
367 1 -10 -2 2 253.46 341.87 55.35 o
368 3 2 -6 6 253.17 446.74 56.38 o
368 2 -2 -10 2 253.17 446.74 56.38 o
368 1 2 10 -2 253.17 446.74 56.38 o
369 3 5 -1 -5 1025.33 941.15 60.46 o
369 2 8 2 -2 1025.33 941.15 60.46 o
369 1 -8 -2 2 1025.33 941.15 60.46 o
370 3 1 -5 5 1024.17 1019.01 50.00 o
370 2 -2 -8 2 1024.17 1019.01 50.00 o
370 1 2 8 -2 1024.17 1019.01 50.00 o
371 3 4 0 -4 5868.82 6906.50 65.16 o
371 2 6 2 -2 5868.82 6906.50 65.16 o
371 1 -6 -2 2 5868.82 6906.50 65.16 o
372 3 0 -4 4 5875.70 7588.80 71.81 o
372 2 -2 -6 2 5875.70 7588.80 71.81 o
372 1 2 6 -2 5875.70 7588.80 71.81 o
373 3 3 1 -3 3244.99 3733.44 53.80 o
373 2 4 2 -2 3244.99 3733.44 53.80 o
373 1 -4 -2 2 3244.99 3733.44 53.80 o
374 3 -1 -3 3 3213.00 4039.36 55.02 o
374 2 -2 -4 2 3213.00 4039.36 55.02 o
374 1 2 4 -2 3213.00 4039.36 55.02 o
375 3 2 2 -2 53177.20 65593.00 266.13 o
375 2 2 2 -2 53177.20 65593.00 266.13 o
375 1 -2 -2 2 53177.20 65593.00 266.13 o
376 3 -2 -2 2 53255.30 68115.10 271.72 o
376 2 -2 -2 2 53255.30 68115.10 271.72 o
376 1 2 2 -2 53255.30 68115.10 271.72 o
377 3 6 -2 -5 582.91 601.10 53.56 o
377 2 9 1 -2 582.91 601.10 53.56 o
377 1 -9 -1 2 582.91 601.10 53.56 o
378 3 2 -6 5 584.65 623.45 73.24 o
378 2 -1 -9 2 584.65 623.45 73.24 o
378 1 1 9 -2 584.65 623.45 73.24 o
379 3 5 -1 -4 2902.74 3079.42 61.73 o
379 2 7 1 -2 2902.74 3079.42 61.73 o
379 1 -7 -1 2 2902.74 3079.42 61.73 o
380 3 1 -5 4 2898.54 3697.92 63.83 o
380 2 -1 -7 2 2898.54 3697.92 63.83 o
380 1 1 7 -2 2898.54 3697.92 63.83 o
381 3 4 0 -3 5042.01 6434.87 87.72 o
381 2 5 1 -2 5042.01 6434.87 87.72 o
381 1 -5 -1 2 5042.01 6434.87 87.72 o
382 3 0 -4 3 5058.84 6662.43 69.55 o
382 2 -1 -5 2 5058.84 6662.43 69.55 o
382 1 1 5 -2 5058.84 6662.43 69.55 o
383 3 3 1 -2 22480.50 28037.40 128.71 o
383 2 3 1 -2 22480.50 28037.40 128.71 o
383 1 -3 -1 2 22480.50 28037.40 128.71 o
384 3 -1 -3 2 22483.60 28958.90 130.62 o
384 2 -1 -3 2 22483.60 28958.90 130.62 o
384 1 1 3 -2 22483.60 28958.90 130.62 o
385 3 2 2 -1 21673.60 26966.90 196.19 o
385 2 1 1 -2 21673.60 26966.90 196.19 o
385 1 -1 -1 2 21673.60 26966.90 196.19 o
386 3 7 -3 -5 366.91 254.25 53.75 o
386 2 10 0 -2 366.91 254.25 53.75 o
386 1 -10 0 2 366.91 254.25 53.75 o
387 3 3 -7 5 366.57 273.41 64.69 o
387 2 0 -10 2 366.57 273.41 64.69 o
387 1 0 10 -2 366.57 273.41 64.69 o
388 3 6 -2 -4 1249.19 1424.59 56.13 o
388 2 8 0 -2 1249.19 1424.59 56.13 o
388 1 -8 0 2 1249.19 1424.59 56.13 o
389 3 2 -6 4 1249.24 1653.76 74.85 o
389 2 0 -8 2 1249.24 1653.76 74.85 o
389 1 0 8 -2 1249.24 1653.76 74.85 o
390 3 5 -1 -3 3379.03 3564.00 65.07 o
390 2 6 0 -2 3379.03 3564.00 65.07 o
390 1 -6 0 2 3379.03 3564.00 65.07 o
391 3 1 -5 3 3361.32 3877.38 85.18 o
391 2 0 -6 2 3361.32 3877.38 85.18 o
391 1 0 6 -2 3361.32 3877.38 85.18 o
392 3 4 0 -2 25527.00 32091.40 180.86 o
392 2 4 0 -2 25527.00 32091.40 180.86 o
392 1 -4 0 2 25527.00 32091.40 180.86 o
393 3 0 -4 2 25525.70 31635.60 174.51 o
393 2 0 -4 2 25525.70 31635.60 174.51 o
393 1 0 4 -2 25525.70 31635.60 174.51 o
394 3 3 1 -1 2787.70 3395.02 55.12 o
394 2 2 0 -2 2787.70 3395.02 55.12 o
394 1 -2 0 2 2787.70 3395.02 55.12 o
395 3 7 -3 -4 602.95 598.67 75.49 o
395 2 9 -1 -2 602.95 598.67 75.49 o
395 1 -9 1 2 602.95 598.67 75.49 o
396 3 3 -7 4 599.85 621.76 66.81 o
396 2 1 -9 2 599.85 621.76 66.81 o
396 1 -1 9 -2 599.85 621.76 66.81 o
397 3 6 -2 -3 2799.87 3148.40 64.04 o
397 2 7 -1 -2 2799.87 3148.40 64.04 o
397 1 -7 1 2 2799.87 3148.40 64.04 o
398 3 2 -6 3 2805.76 3428.78 86.96 o
398 2 1 -7 2 2805.76 3428.78 86.96 o
398 1 -1 7 -2 2805.76 3428.78 86.96 o
399 3 5 -1 -2 5195.31 6426.12 68.86 o
399 2 5 -1 -2 5195.31 6426.12 68.86 o
399 1 -5 1 2 5195.31 6426.12 68.86 o
400 3 1 -5 2 5188.64 6605.32 98.39 o
400 2 1 -5 2 5188.64 6605.32 98.39 o
400 1 -1 5 -2 5188.64 6605.32 98.39 o
401 3 4 0 -1 21633.40 27287.20 140.75 o
401 2 3 -1 -2 21633.40 27287.20 140.75 o
401 1 -3 1 2 21633.40 27287.20 140.75 o
402 3 3 1 0 22627.70 24381.70 133.64 o
402 2 1 -1 -2 22627.70 24381.70 133.64 o
402 1 -1 1 2 22627.70 24381.70 133.64 o
403 3 -1 -3 0 22528.20 23713.60 190.01 o
403 2 1 -1 2 22528.20 23713.60 190.01 o
403 1 -1 1 -2 22528.20 23713.60 190.01 o
404 3 2 2 1 21692.50 21012.10 171.89 o
404 2 -1 -1 -2 21692.50 21012.10 171.89 o
404 1 1 1 2 21692.50 21012.10 171.89 o
405 3 -2 -2 -1 21574.10 21292.20 171.29 o
405 2 1 1 2 21574.10 21292.20 171.29 o
405 1 -1 -1 -2 21574.10 21292.20 171.29 o
406 3 8 -4 -4 245.63 402.45 84.93 o
406 2 10 -2 -2 245.63 402.45 84.93 o
406 1 -10 2 2 245.63 402.45 84.93 o
407 3 4 -8 4 245.76 380.18 71.04 o
407 2 2 -10 2 245.76 380.18 71.04 o
407 1 -2 10 -2 245.76 380.18 71.04 o
408 3 7 -3 -3 1026.85 937.51 66.21 o
408 2 8 -2 -2 1026.85 937.51 66.21 o
408 1 -8 2 2 1026.85 937.51 66.21 o
409 3 3 -7 3 1023.52 922.35 72.73 o
409 2 2 -8 2 1023.52 922.35 72.73 o
409 1 -2 8 -2 1023.52 922.35 72.73 o
410 3 6 -2 -2 5682.95 6504.98 89.30 o
410 2 6 -2 -2 5682.95 6504.98 89.30 o
410 1 -6 2 2 5682.95 6504.98 89.30 o
411 3 2 -6 2 5686.67 7512.68 105.25 o
411 2 2 -6 2 5686.67 7512.68 105.25 o
411 1 -2 6 -2 5686.67 7512.68 105.25 o
412 3 5 -1 -1 3205.02 3666.35 59.24 o
412 2 4 -2 -2 3205.02 3666.35 59.24 o
412 1 -4 2 2 3205.02 3666.35 59.24 o
413 3 4 0 0 52278.50 56683.80 198.93 o
413 2 2 -2 -2 52278.50 56683.80 198.93 o
413 1 -2 2 2 52278.50 56683.80 198.93 o
414 3 0 -4 0 52333.80 55043.10 294.75 o
414 2 2 -2 2 52333.80 55043.10 294.75 o
414 1 -2 2 -2 52333.80 55043.10 294.75 o
415 3 3 1 1 2791.58 2699.10 63.34 o
415 2 0 -2 -2 2791.58 2699.10 63.34 o
415 1 0 2 2 2791.58 2699.10 63.34 o
416 3 -1 -3 -1 2710.08 2871.41 59.79 o
416 2 2 0 2 2710.08 2871.41 59.79 o
416 1 -2 0 -2 2710.08 2871.41 59.79 o
417 2 -1 -2 -2 1937.53 2198.62 26.67 o
417 1 1 2 2 1937.53 2198.62 26.67 o
418 2 -1 -2 2 1932.69 2118.73 33.46 o
418 1 1 2 -2 1932.69 2118.73 33.46 o
419 3 2 2 2 53200.00 43702.40 217.27 o
419 2 -2 -2 -2 53200.00 43702.40 217.27 o
419 1 2 2 2 53200.00 43702.40 217.27 o
420 3 -2 -2 -2 53232.40 45592.20 225.91 o
420 2 2 2 2 53232.40 45592.20 225.91 o
420 1 -2 -2 -2 53232.40 45592.20 225.91 o
421 3 8 -4 -3 554.94 663.84 83.23 o
421 2 9 -3 -2 554.94 663.84 83.23 o
421 1 -9 3 2 554.94 663.84 83.23 o
422 3 4 -8 3 556.43 602.11 68.67 o
422 2 3 -9 2 556.43 602.11 68.67 o
422 1 -3 9 -2 556.43 602.11 68.67 o
423 3 7 -3 -2 840.64 1207.02 74.77 o
423 2 7 -3 -2 840.64 1207.02 74.77 o
423 1 -7 3 2 840.64 1207.02 74.77 o
424 3 6 -2 -1 9909.82 11183.60 104.16 o
424 2 5 -3 -2 9909.82 11183.60 104.16 o
424 1 -5 3 2 9909.82 11183.60 104.16 o
425 3 5 -1 0 4141.69 4713.45 57.80 o
425 2 3 -3 -2 4141.69 4713.45 57.80 o
425 1 -3 3 2 4141.69 4713.45 57.80 o
426 3 1 -5 0 4109.55 4453.08 104.57 o
426 2 3 -3 2 4109.55 4453.08 104.57 o
426 1 -3 3 -2 4109.55 4453.08 104.57 o
427 3 4 0 1 21653.80 21068.10 119.68 o
427 2 1 -3 -2 21653.80 21068.10 119.68 o
427 1 -1 3 2 21653.80 21068.10 119.68 o
428 3 0 -4 -1 21635.60 22674.20 123.82 o
428 2 3 -1 2 21635.60 22674.20 123.82 o
428 1 -3 1 -2 21635.60 22674.20 123.82 o
429 3 3 1 2 22481.40 18920.00 104.31 o
429 2 -1 -3 -2 22481.40 18920.00 104.31 o
429 1 1 3 2 22481.40 18920.00 104.31 o
430 3 -1 -3 -2 22482.70 20353.90 108.89 o
430 2 3 1 2 22482.70 20353.90 108.89 o
430 1 -3 -1 -2 22482.70 20353.90 108.89 o
431 2 -2 -3 -2 415.85 467.58 23.06 o
431 1 2 3 2 415.85 467.58 23.06 o
432 2 -2 -3 2 417.86 455.67 25.61 o
432 1 2 3 -2 417.86 455.67 25.61 o
433 3 2 2 3 4098.89 3516.84 79.34 o
433 2 -3 -3 -2 4098.89 3516.84 79.34 o
433 1 3 3 2 4098.89 3516.84 79.34 o
434 3 -2 -2 -3 4036.22 3314.39 71.72 o
434 2 3 3 2 4036.22 3314.39 71.72 o
434 1 -3 -3 -2 4036.22 3314.39 71.72 o
435 3 8 -4 -2 1065.67 1618.03 87.21 o
435 2 8 -4 -2 1065.67 1618.03 87.21 o
435 1 -8 4 2 1065.67 1618.03 87.21 o
436 3 7 -3 -1 808.04 854.78 70.96 o
436 2 6 -4 -2 808.04 854.78 70.96 o
436 1 -6 4 2 808.04 854.78 70.96 o
437 3 6 -2 0 11868.40 13257.00 89.30 o
437 2 4 -4 -2 11868.40 13257.00 89.30 o
437 1 -4 4 2 11868.40 13257.00 89.30 o
438 3 2 -6 0 11884.80 12471.30 170.28 o
438 2 4 -4 2 11884.80 12471.30 170.28 o
438 1 -4 4 -2 11884.80 12471.30 170.28 o
439 3 5 -1 1 3202.20 3000.75 61.42 o
439 2 2 -4 -2 3202.20 3000.75 61.42 o
439 1 -2 4 2 3202.20 3000.75 61.42 o
440 3 1 -5 -1 3162.12 2854.44 85.01 o
440 2 4 -2 2 3162.12 2854.44 85.01 o
440 1 -4 2 -2 3162.12 2854.44 85.01 o
441 3 4 0 2 25526.60 21802.30 112.62 o
441 2 0 -4 -2 25526.60 21802.30 112.62 o
441 1 0 4 2 25526.60 21802.30 112.62 o
442 3 0 -4 -2 25526.10 24071.70 122.03 o
442 2 4 0 2 25526.10 24071.70 122.03 o
442 1 -4 0 -2 25526.10 24071.70 122.03 o
443 2 -1 -4 -2 2710.81 3028.07 29.12 o
443 1 1 4 2 2710.81 3028.07 29.12 o
444 2 -1 -4 2 2712.78 2987.29 31.72 o
444 1 1 4 -2 2712.78 2987.29 31.72 o
445 3 3 1 3 3255.90 2615.57 50.82 o
445 2 -2 -4 -2 3255.90 2615.57 50.82 o
445 1 2 4 2 3255.90 2615.57 50.82 o
446 3 -1 -3 -3 3202.08 2603.17 47.32 o
446 2 4 2 2 3202.08 2603.17 47.32 o
446 1 -4 -2 -2 3202.08 2603.17 47.32 o
447 2 -3 -4 -2 598.45 568.36 21.22 o
447 1 3 4 2 598.45 568.36 21.22 o
448 2 -3 -4 2 597.36 559.76 25.40 o
448 1 3 4 -2 597.36 559.76 25.40 o
449 3 2 2 4 12361.60 10038.80 105.42 o
449 2 -4 -4 -2 12361.60 10038.80 105.42 o
449 1 4 4 2 12361.60 10038.80 105.42 o
450 3 -2 -2 -4 12366.60 10032.70 97.97 o
450 2 4 4 2 12366.60 10032.70 97.97 o
450 1 -4 -4 -2 12366.60 10032.70 97.97 o
451 3 9 -5 -2 120.82 200.25 81.88 o
451 2 9 -5 -2 120.82 200.25 81.88 o
451 1 -9 5 2 120.82 200.25 81.88 o
452 3 8 -4 -1 1926.95 2062.36 64.21 o
452 2 7 -5 -2 1926.95 2062.36 64.21 o
452 1 -7 5 2 1926.95 2062.36 64.21 o
453 3 7 -3 0 508.28 655.09 49.58 o
453 2 5 -5 -2 508.28 655.09 49.58 o
453 1 -5 5 2 508.28 655.09 49.58 o
454 3 3 -7 0 494.61 667.48 97.88 o
454 2 5 -5 2 494.61 667.48 97.88 o
454 1 -5 5 -2 494.61 667.48 97.88 o
455 3 6 -2 1 9913.55 10730.60 84.20 o
455 2 3 -5 -2 9913.55 10730.60 84.20 o
455 1 -3 5 2 9913.55 10730.60 84.20 o
456 3 2 -6 -1 9916.40 9716.57 136.83 o
456 2 5 -3 2 9916.40 9716.57 136.83 o
456 1 -5 3 -2 9916.40 9716.57 136.83 o
457 3 5 -1 2 5193.36 4540.59 65.26 o
457 2 1 -5 -2 5193.36 4540.59 65.26 o
457 1 -1 5 2 5193.36 4540.59 65.26 o
458 3 1 -5 -2 5190.59 4752.57 84.17 o
458 2 5 -1 2 5190.59 4752.57 84.17 o
458 1 -5 1 -2 5190.59 4752.57 84.17 o
459 3 4 0 3 5063.56 4203.08 60.17 o
459 2 -1 -5 -2 5063.56 4203.08 60.17 o
459 1 1 5 2 5063.56 4203.08 60.17 o
460 3 0 -4 -3 5037.29 4554.81 57.68 o
460 2 5 1 2 5037.29 4554.81 57.68 o
460 1 -5 -1 -2 5037.29 4554.81 57.68 o
461 2 -2 -5 -2 19.47 24.51 20.91 <
461 1 2 5 2 19.47 24.51 20.91 <
462 2 -2 -5 2 19.52 33.67 23.18 <
462 1 2 5 -2 19.52 33.67 23.18 <
463 3 3 1 4 10298.30 8566.45 72.27 o
463 2 -3 -5 -2 10298.30 8566.45 72.27 o
463 1 3 5 2 10298.30 8566.45 72.27 o
464 3 -1 -3 -4 10308.20 8460.31 67.22 o
464 2 5 3 2 10308.20 8460.31 67.22 o
464 1 -5 -3 -2 10308.20 8460.31 67.22 o
465 2 -4 -5 -2 0.27 15.99 21.42 <
465 1 4 5 2 0.27 15.99 21.42 <
466 2 -4 -5 2 0.27 19.86 26.77 <
466 1 4 5 -2 0.27 19.86 26.77 <
467 3 2 2 5 517.44 524.72 67.49 o
467 2 -5 -5 -2 517.44 524.72 67.49 o
467 1 5 5 2 517.44 524.72 67.49 o
468 3 -2 -2 -5 488.48 517.78 71.80 o
468 2 5 5 2 488.48 517.78 71.80 o
468 1 -5 -5 -2 488.48 517.78 71.80 o
469 3 9 -5 -1 81.28 32.18 62.21 <
469 2 8 -6 -2 81.28 32.18 62.21 <
469 1 -8 6 2 81.28 32.18 62.21 <
470 3 8 -4 0 2215.45 2727.81 78.07 o
470 2 6 -6 -2 2215.45 2727.81 78.07 o
470 1 -6 6 2 2215.45 2727.81 78.07 o
471 3 7 -3 1 807.33 671.97 47.01 o
471 2 4 -6 -2 807.33 671.97 47.01 o
471 1 -4 6 2 807.33 671.97 47.01 o
472 3 3 -7 -1 799.33 675.10 82.39 o
472 2 6 -4 2 799.33 675.10 82.39 o
472 1 -6 4 -2 799.33 675.10 82.39 o
473 3 6 -2 2 5684.04 5087.92 74.70 o
473 2 2 -6 -2 5684.04 5087.92 74.70 o
473 1 -2 6 2 5684.04 5087.92 74.70 o
474 3 2 -6 -2 5685.58 5541.47 100.42 o
474 2 6 -2 2 5685.58 5541.47 100.42 o
474 1 -6 2 -2 5685.58 5541.47 100.42 o
475 3 5 -1 3 3378.78 2711.00 58.30 o
475 2 0 -6 -2 3378.78 2711.00 58.30 o
475 1 0 6 2 3378.78 2711.00 58.30 o
476 3 1 -5 -3 3361.57 2651.05 71.38 o
476 2 6 0 2 3361.57 2651.05 71.38 o
476 1 -6 0 -2 3361.57 2651.05 71.38 o
477 2 -1 -6 -2 966.62 985.64 24.93 o
477 1 1 6 2 966.62 985.64 24.93 o
478 2 -1 -6 2 966.77 1069.57 25.70 o
478 1 1 6 -2 966.77 1069.57 25.70 o
479 3 4 0 4 5873.07 5310.06 61.04 o
479 2 -2 -6 -2 5873.07 5310.06 61.04 o
479 1 2 6 2 5873.07 5310.06 61.04 o
480 3 0 -4 -4 5871.45 5316.50 63.53 o
480 2 6 2 2 5871.45 5316.50 63.53 o
480 1 -6 -2 -2 5871.45 5316.50 63.53 o
481 2 -3 -6 -2 399.02 342.92 23.64 o
481 1 3 6 2 399.02 342.92 23.64 o
482 2 -3 -6 2 398.90 349.75 28.04 o
482 1 3 6 -2 398.90 349.75 28.04 o
483 3 3 1 5 818.34 551.82 48.05 o
483 2 -4 -6 -2 818.34 551.82 48.05 o
483 1 4 6 2 818.34 551.82 48.05 o
484 3 -1 -3 -5 803.03 530.65 44.63 o
484 2 6 4 2 803.03 530.65 44.63 o
484 1 -6 -4 -2 803.03 530.65 44.63 o
485 2 -5 -6 -2 35.13 21.74 22.56 <
485 1 5 6 2 35.13 21.74 22.56 <
486 2 -5 -6 2 35.13 52.31 28.34 <
486 1 5 6 -2 35.13 52.31 28.34 <
487 3 2 2 6 2323.78 2438.35 68.33 o
487 2 -6 -6 -2 2323.78 2438.35 68.33 o
487 1 6 6 2 2323.78 2438.35 68.33 o
488 3 -2 -2 -6 2326.24 2152.32 72.14 o
488 2 6 6 2 2326.24 2152.32 72.14 o
488 1 -6 -6 -2 2326.24 2152.32 72.14 o
489 3 9 -5 0 59.47 95.13 69.90 <
489 2 7 -7 -2 59.47 95.13 69.90 <
489 1 -7 7 2 59.47 95.13 69.90 <
490 3 8 -4 1 1927.62 1803.44 64.55 o
490 2 5 -7 -2 1927.62 1803.44 64.55 o
490 1 -5 7 2 1927.62 1803.44 64.55 o
491 3 4 -8 -1 1929.81 1660.45 109.48 o
491 2 7 -5 2 1929.81 1660.45 109.48 o
491 1 -7 5 -2 1929.81 1660.45 109.48 o
492 3 7 -3 2 838.04 892.91 49.52 o
492 2 3 -7 -2 838.04 892.91 49.52 o
492 1 -3 7 2 838.04 892.91 49.52 o
493 3 3 -7 -2 834.35 817.95 75.95 o
493 2 7 -3 2 834.35 817.95 75.95 o
493 1 -7 3 -2 834.35 817.95 75.95 o
494 3 6 -2 3 2805.26 2522.69 64.66 o
494 2 1 -7 -2 2805.26 2522.69 64.66 o
494 1 -1 7 2 2805.26 2522.69 64.66 o
495 3 2 -6 -3 2800.36 2825.82 64.42 o
495 2 7 -1 2 2800.36 2825.82 64.42 o
495 1 -7 1 -2 2800.36 2825.82 64.42 o
496 3 5 -1 4 2898.04 2589.66 56.01 o
496 2 -1 -7 -2 2898.04 2589.66 56.01 o
496 1 1 7 2 2898.04 2589.66 56.01 o
497 3 1 -5 -4 2903.24 2708.08 57.72 o
497 2 7 1 2 2903.24 2708.08 57.72 o
497 1 -7 -1 -2 2903.24 2708.08 57.72 o
498 2 -2 -7 -2 74.46 124.67 26.15 o
498 1 2 7 2 74.46 124.67 26.15 o
499 2 -2 -7 2 74.54 121.13 25.24 o
499 1 2 7 -2 74.54 121.13 25.24 o
500 3 4 0 5 824.29 818.71 46.91 o
500 2 -3 -7 -2 824.29 818.71 46.91 o
500 1 3 7 2 824.29 818.71 46.91 o
501 3 0 -4 -5 808.59 780.52 46.11 o
501 2 7 3 2 808.59 780.52 46.11 o
501 1 -7 -3 -2 808.59 780.52 46.11 o
502 2 -4 -7 -2 74.14 104.43 24.47 o
502 1 4 7 2 74.14 104.43 24.47 o
503 2 -4 -7 2 74.10 70.99 30.06 o
503 1 4 7 -2 74.10 70.99 30.06 o
504 3 3 1 6 2016.83 1753.42 49.81 o
504 2 -5 -7 -2 2016.83 1753.42 49.81 o
504 1 5 7 2 2016.83 1753.42 49.81 o
505 3 -1 -3 -6 2021.97 1481.49 45.88 o
505 2 7 5 2 2021.97 1481.49 45.88 o
505 1 -7 -5 -2 2021.97 1481.49 45.88 o
506 2 -6 -7 -2 7.55 51.01 28.32 <
506 1 6 7 2 7.55 51.01 28.32 <
507 2 -6 -7 2 7.55 49.28 34.87 <
507 1 6 7 -2 7.55 49.28 34.87 <
508 3 2 2 7 58.84 135.14 64.27 o
508 2 -7 -7 -2 58.84 135.14 64.27 o
508 1 7 7 2 58.84 135.14 64.27 o
509 3 -2 -2 -7 52.45 221.51 74.00 o
509 2 7 7 2 52.45 221.51 74.00 o
509 1 -7 -7 -2 52.45 221.51 74.00 o
510 3 9 -5 1 81.07 66.21 107.96 <
510 2 6 -8 -2 81.07 66.21 107.96 <
510 1 -6 8 2 81.07 66.21 107.96 <
511 3 5 -9 -1 79.35 71.89 115.41 <
511 2 8 -6 2 79.35 71.89 115.41 <
511 1 -8 6 -2 79.35 71.89 115.41 <
512 3 8 -4 2 1066.22 1334.91 73.99 o
512 2 4 -8 -2 1066.22 1334.91 73.99 o
512 1 -4 8 2 1066.22 1334.91 73.99 o
513 3 4 -8 -2 1066.99 1359.95 86.88 o
513 2 8 -4 2 1066.99 1359.95 86.88 o
513 1 -8 4 -2 1066.99 1359.95 86.88 o
514 3 7 -3 3 1025.88 744.58 60.55 o
514 2 2 -8 -2 1025.88 744.58 60.55 o
514 1 -2 8 2 1025.88 744.58 60.55 o
515 3 3 -7 -3 1024.49 717.86 81.96 o
515 2 8 -2 2 1024.49 717.86 81.96 o
515 1 -8 2 -2 1024.49 717.86 81.96 o
516 3 6 -2 4 1249.97 1311.77 55.58 o
516 2 0 -8 -2 1249.97 1311.77 55.58 o
516 1 0 8 2 1249.97 1311.77 55.58 o
517 3 2 -6 -4 1248.47 1407.57 52.47 o
517 2 8 0 2 1248.47 1407.57 52.47 o
517 1 -8 0 -2 1248.47 1407.57 52.47 o
518 2 -1 -8 -2 137.25 142.76 24.46 o
518 1 1 8 2 137.25 142.76 24.46 o
519 2 -1 -8 2 137.21 162.45 25.83 o
519 1 1 8 -2 137.21 162.45 25.83 o
520 3 5 -1 5 1026.53 892.21 50.62 o
520 2 -2 -8 -2 1026.53 892.21 50.62 o
520 1 2 8 2 1026.53 892.21 50.62 o
521 3 1 -5 -5 1022.98 684.33 49.40 o
521 2 8 2 2 1022.98 684.33 49.40 o
521 1 -8 -2 -2 1022.98 684.33 49.40 o
522 2 -3 -8 -2 114.04 84.77 26.89 o
522 1 3 8 2 114.04 84.77 26.89 o
523 2 -3 -8 2 114.09 118.04 28.01 o
523 1 3 8 -2 114.09 118.04 28.01 o
524 3 4 0 6 1118.51 1298.68 49.84 o
524 2 -4 -8 -2 1118.51 1298.68 49.84 o
524 1 4 8 2 1118.51 1298.68 49.84 o
525 3 0 -4 -6 1119.37 1173.96 48.60 o
525 2 8 4 2 1119.37 1173.96 48.60 o
525 1 -8 -4 -2 1119.37 1173.96 48.60 o
526 2 -5 -8 -2 46.13 61.34 30.87 <
526 1 5 8 2 46.13 61.34 30.87 <
527 2 -5 -8 2 46.13 57.46 30.80 <
527 1 5 8 -2 46.13 57.46 30.80 <
528 3 3 1 7 81.95 89.25 44.55 o
528 2 -6 -8 -2 81.95 89.25 44.55 o
528 1 6 8 2 81.95 89.25 44.55 o
529 3 -1 -3 -7 77.86 135.73 47.51 o
529 2 8 6 2 77.86 135.73 47.51 o
529 1 -8 -6 -2 77.86 135.73 47.51 o
530 3 9 -5 2 120.34 143.61 94.07 <
530 2 5 -9 -2 120.34 143.61 94.07 <
530 1 -5 9 2 120.34 143.61 94.07 <
531 3 5 -9 -2 119.65 131.92 94.67 <
531 2 9 -5 2 119.65 131.92 94.67 <
531 1 -9 5 -2 119.65 131.92 94.67 <
532 3 8 -4 3 556.04 528.73 69.85 o
532 2 3 -9 -2 556.04 528.73 69.85 o
532 1 -3 9 2 556.04 528.73 69.85 o
533 3 4 -8 -3 555.32 500.42 80.19 o
533 2 9 -3 2 555.32 500.42 80.19 o
533 1 -9 3 -2 555.32 500.42 80.19 o
534 3 7 -3 4 600.83 552.11 56.06 o
534 2 1 -9 -2 600.83 552.11 56.06 o
534 1 -1 9 2 600.83 552.11 56.06 o
535 3 3 -7 -4 601.97 608.97 57.46 o
535 2 9 -1 2 601.97 608.97 57.46 o
535 1 -9 1 -2 601.97 608.97 57.46 o
536 3 6 -2 5 585.63 597.16 54.27 o
536 2 -1 -9 -2 585.63 597.16 54.27 o
536 1 1 9 2 585.63 597.16 54.27 o
537 3 2 -6 -5 581.92 587.59 50.54 o
537 2 9 1 2 581.92 587.59 50.54 o
537 1 -9 -1 -2 581.92 587.59 50.54 o
538 2 -2 -9 -2 20.40 49.69 28.08 <
538 1 2 9 2 20.40 49.69 28.08 <
539 2 -2 -9 2 20.40 37.98 28.97 <
539 1 2 9 -2 20.40 37.98 28.97 <
540 3 5 -1 6 583.19 481.03 54.49 o
540 2 -3 -9 -2 583.19 481.03 54.49 o
540 1 3 9 2 583.19 481.03 54.49 o
541 3 1 -5 -6 585.71 540.13 48.47 o
541 2 9 3 2 585.71 540.13 48.47 o
541 1 -9 -3 -2 585.71 540.13 48.47 o
542 2 -4 -9 -2 37.57 63.96 30.94 o
542 1 4 9 2 37.57 63.96 30.94 o
543 2 -4 -9 2 37.58 74.56 32.43 o
543 1 4 9 -2 37.58 74.56 32.43 o
544 3 4 0 7 118.04 119.56 47.12 o
544 2 -5 -9 -2 118.04 119.56 47.12 o
544 1 5 9 2 118.04 119.56 47.12 o
545 3 0 -4 -7 114.35 131.41 46.97 o
545 2 9 5 2 114.35 131.41 46.97 o
545 1 -9 -5 -2 114.35 131.41 46.97 o
546 3 8 -4 4 245.95 339.20 78.17 o
546 2 2 -10 -2 245.95 339.20 78.17 o
546 1 -2 10 2 245.95 339.20 78.17 o
547 3 4 -8 -4 245.44 335.05 80.27 o
547 2 10 -2 2 245.44 335.05 80.27 o
547 1 -10 2 -2 245.44 335.05 80.27 o
548 3 7 -3 5 366.67 262.32 53.69 o
548 2 0 -10 -2 366.67 262.32 53.69 o
548 1 0 10 2 366.67 262.32 53.69 o
549 3 3 -7 -5 366.81 320.32 53.46 o
549 2 10 0 2 366.81 320.32 53.46 o
549 1 -10 0 -2 366.81 320.32 53.46 o
550 2 -1 -10 -2 8.39 62.10 28.47 o
550 1 1 10 2 8.39 62.10 28.47 o
551 2 -1 -10 2 8.39 71.62 30.64 o
551 1 1 10 -2 8.39 71.62 30.64 o
552 3 6 -2 6 253.35 405.21 53.93 o
552 2 -2 -10 -2 253.35 405.21 53.93 o
552 1 2 10 2 253.35 405.21 53.93 o
553 3 2 -6 -6 253.28 438.78 68.25 o
553 2 10 2 2 253.28 438.78 68.25 o
553 1 -10 -2 -2 253.28 438.78 68.25 o
554 2 -3 -10 -2 14.51 75.57 31.91 o
554 1 3 10 2 14.51 75.57 31.91 o
555 2 -3 -10 2 14.50 87.54 30.06 o
555 1 3 10 -2 14.50 87.54 30.06 o
556 3 3 3 -7 7.91 102.71 72.40 <
556 2 7 7 -3 7.91 102.71 72.40 <
556 1 -7 -7 3 7.91 102.71 72.40 <
557 3 -3 -3 7 6.73 65.54 65.71 <
557 2 -7 -7 3 6.73 65.54 65.71 <
557 1 7 7 -3 6.73 65.54 65.71 <
558 3 3 3 -6 647.64 866.47 73.67 o
558 2 6 6 -3 647.64 866.47 73.67 o
558 1 -6 -6 3 647.64 866.47 73.67 o
559 3 -3 -3 6 649.06 1008.04 64.18 o
559 2 -6 -6 3 649.06 1008.04 64.18 o
559 1 6 6 -3 649.06 1008.04 64.18 o
560 3 4 2 -6 588.74 453.60 43.74 o
560 2 7 5 -3 588.74 453.60 43.74 o
560 1 -7 -5 3 588.74 453.60 43.74 o
561 3 -2 -4 6 589.43 562.02 44.50 o
561 2 -5 -7 3 589.43 562.02 44.50 o
561 1 5 7 -3 589.43 562.02 44.50 o
562 3 3 3 -5 68.36 116.85 54.19 o
562 2 5 5 -3 68.36 116.85 54.19 o
562 1 -5 -5 3 68.36 116.85 54.19 o
563 3 -3 -3 5 62.10 68.76 61.73 <
563 2 -5 -5 3 62.10 68.76 61.73 <
563 1 5 5 -3 62.10 68.76 61.73 <
564 3 5 1 -6 296.80 398.43 45.00 o
564 2 8 4 -3 296.80 398.43 45.00 o
564 1 -8 -4 3 296.80 398.43 45.00 o
565 3 -1 -5 6 297.34 467.32 46.21 o
565 2 -4 -8 3 297.34 467.32 46.21 o
565 1 4 8 -3 297.34 467.32 46.21 o
566 3 4 2 -5 28.02 17.19 38.00 <
566 2 6 4 -3 28.02 17.19 38.00 <
566 1 -6 -4 3 28.02 17.19 38.00 <
567 3 -2 -4 5 20.92 72.44 37.78 <
567 2 -4 -6 3 20.92 72.44 37.78 <
567 1 4 6 -3 20.92 72.44 37.78 <
568 3 3 3 -4 1811.70 2163.92 74.26 o
568 2 4 4 -3 1811.70 2163.92 74.26 o
568 1 -4 -4 3 1811.70 2163.92 74.26 o
569 3 -3 -3 4 1823.47 2409.73 75.28 o
569 2 -4 -4 3 1823.47 2409.73 75.28 o
569 1 4 4 -3 1823.47 2409.73 75.28 o
570 3 6 0 -6 170.26 113.17 49.11 o
570 2 9 3 -3 170.26 113.17 49.11 o
570 1 -9 -3 3 170.26 113.17 49.11 o
571 3 0 -6 6 169.90 137.04 49.52 o
571 2 -3 -9 3 169.90 137.04 49.52 o
571 1 3 9 -3 169.90 137.04 49.52 o
572 3 5 1 -5 35.52 100.97 43.41 o
572 2 7 3 -3 35.52 100.97 43.41 o
572 1 -7 -3 3 35.52 100.97 43.41 o
573 3 -1 -5 5 34.38 66.05 47.47 <
573 2 -3 -7 3 34.38 66.05 47.47 <
573 1 3 7 -3 34.38 66.05 47.47 <
574 3 4 2 -4 1649.92 1884.84 47.30 o
574 2 5 3 -3 1649.92 1884.84 47.30 o
574 1 -5 -3 3 1649.92 1884.84 47.30 o
575 3 -2 -4 4 1656.40 1997.28 48.36 o
575 2 -3 -5 3 1656.40 1997.28 48.36 o
575 1 3 5 -3 1656.40 1997.28 48.36 o
576 3 3 3 -3 278.79 370.28 53.09 o
576 2 3 3 -3 278.79 370.28 53.09 o
576 1 -3 -3 3 278.79 370.28 53.09 o
577 3 -3 -3 3 269.32 416.17 53.85 o
577 2 -3 -3 3 269.32 416.17 53.85 o
577 1 3 3 -3 269.32 416.17 53.85 o
578 3 6 0 -5 152.30 113.12 58.59 <
578 2 8 2 -3 152.30 113.12 58.59 <
578 1 -8 -2 3 152.30 113.12 58.59 <
579 3 0 -6 5 152.46 91.28 66.30 <
579 2 -2 -8 3 152.46 91.28 66.30 <
579 1 2 8 -3 152.46 91.28 66.30 <
580 3 5 1 -4 770.11 951.31 46.90 o
580 2 6 2 -3 770.11 951.31 46.90 o
580 1 -6 -2 3 770.11 951.31 46.90 o
581 3 -1 -5 4 778.47 1165.28 61.81 o
581 2 -2 -6 3 778.47 1165.28 61.81 o
581 1 2 6 -3 778.47 1165.28 61.81 o
582 3 4 2 -3 415.20 342.93 37.25 o
582 2 4 2 -3 415.20 342.93 37.25 o
582 1 -4 -2 3 415.20 342.93 37.25 o
583 3 -2 -4 3 392.19 400.00 50.97 o
583 2 -2 -4 3 392.19 400.00 50.97 o
583 1 2 4 -3 392.19 400.00 50.97 o
584 3 3 3 -2 5840.91 6537.75 94.33 o
584 2 2 2 -3 5840.91 6537.75 94.33 o
584 1 -2 -2 3 5840.91 6537.75 94.33 o
585 3 7 -1 -5 118.64 173.75 52.50 o
585 2 9 1 -3 118.64 173.75 52.50 o
585 1 -9 -1 3 118.64 173.75 52.50 o
586 3 1 -7 5 120.26 205.50 68.33 o
586 2 -1 -9 3 120.26 205.50 68.33 o
586 1 1 9 -3 120.26 205.50 68.33 o
587 3 6 0 -4 440.48 453.26 54.61 o
587 2 7 1 -3 440.48 453.26 54.61 o
587 1 -7 -1 3 440.48 453.26 54.61 o
588 3 0 -6 4 440.40 500.51 54.70 o
588 2 -1 -7 3 440.40 500.51 54.70 o
588 1 1 7 -3 440.40 500.51 54.70 o
589 3 5 1 -3 69.61 134.08 36.21 o
589 2 5 1 -3 69.61 134.08 36.21 o
589 1 -5 -1 3 69.61 134.08 36.21 o
590 3 -1 -5 3 68.76 121.59 48.35 o
590 2 -1 -5 3 68.76 121.59 48.35 o
590 1 1 5 -3 68.76 121.59 48.35 o
591 3 4 2 -2 1080.13 1239.03 42.28 o
591 2 3 1 -3 1080.13 1239.03 42.28 o
591 1 -3 -1 3 1080.13 1239.03 42.28 o
592 3 3 3 -1 157.72 177.39 56.82 o
592 2 1 1 -3 157.72 177.39 56.82 o
592 1 -1 -1 3 157.72 177.39 56.82 o
593 3 7 -1 -4 204.68 232.63 42.91 o
593 2 8 0 -3 204.68 232.63 42.91 o
593 1 -8 0 3 204.68 232.63 42.91 o
594 3 1 -7 4 206.45 254.02 56.22 o
594 2 0 -8 3 206.45 254.02 56.22 o
594 1 0 8 -3 206.45 254.02 56.22 o
595 3 6 0 -3 106.02 193.73 39.52 o
595 2 6 0 -3 106.02 193.73 39.52 o
595 1 -6 0 3 106.02 193.73 39.52 o
596 3 0 -6 3 104.82 97.97 56.56 <
596 2 0 -6 3 104.82 97.97 56.56 <
596 1 0 6 -3 104.82 97.97 56.56 <
597 3 5 1 -2 2676.42 3048.99 46.50 o
597 2 4 0 -3 2676.42 3048.99 46.50 o
597 1 -4 0 3 2676.42 3048.99 46.50 o
598 3 4 2 -1 4938.39 5395.05 49.94 o
598 2 2 0 -3 4938.39 5395.05 49.94 o
598 1 -2 0 3 4938.39 5395.05 49.94 o
599 3 3 3 0 12138.40 12616.50 127.18 o
599 2 0 0 -3 12138.40 12616.50 127.18 o
599 1 0 0 3 12138.40 12616.50 127.18 o
600 3 -3 -3 0 12222.30 12691.00 122.01 o
600 2 0 0 3 12222.30 12691.00 122.01 o
600 1 0 0 -3 12222.30 12691.00 122.01 o
601 3 8 -2 -4 142.19 165.20 52.51 o
601 2 9 -1 -3 142.19 165.20 52.51 o
601 1 -9 1 3 142.19 165.20 52.51 o
602 3 2 -8 4 141.78 158.09 65.11 o
602 2 1 -9 3 141.78 158.09 65.11 o
602 1 -1 9 -3 141.78 158.09 65.11 o
603 3 7 -1 -3 361.90 422.21 42.65 o
603 2 7 -1 -3 361.90 422.21 42.65 o
603 1 -7 1 3 361.90 422.21 42.65 o
604 3 1 -7 3 368.14 496.27 56.56 o
604 2 1 -7 3 368.14 496.27 56.56 o
604 1 -1 7 -3 368.14 496.27 56.56 o
605 3 6 0 -2 260.72 236.01 38.26 o
605 2 5 -1 -3 260.72 236.01 38.26 o
605 1 -5 1 3 260.72 236.01 38.26 o
606 3 5 1 -1 896.57 1173.69 38.36 o
606 2 3 -1 -3 896.57 1173.69 38.36 o
606 1 -3 1 3 896.57 1173.69 38.36 o
607 3 4 2 0 313.82 261.09 41.57 o
607 2 1 -1 -3 313.82 261.09 41.57 o
607 1 -1 1 3 313.82 261.09 41.57 o
608 3 -2 -4 0 350.55 257.24 54.11 o
608 2 1 -1 3 350.55 257.24 54.11 o
608 1 -1 1 -3 350.55 257.24 54.11 o
609 3 3 3 1 155.19 139.80 66.47 o
609 2 -1 -1 -3 155.19 139.80 66.47 o
609 1 1 1 3 155.19 139.80 66.47 o
610 3 -3 -3 -1 194.46 164.10 55.88 o
610 2 1 1 3 194.46 164.10 55.88 o
610 1 -1 -1 -3 194.46 164.10 55.88 o
611 3 8 -2 -3 158.76 118.63 56.68 o
611 2 8 -2 -3 158.76 118.63 56.68 o
611 1 -8 2 3 158.76 118.63 56.68 o
612 3 7 -1 -2 790.67 922.29 45.99 o
612 2 6 -2 -3 790.67 922.29 45.99 o
612 1 -6 2 3 790.67 922.29 45.99 o
613 3 6 0 -1 400.11 352.72 38.23 o
613 2 4 -2 -3 400.11 352.72 38.23 o
613 1 -4 2 3 400.11 352.72 38.23 o
614 3 5 1 0 6001.01 6146.13 69.55 o
614 2 2 -2 -3 6001.01 6146.13 69.55 o
614 1 -2 2 3 6001.01 6146.13 69.55 o
615 3 -1 -5 0 6074.95 6268.23 106.01 o
615 2 2 -2 3 6074.95 6268.23 106.01 o
615 1 -2 2 -3 6074.95 6268.23 106.01 o
616 3 4 2 1 4934.29 4615.31 63.41 o
616 2 0 -2 -3 4934.29 4615.31 63.41 o
616 1 0 2 3 4934.29 4615.31 63.41 o
617 3 -2 -4 -1 4881.46 4655.41 60.83 o
617 2 2 0 3 4881.46 4655.41 60.83 o
617 1 -2 0 -3 4881.46 4655.41 60.83 o
618 2 -1 -2 -3 1106.14 1275.69 21.29 o
618 1 1 2 3 1106.14 1275.69 21.29 o
619 2 -1 -2 3 1107.96 1179.79 28.96 o
619 1 1 2 -3 1107.96 1179.79 28.96 o
620 3 3 3 2 5827.63 4929.96 86.11 o
620 2 -2 -2 -3 5827.63 4929.96 86.11 o
620 1 2 2 3 5827.63 4929.96 86.11 o
621 3 -3 -3 -2 5914.85 5090.16 79.17 o
621 2 2 2 3 5914.85 5090.16 79.17 o
621 1 -2 -2 -3 5914.85 5090.16 79.17 o
622 3 9 -3 -3 147.42 214.90 68.67 o
622 2 9 -3 -3 147.42 214.90 68.67 o
622 1 -9 3 3 147.42 214.90 68.67 o
623 3 8 -2 -2 93.29 63.39 54.56 <
623 2 7 -3 -3 93.29 63.39 54.56 <
623 1 -7 3 3 93.29 63.39 54.56 <
624 3 7 -1 -1 1566.47 1686.13 44.88 o
624 2 5 -3 -3 1566.47 1686.13 44.88 o
624 1 -5 3 3 1566.47 1686.13 44.88 o
625 3 6 0 0 496.22 467.37 37.83 o
625 2 3 -3 -3 496.22 467.37 37.83 o
625 1 -3 3 3 496.22 467.37 37.83 o
626 3 0 -6 0 489.51 516.85 66.30 o
626 2 3 -3 3 489.51 516.85 66.30 o
626 1 -3 3 -3 489.51 516.85 66.30 o
627 3 5 1 1 893.74 995.17 49.01 o
627 2 1 -3 -3 893.74 995.17 49.01 o
627 1 -1 3 3 893.74 995.17 49.01 o
628 3 -1 -5 -1 923.00 1033.02 43.59 o
628 2 3 -1 3 923.00 1033.02 43.59 o
628 1 -3 1 -3 923.00 1033.02 43.59 o
629 3 4 2 2 1062.42 921.76 42.43 o
629 2 -1 -3 -3 1062.42 921.76 42.43 o
629 1 1 3 3 1062.42 921.76 42.43 o
630 3 -2 -4 -2 1106.57 1028.87 39.13 o
630 2 3 1 3 1106.57 1028.87 39.13 o
630 1 -3 -1 -3 1106.57 1028.87 39.13 o
631 2 -2 -3 -3 187.87 226.62 19.11 o
631 1 2 3 3 187.87 226.62 19.11 o
632 2 -2 -3 3 187.06 207.47 29.13 o
632 1 2 3 -3 187.06 207.47 29.13 o
633 3 3 3 3 276.02 295.68 58.34 o
633 2 -3 -3 -3 276.02 295.68 58.34 o
633 1 3 3 3 276.02 295.68 58.34 o
634 3 -3 -3 -3 272.08 340.98 49.28 o
634 2 3 3 3 272.08 340.98 49.28 o
634 1 -3 -3 -3 272.08 340.98 49.28 o
635 3 9 -3 -2 283.21 396.53 56.35 o
635 2 8 -4 -3 283.21 396.53 56.35 o
635 1 -8 4 3 283.21 396.53 56.35 o
636 3 8 -2 -1 38.63 20.85 39.98 <
636 2 6 -4 -3 38.63 20.85 39.98 <
636 1 -6 4 3 38.63 20.85 39.98 <
637 3 7 -1 0 1887.54 1935.98 47.72 o
637 2 4 -4 -3 1887.54 1935.98 47.72 o
637 1 -4 4 3 1887.54 1935.98 47.72 o
638 3 1 -7 0 1909.82 1915.41 92.55 o
638 2 4 -4 3 1909.82 1915.41 92.55 o
638 1 -4 4 -3 1909.82 1915.41 92.55 o
639 3 6 0 1 400.73 296.40 45.44 o
639 2 2 -4 -3 400.73 296.40 45.44 o
639 1 -2 4 3 400.73 296.40 45.44 o
640 3 0 -6 -1 383.83 244.20 54.11 o
640 2 4 -2 3 383.83 244.20 54.11 o
640 1 -4 2 -3 383.83 244.20 54.11 o
641 3 5 1 2 2674.47 2285.56 48.42 o
641 2 0 -4 -3 2674.47 2285.56 48.42 o
641 1 0 4 3 2674.47 2285.56 48.42 o
642 3 -1 -5 -2 2728.62 2470.06 48.69 o
642 2 4 0 3 2728.62 2470.06 48.69 o
642 1 -4 0 -3 2728.62 2470.06 48.69 o
643 2 -1 -4 -3 1476.79 1574.86 24.27 o
643 1 1 4 3 1476.79 1574.86 24.27 o
644 2 -1 -4 3 1475.97 1479.93 31.11 o
644 1 1 4 -3 1475.97 1479.93 31.11 o
645 3 4 2 3 408.48 233.57 41.29 o
645 2 -2 -4 -3 408.48 233.57 41.29 o
645 1 2 4 3 408.48 233.57 41.29 o
646 3 -2 -4 -3 398.92 205.25 42.22 o
646 2 4 2 3 398.92 205.25 42.22 o
646 1 -4 -2 -3 398.92 205.25 42.22 o
647 2 -3 -4 -3 347.78 382.14 19.73 o
647 1 3 4 3 347.78 382.14 19.73 o
648 2 -3 -4 3 348.27 337.37 25.91 o
648 1 3 4 -3 348.27 337.37 25.91 o
649 3 3 3 4 1801.19 1504.23 63.34 o
649 2 -4 -4 -3 1801.19 1504.23 63.34 o
649 1 4 4 3 1801.19 1504.23 63.34 o
650 3 -3 -3 -4 1833.98 1561.30 62.32 o
650 2 4 4 3 1833.98 1561.30 62.32 o
650 1 -4 -4 -3 1833.98 1561.30 62.32 o
651 3 9 -3 -1 555.83 502.75 57.09 o
651 2 7 -5 -3 555.83 502.75 57.09 o
651 1 -7 5 3 555.83 502.75 57.09 o
652 3 8 -2 0 140.39 81.60 40.56 o
652 2 5 -5 -3 140.39 81.60 40.56 o
652 1 -5 5 3 140.39 81.60 40.56 o
653 3 2 -8 0 134.22 93.40 78.92 <
653 2 5 -5 3 134.22 93.40 78.92 <
653 1 -5 5 -3 134.22 93.40 78.92 <
654 3 7 -1 1 1567.27 1593.98 44.20 o
654 2 3 -5 -3 1567.27 1593.98 44.20 o
654 1 -3 5 3 1567.27 1593.98 44.20 o
655 3 1 -7 -1 1585.49 1436.15 77.65 o
655 2 5 -3 3 1585.49 1436.15 77.65 o
655 1 -5 3 -3 1585.49 1436.15 77.65 o
656 3 6 0 2 253.50 184.08 44.04 o
656 2 1 -5 -3 253.50 184.08 44.04 o
656 1 -1 5 3 253.50 184.08 44.04 o
657 3 0 -6 -2 260.12 236.41 41.97 o
657 2 5 -1 3 260.12 236.41 41.97 o
657 1 -5 1 -3 260.12 236.41 41.97 o
658 3 5 1 3 69.36 104.87 37.83 o
658 2 -1 -5 -3 69.36 104.87 37.83 o
658 1 1 5 3 69.36 104.87 37.83 o
659 3 -1 -5 -3 69.01 88.40 39.65 o
659 2 5 1 3 69.01 88.40 39.65 o
659 1 -5 -1 -3 69.01 88.40 39.65 o
660 2 -2 -5 -3 11.49 17.62 21.56 <
660 1 2 5 3 11.49 17.62 21.56 <
661 2 -2 -5 3 11.47 -8.59 27.69 <
661 1 2 5 -3 11.47 -8.59 27.69 <
662 3 4 2 4 1637.38 1294.49 43.64 o
662 2 -3 -5 -3 1637.38 1294.49 43.64 o
662 1 3 5 3 1637.38 1294.49 43.64 o
663 3 -2 -4 -4 1668.94 1425.99 46.73 o
663 2 5 3 3 1668.94 1425.99 46.73 o
663 1 -5 -3 -3 1668.94 1425.99 46.73 o
664 2 -4 -5 -3 0.12 19.92 20.44 <
664 1 4 5 3 0.12 19.92 20.44 <
665 2 -4 -5 3 0.12 53.21 26.46 o
665 1 4 5 -3 0.12 53.21 26.46 o
666 3 3 3 5 68.27 48.69 52.67 <
666 2 -5 -5 -3 68.27 48.69 52.67 <
666 1 5 5 3 68.27 48.69 52.67 <
667 3 -3 -3 -5 62.19 42.51 52.41 <
667 2 5 5 3 62.19 42.51 52.41 <
667 1 -5 -5 -3 62.19 42.51 52.41 <
668 3 9 -3 0 636.39 785.55 56.30 o
668 2 6 -6 -3 636.39 785.55 56.30 o
668 1 -6 6 3 636.39 785.55 56.30 o
669 3 8 -2 1 38.58 55.01 39.57 <
669 2 4 -6 -3 38.58 55.01 39.57 <
669 1 -4 6 3 38.58 55.01 39.57 <
670 3 2 -8 -1 33.51 45.39 67.40 <
670 2 6 -4 3 33.51 45.39 67.40 <
670 1 -6 4 -3 33.51 45.39 67.40 <
671 3 7 -1 2 790.88 700.04 51.13 o
671 2 2 -6 -3 790.88 700.04 51.13 o
671 1 -2 6 3 790.88 700.04 51.13 o
672 3 1 -7 -2 803.73 807.45 68.42 o
672 2 6 -2 3 803.73 807.45 68.42 o
672 1 -6 2 -3 803.73 807.45 68.42 o
673 3 6 0 3 105.67 67.27 44.02 <
673 2 0 -6 -3 105.67 67.27 44.02 <
673 1 0 6 3 105.67 67.27 44.02 <
674 3 0 -6 -3 105.17 105.50 38.68 o
674 2 6 0 3 105.17 105.50 38.68 o
674 1 -6 0 -3 105.17 105.50 38.68 o
675 2 -1 -6 -3 547.10 547.65 23.59 o
675 1 1 6 3 547.10 547.65 23.59 o
676 2 -1 -6 3 547.03 540.76 29.56 o
676 1 1 6 -3 547.03 540.76 29.56 o
677 3 5 1 4 765.41 659.23 45.95 o
677 2 -2 -6 -3 765.41 659.23 45.95 o
677 1 2 6 3 765.41 659.23 45.95 o
678 3 -1 -5 -4 783.17 742.42 43.47 o
678 2 6 2 3 783.17 742.42 43.47 o
678 1 -6 -2 -3 783.17 742.42 43.47 o
679 2 -3 -6 -3 230.64 182.35 21.28 o
679 1 3 6 3 230.64 182.35 21.28 o
680 2 -3 -6 3 230.69 197.85 27.58 o
680 1 3 6 -3 230.69 197.85 27.58 o
681 3 4 2 5 26.04 58.76 39.76 <
681 2 -4 -6 -3 26.04 58.76 39.76 <
681 1 4 6 3 26.04 58.76 39.76 <
682 3 -2 -4 -5 22.90 28.45 39.13 <
682 2 6 4 3 22.90 28.45 39.13 <
682 1 -6 -4 -3 22.90 28.45 39.13 <
683 2 -5 -6 -3 20.42 18.76 22.28 <
683 1 5 6 3 20.42 18.76 22.28 <
684 2 -5 -6 3 20.41 -15.46 27.63 <
684 1 5 6 -3 20.41 -15.46 27.63 <
685 3 3 3 6 643.75 604.74 62.91 o
685 2 -6 -6 -3 643.75 604.74 62.91 o
685 1 6 6 3 643.75 604.74 62.91 o
686 3 -3 -3 -6 652.95 616.00 63.17 o
686 2 6 6 3 652.95 616.00 63.17 o
686 1 -6 -6 -3 652.95 616.00 63.17 o
687 3 10 -4 0 17.75 65.16 62.33 <
687 2 7 -7 -3 17.75 65.16 62.33 <
687 1 -7 7 3 17.75 65.16 62.33 <
688 3 9 -3 1 556.15 442.96 49.41 o
688 2 5 -7 -3 556.15 442.96 49.41 o
688 1 -5 7 3 556.15 442.96 49.41 o
689 3 3 -9 -1 560.91 495.17 84.67 o
689 2 7 -5 3 560.91 495.17 84.67 o
689 1 -7 5 -3 560.91 495.17 84.67 o
690 3 8 -2 2 92.31 62.52 40.82 <
690 2 3 -7 -3 92.31 62.52 40.82 <
690 1 -3 7 3 92.31 62.52 40.82 <
691 3 2 -8 -2 90.96 102.88 65.28 <
691 2 7 -3 3 90.96 102.88 65.28 <
691 1 -7 3 -3 90.96 102.88 65.28 <
692 3 7 -1 3 363.73 339.16 47.55 o
692 2 1 -7 -3 363.73 339.16 47.55 o
692 1 -1 7 3 363.73 339.16 47.55 o
693 3 1 -7 -3 366.31 291.95 56.48 o
693 2 7 -1 3 366.31 291.95 56.48 o
693 1 -7 1 -3 366.31 291.95 56.48 o
694 3 6 0 4 435.99 367.06 49.34 o
694 2 -1 -7 -3 435.99 367.06 49.34 o
694 1 1 7 3 435.99 367.06 49.34 o
695 3 0 -6 -4 444.89 431.33 40.89 o
695 2 7 1 3 444.89 431.33 40.89 o
695 1 -7 -1 -3 444.89 431.33 40.89 o
696 2 -2 -7 -3 42.26 79.99 23.11 o
696 1 2 7 3 42.26 79.99 23.11 o
697 2 -2 -7 3 42.23 72.29 29.24 o
697 1 2 7 -3 42.23 72.29 29.24 o
698 3 5 1 5 36.71 27.65 42.24 <
698 2 -3 -7 -3 36.71 27.65 42.24 <
698 1 3 7 3 36.71 27.65 42.24 <
699 3 -1 -5 -5 33.18 59.99 43.34 <
699 2 7 3 3 33.18 59.99 43.34 <
699 1 -7 -3 -3 33.18 59.99 43.34 <
700 2 -4 -7 -3 43.55 66.23 22.97 o
700 1 4 7 3 43.55 66.23 22.97 o
701 2 -4 -7 3 43.57 58.37 28.81 o
701 1 4 7 -3 43.57 58.37 28.81 o
702 3 4 2 6 584.34 426.04 44.31 o
702 2 -5 -7 -3 584.34 426.04 44.31 o
702 1 5 7 3 584.34 426.04 44.31 o
703 3 -2 -4 -6 593.82 485.94 46.56 o
703 2 7 5 3 593.82 485.94 46.56 o
703 1 -7 -5 -3 593.82 485.94 46.56 o
704 2 -6 -7 -3 4.46 47.94 25.75 <
704 1 6 7 3 4.46 47.94 25.75 <
705 2 -6 -7 3 4.46 43.84 31.85 <
705 1 6 7 -3 4.46 43.84 31.85 <
706 3 3 3 7 8.49 75.95 67.23 <
706 2 -7 -7 -3 8.49 75.95 67.23 <
706 1 7 7 3 8.49 75.95 67.23 <
707 3 -3 -3 -7 6.14 1.78 65.03 <
707 2 7 7 3 6.14 1.78 65.03 <
707 1 -7 -7 -3 6.14 1.78 65.03 <
708 3 9 -3 2 283.37 372.42 50.47 o
708 2 4 -8 -3 283.37 372.42 50.47 o
708 1 -4 8 3 283.37 372.42 50.47 o
709 3 3 -9 -2 285.89 370.28 83.07 o
709 2 8 -4 3 285.89 370.28 83.07 o
709 1 -8 4 -3 285.89 370.28 83.07 o
710 3 8 -2 3 158.78 99.49 51.32 <
710 2 2 -8 -3 158.78 99.49 51.32 <
710 1 -2 8 3 158.78 99.49 51.32 <
711 3 2 -8 -3 158.81 85.10 66.13 <
711 2 8 -2 3 158.81 85.10 66.13 <
711 1 -8 2 -3 158.81 85.10 66.13 <
712 3 7 -1 4 204.26 180.65 52.55 o
712 2 0 -8 -3 204.26 180.65 52.55 o
712 1 0 8 3 204.26 180.65 52.55 o
713 3 1 -7 -4 206.87 182.39 64.78 o
713 2 8 0 3 206.87 182.39 64.78 o
713 1 -8 0 -3 206.87 182.39 64.78 o
714 2 -1 -8 -3 80.59 91.40 23.73 o
714 1 1 8 3 80.59 91.40 23.73 o
715 2 -1 -8 3 80.61 90.78 27.06 o
715 1 1 8 -3 80.61 90.78 27.06 o
716 3 6 0 5 152.41 26.12 43.93 <
716 2 -2 -8 -3 152.41 26.12 43.93 <
716 1 2 8 3 152.41 26.12 43.93 <
717 3 0 -6 -5 152.35 94.28 46.95 o
717 2 8 2 3 152.35 94.28 46.95 o
717 1 -8 -2 -3 152.35 94.28 46.95 o
718 2 -3 -8 -3 66.17 87.29 26.01 o
718 1 3 8 3 66.17 87.29 26.01 o
719 2 -3 -8 3 66.15 75.90 30.70 o
719 1 3 8 -3 66.15 75.90 30.70 o
720 3 5 1 6 294.66 376.59 48.15 o
720 2 -4 -8 -3 294.66 376.59 48.15 o
720 1 4 8 3 294.66 376.59 48.15 o
721 3 -1 -5 -6 299.48 361.26 43.66 o
721 2 8 4 3 299.48 361.26 43.66 o
721 1 -8 -4 -3 299.48 361.26 43.66 o
722 2 -5 -8 -3 27.28 73.19 25.57 o
722 1 5 8 3 27.28 73.19 25.57 o
723 2 -5 -8 3 27.28 64.93 32.04 o
723 1 5 8 -3 27.28 64.93 32.04 o
724 3 9 -3 3 147.96 158.23 54.25 o
724 2 3 -9 -3 147.96 158.23 54.25 o
724 1 -3 9 3 147.96 158.23 54.25 o
725 3 3 -9 -3 148.72 125.82 66.64 <
725 2 9 -3 3 148.72 125.82 66.64 <
725 1 -9 3 -3 148.72 125.82 66.64 <
726 3 8 -2 4 141.34 118.97 53.29 o
726 2 1 -9 -3 141.34 118.97 53.29 o
726 1 -1 9 3 141.34 118.97 53.29 o
727 3 2 -8 -4 142.63 166.81 52.20 o
727 2 9 -1 3 142.63 166.81 52.20 o
727 1 -9 1 -3 142.63 166.81 52.20 o
728 3 7 -1 5 119.82 101.18 51.79 <
728 2 -1 -9 -3 119.82 101.18 51.79 <
728 1 1 9 3 119.82 101.18 51.79 <
729 3 1 -7 -5 119.08 108.21 72.06 <
729 2 9 1 3 119.08 108.21 72.06 <
729 1 -9 -1 -3 119.08 108.21 72.06 <
730 2 -2 -9 -3 12.13 62.76 28.44 o
730 1 2 9 3 12.13 62.76 28.44 o
731 2 -2 -9 3 12.13 59.12 35.90 <
731 1 2 9 -3 12.13 59.12 35.90 <
732 3 6 0 6 168.60 137.81 44.85 o
732 2 -3 -9 -3 168.60 137.81 44.85 o
732 1 3 9 3 168.60 137.81 44.85 o
733 3 0 -6 -6 171.55 167.91 48.46 o
733 2 9 3 3 171.55 167.91 48.46 o
733 1 -9 -3 -3 171.55 167.91 48.46 o
734 2 -4 -9 -3 22.20 68.56 28.00 o
734 1 4 9 3 22.20 68.56 28.00 o
735 2 -4 -9 3 22.20 50.94 32.97 <
735 1 4 9 -3 22.20 50.94 32.97 <
736 3 4 4 -6 882.49 1063.08 70.11 o
736 2 6 6 -4 882.49 1063.08 70.11 o
736 1 -6 -6 4 882.49 1063.08 70.11 o
737 3 -4 -4 6 885.28 1155.29 68.25 o
737 2 -6 -6 4 885.28 1155.29 68.25 o
737 1 6 6 -4 885.28 1155.29 68.25 o
738 3 5 3 -6 797.93 725.10 48.32 o
738 2 7 5 -4 797.93 725.10 48.32 o
738 1 -7 -5 4 797.93 725.10 48.32 o
739 3 -3 -5 6 800.04 852.75 50.83 o
739 2 -5 -7 4 800.04 852.75 50.83 o
739 1 5 7 -4 800.04 852.75 50.83 o
740 3 4 4 -5 405.72 526.76 68.25 o
740 2 5 5 -4 405.72 526.76 68.25 o
740 1 -5 -5 4 405.72 526.76 68.25 o
741 3 -4 -4 5 400.71 560.46 64.61 o
741 2 -5 -5 4 400.71 560.46 64.61 o
741 1 5 5 -4 400.71 560.46 64.61 o
742 3 6 2 -6 458.46 614.14 56.89 o
742 2 8 4 -4 458.46 614.14 56.89 o
742 1 -8 -4 4 458.46 614.14 56.89 o
743 3 -2 -6 6 459.13 689.33 68.92 o
743 2 -4 -8 4 459.13 689.33 68.92 o
743 1 4 8 -4 459.13 689.33 68.92 o
744 3 5 3 -5 526.44 518.58 45.46 o
744 2 6 4 -4 526.44 518.58 45.46 o
744 1 -6 -4 4 526.44 518.58 45.46 o
745 3 -3 -5 5 522.73 576.46 62.15 o
745 2 -4 -6 4 522.73 576.46 62.15 o
745 1 4 6 -4 522.73 576.46 62.15 o
746 3 4 4 -4 4444.68 4729.96 81.71 o
746 2 4 4 -4 4444.68 4729.96 81.71 o
746 1 -4 -4 4 4444.68 4729.96 81.71 o
747 3 6 2 -5 471.24 569.73 52.31 o
747 2 7 3 -4 471.24 569.73 52.31 o
747 1 -7 -3 4 471.24 569.73 52.31 o
748 3 -2 -6 5 468.84 699.83 72.65 o
748 2 -3 -7 4 468.84 699.83 72.65 o
748 1 3 7 -4 468.84 699.83 72.65 o
749 3 5 3 -4 3969.02 4804.05 62.00 o
749 2 5 3 -4 3969.02 4804.05 62.00 o
749 1 -5 -3 4 3969.02 4804.05 62.00 o
750 3 4 4 -3 2405.73 2900.75 76.63 o
750 2 3 3 -4 2405.73 2900.75 76.63 o
750 1 -3 -3 4 2405.73 2900.75 76.63 o
751 3 7 1 -5 494.82 528.28 55.79 o
751 2 8 2 -4 494.82 528.28 55.79 o
751 1 -8 -2 4 494.82 528.28 55.79 o
752 3 -1 -7 5 493.93 512.45 70.03 o
752 2 -2 -8 4 493.93 512.45 70.03 o
752 1 2 8 -4 493.93 512.45 70.03 o
753 3 6 2 -4 2314.03 2648.85 52.63 o
753 2 6 2 -4 2314.03 2648.85 52.63 o
753 1 -6 -2 4 2314.03 2648.85 52.63 o
754 3 5 3 -3 2126.44 2578.53 48.49 o
754 2 4 2 -4 2126.44 2578.53 48.49 o
754 1 -4 -2 4 2126.44 2578.53 48.49 o
755 3 4 4 -2 16580.50 19551.90 91.55 o
755 2 2 2 -4 16580.50 19551.90 91.55 o
755 1 -2 -2 4 16580.50 19551.90 91.55 o
756 3 8 0 -5 279.25 325.29 47.46 o
756 2 9 1 -4 279.25 325.29 47.46 o
756 1 -9 -1 4 279.25 325.29 47.46 o
757 3 0 -8 5 278.94 384.59 67.32 o
757 2 -1 -9 4 278.94 384.59 67.32 o
757 1 1 9 -4 278.94 384.59 67.32 o
758 3 7 1 -4 1276.54 1421.61 44.92 o
758 2 7 1 -4 1276.54 1421.61 44.92 o
758 1 -7 -1 4 1276.54 1421.61 44.92 o
759 3 6 2 -3 2402.02 2871.14 45.28 o
759 2 5 1 -4 2402.02 2871.14 45.28 o
759 1 -5 -1 4 2402.02 2871.14 45.28 o
760 3 5 3 -2 8793.64 10652.50 53.93 o
760 2 3 1 -4 8793.64 10652.50 53.93 o
760 1 -3 -1 4 8793.64 10652.50 53.93 o
761 3 4 4 -1 9372.78 11416.20 102.46 o
761 2 1 1 -4 9372.78 11416.20 102.46 o
761 1 -1 -1 4 9372.78 11416.20 102.46 o
762 3 8 0 -4 563.30 598.36 48.32 o
762 2 8 0 -4 563.30 598.36 48.32 o
762 1 -8 0 4 563.30 598.36 48.32 o
763 3 7 1 -3 1697.38 2106.85 54.96 o
763 2 6 0 -4 1697.38 2106.85 54.96 o
763 1 -6 0 4 1697.38 2106.85 54.96 o
764 3 6 2 -2 8983.56 10519.40 67.80 o
764 2 4 0 -4 8983.56 10519.40 67.80 o
764 1 -4 0 4 8983.56 10519.40 67.80 o
765 3 5 3 -1 2759.93 3099.00 39.41 o
765 2 2 0 -4 2759.93 3099.00 39.41 o
765 1 -2 0 4 2759.93 3099.00 39.41 o
766 3 4 4 0 29342.50 33336.10 163.51 o
766 2 0 0 -4 29342.50 33336.10 163.51 o
766 1 0 0 4 29342.50 33336.10 163.51 o
767 3 -4 -4 0 29403.90 32445.80 161.05 o
767 2 0 0 4 29403.90 32445.80 161.05 o
767 1 0 0 -4 29403.90 32445.80 161.05 o
768 3 9 -1 -4 292.87 287.44 52.93 o
768 2 9 -1 -4 292.87 287.44 52.93 o
768 1 -9 1 4 292.87 287.44 52.93 o
769 3 8 0 -3 1215.07 1415.35 45.29 o
769 2 7 -1 -4 1215.07 1415.35 45.29 o
769 1 -7 1 4 1215.07 1415.35 45.29 o
770 3 7 1 -2 2525.51 2892.03 46.01 o
770 2 5 -1 -4 2525.51 2892.03 46.01 o
770 1 -5 1 4 2525.51 2892.03 46.01 o
771 3 6 2 -1 8313.19 10183.20 60.28 o
771 2 3 -1 -4 8313.19 10183.20 60.28 o
771 1 -3 1 4 8313.19 10183.20 60.28 o
772 3 5 3 0 9945.66 10572.60 74.52 o
772 2 1 -1 -4 9945.66 10572.60 74.52 o
772 1 -1 1 4 9945.66 10572.60 74.52 o
773 3 -3 -5 0 9912.00 10559.20 105.84 o
773 2 1 -1 4 9912.00 10559.20 105.84 o
773 1 -1 1 -4 9912.00 10559.20 105.84 o
774 3 4 4 1 9377.61 9937.48 100.17 o
774 2 -1 -1 -4 9377.61 9937.48 100.17 o
774 1 1 1 4 9377.61 9937.48 100.17 o
775 3 -4 -4 -1 9339.12 9721.06 94.83 o
775 2 1 1 4 9339.12 9721.06 94.83 o
775 1 -1 -1 -4 9339.12 9721.06 94.83 o
776 3 9 -1 -3 496.56 490.09 47.96 o
776 2 8 -2 -4 496.56 490.09 47.96 o
776 1 -8 2 4 496.56 490.09 47.96 o
777 3 8 0 -2 2254.02 2565.43 40.52 o
777 2 6 -2 -4 2254.02 2565.43 40.52 o
777 1 -6 2 4 2254.02 2565.43 40.52 o
778 3 7 1 -1 2080.96 2424.13 42.04 o
778 2 4 -2 -4 2080.96 2424.13 42.04 o
778 1 -4 2 4 2080.96 2424.13 42.04 o
779 3 6 2 0 16350.60 17502.90 92.97 o
779 2 2 -2 -4 16350.60 17502.90 92.97 o
779 1 -2 2 4 16350.60 17502.90 92.97 o
780 3 -2 -6 0 16378.10 17323.70 135.73 o
780 2 2 -2 4 16378.10 17323.70 135.73 o
780 1 -2 2 -4 16378.10 17323.70 135.73 o
781 3 5 3 1 2765.01 2603.97 46.86 o
781 2 0 -2 -4 2765.01 2603.97 46.86 o
781 1 0 2 4 2765.01 2603.97 46.86 o
782 3 -3 -5 -1 2689.08 2691.65 45.78 o
782 2 2 0 4 2689.08 2691.65 45.78 o
782 1 -2 0 -4 2689.08 2691.65 45.78 o
783 2 -1 -2 -4 496.11 619.66 18.23 o
783 1 1 2 4 496.11 619.66 18.23 o
784 2 -1 -2 4 495.68 597.78 27.82 o
784 1 1 2 -4 495.68 597.78 27.82 o
785 3 4 4 2 16587.20 15220.60 120.66 o
785 2 -2 -2 -4 16587.20 15220.60 120.66 o
785 1 2 2 4 16587.20 15220.60 120.66 o
786 3 -4 -4 -2 16608.00 15866.50 116.93 o
786 2 2 2 4 16608.00 15866.50 116.93 o
786 1 -2 -2 -4 16608.00 15866.50 116.93 o
787 3 9 -1 -2 496.92 562.38 41.86 o
787 2 7 -3 -4 496.92 562.38 41.86 o
787 1 -7 3 4 496.92 562.38 41.86 o
788 3 8 0 -1 3769.75 4508.73 53.86 o
788 2 5 -3 -4 3769.75 4508.73 53.86 o
788 1 -5 3 4 3769.75 4508.73 53.86 o
789 3 7 1 0 2526.37 2558.78 42.15 o
789 2 3 -3 -4 2526.37 2558.78 42.15 o
789 1 -3 3 4 2526.37 2558.78 42.15 o
790 3 -1 -7 0 2500.90 2585.94 82.64 o
790 2 3 -3 4 2500.90 2585.94 82.64 o
790 1 -3 3 -4 2500.90 2585.94 82.64 o
791 3 6 2 1 8316.92 8931.81 75.00 o
791 2 1 -3 -4 8316.92 8931.81 75.00 o
791 1 -1 3 4 8316.92 8931.81 75.00 o
792 3 -2 -6 -1 8305.15 8980.58 74.85 o
792 2 3 -1 4 8305.15 8980.58 74.85 o
792 1 -3 1 -4 8305.15 8980.58 74.85 o
793 3 5 3 2 8796.36 8336.51 65.20 o
793 2 -1 -3 -4 8796.36 8336.51 65.20 o
793 1 1 3 4 8796.36 8336.51 65.20 o
794 3 -3 -5 -2 8785.60 8724.53 66.08 o
794 2 3 1 4 8785.60 8724.53 66.08 o
794 1 -3 -1 -4 8785.60 8724.53 66.08 o
795 2 -2 -3 -4 70.00 83.88 17.61 o
795 1 2 3 4 70.00 83.88 17.61 o
796 2 -2 -3 4 70.20 142.14 29.12 o
796 1 2 3 -4 70.20 142.14 29.12 o
797 3 4 4 3 2414.93 2018.88 62.24 o
797 2 -3 -3 -4 2414.93 2018.88 62.24 o
797 1 3 3 4 2414.93 2018.88 62.24 o
798 3 -4 -4 -3 2380.26 2056.22 61.64 o
798 2 3 3 4 2380.26 2056.22 61.64 o
798 1 -3 -3 -4 2380.26 2056.22 61.64 o
799 3 10 -2 -2 439.15 535.60 66.87 o
799 2 8 -4 -4 439.15 535.60 66.87 o
799 1 -8 4 4 439.15 535.60 66.87 o
800 3 9 -1 -1 521.74 504.89 38.27 o
800 2 6 -4 -4 521.74 504.89 38.27 o
800 1 -6 4 4 521.74 504.89 38.27 o
801 3 8 0 0 4289.77 4515.12 53.75 o
801 2 4 -4 -4 4289.77 4515.12 53.75 o
801 1 -4 4 4 4289.77 4515.12 53.75 o
802 3 0 -8 0 4297.60 4287.71 96.87 o
802 2 4 -4 4 4297.60 4287.71 96.87 o
802 1 -4 4 -4 4297.60 4287.71 96.87 o
803 3 7 1 1 2081.75 2081.92 53.09 o
803 2 2 -4 -4 2081.75 2081.92 53.09 o
803 1 -2 4 4 2081.75 2081.92 53.09 o
804 3 -1 -7 -1 2050.58 2050.04 79.17 o
804 2 4 -2 4 2050.58 2050.04 79.17 o
804 1 -4 2 -4 2050.58 2050.04 79.17 o
805 3 6 2 2 8984.64 8178.72 67.89 o
805 2 0 -4 -4 8984.64 8178.72 67.89 o
805 1 0 4 4 8984.64 8178.72 67.89 o
806 3 -2 -6 -2 8993.85 8489.31 70.21 o
806 2 4 0 4 8993.85 8489.31 70.21 o
806 1 -4 0 -4 8993.85 8489.31 70.21 o
807 2 -1 -4 -4 643.90 769.02 19.66 o
807 1 1 4 4 643.90 769.02 19.66 o
808 2 -1 -4 4 644.11 675.57 30.29 o
808 1 1 4 -4 644.11 675.57 30.29 o
809 3 5 3 3 2134.29 1931.83 49.54 o
809 2 -2 -4 -4 2134.29 1931.83 49.54 o
809 1 2 4 4 2134.29 1931.83 49.54 o
810 3 -3 -5 -3 2096.06 1917.95 46.01 o
810 2 4 2 4 2096.06 1917.95 46.01 o
810 1 -4 -2 -4 2096.06 1917.95 46.01 o
811 2 -3 -4 -4 165.73 130.73 18.88 o
811 1 3 4 4 165.73 130.73 18.88 o
812 2 -3 -4 4 165.60 81.54 35.39 o
812 1 3 4 -4 165.60 81.54 35.39 o
813 3 4 4 4 4447.92 3556.64 76.29 o
813 2 -4 -4 -4 4447.92 3556.64 76.29 o
813 1 4 4 4 4447.92 3556.64 76.29 o
814 3 -4 -4 -4 4452.51 3753.08 76.46 o
814 2 4 4 4 4452.51 3753.08 76.46 o
814 1 -4 -4 -4 4452.51 3753.08 76.46 o
815 3 10 -2 -1 753.28 694.92 50.34 o
815 2 7 -5 -4 753.28 694.92 50.34 o
815 1 -7 5 4 753.28 694.92 50.34 o
816 3 9 -1 0 430.21 513.97 43.87 o
816 2 5 -5 -4 430.21 513.97 43.87 o
816 1 -5 5 4 430.21 513.97 43.87 o
817 3 1 -9 0 420.28 493.14 76.80 o
817 2 5 -5 4 420.28 493.14 76.80 o
817 1 -5 5 -4 420.28 493.14 76.80 o
818 3 8 0 1 3770.28 3628.02 65.63 o
818 2 3 -5 -4 3770.28 3628.02 65.63 o
818 1 -3 5 4 3770.28 3628.02 65.63 o
819 3 0 -8 -1 3773.73 3936.74 95.77 o
819 2 5 -3 4 3773.73 3936.74 95.77 o
819 1 -5 3 -4 3773.73 3936.74 95.77 o
820 3 7 1 2 2525.72 2208.88 57.72 o
820 2 1 -5 -4 2525.72 2208.88 57.72 o
820 1 -1 5 4 2525.72 2208.88 57.72 o
821 3 -1 -7 -2 2514.13 2462.23 53.91 o
821 2 5 -1 4 2514.13 2462.23 53.91 o
821 1 -5 1 -4 2514.13 2462.23 53.91 o
822 3 6 2 3 2407.42 2195.89 50.12 o
822 2 -1 -5 -4 2407.42 2195.89 50.12 o
822 1 1 5 4 2407.42 2195.89 50.12 o
823 3 -2 -6 -3 2390.64 2268.58 49.93 o
823 2 5 1 4 2390.64 2268.58 49.93 o
823 1 -5 -1 -4 2390.64 2268.58 49.93 o
824 2 -2 -5 -4 4.57 22.16 18.97 <
824 1 2 5 4 4.57 22.16 18.97 <
825 2 -2 -5 4 4.58 64.66 32.86 <
825 1 2 5 -4 4.58 64.66 32.86 <
826 3 5 3 4 3970.66 3399.65 53.74 o
826 2 -3 -5 -4 3970.66 3399.65 53.74 o
826 1 3 5 4 3970.66 3399.65 53.74 o
827 3 -3 -5 -4 3973.00 3621.79 53.70 o
827 2 5 3 4 3973.00 3621.79 53.70 o
827 1 -5 -3 -4 3973.00 3621.79 53.70 o
828 2 -4 -5 -4 0.17 2.62 19.19 <
828 1 4 5 4 0.17 2.62 19.19 <
829 2 -4 -5 4 0.17 23.12 29.88 <
829 1 4 5 -4 0.17 23.12 29.88 <
830 3 4 4 5 410.64 427.60 62.07 o
830 2 -5 -5 -4 410.64 427.60 62.07 o
830 1 5 5 4 410.64 427.60 62.07 o
831 3 -4 -4 -5 395.79 391.95 59.53 o
831 2 5 5 4 395.79 391.95 59.53 o
831 1 -5 -5 -4 395.79 391.95 59.53 o
832 3 10 -2 0 843.71 1005.44 52.67 o
832 2 6 -6 -4 843.71 1005.44 52.67 o
832 1 -6 6 4 843.71 1005.44 52.67 o
833 3 9 -1 1 521.84 452.36 42.30 o
833 2 4 -6 -4 521.84 452.36 42.30 o
833 1 -4 6 4 521.84 452.36 42.30 o
834 3 1 -9 -1 514.06 508.30 80.86 o
834 2 6 -4 4 514.06 508.30 80.86 o
834 1 -6 4 -4 514.06 508.30 80.86 o
835 3 8 0 2 2253.72 2027.01 59.03 o
835 2 2 -6 -4 2253.72 2027.01 59.03 o
835 1 -2 6 4 2253.72 2027.01 59.03 o
836 3 0 -8 -2 2255.89 2055.37 74.77 o
836 2 6 -2 4 2255.89 2055.37 74.77 o
836 1 -6 2 -4 2255.89 2055.37 74.77 o
837 3 7 1 3 1699.20 1541.44 48.13 o
837 2 0 -6 -4 1699.20 1541.44 48.13 o
837 1 0 6 4 1699.20 1541.44 48.13 o
838 3 -1 -7 -3 1686.50 1703.09 52.31 o
838 2 6 0 4 1686.50 1703.09 52.31 o
838 1 -6 0 -4 1686.50 1703.09 52.31 o
839 2 -1 -6 -4 252.17 224.59 20.48 o
839 1 1 6 4 252.17 224.59 20.48 o
840 2 -1 -6 4 252.18 221.55 27.53 o
840 1 1 6 -4 252.18 221.55 27.53 o
841 3 6 2 4 2314.80 1830.10 48.44 o
841 2 -2 -6 -4 2314.80 1830.10 48.44 o
841 1 2 6 4 2314.80 1830.10 48.44 o
842 3 -2 -6 -4 2315.90 2028.06 50.48 o
842 2 6 2 4 2315.90 2028.06 50.48 o
842 1 -6 -2 -4 2315.90 2028.06 50.48 o
843 2 -3 -6 -4 108.15 72.68 21.59 o
843 1 3 6 4 108.15 72.68 21.59 o
844 2 -3 -6 4 108.14 72.31 29.42 o
844 1 3 6 -4 108.14 72.31 29.42 o
845 3 5 3 5 530.42 441.87 47.60 o
845 2 -4 -6 -4 530.42 441.87 47.60 o
845 1 4 6 4 530.42 441.87 47.60 o
846 3 -3 -5 -5 518.75 354.02 42.23 o
846 2 6 4 4 518.75 354.02 42.23 o
846 1 -6 -4 -4 518.75 354.02 42.23 o
847 2 -5 -6 -4 9.60 14.84 21.53 <
847 1 5 6 4 9.60 14.84 21.53 <
848 2 -5 -6 4 9.60 49.11 27.52 <
848 1 5 6 -4 9.60 49.11 27.52 <
849 3 4 4 6 882.84 835.14 70.45 o
849 2 -6 -6 -4 882.84 835.14 70.45 o
849 1 6 6 4 882.84 835.14 70.45 o
850 3 -4 -4 -6 884.93 841.15 76.88 o
850 2 6 6 4 884.93 841.15 76.88 o
850 1 -6 -6 -4 884.93 841.15 76.88 o
851 3 10 -2 1 753.33 660.23 51.19 o
851 2 5 -7 -4 753.33 660.23 51.19 o
851 1 -5 7 4 753.33 660.23 51.19 o
852 3 2 -10 -1 755.34 623.96 90.60 o
852 2 7 -5 4 755.34 623.96 90.60 o
852 1 -7 5 -4 755.34 623.96 90.60 o
853 3 9 -1 2 496.51 476.12 56.65 o
853 2 3 -7 -4 496.51 476.12 56.65 o
853 1 -3 7 4 496.51 476.12 56.65 o
854 3 1 -9 -2 491.79 478.74 76.29 o
854 2 7 -3 4 491.79 478.74 76.29 o
854 1 -7 3 -4 491.79 478.74 76.29 o
855 3 8 0 3 1215.97 1053.81 48.26 o
855 2 1 -7 -4 1215.97 1053.81 48.26 o
855 1 -1 7 4 1215.97 1053.81 48.26 o
856 3 0 -8 -3 1214.04 1251.01 57.71 o
856 2 7 -1 4 1214.04 1251.01 57.71 o
856 1 -7 1 -4 1214.04 1251.01 57.71 o
857 3 7 1 4 1276.12 1116.80 51.40 o
857 2 -1 -7 -4 1276.12 1116.80 51.40 o
857 1 1 7 4 1276.12 1116.80 51.40 o
858 3 -1 -7 -4 1275.52 1132.09 51.26 o
858 2 7 1 4 1275.52 1132.09 51.26 o
858 1 -7 -1 -4 1275.52 1132.09 51.26 o
859 2 -2 -7 -4 19.22 75.00 22.82 o
859 1 2 7 4 19.22 75.00 22.82 o
860 2 -2 -7 4 19.23 100.30 31.82 o
860 1 2 7 -4 19.23 100.30 31.82 o
861 3 6 2 5 473.97 411.47 42.78 o
861 2 -3 -7 -4 473.97 411.47 42.78 o
861 1 3 7 4 473.97 411.47 42.78 o
862 3 -2 -6 -5 466.12 365.41 41.41 o
862 2 7 3 4 466.12 365.41 41.41 o
862 1 -7 -3 -4 466.12 365.41 41.41 o
863 2 -4 -7 -4 20.90 41.65 22.19 <
863 1 4 7 4 20.90 41.65 22.19 <
864 2 -4 -7 4 20.90 72.29 33.09 o
864 1 4 7 -4 20.90 72.29 33.09 o
865 3 5 3 6 797.98 539.79 49.41 o
865 2 -5 -7 -4 797.98 539.79 49.41 o
865 1 5 7 4 797.98 539.79 49.41 o
866 3 -3 -5 -6 799.99 546.95 47.09 o
866 2 7 5 4 799.99 546.95 47.09 o
866 1 -7 -5 -4 799.99 546.95 47.09 o
867 2 -6 -7 -4 2.16 53.30 25.50 o
867 1 6 7 4 2.16 53.30 25.50 o
868 2 -6 -7 4 2.16 101.63 35.65 o
868 1 6 7 -4 2.16 101.63 35.65 o
869 3 10 -2 2 439.08 525.63 51.95 o
869 2 4 -8 -4 439.08 525.63 51.95 o
869 1 -4 8 4 439.08 525.63 51.95 o
870 3 2 -10 -2 439.93 578.74 83.83 o
870 2 8 -4 4 439.93 578.74 83.83 o
870 1 -8 4 -4 439.93 578.74 83.83 o
871 3 9 -1 3 496.74 404.19 54.30 o
871 2 2 -8 -4 496.74 404.19 54.30 o
871 1 -2 8 4 496.74 404.19 54.30 o
872 3 1 -9 -3 494.49 424.72 83.49 o
872 2 8 -2 4 494.49 424.72 83.49 o
872 1 -8 2 -4 494.49 424.72 83.49 o
873 3 8 0 4 562.93 468.33 45.99 o
873 2 0 -8 -4 562.93 468.33 45.99 o
873 1 0 8 4 562.93 468.33 45.99 o
874 3 0 -8 -4 562.40 627.05 52.82 o
874 2 8 0 4 562.40 627.05 52.82 o
874 1 -8 0 -4 562.40 627.05 52.82 o
875 2 -1 -8 -4 38.57 76.88 23.40 o
875 1 1 8 4 38.57 76.88 23.40 o
876 2 -1 -8 4 38.56 49.28 31.27 <
876 1 1 8 -4 38.56 49.28 31.27 <
877 3 7 1 5 496.00 282.85 48.60 o
877 2 -2 -8 -4 496.00 282.85 48.60 o
877 1 2 8 4 496.00 282.85 48.60 o
878 3 -1 -7 -5 492.75 377.64 47.73 o
878 2 8 2 4 492.75 377.64 47.73 o
878 1 -8 -2 -4 492.75 377.64 47.73 o
879 2 -3 -8 -4 31.25 69.85 23.93 o
879 1 3 8 4 31.25 69.85 23.93 o
880 2 -3 -8 4 31.25 48.24 35.40 <
880 1 3 8 -4 31.25 48.24 35.40 <
881 3 6 2 6 458.35 532.56 52.97 o
881 2 -4 -8 -4 458.35 532.56 52.97 o
881 1 4 8 4 458.35 532.56 52.97 o
882 3 -2 -6 -6 459.25 466.98 50.03 o
882 2 8 4 4 459.25 466.98 50.03 o
882 1 -8 -4 -4 459.25 466.98 50.03 o
883 3 9 -1 4 292.51 305.38 52.97 o
883 2 1 -9 -4 292.51 305.38 52.97 o
883 1 -1 9 4 292.51 305.38 52.97 o
884 3 1 -9 -4 292.00 316.30 54.55 o
884 2 9 -1 4 292.00 316.30 54.55 o
884 1 -9 1 -4 292.00 316.30 54.55 o
885 3 8 0 5 279.81 205.93 53.88 o
885 2 -1 -9 -4 279.81 205.93 53.88 o
885 1 1 9 4 279.81 205.93 53.88 o
886 3 0 -8 -5 278.38 277.01 56.21 o
886 2 9 1 4 278.38 277.01 56.21 o
886 1 -9 -1 -4 278.38 277.01 56.21 o
887 2 -2 -9 -4 5.90 64.02 28.77 o
887 1 2 9 4 5.90 64.02 28.77 o
888 2 -2 -9 4 5.90 52.24 36.44 <
888 1 2 9 -4 5.90 52.24 36.44 <
889 3 5 5 -5 12.28 92.89 61.13 <
889 2 5 5 -5 12.28 92.89 61.13 <
889 1 -5 -5 5 12.28 92.89 61.13 <
890 3 6 4 -5 13.57 31.67 42.98 <
890 2 6 4 -5 13.57 31.67 42.98 <
890 1 -6 -4 5 13.57 31.67 42.98 <
891 3 5 5 -4 366.57 398.90 56.73 o
891 2 4 4 -5 366.57 398.90 56.73 o
891 1 -4 -4 5 366.57 398.90 56.73 o
892 3 7 3 -5 19.98 47.47 40.94 <
892 2 7 3 -5 19.98 47.47 40.94 <
892 1 -7 -3 5 19.98 47.47 40.94 <
893 3 6 4 -4 342.82 357.21 33.26 o
893 2 5 3 -5 342.82 357.21 33.26 o
893 1 -5 -3 5 342.82 357.21 33.26 o
894 3 5 5 -3 53.30 96.61 36.43 o
894 2 3 3 -5 53.30 96.61 36.43 o
894 1 -3 -3 5 53.30 96.61 36.43 o
895 3 7 3 -4 175.22 175.64 39.41 o
895 2 6 2 -5 175.22 175.64 39.41 o
895 1 -6 -2 5 175.22 175.64 39.41 o
896 3 6 4 -3 62.34 38.02 29.43 <
896 2 4 2 -5 62.34 38.02 29.43 <
896 1 -4 -2 5 62.34 38.02 29.43 <
897 3 5 5 -2 963.04 913.93 46.72 o
897 2 2 2 -5 963.04 913.93 46.72 o
897 1 -2 -2 5 963.04 913.93 46.72 o
898 3 8 2 -4 119.30 129.69 42.37 o
898 2 7 1 -5 119.30 129.69 42.37 o
898 1 -7 -1 5 119.30 129.69 42.37 o
899 3 7 3 -3 26.83 72.04 30.96 o
899 2 5 1 -5 26.83 72.04 30.96 o
899 1 -5 -1 5 26.83 72.04 30.96 o
900 3 6 4 -2 205.95 240.68 28.39 o
900 2 3 1 -5 205.95 240.68 28.39 o
900 1 -3 -1 5 205.95 240.68 28.39 o
901 3 5 5 -1 58.61 96.36 56.39 <
901 2 1 1 -5 58.61 96.36 56.39 <
901 1 -1 -1 5 58.61 96.36 56.39 <
902 3 9 1 -4 60.20 102.77 45.27 o
902 2 8 0 -5 60.20 102.77 45.27 o
902 1 -8 0 5 60.20 102.77 45.27 o
903 3 8 2 -3 45.77 82.39 32.14 o
903 2 6 0 -5 45.77 82.39 32.14 o
903 1 -6 0 5 45.77 82.39 32.14 o
904 3 7 3 -2 478.80 427.50 30.92 o
904 2 4 0 -5 478.80 427.50 30.92 o
904 1 -4 0 5 478.80 427.50 30.92 o
905 3 6 4 -1 763.65 693.65 32.01 o
905 2 2 0 -5 763.65 693.65 32.01 o
905 1 -2 0 5 763.65 693.65 32.01 o
906 3 5 5 0 1870.69 1968.50 64.52 o
906 2 0 0 -5 1870.69 1968.50 64.52 o
906 1 0 0 5 1870.69 1968.50 64.52 o
907 3 9 1 -3 97.47 92.48 35.38 o
907 2 7 -1 -5 97.47 92.48 35.38 o
907 1 -7 1 5 97.47 92.48 35.38 o
908 3 8 2 -2 83.12 86.24 33.79 o
908 2 5 -1 -5 83.12 86.24 33.79 o
908 1 -5 1 5 83.12 86.24 33.79 o
909 3 7 3 -1 161.05 241.38 35.06 o
909 2 3 -1 -5 161.05 241.38 35.06 o
909 1 -3 1 5 161.05 241.38 35.06 o
910 3 6 4 0 100.65 82.43 37.24 o
910 2 1 -1 -5 100.65 82.43 37.24 o
910 1 -1 1 5 100.65 82.43 37.24 o
911 3 -4 -6 0 115.27 46.40 52.16 <
911 2 1 -1 5 115.27 46.40 52.16 <
911 1 -1 1 -5 115.27 46.40 52.16 <
912 3 5 5 1 57.10 9.74 51.82 <
912 2 -1 -1 -5 57.10 9.74 51.82 <
912 1 1 1 5 57.10 9.74 51.82 <
913 3 -5 -5 -1 73.23 34.04 49.45 <
913 2 1 1 5 73.23 34.04 49.45 <
913 1 -1 -1 -5 73.23 34.04 49.45 <
914 3 9 1 -2 180.84 185.94 35.28 o
914 2 6 -2 -5 180.84 185.94 35.28 o
914 1 -6 2 5 180.84 185.94 35.28 o
915 3 8 2 -1 74.96 22.78 34.53 <
915 2 4 -2 -5 74.96 22.78 34.53 <
915 1 -4 2 5 74.96 22.78 34.53 <
916 3 7 3 0 987.34 920.62 43.86 o
916 2 2 -2 -5 987.34 920.62 43.86 o
916 1 -2 2 5 987.34 920.62 43.86 o
917 3 -3 -7 0 1024.38 825.23 66.72 o
917 2 2 -2 5 1024.38 825.23 66.72 o
917 1 -2 2 -5 1024.38 825.23 66.72 o
918 3 6 4 1 761.95 619.26 42.46 o
918 2 0 -2 -5 761.95 619.26 42.46 o
918 1 0 2 5 761.95 619.26 42.46 o
919 3 -4 -6 -1 747.36 636.96 41.35 o
919 2 2 0 5 747.36 636.96 41.35 o
919 1 -2 0 -5 747.36 636.96 41.35 o
920 2 -1 -2 -5 164.70 201.19 18.42 o
920 1 1 2 5 164.70 201.19 18.42 o
921 2 -1 -2 5 164.75 197.26 32.94 o
921 1 1 2 -5 164.75 197.26 32.94 o
922 3 5 5 2 957.39 748.09 56.99 o
922 2 -2 -2 -5 957.39 748.09 56.99 o
922 1 2 2 5 957.39 748.09 56.99 o
923 3 -5 -5 -2 1000.09 792.55 56.14 o
923 2 2 2 5 1000.09 792.55 56.14 o
923 1 -2 -2 -5 1000.09 792.55 56.14 o
924 3 10 0 -2 39.62 50.95 36.73 <
924 2 7 -3 -5 39.62 50.95 36.73 <
924 1 -7 3 5 39.62 50.95 36.73 <
925 3 9 1 -1 323.78 326.11 39.56 o
925 2 5 -3 -5 323.78 326.11 39.56 o
925 1 -5 3 5 323.78 326.11 39.56 o
926 3 8 2 0 123.35 94.83 36.03 o
926 2 3 -3 -5 123.35 94.83 36.03 o
926 1 -3 3 5 123.35 94.83 36.03 o
927 3 -2 -8 0 123.12 69.35 65.79 <
927 2 3 -3 5 123.12 69.35 65.79 <
927 1 -3 3 -5 123.12 69.35 65.79 <
928 3 7 3 1 160.33 264.86 44.81 o
928 2 1 -3 -5 160.33 264.86 44.81 o
928 1 -1 3 5 160.33 264.86 44.81 o
929 3 -3 -7 -1 177.05 261.81 42.00 o
929 2 3 -1 5 177.05 261.81 42.00 o
929 1 -3 1 -5 177.05 261.81 42.00 o
930 3 6 4 2 202.36 175.87 40.47 o
930 2 -1 -3 -5 202.36 175.87 40.47 o
930 1 1 3 5 202.36 175.87 40.47 o
931 3 -4 -6 -2 221.96 221.42 39.34 o
931 2 3 1 5 221.96 221.42 39.34 o
931 1 -3 -1 -5 221.96 221.42 39.34 o
932 2 -2 -3 -5 32.12 56.55 17.47 o
932 1 2 3 5 32.12 56.55 17.47 o
933 2 -2 -3 5 32.10 29.89 34.47 <
933 1 2 3 -5 32.10 29.89 34.47 <
934 3 5 5 3 50.76 88.31 58.93 <
934 2 -3 -3 -5 50.76 88.31 58.93 <
934 1 3 3 5 50.76 88.31 58.93 <
935 3 -5 -5 -3 53.08 91.19 57.75 <
935 2 3 3 5 53.08 91.19 57.75 <
935 1 -3 -3 -5 53.08 91.19 57.75 <
936 3 10 0 -1 23.39 58.91 37.68 <
936 2 6 -4 -5 23.39 58.91 37.68 <
936 1 -6 4 5 23.39 58.91 37.68 <
937 3 9 1 0 384.58 356.33 39.22 o
937 2 4 -4 -5 384.58 356.33 39.22 o
937 1 -4 4 5 384.58 356.33 39.22 o
938 3 -1 -9 0 396.51 381.03 62.91 o
938 2 4 -4 5 396.51 381.03 62.91 o
938 1 -4 4 -5 396.51 381.03 62.91 o
939 3 8 2 1 74.91 58.30 45.68 <
939 2 2 -4 -5 74.91 58.30 45.68 <
939 1 -2 4 5 74.91 58.30 45.68 <
940 3 -2 -8 -1 70.16 64.18 54.11 <
940 2 4 -2 5 70.16 64.18 54.11 <
940 1 -4 2 -5 70.16 64.18 54.11 <
941 3 7 3 2 476.21 354.15 44.45 o
941 2 0 -4 -5 476.21 354.15 44.45 o
941 1 0 4 5 476.21 354.15 44.45 o
942 3 -3 -7 -2 501.61 388.14 38.83 o
942 2 4 0 5 501.61 388.14 38.83 o
942 1 -4 0 -5 501.61 388.14 38.83 o
943 2 -1 -4 -5 244.62 260.63 17.42 o
943 1 1 4 5 244.62 260.63 17.42 o
944 2 -1 -4 5 244.60 258.87 28.74 o
944 1 1 4 -5 244.60 258.87 28.74 o
945 3 6 4 3 60.23 45.64 39.27 <
945 2 -2 -4 -5 60.23 45.64 39.27 <
945 1 2 4 5 60.23 45.64 39.27 <
946 3 -4 -6 -3 57.54 50.38 40.37 <
946 2 4 2 5 57.54 50.38 40.37 <
946 1 -4 -2 -5 57.54 50.38 40.37 <
947 2 -3 -4 -5 57.45 34.09 17.01 o
947 1 3 4 5 57.45 34.09 17.01 o
948 2 -3 -4 5 57.47 52.16 35.15 <
948 1 3 4 -5 57.47 52.16 35.15 <
949 3 5 5 4 362.47 283.15 65.11 o
949 2 -4 -4 -5 362.47 283.15 65.11 o
949 1 4 4 5 362.47 283.15 65.11 o
950 3 -5 -5 -4 378.51 252.84 57.92 o
950 2 4 4 5 378.51 252.84 57.92 o
950 1 -4 -4 -5 378.51 252.84 57.92 o
951 3 10 0 0 38.51 34.10 43.65 <
951 2 5 -5 -5 38.51 34.10 43.65 <
951 1 -5 5 5 38.51 34.10 43.65 <
952 3 9 1 1 323.87 294.54 46.75 o
952 2 3 -5 -5 323.87 294.54 46.75 o
952 1 -3 5 5 323.87 294.54 46.75 o
953 3 -1 -9 -1 333.42 282.22 62.49 o
953 2 5 -3 5 333.42 282.22 62.49 o
953 1 -5 3 -5 333.42 282.22 62.49 o
954 3 8 2 2 82.15 119.60 43.04 o
954 2 1 -5 -5 82.15 119.60 43.04 o
954 1 -1 5 5 82.15 119.60 43.04 o
955 3 -2 -8 -2 86.02 60.41 42.63 <
955 2 5 -1 5 86.02 60.41 42.63 <
955 1 -5 1 -5 86.02 60.41 42.63 <
956 3 7 3 3 25.86 77.94 40.57 <
956 2 -1 -5 -5 25.86 77.94 40.57 <
956 1 1 5 5 25.86 77.94 40.57 <
957 3 -3 -7 -3 29.73 51.40 39.21 <
957 2 5 1 5 29.73 51.40 39.21 <
957 1 -5 -1 -5 29.73 51.40 39.21 <
958 2 -2 -5 -5 1.99 19.81 18.81 <
958 1 2 5 5 1.99 19.81 18.81 <
959 2 -2 -5 5 1.99 -11.29 33.65 <
959 1 2 5 -5 1.99 -11.29 33.65 <
960 3 6 4 4 339.64 319.01 48.12 o
960 2 -3 -5 -5 339.64 319.01 48.12 o
960 1 3 5 5 339.64 319.01 48.12 o
961 3 -4 -6 -4 352.46 238.44 42.45 o
961 2 5 3 5 352.46 238.44 42.45 o
961 1 -5 -3 -5 352.46 238.44 42.45 o
962 2 -4 -5 -5 0.07 24.09 20.58 <
962 1 4 5 5 0.07 24.09 20.58 <
963 2 -4 -5 5 0.07 20.49 35.18 <
963 1 4 5 -5 0.07 20.49 35.18 <
964 3 5 5 5 11.33 21.34 65.71 <
964 2 -5 -5 -5 11.33 21.34 65.71 <
964 1 5 5 5 11.33 21.34 65.71 <
965 3 -5 -5 -5 9.97 33.78 73.50 <
965 2 5 5 5 9.97 33.78 73.50 <
965 1 -5 -5 -5 9.97 33.78 73.50 <
966 3 10 0 1 23.47 67.37 43.98 <
966 2 4 -6 -5 23.47 67.37 43.98 <
966 1 -4 6 5 23.47 67.37 43.98 <
967 3 0 -10 -1 21.90 53.18 79.09 <
967 2 6 -4 5 21.90 53.18 79.09 <
967 1 -6 4 -5 21.90 53.18 79.09 <
968 3 9 1 2 180.43 106.60 45.06 o
968 2 2 -6 -5 180.43 106.60 45.06 o
968 1 -2 6 5 180.43 106.60 45.06 o
969 3 -1 -9 -2 187.44 152.92 76.97 <
969 2 6 -2 5 187.44 152.92 76.97 <
969 1 -6 2 -5 187.44 152.92 76.97 <
970 3 8 2 3 45.79 110.03 42.35 o
970 2 0 -6 -5 45.79 110.03 42.35 o
970 1 0 6 5 45.79 110.03 42.35 o
971 3 -2 -8 -3 46.03 86.66 39.40 o
971 2 6 0 5 46.03 86.66 39.40 o
971 1 -6 0 -5 46.03 86.66 39.40 o
972 2 -1 -6 -5 95.89 105.32 19.25 o
972 1 1 6 5 95.89 105.32 19.25 o
973 2 -1 -6 5 95.89 57.75 29.48 <
973 1 1 6 -5 95.89 57.75 29.48 <
974 3 7 3 4 173.10 162.28 47.48 o
974 2 -2 -6 -5 173.10 162.28 47.48 o
974 1 2 6 5 173.10 162.28 47.48 o
975 3 -3 -7 -4 181.82 167.82 41.49 o
975 2 6 2 5 181.82 167.82 41.49 o
975 1 -6 -2 -5 181.82 167.82 41.49 o
976 2 -3 -6 -5 40.80 50.52 20.58 o
976 1 3 6 5 40.80 50.52 20.58 o
977 2 -3 -6 5 40.80 42.59 34.66 <
977 1 3 6 -5 40.80 42.59 34.66 <
978 3 6 4 5 12.95 94.88 49.99 <
978 2 -4 -6 -5 12.95 94.88 49.99 <
978 1 4 6 5 12.95 94.88 49.99 <
979 3 -4 -6 -5 12.08 42.97 42.63 <
979 2 6 4 5 12.08 42.97 42.63 <
979 1 -6 -4 -5 12.08 42.97 42.63 <
980 2 -5 -6 -5 3.74 48.00 23.75 o
980 1 5 6 5 3.74 48.00 23.75 o
981 2 -5 -6 5 3.74 52.22 39.77 <
981 1 5 6 -5 3.74 52.22 39.77 <
982 3 10 0 2 39.58 69.43 54.95 <
982 2 3 -7 -5 39.58 69.43 54.95 <
982 1 -3 7 5 39.58 69.43 54.95 <
983 3 0 -10 -2 39.04 143.52 73.84 <
983 2 7 -3 5 39.04 143.52 73.84 <
983 1 -7 3 -5 39.04 143.52 73.84 <
984 3 9 1 3 97.65 90.64 47.00 <
984 2 1 -7 -5 97.65 90.64 47.00 <
984 1 -1 7 5 97.65 90.64 47.00 <
985 3 -1 -9 -3 100.32 159.23 50.86 o
985 2 7 -1 5 100.32 159.23 50.86 o
985 1 -7 1 -5 100.32 159.23 50.86 o
986 3 8 2 4 118.44 113.34 45.65 o
986 2 -1 -7 -5 118.44 113.34 45.65 o
986 1 1 7 5 118.44 113.34 45.65 o
987 3 -2 -8 -4 122.15 106.52 42.39 o
987 2 7 1 5 122.15 106.52 42.39 o
987 1 -7 -1 -5 122.15 106.52 42.39 o
988 2 -2 -7 -5 7.72 62.04 21.02 o
988 1 2 7 5 7.72 62.04 21.02 o
989 2 -2 -7 5 7.71 101.21 39.33 o
989 1 2 7 -5 7.71 101.21 39.33 o
990 3 7 3 5 19.74 69.22 44.76 <
990 2 -3 -7 -5 19.74 69.22 44.76 <
990 1 3 7 5 19.74 69.22 44.76 <
991 3 -3 -7 -5 19.40 82.18 46.67 <
991 2 7 3 5 19.40 82.18 46.67 <
991 1 -7 -3 -5 19.40 82.18 46.67 <
992 2 -4 -7 -5 7.98 50.97 22.52 o
992 1 4 7 5 7.98 50.97 22.52 o
993 2 -4 -7 5 7.98 45.67 40.07 <
993 1 4 7 -5 7.98 45.67 40.07 <
994 3 9 1 4 59.84 54.11 49.58 <
994 2 0 -8 -5 59.84 54.11 49.58 <
994 1 0 8 5 59.84 54.11 49.58 <
995 3 -1 -9 -4 61.55 43.40 52.12 <
995 2 8 0 5 61.55 43.40 52.12 <
995 1 -8 0 -5 61.55 43.40 52.12 <
996 2 -1 -8 -5 14.85 68.48 23.17 o
996 1 1 8 5 14.85 68.48 23.17 o
997 2 -1 -8 5 14.85 -18.10 36.20 <
997 1 1 8 -5 14.85 -18.10 36.20 <
998 3 6 6 -4 1014.54 1051.10 48.08 o
998 2 4 4 -6 1014.54 1051.10 48.08 o
998 1 -4 -4 6 1014.54 1051.10 48.08 o
999 3 7 5 -4 924.97 967.21 37.66 o
999 2 5 3 -6 924.97 967.21 37.66 o
999 1 -5 -3 6 924.97 967.21 37.66 o
1000 3 6 6 -3 916.02 897.29 50.02 o
1000 2 3 3 -6 916.02 897.29 50.02 o
1000 1 -3 -3 6 916.02 897.29 50.02 o
1001 3 8 4 -4 585.62 605.06 35.40 o
1001 2 6 2 -6 585.62 605.06 35.40 o
1001 1 -6 -2 6 585.62 605.06 35.40 o
1002 3 7 5 -3 833.37 896.20 32.06 o
1002 2 4 2 -6 833.37 896.20 32.06 o
1002 1 -4 -2 6 833.37 896.20 32.06 o
1003 3 6 6 -2 3378.73 3490.21 52.81 o
1003 2 2 2 -6 3378.73 3490.21 52.81 o
1003 1 -2 -2 6 3378.73 3490.21 52.81 o
1004 3 8 4 -3 777.32 806.56 34.55 o
1004 2 5 1 -6 777.32 806.56 34.55 o
1004 1 -5 -1 6 777.32 806.56 34.55 o
1005 3 7 5 -2 2203.62 2520.13 36.95 o
1005 2 3 1 -6 2203.62 2520.13 36.95 o
1005 1 -3 -1 6 2203.62 2520.13 36.95 o
1006 3 6 6 -1 2611.22 2785.17 48.80 o
1006 2 1 1 -6 2611.22 2785.17 48.80 o
1006 1 -1 -1 6 2611.22 2785.17 48.80 o
1007 3 9 3 -3 533.10 652.16 37.86 o
1007 2 6 0 -6 533.10 652.16 37.86 o
1007 1 -6 0 6 533.10 652.16 37.86 o
1008 3 8 4 -2 1989.09 1964.47 35.33 o
1008 2 4 0 -6 1989.09 1964.47 35.33 o
1008 1 -4 0 6 1989.09 1964.47 35.33 o
1009 3 7 5 -1 1385.03 1341.80 38.10 o
1009 2 2 0 -6 1385.03 1341.80 38.10 o
1009 1 -2 0 6 1385.03 1341.80 38.10 o
1010 3 6 6 0 5568.76 5873.65 92.72 o
1010 2 0 0 -6 5568.76 5873.65 92.72 o
1010 1 0 0 6 5568.76 5873.65 92.72 o
1011 3 9 3 -2 794.14 827.39 35.60 o
1011 2 5 -1 -6 794.14 827.39 35.60 o
1011 1 -5 1 6 794.14 827.39 35.60 o
1012 3 8 4 -1 2123.91 2390.79 43.73 o
1012 2 3 -1 -6 2123.91 2390.79 43.73 o
1012 1 -3 1 6 2123.91 2390.79 43.73 o
1013 3 7 5 0 2690.69 2675.14 54.04 o
1013 2 1 -1 -6 2690.69 2675.14 54.04 o
1013 1 -1 1 6 2690.69 2675.14 54.04 o
1014 3 6 6 1 2612.47 2565.02 74.00 o
1014 2 -1 -1 -6 2612.47 2565.02 74.00 o
1014 1 1 1 6 2612.47 2565.02 74.00 o
1015 3 -6 -6 -1 2599.52 2547.49 72.31 o
1015 2 1 1 6 2599.52 2547.49 72.31 o
1015 1 -1 -1 -6 2599.52 2547.49 72.31 o
1016 3 10 2 -2 574.14 545.96 38.82 o
1016 2 6 -2 -6 574.14 545.96 38.82 o
1016 1 -6 2 6 574.14 545.96 38.82 o
1017 3 9 3 -1 818.11 929.89 38.36 o
1017 2 4 -2 -6 818.11 929.89 38.36 o
1017 1 -4 2 6 818.11 929.89 38.36 o
1018 3 8 4 0 3335.33 3384.28 55.10 o
1018 2 2 -2 -6 3335.33 3384.28 55.10 o
1018 1 -2 2 6 3335.33 3384.28 55.10 o
1019 3 7 5 1 1386.38 1203.13 46.29 o
1019 2 0 -2 -6 1386.38 1203.13 46.29 o
1019 1 0 2 6 1386.38 1203.13 46.29 o
1020 3 -5 -7 -1 1360.21 1160.54 44.98 o
1020 2 2 0 6 1360.21 1160.54 44.98 o
1020 1 -2 0 -6 1360.21 1160.54 44.98 o
1021 2 -1 -2 -6 52.36 90.68 17.99 o
1021 1 1 2 6 52.36 90.68 17.99 o
1022 2 -1 -2 6 52.37 93.79 34.89 o
1022 1 1 2 -6 52.37 93.79 34.89 o
1023 3 6 6 2 3380.38 3212.78 78.07 o
1023 2 -2 -2 -6 3380.38 3212.78 78.07 o
1023 1 2 2 6 3380.38 3212.78 78.07 o
1024 3 -6 -6 -2 3382.42 3199.48 77.22 o
1024 2 2 2 6 3382.42 3199.48 77.22 o
1024 1 -2 -2 -6 3382.42 3199.48 77.22 o
1025 3 10 2 -1 888.28 917.59 37.97 o
1025 2 5 -3 -6 888.28 917.59 37.97 o
1025 1 -5 3 6 888.28 917.59 37.97 o
1026 3 9 3 0 923.68 852.05 39.01 o
1026 2 3 -3 -6 923.68 852.05 39.01 o
1026 1 -3 3 6 923.68 852.05 39.01 o
1027 3 8 4 1 2124.58 2158.12 54.91 o
1027 2 1 -3 -6 2124.58 2158.12 54.91 o
1027 1 -1 3 6 2124.58 2158.12 54.91 o
1028 3 -4 -8 -1 2118.40 2173.83 73.84 o
1028 2 3 -1 6 2118.40 2173.83 73.84 o
1028 1 -3 1 -6 2118.40 2173.83 73.84 o
1029 3 7 5 2 2204.80 2102.83 54.73 o
1029 2 -1 -3 -6 2204.80 2102.83 54.73 o
1029 1 1 3 6 2204.80 2102.83 54.73 o
1030 3 -5 -7 -2 2198.10 2111.26 52.55 o
1030 2 3 1 6 2198.10 2111.26 52.55 o
1030 1 -3 -1 -6 2198.10 2111.26 52.55 o
1031 2 -2 -3 -6 8.11 13.33 18.34 <
1031 1 2 3 6 8.11 13.33 18.34 <
1032 2 -2 -3 6 8.11 22.41 35.44 <
1032 1 2 3 -6 8.11 22.41 35.44 <
1033 3 6 6 3 918.21 697.20 67.91 o
1033 2 -3 -3 -6 918.21 697.20 67.91 o
1033 1 3 3 6 918.21 697.20 67.91 o
1034 3 -6 -6 -3 906.60 738.69 66.55 o
1034 2 3 3 6 906.60 738.69 66.55 o
1034 1 -3 -3 -6 906.60 738.69 66.55 o
1035 3 10 2 0 983.96 911.34 44.56 o
1035 2 4 -4 -6 983.96 911.34 44.56 o
1035 1 -4 4 6 983.96 911.34 44.56 o
1036 3 9 3 1 818.43 756.90 46.99 o
1036 2 2 -4 -6 818.43 756.90 46.99 o
1036 1 -2 4 6 818.43 756.90 46.99 o
1037 3 -3 -9 -1 807.46 670.62 61.13 o
1037 2 4 -2 6 807.46 670.62 61.13 o
1037 1 -4 2 -6 807.46 670.62 61.13 o
1038 3 8 4 2 1989.63 1730.52 48.11 o
1038 2 0 -4 -6 1989.63 1730.52 48.11 o
1038 1 0 4 6 1989.63 1730.52 48.11 o
1039 3 -4 -8 -2 1990.20 1659.44 50.10 o
1039 2 4 0 6 1990.20 1659.44 50.10 o
1039 1 -4 0 -6 1990.20 1659.44 50.10 o
1040 2 -1 -4 -6 72.68 77.78 18.48 o
1040 1 1 4 6 72.68 77.78 18.48 o
1041 2 -1 -4 6 72.67 112.84 35.18 o
1041 1 1 4 -6 72.67 112.84 35.18 o
1042 3 7 5 3 835.47 722.61 46.17 o
1042 2 -2 -4 -6 835.47 722.61 46.17 o
1042 1 2 4 6 835.47 722.61 46.17 o
1043 3 -5 -7 -3 822.72 740.56 47.88 o
1043 2 4 2 6 822.72 740.56 47.88 o
1043 1 -4 -2 -6 822.72 740.56 47.88 o
1044 2 -3 -4 -6 18.70 41.07 18.87 o
1044 1 3 4 6 18.70 41.07 18.87 o
1045 2 -3 -4 6 18.70 49.70 37.44 <
1045 1 3 4 -6 18.70 49.70 37.44 <
1046 3 6 6 4 1015.55 842.93 76.12 o
1046 2 -4 -4 -6 1015.55 842.93 76.12 o
1046 1 4 4 6 1015.55 842.93 76.12 o
1047 3 -6 -6 -4 1015.40 671.55 69.43 o
1047 2 4 4 6 1015.40 671.55 69.43 o
1047 1 -4 -4 -6 1015.40 671.55 69.43 o
1048 3 10 2 1 888.34 833.42 40.73 o
1048 2 3 -5 -6 888.34 833.42 40.73 o
1048 1 -3 5 6 888.34 833.42 40.73 o
1049 3 -2 -10 -1 888.40 817.02 77.98 o
1049 2 5 -3 6 888.40 817.02 77.98 o
1049 1 -5 3 -6 888.40 817.02 77.98 o
1050 3 9 3 2 794.30 619.14 47.28 o
1050 2 1 -5 -6 794.30 619.14 47.28 o
1050 1 -1 5 6 794.30 619.14 47.28 o
1051 3 -3 -9 -2 788.96 676.29 62.15 o
1051 2 5 -1 6 788.96 676.29 62.15 o
1051 1 -5 1 -6 788.96 676.29 62.15 o
1052 3 8 4 3 778.42 590.09 48.28 o
1052 2 -1 -5 -6 778.42 590.09 48.28 o
1052 1 1 5 6 778.42 590.09 48.28 o
1053 3 -4 -8 -3 772.14 736.58 49.63 o
1053 2 5 1 6 772.14 736.58 49.63 o
1053 1 -5 -1 -6 772.14 736.58 49.63 o
1054 2 -2 -5 -6 0.57 49.80 18.37 o
1054 1 2 5 6 0.57 49.80 18.37 o
1055 2 -2 -5 6 0.57 61.92 38.52 <
1055 1 2 5 -6 0.57 61.92 38.52 <
1056 3 7 5 4 925.82 784.76 48.89 o
1056 2 -3 -5 -6 925.82 784.76 48.89 o
1056 1 3 5 6 925.82 784.76 48.89 o
1057 3 -5 -7 -4 925.09 920.78 51.49 o
1057 2 5 3 6 925.09 920.78 51.49 o
1057 1 -5 -3 -6 925.09 920.78 51.49 o
1058 2 -4 -5 -6 0.03 60.28 19.61 o
1058 1 4 5 6 0.03 60.28 19.61 o
1059 2 -4 -5 6 0.03 68.28 40.95 <
1059 1 4 5 -6 0.03 68.28 40.95 <
1060 3 10 2 2 574.07 493.77 55.57 o
1060 2 2 -6 -6 574.07 493.77 55.57 o
1060 1 -2 6 6 574.07 493.77 55.57 o
1061 3 -2 -10 -2 573.87 464.52 68.92 o
1061 2 6 -2 6 573.87 464.52 68.92 o
1061 1 -6 2 -6 573.87 464.52 68.92 o
1062 3 9 3 3 533.63 462.19 49.93 o
1062 2 0 -6 -6 533.63 462.19 49.93 o
1062 1 0 6 6 533.63 462.19 49.93 o
1063 3 -3 -9 -3 529.09 489.41 48.97 o
1063 2 6 0 6 529.09 489.41 48.97 o
1063 1 -6 0 -6 529.09 489.41 48.97 o
1064 2 -1 -6 -6 29.82 81.11 19.74 o
1064 1 1 6 6 29.82 81.11 19.74 o
1065 2 -1 -6 6 29.82 59.78 37.14 <
1065 1 1 6 -6 29.82 59.78 37.14 <
1066 3 8 4 4 585.94 423.75 46.73 o
1066 2 -2 -6 -6 585.94 423.75 46.73 o
1066 1 2 6 6 585.94 423.75 46.73 o
1067 3 -4 -8 -4 585.35 471.12 49.21 o
1067 2 6 2 6 585.35 471.12 49.21 o
1067 1 -6 -2 -6 585.35 471.12 49.21 o
1068 2 -3 -6 -6 12.96 87.38 20.67 o
1068 1 3 6 6 12.96 87.38 20.67 o
1069 2 -3 -6 6 12.96 104.15 40.16 o
1069 1 3 6 -6 12.96 104.15 40.16 o
1070 3 7 7 -3 9.97 53.85 48.42 <
1070 2 3 3 -7 9.97 53.85 48.42 <
1070 1 -3 -3 7 9.97 53.85 48.42 <
1071 3 8 6 -3 8.15 68.71 33.29 o
1071 2 4 2 -7 8.15 68.71 33.29 o
1071 1 -4 -2 7 8.15 68.71 33.29 o
1072 3 7 7 -2 84.38 60.41 45.09 <
1072 2 2 2 -7 84.38 60.41 45.09 <
1072 1 -2 -2 7 84.38 60.41 45.09 <
1073 3 8 6 -2 25.95 91.96 31.88 o
1073 2 3 1 -7 25.95 91.96 31.88 o
1073 1 -3 -1 7 25.95 91.96 31.88 o
1074 3 7 7 -1 26.47 18.63 51.94 <
1074 2 1 1 -7 26.47 18.63 51.94 <
1074 1 -1 -1 7 26.47 18.63 51.94 <
1075 3 9 5 -2 50.41 57.83 32.30 <
1075 2 4 0 -7 50.41 57.83 32.30 <
1075 1 -4 0 7 50.41 57.83 32.30 <
1076 3 8 6 -1 81.18 92.10 30.04 o
1076 2 2 0 -7 81.18 92.10 30.04 o
1076 1 -2 0 7 81.18 92.10 30.04 o
1077 3 7 7 0 144.69 127.18 64.61 <
1077 2 0 0 -7 144.69 127.18 64.61 <
1077 1 0 0 7 144.69 127.18 64.61 <
1078 3 9 5 -1 22.84 54.97 33.53 <
1078 2 3 -1 -7 22.84 54.97 33.53 <
1078 1 -3 1 7 22.84 54.97 33.53 <
1079 3 8 6 0 30.24 44.12 48.32 <
1079 2 1 -1 -7 30.24 44.12 48.32 <
1079 1 -1 1 7 30.24 44.12 48.32 <
1080 3 7 7 1 26.00 56.73 62.66 <
1080 2 -1 -1 -7 26.00 56.73 62.66 <
1080 1 1 1 7 26.00 56.73 62.66 <
1081 3 10 4 -1 11.39 57.26 37.52 <
1081 2 4 -2 -7 11.39 57.26 37.52 <
1081 1 -4 2 7 11.39 57.26 37.52 <
1082 3 9 5 0 88.47 90.66 35.55 o
1082 2 2 -2 -7 88.47 90.66 35.55 o
1082 1 -2 2 7 88.47 90.66 35.55 o
1083 3 8 6 1 80.81 104.91 48.09 o
1083 2 0 -2 -7 80.81 104.91 48.09 o
1083 1 0 2 7 80.81 104.91 48.09 o
1084 3 -6 -8 -1 80.82 193.99 69.43 o
1084 2 2 0 7 80.82 193.99 69.43 o
1084 1 -2 0 -7 80.82 193.99 69.43 o
1085 2 -1 -2 -7 12.65 79.12 20.33 o
1085 1 1 2 7 12.65 79.12 20.33 o
1086 2 -1 -2 7 12.65 78.28 45.41 <
1086 1 1 2 -7 12.65 78.28 45.41 <
1087 3 7 7 2 83.37 114.48 62.57 <
1087 2 -2 -2 -7 83.37 114.48 62.57 <
1087 1 2 2 7 83.37 114.48 62.57 <
1088 3 -7 -7 -2 93.94 53.77 62.57 <
1088 2 2 2 7 93.94 53.77 62.57 <
1088 1 -2 -2 -7 93.94 53.77 62.57 <
1089 3 10 4 0 19.34 86.25 41.27 o
1089 2 3 -3 -7 19.34 86.25 41.27 o
1089 1 -3 3 7 19.34 86.25 41.27 o
1090 3 9 5 1 22.63 76.46 46.95 <
1090 2 1 -3 -7 22.63 76.46 46.95 <
1090 1 -1 3 7 22.63 76.46 46.95 <
1091 3 -5 -9 -1 28.08 51.90 69.09 <
1091 2 3 -1 7 28.08 51.90 69.09 <
1091 1 -3 1 -7 28.08 51.90 69.09 <
1092 3 8 6 2 25.15 72.57 45.00 <
1092 2 -1 -3 -7 25.15 72.57 45.00 <
1092 1 1 3 7 25.15 72.57 45.00 <
1093 3 -6 -8 -2 31.19 103.05 43.26 o
1093 2 3 1 7 31.19 103.05 43.26 o
1093 1 -3 -1 -7 31.19 103.05 43.26 o
1094 2 -2 -3 -7 2.26 66.21 19.98 o
1094 1 2 3 7 2.26 66.21 19.98 o
1095 2 -2 -3 7 2.26 30.23 44.47 <
1095 1 2 3 -7 2.26 30.23 44.47 <
1096 3 7 7 3 9.24 22.44 65.03 <
1096 2 -3 -3 -7 9.24 22.44 65.03 <
1096 1 3 3 7 9.24 22.44 65.03 <
1097 3 -7 -7 -3 11.39 66.98 66.38 <
1097 2 3 3 7 11.39 66.98 66.38 <
1097 1 -3 -3 -7 11.39 66.98 66.38 <
1098 3 10 4 1 11.35 62.45 44.85 <
1098 2 2 -4 -7 11.35 62.45 44.85 <
1098 1 -2 4 7 11.35 62.45 44.85 <
1099 3 -4 -10 -1 11.83 83.07 65.96 <
1099 2 4 -2 7 11.83 83.07 65.96 <
1099 1 -4 2 -7 11.83 83.07 65.96 <
1100 3 9 5 2 49.93 66.68 49.01 <
1100 2 0 -4 -7 49.93 66.68 49.01 <
1100 1 0 4 7 49.93 66.68 49.01 <
1101 3 -5 -9 -2 56.49 92.97 73.92 <
1101 2 4 0 7 56.49 92.97 73.92 <
1101 1 -4 0 -7 56.49 92.97 73.92 <
1102 2 -1 -4 -7 18.67 74.47 19.28 o
1102 1 1 4 7 18.67 74.47 19.28 o
1103 2 -1 -4 7 18.67 65.26 37.83 <
1103 1 1 4 -7 18.67 65.26 37.83 <
1104 3 8 6 3 7.59 77.94 47.12 <
1104 2 -2 -4 -7 7.59 77.94 47.12 <
1104 1 2 4 7 7.59 77.94 47.12 <
1105 3 -6 -8 -3 8.59 56.22 45.77 <
1105 2 4 2 7 8.59 56.22 45.77 <
1105 1 -4 -2 -7 8.59 56.22 45.77 <
