#------------------------------------------------------------------------------
#$Date: 2019-11-26 00:23:34 +0200 (Tue, 26 Nov 2019) $
#$Revision: 242158 $
#$URL: file:///home/coder/svn-repositories/cod/cif/4/13/21/4132115.cif $
#------------------------------------------------------------------------------
#
# This file is available in the Crystallography Open Database (COD),
# http://www.crystallography.net/
#
# All data on this site have been placed in the public domain by the
# contributors.
#
data_4132115
loop_
_publ_author_name
'Wang, Yong'
'Wen, Xin'
'Cui, Xin'
'Zhang, X. Peter'
_publ_section_title
;
 Enantioselective Radical Cyclization for Construction of 5-Membered Ring
 Structures by Metalloradical C-H Alkylation.
;
_journal_issue                   14
_journal_name_full               'Journal of the American Chemical Society'
_journal_page_first              4792
_journal_page_last               4796
_journal_paper_doi               10.1021/jacs.8b01662
_journal_volume                  140
_journal_year                    2018
_chemical_absolute_configuration ad
_chemical_formula_moiety         'C15 H20 Br N O2'
_chemical_formula_sum            'C15 H20 Br N O2'
_chemical_formula_weight         326.23
_space_group_crystal_system      monoclinic
_space_group_IT_number           4
_space_group_name_Hall           'P 2yb'
_space_group_name_H-M_alt        'P 1 21 1'
_atom_sites_solution_hydrogens   geom
_atom_sites_solution_primary     dual
_atom_sites_solution_secondary   difmap
_audit_creation_method           SHELXL-2014/7
_cell_angle_alpha                90
_cell_angle_beta                 111.0450(10)
_cell_angle_gamma                90
_cell_formula_units_Z            2
_cell_length_a                   8.3662(4)
_cell_length_b                   11.0924(5)
_cell_length_c                   8.7666(4)
_cell_measurement_reflns_used    8499
_cell_measurement_temperature    100(2)
_cell_measurement_theta_max      66.70
_cell_measurement_theta_min      5.67
_cell_volume                     759.29(6)
_computing_cell_refinement       'SAINT (Bruker, 2014)'
_computing_data_collection       'APEX2 (Bruker, 2014)'
_computing_data_reduction        'SAINT (Bruker, 2014)'
_computing_molecular_graphics    'Bruker SHELXTL'
_computing_publication_material  'Bruker SHELXTL'
_computing_structure_refinement  'SHELXL-2014 (Sheldrick, 2014)'
_computing_structure_solution    'SHELXL-2014 (Sheldrick, 2014)'
_diffrn_ambient_temperature      100(2)
_diffrn_measured_fraction_theta_full 0.999
_diffrn_measured_fraction_theta_max 0.999
_diffrn_measurement_device_type  'Bruker Kappa DUO CCD diffractometer'
_diffrn_measurement_method       '\f and \w scans'
_diffrn_radiation_monochromator  mirrors
_diffrn_radiation_type           CuK\a
_diffrn_radiation_wavelength     1.54178
_diffrn_reflns_av_R_equivalents  0.0254
_diffrn_reflns_av_unetI/netI     0.0237
_diffrn_reflns_Laue_measured_fraction_full 0.999
_diffrn_reflns_Laue_measured_fraction_max 0.999
_diffrn_reflns_limit_h_max       9
_diffrn_reflns_limit_h_min       -9
_diffrn_reflns_limit_k_max       13
_diffrn_reflns_limit_k_min       -13
_diffrn_reflns_limit_l_max       10
_diffrn_reflns_limit_l_min       -10
_diffrn_reflns_number            9034
_diffrn_reflns_point_group_measured_fraction_full 0.993
_diffrn_reflns_point_group_measured_fraction_max 0.993
_diffrn_reflns_theta_full        66.698
_diffrn_reflns_theta_max         66.698
_diffrn_reflns_theta_min         5.406
_diffrn_source                   'microfocus sealed tube'
_diffrn_source_type              'Incoatec I\uS'
_exptl_absorpt_coefficient_mu    3.673
_exptl_absorpt_correction_T_max  0.7528
_exptl_absorpt_correction_T_min  0.5384
_exptl_absorpt_correction_type   multi-scan
_exptl_absorpt_process_details
;
Sheldrick, G.M. (2013). SADABS. Bruker AXS Inc. Madison, WI USA.
;
_exptl_crystal_colour            colorless
_exptl_crystal_density_diffrn    1.427
_exptl_crystal_density_meas      ?
_exptl_crystal_density_method    none
_exptl_crystal_description       needle
_exptl_crystal_F_000             336
_exptl_crystal_size_max          0.410
_exptl_crystal_size_mid          0.130
_exptl_crystal_size_min          0.090
_refine_diff_density_max         0.656
_refine_diff_density_min         -0.186
_refine_diff_density_rms         0.050
_refine_ls_abs_structure_details
;
 Flack x determined using 1242 quotients [(I+)-(I-)]/[(I+)+(I-)]
 (Parsons, Flack and Wagner, Acta Cryst. B69 (2013) 249-259).
;
_refine_ls_abs_structure_Flack   -0.027(7)
_refine_ls_extinction_method     none
_refine_ls_goodness_of_fit_ref   1.032
_refine_ls_hydrogen_treatment    constr
_refine_ls_matrix_type           full
_refine_ls_number_parameters     175
_refine_ls_number_reflns         2676
_refine_ls_number_restraints     1
_refine_ls_restrained_S_all      1.032
_refine_ls_R_factor_all          0.0201
_refine_ls_R_factor_gt           0.0200
_refine_ls_shift/su_max          0.000
_refine_ls_shift/su_mean         0.000
_refine_ls_structure_factor_coef Fsqd
_refine_ls_weighting_details
'w=1/[\s^2^(Fo^2^)+(0.0357P)^2^+0.1518P] where P=(Fo^2^+2Fc^2^)/3'
_refine_ls_weighting_scheme      calc
_refine_ls_wR_factor_gt          0.0513
_refine_ls_wR_factor_ref         0.0514
_reflns_Friedel_coverage         0.882
_reflns_Friedel_fraction_full    0.986
_reflns_Friedel_fraction_max     0.986
_reflns_number_gt                2669
_reflns_number_total             2676
_reflns_threshold_expression     'I > 2\s(I)'
_cod_data_source_file            ja8b01662_si_002.cif
_cod_data_source_block           C15H20BrNO2
_cod_depositor_comments
;
The following automatic conversions were performed:

data item '_exptl_crystal_density_meas' value 'not measured' was
changed to '?' -- the value is perceived as not measured.

Automatic conversion script
Id: cif_fix_values 6909 2019-04-08 15:41:33Z antanas 
;
_cod_original_sg_symbol_H-M      'P 21'
_cod_database_code               4132115
_shelx_shelxl_version_number     2014/7
_shelx_space_group_comment
;
The symmetry employed for this shelxl refinement is uniquely defined
by the following loop, which should always be used as a source of
symmetry information in preference to the above space-group names.
They are only intended as comments.
;
_shelx_estimated_absorpt_t_min   0.314
_shelx_estimated_absorpt_t_max   0.733
_shelx_res_file
;

    sad_b.res created by SHELXL-2014/7


TITL sad_b.res in P2(1)
CELL  1.54178   8.3662  11.0924   8.7666   90.000  111.045   90.000
ZERR    2.000   0.0004   0.0005   0.0004    0.000    0.001    0.000
LATT -1
SYMM -X, 1/2+Y, -Z
SFAC C  H  N  O  Br
UNIT 30 40 2 4 2
L.S. 10
BOND $H
FMAP 2
PLAN 20
SIZE 0.41 0.13 0.09
TEMP  -173
CONF
OMIT 0 -2 0
ACTA

WGHT    0.034900    0.164400
FVAR       0.69687
BR1   5    0.201767    0.137986    0.681312    11.00000    0.03623    0.01668 =
         0.02248   -0.00319    0.01630   -0.00382
O1    4    0.276207    0.861236    0.644315    11.00000    0.02381    0.01732 =
         0.01874    0.00261    0.01028    0.00147
O2    4    0.411631    0.684146    0.748639    11.00000    0.01712    0.01906 =
         0.01509    0.00031    0.00899    0.00151
N1    3    0.213889    0.756744    0.838267    11.00000    0.02100    0.01378 =
         0.02044    0.00223    0.01280   -0.00073
C1    1    0.212350    0.299828    0.757647    11.00000    0.02408    0.01485 =
         0.01901   -0.00176    0.01364   -0.00357
C2    1    0.335810    0.327204    0.907991    11.00000    0.01995    0.02240 =
         0.01802    0.00373    0.00824    0.00254
AFIX  43
H2    2    0.412963    0.267075    0.969540    11.00000   -1.20000
AFIX   0
C3    1    0.344774    0.443869    0.967018    11.00000    0.01614    0.02355 =
         0.01338    0.00001    0.00511   -0.00077
AFIX  43
H3    2    0.430756    0.463901    1.068844    11.00000   -1.20000
AFIX   0
C4    1    0.230547    0.531989    0.880220    11.00000    0.01507    0.01975 =
         0.01232    0.00167    0.00811   -0.00404
C5    1    0.106934    0.501596    0.728855    11.00000    0.01783    0.02045 =
         0.01591    0.00413    0.00623    0.00000
AFIX  43
H5    2    0.028055    0.561143    0.668200    11.00000   -1.20000
AFIX   0
C6    1    0.097665    0.386464    0.666133    11.00000    0.01820    0.02294 =
         0.01382    0.00084    0.00451   -0.00518
AFIX  43
H6    2    0.014565    0.366842    0.562498    11.00000   -1.20000
AFIX   0
C7    1    0.237593    0.655209    0.953285    11.00000    0.01590    0.02235 =
         0.01530    0.00160    0.00709   -0.00226
AFIX  13
H7    2    0.349815    0.665016    1.045291    11.00000   -1.20000
AFIX   0
C8    1    0.090932    0.678333    1.018000    11.00000    0.02215    0.02100 =
         0.02059    0.00004    0.01352   -0.00156
AFIX  23
H8A   2   -0.018589    0.644352    0.943202    11.00000   -1.20000
H8B   2    0.117687    0.643163    1.128187    11.00000   -1.20000
AFIX   0
C9    1    0.083317    0.815790    1.023236    11.00000    0.02796    0.01999 =
         0.02798   -0.00437    0.01734   -0.00077
AFIX  23
H9A   2   -0.028511    0.843562    1.024881    11.00000   -1.20000
H9B   2    0.175999    0.848277    1.120180    11.00000   -1.20000
AFIX   0
C10   1    0.107354    0.853453    0.865526    11.00000    0.02523    0.02026 =
         0.02992    0.00078    0.01738    0.00420
AFIX  23
H10A  2   -0.004066    0.858578    0.773840    11.00000   -1.20000
H10B  2    0.166071    0.932354    0.878504    11.00000   -1.20000
AFIX   0
C11   1    0.299242    0.774403    0.734839    11.00000    0.01430    0.01714 =
         0.01473   -0.00357    0.00453   -0.00289
C12   1    0.497442    0.670337    0.628962    11.00000    0.02002    0.02303 =
         0.01709   -0.00222    0.01199   -0.00189
C13   1    0.619681    0.774784    0.644578    11.00000    0.02383    0.02904 =
         0.02558   -0.00360    0.01594   -0.00508
AFIX 137
H13A  2    0.554093    0.849462    0.609631    11.00000   -1.50000
H13B  2    0.687230    0.759716    0.575459    11.00000   -1.50000
H13C  2    0.696601    0.782574    0.758721    11.00000   -1.50000
AFIX   0
C14   1    0.364356    0.658716    0.457695    11.00000    0.02970    0.03455 =
         0.01783   -0.00440    0.00904   -0.00120
AFIX 137
H14A  2    0.283895    0.594040    0.455889    11.00000   -1.50000
H14B  2    0.421477    0.639698    0.380683    11.00000   -1.50000
H14C  2    0.301882    0.734917    0.426082    11.00000   -1.50000
AFIX   0
C15   1    0.593494    0.552799    0.682910    11.00000    0.02638    0.02425 =
         0.02989   -0.00013    0.01695    0.00468
AFIX 137
H15A  2    0.677372    0.561742    0.794040    11.00000   -1.50000
H15B  2    0.652873    0.532008    0.608352    11.00000   -1.50000
H15C  2    0.512355    0.488635    0.681227    11.00000   -1.50000
AFIX   0
HKLF 4

REM  sad_b.res in P2(1)
REM R1 =  0.0200 for    2669 Fo > 4sig(Fo)  and  0.0201 for all    2676 data
REM    175 parameters refined using      1 restraints

END

WGHT      0.0348      0.1659

REM Highest difference peak  0.656,  deepest hole -0.186,  1-sigma level  0.050
Q1    1   0.1005  0.1413  0.6715  11.00000  0.05    0.66
Q2    1   0.2657  0.1377  0.7941  11.00000  0.05    0.31
Q3    1   0.3194  0.1353  0.6815  11.00000  0.05    0.30
Q4    1   0.1198  0.1425  0.5670  11.00000  0.05    0.27
Q5    1   0.1642  0.6550  0.9861  11.00000  0.05    0.24
Q6    1   0.2428  0.5819  0.9111  11.00000  0.05    0.21
Q7    1   0.1143  0.3141  0.7223  11.00000  0.05    0.20
Q8    1   0.1840  0.3515  0.6915  11.00000  0.05    0.20
Q9    1   0.4570  0.6776  0.6767  11.00000  0.05    0.20
Q10   1   0.0809  0.7451  1.0179  11.00000  0.05    0.20
Q11   1   0.2508  0.7049  0.9038  11.00000  0.05    0.19
Q12   1   0.3027  0.5011  0.8852  11.00000  0.05    0.18
Q13   1   0.2008  0.5219  0.8006  11.00000  0.05    0.18
Q14   1   0.2783  0.3017  0.8573  11.00000  0.05    0.18
Q15   1   0.4444  0.6516  0.5512  11.00000  0.05    0.18
Q16   1   0.5608  0.6202  0.6517  11.00000  0.05    0.17
Q17   1   0.2486  0.1426  0.9366  11.00000  0.05    0.17
Q18   1   0.2851  0.7786  0.8391  11.00000  0.05    0.17
Q19   1   0.5412  0.7317  0.6260  11.00000  0.05    0.16
Q20   1   0.0489  0.2220  0.7804  11.00000  0.05    0.16
;
_shelx_res_checksum              81704
_shelx_hkl_file
;
   1   0   0    7.00    1.10
  -1   0   0    9.50    1.10
   2   0   0 2689.83   91.69
  -2   0   0 2822.02   91.59
  -2   0   0 2776.32   93.49
   2   0   0 2341.17   91.19
   2   0   0 2641.74   90.89
   3   0   0  300.17   10.70
  -3   0   0  304.37   12.60
   3   0   0  304.07   10.90
   4   0   0    1.00    0.60
  -4   0   0    1.00    0.90
   5   0   0  353.36   13.10
  -5   0   0  338.17   12.50
   6   0   0   54.89    3.40
  -6   0   0   56.89    3.20
   7   0   0  468.35   16.30
  -7   0   0  459.35   16.50
   7   0   0  464.15   16.20
   7   0   0  470.85   18.00
  -7   0   0  472.95   17.80
   7   0   0  474.25   17.90
   8   0   0   17.10    1.20
  -8   0   0   15.40    2.10
   8   0   0   15.60    1.10
  -8   0   0   15.90    1.30
   8   0   0   16.60    2.20
   9   0   0   85.49    3.20
   9   0   0   82.39    3.10
   0  -1   0   -3.90    0.30
   0   1   0   -3.80    0.30
   1  -1   0   53.69    2.20
  -1  -1   0   55.09    2.70
  -1  -1   0   55.39    2.50
  -1   1   0   48.80    2.80
   1   1   0   41.50    2.10
   1   1   0   40.80    2.30
  -1   1   0   43.30    1.90
  -1   1   0   44.10    1.90
  -2  -1   0  260.37    9.90
  -2  -1   0  262.87    9.90
   2  -1   0  232.58    8.90
   2   1   0  214.98    8.10
  -2   1   0  243.68    8.40
   2   1   0  222.68    8.20
  -2   1   0  221.08    9.70
  -2   1   0  236.38    8.70
  -3  -1   0  550.64   20.90
   3  -1   0  548.55   19.20
   3  -1   0  567.74   19.40
   3   1   0  568.24   19.70
  -3   1   0  551.84   21.90
   3   1   0  564.44   19.50
   4  -1   0  794.02   27.80
   4   1   0  815.32   28.60
   5  -1   0  100.09    4.60
  -5   1   0   90.99    3.90
   5   1   0   93.79    4.50
   6  -1   0  350.66   13.80
  -6  -1   0  358.56   13.50
  -6   1   0  390.76   14.30
   6   1   0  369.96   14.60
  -7  -1   0  176.68    7.80
  -7  -1   0  193.08    8.20
   7  -1   0  188.68    8.40
   7  -1   0  181.88    8.50
   7  -1   0  183.68    6.70
   7  -1   0  183.58    6.60
   7   1   0  182.78    6.80
   7   1   0  185.38    8.20
   7   1   0  187.58    6.70
  -7   1   0  191.08    8.10
   7   1   0  186.78    8.40
  -8  -1   0   53.59    3.60
   8  -1   0   51.19    2.30
  -8  -1   0   50.29    2.50
   8  -1   0   52.09    2.20
   8  -1   0   50.99    3.70
   8   1   0   72.09    2.70
  -8   1   0   64.89    3.00
   8   1   0   69.79    2.80
   8   1   0   69.19    4.10
  -8   1   0   68.99    4.00
   8   1   0   71.29    4.30
   9  -1   0   64.09    2.40
   9  -1   0   62.19    2.50
   9   1   0   56.49    2.20
   9   1   0   59.09    2.30
   9   1   0   52.09    3.10
   0  -2   0 1806.12   63.39
   0   2   0 3569.14  125.19
  -1  -2   0  121.99    5.70
   1  -2   0  130.29    5.10
   1   2   0  128.89    5.60
   1   2   0  126.29    5.00
  -1   2   0  126.49    6.10
  -1   2   0  127.99    5.20
  -2  -2   0  570.54   20.50
  -2   2   0  579.34   20.60
  -2   2   0  575.34   22.50
   2   2   0  560.34   21.00
  -2   2   0  618.04   20.60
  -2   2   0  575.14   20.40
   2   2   0  592.04   20.20
   2   2   0  601.04   20.40
   3  -2   0 1044.60   35.80
   3  -2   0 1040.30   35.70
  -3   2   0  998.50   36.30
  -3   2   0 1050.19   39.30
   3   2   0 1066.19   36.50
   3   2   0 1109.79   36.30
   4  -2   0  144.59    5.80
   4   2   0  155.18    6.30
   5   2   0 1125.89   38.80
  -5   2   0 1081.49   38.10
  -6  -2   0    4.40    0.70
  -6  -2   0    4.70    1.30
  -6  -2   0    5.70    1.40
   6   2   0    3.50    1.10
  -6   2   0    7.10    1.30
   7  -2   0  199.68    7.20
  -7  -2   0  211.78    8.90
  -7  -2   0  192.18    8.40
   7  -2   0  198.18    9.10
   7  -2   0  199.18    7.20
   7   2   0  213.38    7.60
   7   2   0  217.48    7.50
  -7   2   0  210.58    8.90
   7   2   0  207.88    9.00
   7   2   0  208.98    9.10
  -8  -2   0   36.90    3.00
   8  -2   0   40.10    1.80
  -8  -2   0   38.40    2.20
   8  -2   0   39.10    1.90
   8   2   0   44.90    3.30
   8   2   0   46.20    1.90
  -8   2   0   42.20    2.20
  -8   2   0   43.20    3.00
   8   2   0   41.60    2.00
   8   2   0   45.50    3.20
   9  -2   0    5.80    0.60
   9  -2   0    4.40    0.50
   9   2   0    3.80    0.50
   9   2   0    1.60    0.90
   9   2   0    2.90    0.40
   0  -3   0   -2.60    0.40
   0  -3   0   -2.70    0.30
   0   3   0   -1.60    0.70
   0   3   0   -1.60    1.00
   0   3   0   -1.80    0.40
   1  -3   0 1129.59   40.60
  -1  -3   0 1195.68   39.60
   1   3   0 1057.09   38.70
  -1   3   0 1195.18   39.80
   1   3   0 1112.19   40.10
  -1   3   0 1150.88   39.00
   1   3   0 1115.39   39.20
  -1   3   0 1149.19   40.80
   1   3   0 1141.59   38.50
  -2  -3   0 1635.84   56.09
  -2   3   0 1799.52   64.79
   2   3   0 1808.72   63.69
  -2   3   0 1788.02   62.19
  -2   3   0 1890.61   62.69
   2   3   0 1818.12   62.69
   2   3   0 1797.82   62.29
   3  -3   0  778.02   27.60
  -3  -3   0  822.52   27.90
  -3   3   0  816.32   28.70
   3   3   0  826.22   28.60
  -4  -3   0  256.17    9.40
  -4  -3   0  229.18    9.20
  -4   3   0  201.08    7.90
   4   3   0  221.38    8.40
  -5  -3   0   12.60    1.80
   5   3   0   12.00    1.60
  -5   3   0   11.20    1.30
  -6  -3   0  105.69    4.40
  -6  -3   0  109.69    5.50
  -6  -3   0  115.49    5.40
   6   3   0   80.29    4.50
  -6   3   0   87.49    4.40
   7  -3   0   71.99    3.00
  -7  -3   0   74.69    4.50
   7  -3   0   71.29    3.00
  -7  -3   0   78.59    4.30
  -7   3   0   69.29    3.40
   7   3   0   72.89    2.90
  -7   3   0   66.89    4.00
   7   3   0   68.29    4.20
   7   3   0   70.29    4.10
  -8  -3   0   62.49    4.90
   8  -3   0   62.49    2.60
   8  -3   0   69.49    2.70
  -8  -3   0   66.49    3.10
   8   3   0   63.89    2.40
   8   3   0   61.19    3.80
   8   3   0   66.59    3.80
  -8   3   0   59.29    4.60
  -8   3   0   59.69    2.80
   8   3   0   64.49    2.60
   9  -3   0  108.59    3.90
   9   3   0   97.19    3.50
   9   3   0   95.09    4.30
   9   3   0   99.79    3.50
   0  -4   0 1690.73   57.39
   0   4   0 1636.54   56.89
   0   4   0 1655.63   56.49
   0   4   0 1650.03   58.59
   0   4   0 1695.43   58.39
  -1  -4   0  342.37   11.60
  -1  -4   0  316.27   12.20
  -1   4   0  307.27   13.50
   1   4   0  301.47   10.90
  -1   4   0  312.77   12.50
  -1   4   0  302.67   10.90
   1   4   0  311.27   12.90
  -1   4   0  330.77   11.50
   1   4   0  317.27   10.90
   1   4   0  293.57   11.20
  -2  -4   0  389.86   13.60
   2  -4   0  374.76   13.60
  -2  -4   0  388.46   13.70
   2   4   0  332.77   11.30
  -2   4   0  329.17   12.30
   2   4   0  332.07   11.90
   2   4   0  325.67   13.90
  -2   4   0  332.97   15.00
  -3  -4   0  536.55   18.30
  -3  -4   0  496.45   17.90
   3  -4   0  498.35   17.90
   3   4   0  506.45   18.30
  -3   4   0  518.75   18.60
  -4  -4   0   74.59    3.80
   4  -4   0   73.99    3.40
  -4  -4   0   78.09    3.90
  -4   4   0   64.49    3.40
   4   4   0   68.19    3.50
  -5  -4   0  184.18    6.80
  -5  -4   0  189.38    7.90
  -5  -4   0  174.08    7.80
  -5   4   0  196.08    8.00
   5   4   0  177.58    7.90
  -6  -4   0   18.80    1.40
  -6  -4   0   18.60    2.30
   6  -4   0   18.40    1.30
  -6  -4   0   19.70    2.20
   6   4   0   19.90    2.20
   6   4   0   21.50    1.00
  -6   4   0   21.30    2.20
   6   4   0   18.00    1.20
   6   4   0   21.30    2.20
   6   4   0   19.10    1.40
  -7  -4   0  111.59    5.90
   7  -4   0  108.69    4.20
   7   4   0  111.39    5.60
   7   4   0  118.89    5.60
   7   4   0  117.19    4.20
  -7   4   0  114.79    4.70
  -7   4   0  113.89    5.70
   7   4   0  112.39    4.30
   8  -4   0   26.60    1.40
  -8  -4   0   25.50    1.70
   8   4   0   23.10    2.20
   8   4   0   21.90    1.10
   8   4   0   22.60    2.30
   8   4   0   22.40    1.20
  -8   4   0   19.60    1.40
   0  -5   0   -0.70    0.30
   0  -5   0   -0.50    0.30
   0  -5   0    0.20    0.60
   0   5   0    1.10    1.20
   0   5   0   -0.60    1.00
   0   5   0   -0.80    0.30
   0   5   0   -0.20    0.90
   0   5   0   -0.50    0.40
   1  -5   0  976.20   34.40
  -1  -5   0 1038.90   34.40
  -1  -5   0  955.50   34.50
  -1  -5   0 1028.90   34.10
  -1   5   0  853.71   32.60
   1   5   0  856.51   31.00
  -1   5   0  858.01   34.00
  -1   5   0  939.61   31.40
   1   5   0  939.31   30.60
  -1   5   0  854.81   30.60
   1   5   0  925.91   30.30
   2  -5   0  790.82   28.00
  -2  -5   0  785.22   27.70
  -2  -5   0  836.82   28.00
  -2  -5   0  821.82   28.30
  -2   5   0  885.31   30.90
   2   5   0  860.21   29.60
   3  -5   0  902.01   31.60
  -3  -5   0  972.40   32.10
  -3  -5   0  832.52   32.10
  -3  -5   0  942.71   31.70
  -3   5   0  897.11   32.00
  -3   5   0  934.31   32.30
   3   5   0  895.81   31.70
  -4  -5   0  754.72   28.10
   4  -5   0  798.22   28.00
  -4  -5   0  843.62   28.70
   4   5   0  715.53   24.70
  -4   5   0  659.93   24.90
  -5  -5   0    4.50    1.50
  -5  -5   0    5.70    1.50
  -5  -5   0    6.10    0.90
  -5   5   0    5.10    1.10
   5   5   0    4.70    1.20
  -5   5   0    4.00    1.30
   6  -5   0  314.87   11.00
  -6  -5   0  312.07   12.70
  -6  -5   0  299.97   10.90
  -6  -5   0  327.17   11.30
  -6  -5   0  292.77   12.40
   6   5   0  316.37   10.90
   6   5   0  302.87   12.30
  -6   5   0  326.87   12.90
  -6   5   0  314.87   11.50
   6   5   0  296.77   11.20
   6   5   0  329.87   12.50
   7  -5   0  190.98    6.90
  -7  -5   0  196.38    7.30
  -7  -5   0  182.58    8.60
   7   5   0  199.18    8.60
  -7   5   0  211.28    8.90
   7   5   0  196.28    7.40
   7   5   0  203.28    7.10
   7   5   0  207.68    8.50
  -7   5   0  199.08    7.70
  -8  -5   0   77.29    3.30
  -8  -5   0   78.59    3.00
   8  -5   0   77.59    3.00
  -8   5   0   78.39    3.30
   8   5   0   80.19    4.10
   8   5   0   78.79    2.90
   8   5   0   84.09    4.00
   0  -6   0 1896.41   63.59
   0  -6   0 1854.91   64.19
   0   6   0 2069.19   69.79
   0   6   0 1964.90   69.39
   0   6   0 2103.79   70.59
   1  -6   0   56.69    2.80
  -1  -6   0   50.69    2.80
  -1  -6   0   57.09    2.30
  -1  -6   0   58.09    2.60
  -1   6   0   65.99    3.70
   1   6   0   64.99    2.50
   1   6   0   66.19    2.80
  -1   6   0   63.59    2.90
   1   6   0   59.49    3.30
   2  -6   0  735.63   25.70
  -2  -6   0  740.63   25.70
  -2  -6   0  701.93   25.30
  -2  -6   0  765.82   26.00
   2   6   0  703.03   23.40
  -2   6   0  692.13   24.90
  -2   6   0  662.03   24.50
  -3  -6   0  370.66   13.70
   3  -6   0  359.46   13.20
  -3  -6   0  357.76   13.30
  -3   6   0  366.56   14.00
  -3   6   0  364.86   14.20
  -4  -6   0   54.89    3.20
  -4  -6   0   60.79    3.70
   4  -6   0   55.69    3.00
  -4  -6   0   55.99    2.60
  -4   6   0   50.59    3.30
  -4   6   0   44.70    2.40
  -5  -6   0  309.57   12.80
   5  -6   0  311.67   11.60
  -5  -6   0  342.07   13.40
  -5  -6   0  331.07   11.60
  -5  -6   0  345.47   11.90
  -5  -6   0  313.27   13.20
  -5  -6   0  341.67   11.60
   5   6   0  308.17    9.90
   5   6   0  305.77   10.20
   5   6   0  248.78   11.30
   5   6   0  298.87   11.20
  -5   6   0  271.77   11.90
  -5   6   0  264.17   10.50
  -6  -6   0  108.89    4.10
  -6  -6   0  105.29    4.10
  -6  -6   0   97.79    5.50
   6  -6   0  110.09    4.20
   6   6   0  101.19    5.10
   6   6   0  100.99    3.80
  -6   6   0  107.09    4.50
  -6   6   0  104.09    5.70
   6   6   0  106.89    5.30
   6   6   0   99.79    4.10
  -7  -6   0  254.17    9.00
  -7  -6   0  255.57    9.00
   7  -6   0  258.97    9.00
  -7  -6   0  246.98    9.40
   7   6   0  273.97   10.30
  -7   6   0  257.57    9.60
   7   6   0  261.77   10.40
  -7   6   0  247.08   10.60
   7   6   0  254.37    9.20
   7   6   0  257.57    9.00
   8  -6   0   63.09    2.50
  -8  -6   0   63.69    2.50
   8   6   0   52.69    2.00
   8   6   0   55.49    2.90
   8   6   0   54.09    3.00
   0  -7   0    1.90    0.90
   0   7   0    2.10    1.10
   0   7   0    1.90    0.50
  -1  -7   0  735.03   25.50
   1  -7   0  726.63   25.30
  -1  -7   0  666.53   24.80
  -1  -7   0  743.03   24.60
  -1   7   0  706.73   24.80
   1   7   0  698.23   24.50
   1   7   0  679.03   25.40
  -1   7   0  727.83   25.90
   1   7   0  721.83   24.30
   2  -7   0  245.48    9.30
  -2  -7   0  241.28    8.80
  -2  -7   0  237.98    9.10
  -2  -7   0  251.27    9.60
  -2   7   0  198.68    8.00
   2   7   0  213.88    7.20
  -2   7   0  214.58    9.10
  -2   7   0  198.08    8.50
  -3  -7   0  284.07   11.10
  -3  -7   0  294.67   11.60
   3  -7   0  296.17   11.10
  -3  -7   0  297.57   10.60
  -3   7   0  319.77   13.00
  -3   7   0  307.87   11.50
  -3   7   0  326.97   12.80
   4  -7   0  357.86   13.50
  -4  -7   0  349.67   13.70
  -4  -7   0  377.96   14.30
  -4   7   0  335.77   13.00
  -4   7   0  382.76   14.60
  -5  -7   0   31.90    1.60
   5  -7   0   27.00    1.70
  -5  -7   0   29.00    2.90
  -5  -7   0   31.90    1.60
   5   7   0   32.10    1.90
   5   7   0   32.30    2.50
   5   7   0   24.80    2.70
   5   7   0   31.70    1.40
  -5   7   0   32.00    3.00
  -6  -7   0  204.78    7.40
  -6  -7   0  209.68    7.50
   6  -7   0  204.68    7.50
  -6  -7   0  208.08    7.40
   6   7   0  215.28    7.60
  -6   7   0  202.08    9.20
   6   7   0  208.68    7.20
   6   7   0  209.28    8.70
   6   7   0  213.38    8.80
  -6   7   0  210.38    8.00
   6   7   0  194.28    7.30
  -7  -7   0   91.19    3.50
  -7  -7   0   86.59    3.40
   7  -7   0   93.09    3.50
   7   7   0  113.09    5.00
  -7   7   0  109.99    4.40
   7   7   0   99.39    3.80
   7   7   0  105.69    4.10
   7   7   0  108.29    5.10
   0  -8   0 1017.20   35.60
   0   8   0 1040.10   38.10
   0   8   0 1079.99   36.90
   0   8   0 1072.49   36.50
  -1  -8   0  201.48    7.30
   1  -8   0  205.68    8.10
  -1  -8   0  204.98    8.30
  -1   8   0  184.08    7.30
  -1   8   0  190.38    8.50
   1   8   0  188.18    6.70
   1   8   0  172.68    7.90
  -2  -8   0  713.73   24.00
  -2  -8   0  627.64   24.30
   2  -8   0  708.23   24.70
  -2  -8   0  728.13   25.10
  -2   8   0  653.93   23.40
  -2   8   0  660.63   22.90
  -2   8   0  627.84   24.00
  -2   8   0  683.23   24.70
   2   8   0  656.33   22.40
  -3  -8   0  414.86   14.50
   3  -8   0  412.86   15.10
  -3  -8   0  418.96   15.70
  -3  -8   0  382.16   14.90
  -3   8   0  414.46   15.90
  -3   8   0  382.56   16.00
  -3   8   0  414.76   14.60
  -4  -8   0  119.79    6.10
  -4  -8   0  123.99    5.00
  -4  -8   0  121.49    4.60
   4  -8   0  122.19    5.40
  -4  -8   0  124.29    4.70
   4  -8   0  112.49    4.60
  -4   8   0  130.19    6.60
   4   8   0  125.59    5.80
   4   8   0  126.99    4.70
  -4   8   0  127.79    5.40
   4   8   0  115.49    4.90
   4   8   0  131.39    6.10
  -5  -8   0  251.67    8.80
  -5  -8   0  243.08    8.80
  -5  -8   0  245.58    8.80
  -5   8   0  237.38    9.80
  -5   8   0  267.77   11.30
   5   8   0  277.77    9.10
   5   8   0  273.57   10.40
   5   8   0  220.18   10.50
   5   8   0  272.87    9.40
  -6  -8   0    2.80    0.50
  -6  -8   0    1.50    0.60
   6  -8   0    2.00    0.70
  -6  -8   0    2.20    0.50
   6   8   0    1.60    0.40
  -6   8   0    0.60    1.00
   6   8   0    1.60    0.60
   6   8   0    1.30    0.90
   6   8   0    1.80    1.00
   6   8   0    1.10    0.30
  -6   8   0    1.70    0.70
  -7  -8   0   94.39    3.90
  -7  -8   0  101.89    3.70
   7  -8   0   97.79    3.70
  -7  -8   0  101.49    3.70
   7   8   0  118.99    5.00
   7   8   0  113.89    5.00
  -7   8   0  109.59    5.20
   0  -9   0    0.10    0.80
   0   9   0   -0.20    1.20
   0   9   0    0.50    0.50
   0   9   0   -0.30    0.60
  -1  -9   0  170.38    7.30
   1  -9   0  171.58    7.10
  -1   9   0  137.09    5.90
  -1   9   0  143.59    7.20
   1   9   0  142.59    5.20
  -1   9   0  141.59    5.50
  -2  -9   0  136.49    6.30
   2  -9   0  138.39    5.00
  -2  -9   0  129.89    5.00
  -2  -9   0  134.19    5.20
  -2  -9   0  138.89    5.10
   2  -9   0  139.79    6.00
  -2  -9   0  135.89    5.60
  -2   9   0  155.28    5.90
  -2   9   0  159.28    6.20
   2   9   0  162.68    5.90
   2   9   0  165.88    7.10
   2   9   0  156.98    7.00
  -2   9   0  158.38    7.50
  -2   9   0  155.08    7.50
  -3  -9   0   77.69    4.40
   3  -9   0   69.39    3.00
   3  -9   0   72.59    3.80
  -3  -9   0   71.59    3.00
  -3  -9   0   69.39    3.40
  -3  -9   0   77.59    3.20
  -3  -9   0   74.29    3.10
  -3   9   0   49.30    2.20
   3   9   0   48.90    3.20
   3   9   0   51.39    2.20
  -3   9   0   50.99    2.60
   3   9   0   50.69    3.30
   3   9   0   45.60    2.30
  -3   9   0   47.80    3.90
  -4  -9   0  219.88    7.90
   4  -9   0  202.08    7.90
  -4  -9   0  224.08    7.90
  -4  -9   0  241.38    8.20
  -4  -9   0  209.78    8.20
   4   9   0  225.08    8.30
   4   9   0  228.78    9.30
  -4   9   0  219.68   10.10
   4   9   0  236.68    9.60
  -4   9   0  228.88    8.80
  -4   9   0  222.78   10.00
  -4   9   0  222.38    8.20
   4   9   0  236.08    8.10
   5  -9   0    1.80    0.70
  -5  -9   0    2.00    0.60
  -5  -9   0    1.00    0.50
  -5  -9   0    1.80    0.50
   5   9   0    1.80    0.90
   5   9   0    1.50    1.10
  -5   9   0   -1.30    1.40
   5   9   0    1.30    0.40
  -5   9   0    0.80    0.70
  -5   9   0    2.50    1.20
   5   9   0    1.60    0.60
  -6  -9   0  113.09    4.00
   6  -9   0  111.39    4.00
  -6  -9   0  106.19    4.00
  -6  -9   0  101.59    4.00
   6   9   0  109.39    4.80
  -6   9   0   99.09    4.10
   6   9   0   98.39    3.60
  -6   9   0   94.69    5.10
   6   9   0  103.39    4.70
   0 -10   0  465.75   17.20
   0 -10   0  463.05   16.60
   0  10   0  542.65   19.90
   0  10   0  518.15   19.70
   0  10   0  541.75   18.50
   0  10   0  525.25   18.50
  -1 -10   0   59.29    3.60
   1 -10   0   64.59    2.80
   1 -10   0   61.29    2.90
   1 -10   0   66.29    3.50
  -1 -10   0   60.69    3.00
  -1  10   0   54.99    3.80
  -1  10   0   54.09    2.30
   1  10   0   53.19    3.40
  -1  10   0   56.49    2.50
  -1  10   0   51.49    3.60
   1  10   0   52.19    2.20
   1  10   0   50.49    2.20
   1  10   0   50.99    3.40
   2 -10   0  377.86   13.30
   2 -10   0  384.76   14.30
  -2 -10   0  382.56   13.90
  -2 -10   0  371.26   13.40
  -2 -10   0  404.36   14.80
  -2 -10   0  376.26   13.40
   2  10   0  413.76   14.30
   2  10   0  420.26   15.60
  -2  10   0  405.56   14.30
  -2  10   0  392.96   15.80
  -2  10   0  407.86   16.00
   2  10   0  405.46   15.40
  -3 -10   0  122.39    4.60
   3 -10   0  124.29    4.60
  -3 -10   0  120.39    4.60
  -3 -10   0  120.59    5.00
  -3  10   0  122.39    4.70
   3  10   0  123.69    5.80
   3  10   0  122.49    5.70
  -3  10   0  121.39    6.30
   3  10   0  123.39    4.60
  -4 -10   0   54.29    2.60
  -4 -10   0   54.29    2.30
  -4 -10   0   54.79    2.30
   4 -10   0   47.20    2.30
  -4  10   0   56.79    2.40
  -4  10   0   50.79    2.70
   4  10   0   59.29    3.30
  -4  10   0   50.09    3.90
   4  10   0   59.59    2.30
   4  10   0   57.09    3.50
  -5 -10   0  239.08    8.40
  -5 -10   0  246.08    8.50
   5 -10   0  226.28    8.50
  -5 -10   0  249.78    8.50
  -5  10   0  189.98    8.00
   5  10   0  235.28    8.60
   5  10   0  228.18    8.90
  -5  10   0  203.98    9.20
   5  10   0  240.68    7.70
  -5  10   0  203.18   10.90
  -6 -10   0   30.40    1.30
  -6 -10   0   30.10    1.30
   6 -10   0   28.80    1.30
  -6 -10   0   30.70    1.30
  -6  10   0   29.50    2.30
   6  10   0   28.80    1.90
   6  10   0   32.90    2.00
   0 -11   0   -0.30    0.60
   0  11   0    0.00    0.90
   0  11   0    0.20    0.40
   0  11   0   -0.30    1.00
   1 -11   0  554.54   20.00
  -1 -11   0  586.04   20.10
  -1  11   0  563.14   19.30
   1  11   0  570.04   20.50
  -1  11   0  528.55   20.50
   1  11   0  547.85   20.30
  -1  11   0  570.54   20.80
  -2 -11   0   92.79    3.60
  -2 -11   0   98.59    4.10
  -2  11   0   88.49    3.50
   2  11   0   85.09    3.40
   2  11   0   85.79    4.30
  -2  11   0   87.19    4.90
  -3 -11   0   66.49    2.60
  -3 -11   0   59.79    2.50
  -3 -11   0   60.99    2.80
  -3  11   0   58.89    4.00
  -3  11   0   61.79    2.50
   3  11   0   61.69    2.50
   3  11   0   59.89    3.30
  -4 -11   0  143.89    4.90
  -4 -11   0  132.69    4.90
  -4 -11   0  128.99    5.10
   4  11   0  136.59    4.60
   4  11   0  123.49    5.30
  -4  11   0  112.39    6.00
  -4  11   0  129.69    4.60
   4  11   0  124.79    5.70
  -5 -11   0   14.80    0.80
  -5 -11   0   15.50    0.80
   5  11   0   13.40    1.30
   5  11   0   14.40    0.70
  -5  11   0   15.60    1.90
   5  11   0   15.30    1.50
   0 -12   0   90.59    3.80
   0  12   0   88.09    4.50
  -1 -12   0   50.29    2.40
   1 -12   0   47.80    2.40
  -1  12   0   54.69    3.30
   1  12   0   50.49    3.10
  -2 -12   0  154.98    5.90
   2  12   0  139.49    6.20
   2  12   0  141.79    5.30
  -2  12   0  158.88    5.40
  -2  12   0  142.89    6.60
  -3 -12   0  129.39    5.00
  -3 -12   0  130.89    4.70
   3  12   0  139.59    5.80
  -3  12   0  137.89    4.80
   3  12   0  128.99    4.80
  -3  12   0  126.19    6.00
   0 -13   0    0.10    0.50
   0  13   0   -0.70    0.80
  -1 -13   0  306.17   10.90
  -1  13   0  312.27   11.70
   1  13   0  313.77   11.60
   9   0  -1  386.56   13.20
  -9   0   1  382.96   13.60
   9   0  -1  383.86   13.20
   9   0  -1  375.16   14.50
  -8   0   1  216.68    8.10
   8   0  -1  221.98    7.80
   8   0  -1  208.88    7.60
   8   0  -1  212.08    9.30
  -8   0   1  215.98    9.40
   7   0  -1   29.90    2.90
   7   0  -1   28.30    1.40
  -7   0   1   26.90    1.80
   7   0  -1   27.20    2.60
   7   0  -1   25.60    1.50
  -7   0   1   30.60    2.80
  -6   0   1  388.96   14.70
   6   0  -1  378.76   14.60
   5   0  -1  405.36   14.70
  -5   0   1  390.56   14.50
   5   0  -1  390.36   14.20
  -4   0   1  286.07   13.10
   4   0  -1  292.97   10.70
   4   0  -1  310.67   11.00
   3   0  -1 1491.15   51.79
   3   0  -1 1530.25   51.99
  -3   0   1 1538.35   53.89
   2   0  -1 1508.65   54.69
   2   0  -1 1630.54   55.09
  -2   0   1 1613.14   55.99
  -2   0   1 1589.64   55.09
   2   0  -1 1700.23   56.59
  -1   0   1 4268.07  143.39
   1   0  -1 4380.06  144.29
   1   0  -1 3651.13  147.19
  -1   0   1 4390.56  145.69
   0   0  -1    0.60    0.60
   0   0  -1    0.90    0.60
   0   0  -1    0.60    0.60
  -1   0  -1 9873.51  339.97
  -1   0  -1 9999.00  341.77
  -2   0  -1 1499.25   51.69
  -2   0  -1 1486.65   51.09
  -2   0  -1 1444.06   51.29
   2   0   1 1457.35   50.19
  -3   0  -1  361.86   14.10
  -3   0  -1  358.16   14.90
   3   0   1  388.46   13.30
  -3   0  -1  356.36   14.60
   4   0   1  660.33   23.50
   5   0   1    1.60    0.80
   6   0   1   36.80    2.90
  -6   0  -1   44.50    2.50
  -7   0  -1    2.70    1.20
   7   0   1    4.20    0.60
   7   0   1    1.80    1.30
   7   0   1    5.10    0.70
   7   0   1    2.90    1.30
  -7   0  -1    3.10    1.20
   8   0   1   92.09    4.90
   8   0   1  100.99    3.60
  -8   0  -1   90.49    3.80
   8   0   1   99.19    3.70
   9  -1  -1  150.88    5.50
   9  -1  -1  159.88    5.60
  -9  -1   1  150.98    5.90
   9   1  -1  178.08    7.60
   9   1  -1  177.28    6.30
  -9   1   1  176.78    6.70
   9   1  -1  177.88    6.30
   8  -1  -1   15.90    1.20
  -8  -1   1   12.80    2.20
   8  -1  -1   12.30    2.10
  -8  -1   1   13.90    1.40
   8  -1  -1   13.40    1.00
  -8   1   1   10.40    1.90
   8   1  -1   10.10    0.80
   8   1  -1   10.50    1.80
   8   1  -1   11.30    1.90
   8   1  -1   11.20    1.00
  -8   1   1   10.20    1.20
  -7  -1   1  162.78    7.40
   7  -1  -1  151.08    5.70
   7  -1  -1  150.58    5.50
   7  -1  -1  152.28    7.30
  -7  -1   1  149.59    6.00
  -7   1   1  164.98    7.30
   7   1  -1  152.78    7.20
  -7   1   1  154.28    6.00
   7   1  -1  149.09    7.00
   7   1  -1  152.38    5.70
   7   1  -1  154.88    5.60
  -6  -1   1    1.50    1.00
   6  -1  -1    1.20    0.80
  -6  -1   1    0.80    0.50
  -6   1   1    1.00    0.50
   6   1  -1    0.70    0.70
  -6   1   1    0.40    0.90
   5  -1  -1  147.59    6.20
  -5  -1   1  151.08    6.20
   5  -1  -1  142.49    5.80
   5   1  -1  153.68    6.40
   5   1  -1  153.38    6.00
  -5   1   1  142.69    6.10
  -4  -1   1  500.15   20.00
   4  -1  -1  531.55   17.60
   4  -1  -1  478.95   17.90
   4   1  -1  550.64   19.70
   4   1  -1  557.84   19.40
   3  -1  -1  619.64   22.00
   3  -1  -1  627.24   21.80
  -3  -1   1  653.93   23.70
  -3   1   1  735.63   27.20
   3   1  -1  700.63   24.80
   3   1  -1  723.83   25.00
  -2  -1   1 3527.45  122.59
   2  -1  -1 3612.24  122.29
  -2  -1   1 3521.95  125.39
   2   1  -1 3787.02  130.49
   2   1  -1 3585.34  129.19
   2   1  -1 3791.42  128.49
  -2   1   1 3830.42  128.79
  -2   1   1 3770.32  133.79
   1  -1  -1  311.77   12.10
   1  -1  -1  336.87   11.60
  -1  -1   1  317.27   11.80
  -1  -1   1  311.07   11.80
  -1  -1   1  336.07   12.10
   1   1  -1  343.67   12.10
   1   1  -1  330.47   11.90
   1   1  -1  302.77   12.10
  -1   1   1  337.37   12.20
  -1   1   1  318.87   11.70
   0  -1   1   12.60    1.00
   0  -1  -1   14.10    0.90
   0  -1  -1   13.40    1.20
   0   1   1    2.70    0.50
   0   1  -1    2.00    0.50
   0   1  -1    2.90    0.80
   0   1   1    2.80    0.70
  -1  -1  -1 3559.14  123.19
  -1  -1  -1 3602.84  124.49
  -1   1  -1 3527.05  127.09
  -1   1  -1 3827.72  127.79
  -1   1  -1 3763.52  126.29
   1   1   1 3563.44  125.39
  -2  -1  -1 1050.59   37.50
   2  -1   1 1043.40   36.10
  -2  -1  -1 1069.99   36.90
   2   1   1  910.31   31.90
  -2   1  -1  923.41   32.60
  -2   1  -1  945.91   34.00
   3  -1   1  954.90   32.30
  -3  -1  -1  907.01   34.00
   3   1   1  825.42   29.20
  -3   1  -1  870.31   31.90
  -3   1  -1  824.82   30.40
   4  -1   1   79.39    3.70
   4   1   1   81.79    3.90
  -5  -1  -1  474.15   17.00
   5  -1   1  480.55   17.60
   5   1   1  484.05   17.90
  -6  -1  -1  307.27   12.00
  -6  -1  -1  312.17   11.80
   6   1   1  293.27   12.00
  -6   1  -1  305.97   11.20
   7  -1   1  240.58    8.50
   7  -1   1  249.68    8.60
   7  -1   1  234.48   10.20
  -7  -1  -1  248.08    9.90
  -7  -1  -1  224.38   10.00
   7   1   1  261.87    9.40
   7   1   1  261.57   10.80
   7   1   1  273.37   11.00
   7   1   1  272.87    9.30
  -7   1  -1  257.17   10.50
   8  -1   1  233.18    8.00
  -8  -1  -1  210.18    8.30
   8  -1   1  240.78    8.10
   8   1   1  235.48    8.00
   8   1   1  231.98    9.30
  -8   1  -1  203.88    8.20
   8   1   1  237.38    8.10
   9  -2  -1   77.59    2.90
   9  -2  -1   77.89    3.00
  -9  -2   1   76.29    3.30
   9   2  -1   88.69    3.50
   9   2  -1   97.19    3.40
  -9   2   1   90.59    3.80
   9   2  -1   92.89    4.60
  -8  -2   1  121.29    4.80
   8  -2  -1  114.69    4.40
   8  -2  -1  110.39    4.30
   8  -2  -1  116.99    6.00
  -8  -2   1  109.49    5.90
  -8   2   1   96.19    4.20
   8   2  -1   99.09    5.30
   8   2  -1  103.19    5.20
  -8   2   1   98.49    5.20
   8   2  -1  100.09    3.70
   8   2  -1   99.09    3.80
  -7  -2   1   15.50    2.40
   7  -2  -1   15.90    1.10
   7  -2  -1   15.10    1.20
  -7  -2   1   15.40    2.00
   7  -2  -1   13.60    2.20
  -7  -2   1   14.20    1.40
   7   2  -1   17.90    2.10
   7   2  -1   16.80    1.00
  -7   2   1   16.60    1.30
   7   2  -1   13.10    1.90
  -7   2   1   16.60    2.10
   7   2  -1   14.10    1.10
  -6  -2   1 1136.09   38.20
  -6  -2   1 1111.99   38.60
  -6  -2   1 1014.00   37.20
   6   2  -1 1034.70   37.20
  -6   2   1 1015.30   36.00
  -6   2   1 1094.89   37.10
  -5  -2   1  219.58    8.70
   5   2  -1  242.28    9.50
   5   2  -1  247.68    9.20
  -5   2   1  231.88    9.30
   4  -2  -1 1820.42   62.29
   4   2  -1 1925.91   66.79
   4   2  -1 1987.40   67.19
   3  -2  -1  548.75   19.30
  -3  -2   1  562.54   19.30
   3  -2  -1  554.64   19.50
   3  -2  -1  563.04   19.50
  -3  -2   1  576.04   21.50
  -3   2   1  555.94   20.70
   3   2  -1  618.04   20.80
  -3   2   1  574.64   23.30
   3   2  -1  608.84   22.20
   3   2  -1  627.24   21.00
   2  -2  -1  347.87   12.50
  -2  -2   1  340.87   11.90
  -2  -2   1  340.27   13.30
  -2   2   1  312.27   11.70
   2   2  -1  319.27   11.00
   2   2  -1  325.47   11.20
  -2   2   1  310.07   11.40
  -2   2   1  330.47   13.20
   2   2  -1  316.27   11.30
   2   2  -1  320.77   12.50
   1  -2  -1   92.09    3.40
   1  -2  -1   91.49    4.60
  -1  -2   1   89.29    3.40
   1  -2  -1   96.09    4.10
   1  -2  -1   96.99    3.90
  -1   2   1  105.59    4.90
   1   2  -1  100.19    4.70
   1   2  -1   96.99    3.80
  -1   2   1  103.09    4.20
  -1   2   1  100.99    4.00
   1   2  -1  104.89    4.40
   1   2  -1  109.79    5.00
   0  -2  -1  591.24   21.70
   0  -2   1  631.84   21.50
   0  -2   1  606.94   22.20
   0  -2  -1  653.93   21.90
   0  -2  -1  630.64   22.30
   0   2  -1  653.13   22.10
   0   2   1  660.43   22.50
   0   2  -1  630.54   22.10
   0   2   1  596.04   22.10
   0   2  -1  624.04   22.90
   0   2   1  656.33   22.10
  -1  -2  -1 1591.64   53.59
   1  -2   1 1500.95   53.79
  -1   2  -1 1801.72   60.79
   1   2   1 1645.34   59.89
  -1   2  -1 1803.72   62.19
   1   2   1 1765.52   60.59
  -1   2  -1 1796.02   60.99
   2  -2   1  254.17    9.20
  -2  -2  -1  259.87   10.70
  -2   2  -1  242.38    9.40
  -2   2  -1  259.07   10.00
  -2   2  -1  250.97   11.40
   2   2   1  243.78    8.90
   2   2   1  229.08    8.60
  -2   2  -1  241.38    9.00
  -3  -2  -1  197.88    7.40
   3  -2   1  194.08    7.40
  -3   2  -1  208.98   10.70
   3   2   1  208.98    7.90
  -3   2  -1  201.88    7.90
  -4  -2  -1  723.73   25.80
  -4  -2  -1  760.82   26.10
   4   2   1  792.42   28.10
  -5  -2  -1   26.60    1.90
  -5  -2  -1   30.40    2.20
   5   2   1   25.60    2.20
   6  -2   1   98.49    3.70
  -6  -2  -1   95.49    4.90
  -6  -2  -1   97.29    4.70
   6  -2   1   94.79    5.30
   6  -2   1   95.79    3.80
  -6   2  -1   79.49    4.00
   6   2   1   87.59    3.20
   6   2   1   87.29    4.70
   6   2   1   90.29    4.60
   6   2   1   85.39    3.40
  -7  -2  -1  229.78    9.60
   7  -2   1  233.58    8.30
   7  -2   1  238.28    8.20
  -7  -2  -1  229.48    8.50
   7  -2   1  224.78    9.90
   7   2   1  238.38    9.80
   7   2   1  239.88   10.00
   7   2   1  241.88    8.30
  -7   2  -1  224.78    9.40
   7   2   1  233.78    8.40
   8  -2   1    0.90    0.50
  -8  -2  -1    0.40    0.60
   8  -2   1    0.40    0.50
   8   2   1    0.10    0.40
   8   2   1    1.30    1.00
   8   2   1    0.20    1.00
   8   2   1    1.70    0.50
   9  -3  -1   62.79    2.40
   9  -3  -1   63.59    2.40
   9   3  -1   65.39    3.50
   9   3  -1   65.99    2.50
  -9   3   1   61.99    3.00
   9   3  -1   69.39    2.50
  -8  -3   1   34.90    2.10
   8  -3  -1   32.20    1.70
  -8  -3   1   30.60    3.00
   8  -3  -1   32.40    1.60
  -8   3   1   32.10    1.90
   8   3  -1   31.00    1.40
   8   3  -1   27.70    2.60
   8   3  -1   29.90    1.50
   8   3  -1   28.10    2.70
  -8   3   1   26.80    2.50
   7  -3  -1  180.68    8.60
  -7  -3   1  181.88    8.50
   7  -3  -1  180.28    6.70
   7  -3  -1  180.28    6.70
  -7  -3   1  190.78    7.10
  -7  -3   1  192.78    8.00
  -7   3   1  190.28    8.20
   7   3  -1  175.68    6.60
   7   3  -1  188.08    6.50
   7   3  -1  175.88    8.00
   7   3  -1  186.38    7.90
  -7   3   1  175.78    6.90
  -6  -3   1    4.60    1.50
  -6  -3   1    9.00    1.60
  -6  -3   1    4.70    0.80
   6   3  -1    8.00    1.50
  -6   3   1    6.50    1.50
  -6   3   1    7.00    0.90
  -5  -3   1   96.79    4.70
  -5  -3   1   99.79    4.80
   5   3  -1   96.19    4.30
   5   3  -1   93.79    4.60
  -5   3   1   91.19    4.50
   4  -3  -1  244.98    8.60
  -4  -3   1  208.88    8.80
  -4  -3   1  234.08    8.90
  -4   3   1  221.88    9.00
   4   3  -1  242.28    8.80
   4   3  -1  239.08    9.10
   3  -3  -1   80.59    3.40
  -3  -3   1   84.09    3.30
  -3  -3   1   80.69    5.00
  -3  -3   1   83.79    3.60
   3   3  -1   59.49    4.10
  -3   3   1   58.79    4.80
  -3   3   1   57.09    2.90
   3   3  -1   57.19    2.80
   3   3  -1   61.19    2.70
   2  -3  -1 2477.25   92.49
  -2  -3   1 2905.81   92.69
   2   3  -1 2420.26   82.99
   2   3  -1 2568.24   83.19
  -2   3   1 2462.25   84.89
   2   3  -1 2396.56   82.69
  -2   3   1 2426.96   82.69
   2   3  -1 2410.86   84.19
  -2   3   1 2291.07   82.19
  -1  -3   1   28.40    2.10
   1  -3  -1   33.10    1.80
  -1  -3   1   29.00    1.40
   1  -3  -1   30.30    2.30
   1  -3  -1   30.80    1.40
   1   3  -1   29.90    1.50
  -1   3   1   30.30    1.70
   1   3  -1   27.30    1.70
   1   3  -1   29.00    2.70
   1   3  -1   28.70    1.40
  -1   3   1   31.00    1.80
  -1   3   1   33.40    2.70
  -1   3   1   30.60    1.50
   0  -3  -1 2353.26   76.49
   0  -3   1 2174.88   75.79
   0  -3  -1 2167.88   76.29
   0   3  -1 2138.49   75.29
   0   3   1 2239.48   75.69
   0   3   1 2220.88   77.59
   0   3  -1 2271.37   76.69
   0   3   1 2181.28   75.99
  -1  -3  -1  870.31   29.80
  -1  -3  -1  871.21   31.00
  -1   3  -1  952.60   36.00
   1   3   1  945.21   33.20
   1   3   1  966.30   33.30
  -1   3  -1  983.70   34.70
  -1   3  -1  992.20   33.50
   2  -3   1  390.36   14.30
  -2  -3  -1  413.66   14.40
  -2  -3  -1  410.96   16.00
   2   3   1  429.26   15.30
  -2   3  -1  432.16   18.50
  -2   3  -1  427.06   16.50
  -2   3  -1  434.36   15.60
   3  -3   1  941.51   33.90
  -3  -3  -1 1033.70   34.30
   3   3   1 1047.50   35.90
  -3   3  -1 1018.40   36.10
  -4  -3  -1   48.80    2.80
  -4  -3  -1   49.30    2.60
   4   3   1   46.00    2.80
  -5  -3  -1  232.38    8.80
  -5  -3  -1  249.38    9.80
  -5  -3  -1  250.27    9.60
   5   3   1  226.88    9.40
   6  -3   1   24.30    2.90
  -6  -3  -1   27.50    2.50
  -6  -3  -1   25.80    2.40
   6  -3   1   27.20    1.50
  -6  -3  -1   27.70    1.60
   6   3   1   24.60    1.20
   6   3   1   24.60    1.40
   6   3   1   22.70    2.30
  -6   3  -1   22.90    1.90
   6   3   1   20.40    2.30
  -7  -3  -1   49.30    3.50
   7  -3   1   53.09    2.20
  -7  -3  -1   49.60    2.40
  -7   3  -1   39.70    2.70
   7   3   1   42.60    3.00
   7   3   1   39.00    1.90
   7   3   1   44.40    3.20
   7   3   1   42.50    1.80
  -8  -3  -1   51.39    2.50
   8  -3   1   55.39    2.20
   8   3   1   47.10    3.00
   8   3   1   47.00    2.00
   8   3   1   48.20    3.10
   8   3   1   47.30    1.90
   9  -4  -1   32.40    1.40
   9   4  -1   35.30    1.40
   9   4  -1   35.90    2.30
  -8  -4   1   70.89    3.30
   8  -4  -1   72.09    2.80
   8   4  -1   62.59    2.30
  -8   4   1   59.79    2.80
   8   4  -1   63.49    3.60
  -8   4   1   55.39    3.60
   8   4  -1   57.09    3.60
   8   4  -1   59.19    2.50
  -7  -4   1   34.90    3.20
  -7  -4   1   32.40    1.70
   7  -4  -1   34.30    1.70
  -7  -4   1   31.20    1.70
  -7  -4   1   37.00    2.20
  -7  -4   1   34.00    2.80
  -7   4   1   33.40    2.90
   7   4  -1   33.20    2.70
   7   4  -1   31.30    1.40
   7   4  -1   34.40    2.80
  -7   4   1   32.20    2.00
  -6  -4   1  286.77   11.70
  -6  -4   1  273.57   11.30
  -6   4   1  310.17   11.80
  -6   4   1  275.07   10.40
   6   4  -1  268.27   11.40
  -5  -4   1  106.89    5.20
  -5  -4   1  107.59    4.30
   5   4  -1   99.99    4.80
  -5   4   1  102.39    4.90
  -5   4   1   89.89    4.10
  -4  -4   1  155.18    6.80
  -4  -4   1  165.78    6.80
  -4  -4   1  164.88    6.40
   4  -4  -1  164.78    6.40
   4   4  -1  196.78    7.60
  -4   4   1  194.38    8.00
   4   4  -1  194.98    7.80
  -3  -4   1  479.25   16.60
   3  -4  -1  467.95   16.60
  -3  -4   1  459.55   16.70
  -3   4   1  411.46   14.90
   3   4  -1  395.56   13.80
   3   4  -1  404.66   14.40
   3   4  -1  408.66   14.60
   2  -4  -1   54.29    2.50
  -2  -4   1   53.79    2.20
  -2  -4   1   54.19    2.50
  -2  -4   1   56.29    2.40
   2   4  -1   51.89    2.00
   2   4  -1   53.99    2.30
   2   4  -1   53.39    2.20
   2   4  -1   51.19    4.00
   2   4  -1   50.89    2.40
  -2   4   1   53.49    2.80
  -2   4   1   50.99    2.30
  -2   4   1   48.00    4.10
   1  -4  -1  803.32   28.40
  -1  -4   1  848.22   28.20
   1  -4  -1  842.32   28.20
  -1  -4   1  827.92   28.10
   1  -4  -1  798.62   28.00
  -1   4   1  856.71   30.40
  -1   4   1  852.01   29.00
   1   4  -1  814.62   29.40
   1   4  -1  773.12   28.90
   1   4  -1  884.21   29.00
  -1   4   1  832.02   31.10
   1   4  -1  857.01   31.40
  -1   4   1  891.41   29.50
   0  -4  -1  378.36   12.70
   0  -4  -1  345.47   12.80
   0  -4  -1  356.46   13.40
   0   4   1  378.56   13.60
   0   4  -1  377.36   13.70
   0   4  -1  371.06   15.30
   0   4   1  373.76   15.10
   0   4   1  389.86   13.10
   0   4  -1  366.46   13.20
  -1  -4  -1  761.02   26.80
  -1  -4  -1  773.72   27.90
  -1  -4  -1  782.02   26.60
   1   4   1  758.92   25.20
   1   4   1  750.22   25.90
   1   4   1  708.93   25.60
  -1   4  -1  769.62   26.20
  -1   4  -1  737.43   29.10
  -1   4  -1  732.83   27.60
  -2  -4  -1  592.04   23.00
  -2  -4  -1  639.24   21.40
  -2  -4  -1  595.64   21.10
   2  -4   1  602.64   21.10
  -2   4  -1  555.14   19.80
   2   4   1  542.75   19.40
  -3  -4  -1  301.97   11.00
  -3  -4  -1  286.17   11.00
   3  -4   1  288.77   10.60
  -3   4  -1  269.47   10.60
   3   4   1  272.97   10.30
  -4  -4  -1  656.63   24.30
  -4  -4  -1  701.73   24.40
  -4   4  -1  561.44   21.80
   4   4   1  675.43   22.40
  -5  -4  -1   65.69    3.70
  -5  -4  -1   59.29    2.70
  -5  -4  -1   57.69    3.60
  -5   4  -1   59.79    3.20
   5   4   1   53.09    3.50
  -6  -4  -1  100.79    5.30
   6  -4   1   97.09    3.90
  -6  -4  -1  102.99    4.20
  -6  -4  -1  107.49    5.40
   6   4   1   97.59    3.60
   6   4   1   95.79    3.70
  -6   4  -1   96.29    4.80
   6   4   1  102.39    5.00
   6   4   1   97.49    3.90
   6   4   1   94.99    5.00
   7  -4   1   77.99    3.00
  -7  -4  -1   71.09    4.30
  -7  -4  -1   71.19    3.20
   7   4   1   74.59    3.00
   7   4   1   77.49    2.90
   7   4   1   80.89    4.20
   7   4   1   76.09    4.30
  -7   4  -1   68.39    3.90
   8  -4   1   15.30    1.00
  -8  -4  -1   15.30    1.30
   8   4   1   12.60    0.70
   8   4   1   12.80    0.90
   8   4   1   13.70    1.80
   8   4   1   14.20    1.70
   8  -5  -1   15.20    1.00
  -8  -5   1   17.10    1.00
  -8  -5   1   15.10    1.00
  -8  -5   1   15.70    1.40
  -8   5   1   14.40    1.30
   8   5  -1   15.20    1.80
   8   5  -1   12.30    1.70
   8   5  -1   14.80    0.80
  -7  -5   1  257.77    9.20
   7  -5  -1  262.27    9.20
  -7  -5   1  251.77    9.20
  -7  -5   1  259.67    9.70
   7   5  -1  263.57   10.70
   7   5  -1  271.87    9.30
  -7   5   1  267.37   10.00
   7   5  -1  256.67   10.80
  -7   5   1  275.87   11.40
  -6  -5   1   34.70    3.00
  -6  -5   1   33.00    1.70
  -6  -5   1   37.70    2.10
  -6  -5   1   36.50    3.20
   6  -5  -1   35.60    1.80
   6   5  -1   31.60    2.70
  -6   5   1   38.60    3.10
   6   5  -1   30.00    1.40
   6   5  -1   28.60    1.40
  -6   5   1   31.40    1.90
   6   5  -1   28.30    1.80
   6   5  -1   30.20    2.60
  -5  -5   1  594.74   20.80
   5  -5  -1  621.14   21.30
  -5  -5   1  570.54   22.00
  -5   5   1  610.74   21.70
   5   5  -1  585.74   22.60
  -5   5   1  662.13   23.30
   4  -5  -1  161.38    6.40
  -4  -5   1  159.78    6.50
  -4  -5   1  156.58    6.80
   4   5  -1  142.09    6.00
  -4   5   1  137.09    6.40
  -3  -5   1  437.96   16.10
  -3  -5   1  457.75   15.90
  -3  -5   1  436.16   15.50
   3  -5  -1  451.95   15.90
  -3   5   1  423.66   15.80
  -3   5   1  430.16   15.80
   3   5  -1  427.16   15.80
   3   5  -1  410.86   14.40
   3   5  -1  420.36   15.10
  -2  -5   1 2096.09   75.29
  -2  -5   1 2269.87   75.19
  -2  -5   1 2205.68   74.89
   2  -5  -1 2260.37   75.29
  -2   5   1 2333.17   78.89
   2   5  -1 2407.76   78.69
  -2   5   1 2357.36   79.59
   2   5  -1 2163.98   78.79
   2   5  -1 2320.97   78.49
  -1  -5   1    8.60    0.80
   1  -5  -1    8.80    0.70
  -1  -5   1    9.00    1.00
   1  -5  -1    8.40    1.10
  -1  -5   1    9.20    0.70
   1   5  -1    9.50    1.00
  -1   5   1    8.40    0.90
   1   5  -1    7.80    0.70
  -1   5   1    9.80    1.60
  -1   5   1    8.70    0.80
   1   5  -1    9.10    1.30
   0  -5  -1 1886.21   65.09
   0  -5  -1 2018.70   64.89
   0  -5   1 1804.52   64.89
   0  -5  -1 1914.11   64.59
   0   5  -1 1783.82   64.39
   0   5  -1 1994.80   65.09
   0   5  -1 1811.22   68.09
   0   5   1 1949.51   64.49
   0   5   1 1907.71   64.09
   0   5   1 1927.41   64.89
   0   5  -1 1855.51   67.19
  -1  -5  -1  309.17   10.80
  -1  -5  -1  292.87   10.40
   1  -5   1  287.67   10.70
  -1  -5  -1  305.47   11.00
   1   5   1  321.37   11.10
  -1   5  -1  299.67   13.80
   1   5   1  334.57   12.00
  -1   5  -1  337.97   12.40
  -2  -5  -1  178.88    6.90
   2  -5   1  165.88    6.50
  -2  -5  -1  172.28    6.60
  -2   5  -1  152.78    6.60
  -2   5  -1  147.39    6.00
  -3  -5  -1  481.85   16.60
  -3  -5  -1  442.26   16.60
   3  -5   1  428.56   16.00
   3   5   1  403.66   14.70
  -3   5  -1  403.66   15.20
  -3   5  -1  390.46   14.60
  -4  -5  -1    5.30    1.20
  -4  -5  -1    4.90    0.80
  -4  -5  -1    5.00    1.30
  -4   5  -1    7.10    1.30
   4   5   1    4.20    1.10
  -5  -5  -1  500.75   17.20
   5  -5   1  464.55   17.20
  -5  -5  -1  492.15   18.40
   5   5   1  456.85   17.00
  -5   5  -1  450.65   17.00
   5   5   1  451.75   17.10
   5   5   1  440.36   16.50
  -6  -5  -1   39.30    3.20
  -6  -5  -1   43.40    2.20
   6  -5   1   41.30    2.00
  -6  -5  -1   37.20    3.00
   6   5   1   38.40    2.10
  -6   5  -1   38.20    2.80
   6   5   1   40.50    2.00
   6   5   1   41.70    1.70
   6   5   1   37.90    2.90
   6   5   1   38.40    2.90
  -7  -5  -1   97.39    5.40
   7  -5   1  111.29    4.00
  -7   5  -1  103.09    5.00
  -7   5  -1  102.49    4.30
   7   5   1  111.59    5.10
   7   5   1  113.79    5.30
   7   5   1  106.19    4.00
   7   5   1  102.79    3.90
   7   5   1  108.09    4.20
   8  -5   1  142.79    5.00
  -8  -5  -1  136.79    5.00
   8   5   1  156.28    6.30
   8   5   1  146.79    6.00
   8   5   1  143.59    5.30
  -8  -6   1   71.39    2.80
   8  -6  -1   68.49    2.70
  -8  -6   1   71.59    2.70
  -8   6   1   65.49    3.00
   8   6  -1   68.29    3.60
   8   6  -1   68.99    2.50
   8   6  -1   72.29    3.60
   7  -6  -1   40.70    1.90
  -7  -6   1   36.80    1.90
  -7  -6   1   40.00    1.80
  -7   6   1   36.90    2.20
   7   6  -1   41.50    2.90
   7   6  -1   37.80    1.60
   7   6  -1   36.10    1.90
  -7   6   1   36.40    3.10
   7   6  -1   36.60    2.70
  -6  -6   1  387.16   13.10
  -6  -6   1  377.26   13.10
  -6  -6   1  376.26   13.50
   6  -6  -1  365.96   13.10
  -6  -6   1  357.06   14.60
  -6   6   1  443.46   16.50
   6   6  -1  393.76   14.20
  -6   6   1  424.36   14.70
   6   6  -1  398.96   15.60
   6   6  -1  383.76   15.20
   6   6  -1  374.76   13.90
  -5  -6   1   98.99    5.10
   5  -6  -1  119.69    5.00
  -5  -6   1  117.39    4.50
  -5  -6   1   97.99    5.50
  -5   6   1  124.89    6.60
  -5   6   1  129.59    5.30
  -4  -6   1  328.77   12.90
  -4  -6   1  331.27   12.60
  -4  -6   1  328.07   12.00
   4  -6  -1  345.47   12.50
  -4   6   1  312.67   12.10
  -4   6   1  246.98   12.30
  -4   6   1  306.87   10.70
  -3  -6   1  955.00   33.50
  -3  -6   1  970.70   34.20
  -3  -6   1  979.60   33.90
   3  -6  -1  998.60   34.00
  -3   6   1  892.01   32.90
   3   6  -1  920.31   31.30
  -3   6   1  956.40   33.00
  -2  -6   1   21.30    1.70
   2  -6  -1   22.50    1.70
  -2  -6   1   20.60    1.40
  -2  -6   1   21.80    1.20
  -2   6   1   18.80    1.40
  -2   6   1   17.80    2.00
   2   6  -1   17.00    1.20
   2   6  -1   17.90    1.10
  -1  -6   1  764.82   25.60
   1  -6  -1  730.73   25.50
  -1  -6   1  734.23   26.20
   1  -6  -1  763.52   26.20
   1   6  -1  727.03   26.30
  -1   6   1  742.23   25.60
  -1   6   1  772.42   26.50
  -1   6   1  714.93   25.20
   1   6  -1  703.13   25.20
   1   6  -1  756.32   25.60
   0  -6   1   19.40    1.50
   0  -6  -1   18.30    1.60
   0  -6  -1   19.30    1.30
   0  -6  -1   18.10    1.10
   0   6  -1   12.40    1.20
   0   6   1   12.60    0.90
   0   6   1   11.30    1.60
   0   6   1   12.10    1.00
   0   6  -1   12.20    1.70
  -1  -6  -1  904.31   30.60
  -1  -6  -1  860.41   30.10
  -1  -6  -1  908.31   30.90
   1  -6   1  849.91   30.50
  -1   6  -1  960.00   33.40
  -1   6  -1  879.91   32.80
   1   6   1  912.51   32.80
   1   6   1  991.30   31.90
   2  -6   1  359.26   13.20
  -2  -6  -1  364.16   13.40
  -2  -6  -1  380.16   13.70
  -2   6  -1  345.27   13.40
  -2   6  -1  339.37   12.90
  -3  -6  -1   96.49    4.00
   3  -6   1   97.19    4.30
  -3  -6  -1   93.09    4.80
  -3  -6  -1  110.39    4.90
  -3  -6  -1   97.49    4.40
  -3   6  -1   92.79    4.60
  -3   6  -1   92.79    5.00
  -4  -6  -1  520.35   18.80
  -4  -6  -1  491.25   17.60
  -4  -6  -1  516.75   18.90
   4  -6   1  466.65   17.80
  -4   6  -1  534.05   19.90
  -5  -6  -1  117.49    5.90
  -5  -6  -1  116.19    4.70
  -5  -6  -1  110.09    5.80
  -5  -6  -1  113.09    4.30
   5  -6   1  115.49    4.40
  -5  -6  -1  112.49    4.30
   5   6   1  109.39    5.50
   5   6   1  109.79    5.20
  -5   6  -1  118.99    5.60
  -5   6  -1   96.59    4.50
   5   6   1  108.19    4.00
   5   6   1  106.79    4.30
  -6  -6  -1  149.39    7.30
  -6  -6  -1  157.38    5.80
   6  -6   1  162.18    5.80
  -6  -6  -1  159.88    6.10
   6   6   1  135.29    5.30
   6   6   1  145.89    6.40
  -6   6  -1  136.29    6.50
   6   6   1  139.19    6.40
  -6   6  -1  134.19    5.50
  -7  -6  -1  166.98    6.00
   7  -6   1  174.28    6.00
  -7  -6  -1  157.18    6.30
   7   6   1  151.88    6.20
   7   6   1  152.08    6.40
   7   6   1  144.09    5.40
  -7   6  -1  135.59    5.50
  -8  -7   1   39.40    1.70
  -8  -7   1   43.10    1.70
   8  -7  -1   39.40    1.60
   8   7  -1   44.80    1.70
   8   7  -1   47.10    2.60
   8   7  -1   43.80    2.50
  -7  -7   1  132.29    4.80
  -7  -7   1  129.89    4.80
   7  -7  -1  126.89    4.80
   7   7  -1  123.19    4.40
   7   7  -1  116.39    5.60
   7   7  -1  127.79    5.70
  -7   7   1  126.29    5.10
  -6  -7   1   94.79    3.80
  -6  -7   1   95.19    3.70
  -6  -7   1   94.49    3.70
   6  -7  -1   95.19    3.80
   6   7  -1   88.99    4.70
   6   7  -1   88.49    3.50
  -6   7   1   99.89    4.30
  -6   7   1   94.59    5.50
   6   7  -1   88.69    4.90
   6   7  -1   92.89    3.80
   5  -7  -1  317.87   11.40
   5  -7  -1  263.07   10.40
  -5  -7   1  262.67   10.80
  -5  -7   1  307.87   10.50
  -5  -7   1  315.17   10.50
  -5  -7   1  321.07   10.50
  -5  -7   1  279.37   12.00
   5   7  -1  294.27   10.00
   5   7  -1  266.67   11.20
   5   7  -1  269.17   10.80
   5   7  -1  289.17    9.70
  -5   7   1  238.78   11.70
  -5   7   1  294.57   10.50
  -4  -7   1  254.07    9.40
   4  -7  -1  262.17    9.90
  -4  -7   1  252.57   10.00
  -4  -7   1  250.17   10.40
  -4   7   1  257.17   10.80
  -4   7   1  252.27   11.00
  -4   7   1  255.97    9.60
  -3  -7   1   32.50    2.10
  -3  -7   1   34.40    2.50
   3  -7  -1   36.60    2.30
  -3  -7   1   33.10    1.80
  -3   7   1   22.50    1.80
  -3   7   1   21.40    2.20
  -3   7   1   26.90    2.70
   3   7  -1   21.60    1.00
  -3   7   1   24.50    1.60
  -2  -7   1  771.12   27.30
   2  -7  -1  822.22   27.30
  -2  -7   1  833.22   26.60
  -2  -7   1  669.83   26.70
  -2   7   1  926.51   32.80
  -2   7   1  927.51   31.70
   2   7  -1  864.11   31.20
   2   7  -1  917.41   31.10
   1  -7  -1   66.09    2.70
  -1  -7   1   75.59    2.70
  -1  -7   1   72.09    3.50
   1  -7  -1   78.99    3.60
  -1   7   1   75.19    3.10
   1   7  -1   77.69    3.10
   1   7  -1   78.79    3.50
  -1   7   1   76.09    3.50
   1   7  -1   76.39    4.20
  -1   7   1   79.29    4.30
   0  -7  -1  752.82   25.60
   0  -7   1  733.03   26.20
   0  -7  -1  758.32   26.50
   0   7   1  717.33   24.10
   0   7  -1  718.13   25.70
   0   7   1  689.53   24.40
   0   7   1  693.73   25.40
   0   7  -1  693.03   24.70
  -1  -7  -1  366.36   12.80
   1  -7   1  357.96   13.30
  -1  -7  -1  373.56   13.70
  -1  -7  -1  362.56   13.20
  -1   7  -1  359.66   13.80
   1   7   1  358.16   13.90
   1   7   1  383.46   12.70
  -1   7  -1  353.96   13.40
  -1   7  -1  382.56   14.50
  -2  -7  -1  146.89    5.50
  -2  -7  -1  140.99    6.00
  -2  -7  -1  151.48    6.40
   2  -7   1  144.79    5.90
  -2   7  -1  144.29    6.30
  -2   7  -1  139.19    6.80
  -2   7  -1  139.49    5.40
  -3  -7  -1  743.43   27.60
  -3  -7  -1  799.02   28.20
  -3  -7  -1  847.82   28.70
   3  -7   1  789.52   27.90
  -3   7  -1  756.72   29.10
  -3   7  -1  783.82   27.60
  -3   7  -1  841.82   28.90
   4  -7   1    3.30    0.80
  -4  -7  -1    4.00    0.80
  -4  -7  -1    5.80    1.60
  -4  -7  -1    3.70    0.60
  -4  -7  -1    5.50    0.80
   4  -7   1    3.30    1.00
   4   7   1    3.50    1.30
  -4   7  -1    3.90    1.30
   4   7   1    2.50    1.10
  -4   7  -1    2.60    0.70
   4   7   1    3.00    0.50
   4   7   1    1.50    0.60
  -5  -7  -1  442.06   15.60
  -5  -7  -1  452.95   15.60
  -5  -7  -1  445.36   17.30
  -5  -7  -1  434.36   15.90
   5  -7   1  469.05   15.70
   5   7   1  434.26   17.30
   5   7   1  454.25   17.10
   5   7   1  452.85   16.10
  -5   7  -1  464.75   16.40
   5   7   1  435.56   15.70
  -5   7  -1  505.75   17.80
   6  -7   1   48.60    2.20
  -6  -7  -1   45.00    2.10
  -6  -7  -1   45.80    2.00
   6   7   1   54.49    3.30
  -6   7  -1   52.09    3.40
   6   7   1   54.59    2.50
   6   7   1   55.19    3.30
  -6   7  -1   50.39    2.60
   7  -7   1   42.70    1.80
  -7  -7  -1   40.70    1.80
   7   7   1   49.70    2.10
   7   7   1   52.49    3.00
  -7   7  -1   47.60    2.30
   7   7   1   50.39    2.70
  -7  -8   1   24.90    1.20
  -7  -8   1   23.70    1.30
  -7  -8   1   24.20    1.40
   7  -8  -1   21.80    1.20
   7   8  -1   31.90    2.20
   7   8  -1   27.20    1.20
  -7   8   1   28.30    1.70
   7   8  -1   25.40    2.10
  -7   8   1   28.70    2.80
   6  -8  -1  195.08    7.10
  -6  -8   1  195.88    7.10
  -6  -8   1  203.08    7.20
  -6  -8   1  199.68    7.20
   6   8  -1  237.08    9.70
   6   8  -1  222.78    8.20
   6   8  -1  235.88    9.40
  -6   8   1  255.17    9.00
   6   8  -1  236.88    8.10
  -6   8   1  205.98   10.00
   5  -8  -1   36.80    2.40
  -5  -8   1   38.30    1.80
  -5  -8   1   34.40    3.00
  -5  -8   1   37.20    1.80
  -5  -8   1   26.90    2.00
  -5  -8   1   36.70    1.80
   5   8  -1   46.60    1.90
  -5   8   1   33.90    3.40
  -5   8   1   45.00    2.10
   5   8  -1   44.20    3.30
   5   8  -1   40.70    2.80
   5   8  -1   50.69    2.30
  -5   8   1   44.20    2.60
  -4  -8   1  408.26   15.10
  -4  -8   1  436.96   15.20
  -4  -8   1  432.56   15.10
  -4  -8   1  444.16   15.50
  -4  -8   1  438.06   16.60
   4  -8  -1  445.06   16.10
  -4   8   1  441.66   18.50
  -4   8   1  486.45   17.10
  -4   8   1  476.25   18.60
   4   8  -1  459.95   16.50
  -4   8   1  468.85   16.50
   4   8  -1  492.05   17.80
   4   8  -1  474.75   16.40
  -3  -8   1  283.27   11.50
  -3  -8   1  294.17   10.50
   3  -8  -1  300.37   11.20
  -3   8   1  299.27   10.90
  -3   8   1  296.27   12.40
  -3   8   1  288.77   11.20
  -2  -8   1  255.97    8.90
  -2  -8   1  240.18    9.80
   2  -8  -1  256.67    9.80
  -2   8   1  260.87   11.20
   2   8  -1  267.57    9.40
  -2   8   1  261.47   10.10
   1  -8  -1  910.21   31.80
  -1  -8   1  896.11   31.80
  -1   8   1  847.02   29.40
   1   8  -1  812.32   30.40
   1   8  -1  856.31   29.00
   1   8  -1  825.42   29.30
  -1   8   1  841.22   30.60
  -1   8   1  864.31   29.00
   0  -8   1  333.87   12.50
   0  -8  -1  344.57   12.70
   0  -8  -1  324.57   11.60
   0   8   1  297.47   11.10
   0   8   1  307.47   12.40
   0   8   1  321.27   10.90
   0   8  -1  302.67   11.00
   0   8  -1  316.47   11.60
   0   8  -1  306.27   12.60
  -1  -8  -1  525.55   17.40
  -1  -8  -1  533.25   18.50
  -1  -8  -1  447.36   17.70
   1  -8   1  496.15   18.00
  -1   8  -1  529.05   19.80
  -1   8  -1  473.35   18.80
   1   8   1  546.45   19.50
  -1   8  -1  499.35   18.50
   1   8   1  515.35   17.60
  -1   8  -1  513.75   18.00
  -2  -8  -1  656.53   23.10
   2  -8   1  614.14   22.50
  -2  -8  -1  633.44   22.00
  -2  -8  -1  619.74   22.50
  -2   8  -1  574.84   22.10
  -2   8  -1  577.54   20.40
  -2   8  -1  588.34   21.50
  -3  -8  -1  179.68    6.90
  -3  -8  -1  187.58    6.80
   3  -8   1  184.48    6.70
  -3  -8  -1  187.08    8.10
  -3  -8  -1  174.58    7.10
  -3  -8  -1  181.98    6.70
   3   8   1  181.68    7.20
  -3   8  -1  206.58    8.70
   3   8   1  188.58    8.20
   3   8   1  200.38    7.10
  -3   8  -1  206.58    7.60
   3   8   1  194.38    8.30
  -4  -8  -1   55.19    2.40
   4  -8   1   55.19    2.50
  -4  -8  -1   51.09    2.70
  -4  -8  -1   56.09    2.50
  -4  -8  -1   54.39    3.70
  -4   8  -1   61.49    3.00
   4   8   1   56.99    2.40
   4   8   1   55.99    3.70
   4   8   1   59.89    3.50
  -4   8  -1   61.39    3.90
   4   8   1   55.79    2.70
  -5  -8  -1    5.20    0.70
   5  -8   1    5.10    0.90
  -5  -8  -1    5.70    0.70
  -5   8  -1    7.00    1.60
   5   8   1    6.60    1.40
  -5   8  -1    7.00    1.10
   5   8   1    5.40    1.40
   5   8   1    6.00    0.60
   5   8   1    7.10    0.90
   6  -8   1   35.80    1.80
  -6  -8  -1   34.60    1.60
  -6  -8  -1   35.60    1.70
  -6  -8  -1   34.00    1.60
   6   8   1   30.40    2.30
   6   8   1   31.50    1.70
  -6   8  -1   29.30    1.80
   6   8   1   32.30    2.50
  -7  -8  -1   66.99    2.50
   7   8   1   69.59    3.20
   7   8   1   77.59    3.50
  -7  -9   1   57.39    2.10
  -7  -9   1   49.30    2.00
  -7  -9   1   55.59    2.10
   7   9  -1   54.99    2.70
   7   9  -1   50.39    1.90
  -7   9   1   52.09    3.10
  -6  -9   1   13.90    1.00
  -6  -9   1   12.00    0.90
  -6  -9   1   11.50    0.90
  -6   9   1   15.70    2.30
   6   9  -1   15.40    0.80
   6   9  -1   15.80    0.90
   6   9  -1   16.00    1.80
  -6   9   1   15.10    1.30
   6   9  -1   16.20    1.90
  -5  -9   1  207.98    7.50
  -5  -9   1  202.08    7.60
  -5  -9   1  222.68    7.60
   5   9  -1  204.48    7.00
  -5   9   1  192.18    7.60
  -5   9   1  204.48    7.10
   5   9  -1  191.98    9.30
   5   9  -1  169.98    8.30
  -4  -9   1  150.28    6.00
  -4  -9   1  156.68    5.80
  -4  -9   1  158.38    7.60
  -4  -9   1  155.68    6.00
  -4  -9   1  154.08    5.70
   4  -9  -1  159.18    6.70
   4   9  -1  147.49    6.70
   4   9  -1  152.08    5.50
  -4   9   1  146.79    6.00
  -4   9   1  144.19    7.60
  -4   9   1  145.89    5.60
  -3  -9   1   32.90    2.60
  -3  -9   1   33.00    2.00
  -3  -9   1   30.90    1.70
   3  -9  -1   33.20    2.40
  -3  -9   1   33.40    1.70
  -3  -9   1   32.00    1.70
  -3   9   1   44.30    2.20
  -3   9   1   42.30    3.80
   3   9  -1   47.40    3.20
   3   9  -1   44.10    2.10
  -2  -9   1  179.98    6.80
   2  -9  -1  197.98    7.80
  -2  -9   1  192.38    7.30
  -2  -9   1  185.98    7.90
   2   9  -1  168.08    6.30
  -2   9   1  169.68    6.40
  -2   9   1  172.78    6.30
  -2   9   1  163.08    7.70
  -2   9   1  168.08    7.90
   2   9  -1  169.68    7.40
   2   9  -1  170.08    6.10
  -1  -9   1   81.69    4.20
   1  -9  -1   91.19    4.40
  -1  -9   1   84.69    4.80
  -1   9   1   86.29    3.90
   1   9  -1   87.99    3.60
  -1   9   1   90.99    3.60
   1   9  -1   91.49    5.50
  -1   9   1   84.79    5.00
   1   9  -1   82.69    3.80
   0  -9   1  216.88    9.00
   0  -9  -1  215.88    8.80
   0   9  -1  177.98    6.50
   0   9  -1  172.18    7.00
   0   9  -1  176.38    8.30
   0   9   1  174.08    6.30
   0   9   1  161.08    7.80
   1  -9   1  338.07   13.00
  -1  -9  -1  370.16   13.90
  -1  -9  -1  367.26   12.60
  -1  -9  -1  361.86   12.70
  -1  -9  -1  358.36   13.20
   1  -9   1  357.76   12.50
   1   9   1  398.36   15.20
  -1   9  -1  390.06   14.20
   1   9   1  404.06   14.10
  -1   9  -1  401.76   14.00
   1   9   1  406.56   15.20
  -1   9  -1  395.76   15.40
  -2  -9  -1    6.00    1.10
  -2  -9  -1    6.00    0.80
   2  -9   1    6.80    0.80
  -2  -9  -1    5.40    1.50
  -2  -9  -1    6.10    0.80
  -2  -9  -1    5.20    0.80
  -2   9  -1    1.50    0.50
   2   9   1    1.70    0.50
   2   9   1    3.10    1.10
  -2   9  -1    1.40    0.60
  -2   9  -1    2.60    1.10
  -2   9  -1    2.80    1.50
   2   9   1    1.90    1.10
   3  -9   1  397.26   13.80
  -3  -9  -1  388.66   13.90
  -3  -9  -1  386.86   14.10
  -3  -9  -1  401.46   13.80
  -3  -9  -1  390.96   14.30
  -3  -9  -1  400.96   15.40
   3   9   1  396.16   14.50
  -3   9  -1  413.06   16.10
  -3   9  -1  390.46   14.40
   3   9   1  418.66   14.40
  -3   9  -1  437.96   14.90
   3   9   1  420.86   15.70
   3   9   1  414.26   15.60
  -4  -9  -1   83.59    3.30
  -4  -9  -1   86.99    3.30
  -4  -9  -1   74.99    3.20
  -4  -9  -1   83.19    3.60
   4  -9   1   80.19    3.30
   4   9   1   82.49    4.40
   4   9   1   86.49    3.30
   4   9   1   74.99    4.40
  -4   9  -1   84.79    4.70
   4   9   1   80.39    3.50
  -4   9  -1   91.69    3.90
  -5  -9  -1  198.98    7.10
  -5  -9  -1  207.38    7.20
  -5  -9  -1  203.98    7.10
   5  -9   1  186.18    7.20
  -5   9  -1  190.98    7.30
   5   9   1  190.88    8.00
   5   9   1  199.38    7.00
   5   9   1  181.18    6.70
   5   9   1  187.48    7.80
  -6  -9  -1   94.59    3.50
  -6  -9  -1   97.09    3.50
   6  -9   1   96.19    3.50
  -6  -9  -1   92.39    3.50
   6   9   1   98.69    4.30
   6   9   1  100.49    3.80
   6   9   1   96.59    4.40
  -6 -10   1  163.68    5.80
  -6 -10   1  159.68    5.80
  -6 -10   1  166.48    5.80
  -6  10   1  163.28    7.00
  -6  10   1  166.78    7.00
   6  10  -1  173.38    6.70
   6  10  -1  153.98    5.60
   6  10  -1  160.98    5.70
  -5 -10   1   30.20    1.40
  -5 -10   1   27.70    1.40
  -5 -10   1   28.10    1.40
   5  10  -1   22.80    2.40
   5  10  -1   30.60    1.40
  -5  10   1   22.70    2.80
  -5  10   1   29.50    1.40
  -4 -10   1  107.39    4.00
  -4 -10   1  101.69    4.20
  -4 -10   1  103.19    4.00
   4  10  -1  114.79    5.40
  -4  10   1   98.69    6.00
  -4  10   1  111.59    4.20
   4  10  -1  103.49    4.00
  -4  10   1  101.49    5.80
  -3 -10   1  390.46   14.10
  -3 -10   1  409.56   14.10
  -3 -10   1  415.76   14.50
  -3  10   1  438.76   17.60
   3  10  -1  454.95   17.00
   3  10  -1  460.85   15.70
  -3  10   1  454.85   15.90
  -3  10   1  447.36   17.60
   2 -10  -1   47.70    3.00
  -2 -10   1   47.00    2.50
  -2 -10   1   48.00    2.10
  -2  10   1   51.99    2.40
  -2  10   1   48.80    2.40
   2  10  -1   55.29    3.40
  -2  10   1   50.09    3.80
  -2  10   1   52.99    3.80
   2  10  -1   49.80    2.30
   1 -10  -1  327.47   12.10
   1 -10  -1  337.37   12.80
  -1 -10   1  333.67   12.10
  -1 -10   1  334.47   11.60
  -1  10   1  329.57   11.70
   1  10  -1  331.17   11.70
   1  10  -1  337.87   13.00
  -1  10   1  325.17   13.10
  -1  10   1  328.37   13.20
   0 -10  -1   13.30    1.90
   0 -10  -1   13.10    1.40
   0 -10   1   11.50    0.90
   0 -10   1   11.60    1.30
   0  10  -1   19.20    1.40
   0  10   1   18.70    1.20
   0  10   1   18.90    2.30
   0  10   1   19.10    1.10
   0  10   1   19.80    2.40
   0  10  -1   17.70    1.10
   0  10  -1   19.50    2.30
   1 -10   1  148.79    6.00
  -1 -10  -1  154.28    6.90
  -1 -10  -1  150.68    5.70
   1 -10   1  151.48    5.60
  -1 -10  -1  160.88    6.30
   1  10   1  174.18    7.60
   1  10   1  172.68    7.50
  -1  10  -1  167.98    7.70
  -1  10  -1  168.18    6.30
   1  10   1  171.28    6.40
  -2 -10  -1  183.88    6.80
   2 -10   1  190.28    6.70
  -2 -10  -1  178.48    6.70
  -2 -10  -1  181.48    7.20
  -2  10  -1  179.18    7.00
  -2  10  -1  185.78    6.80
   2  10   1  188.38    8.00
  -2  10  -1  188.28    8.40
   2  10   1  189.28    7.90
   2  10   1  182.78    6.80
  -3 -10  -1   77.29    3.10
  -3 -10  -1   76.69    3.10
   3 -10   1   76.29    3.10
  -3 -10  -1   76.89    3.50
   3  10   1   81.59    4.40
  -3  10  -1   85.19    5.00
   3  10   1   88.29    3.30
  -3  10  -1   82.49    3.70
   3  10   1   85.59    4.40
  -3  10  -1   82.59    3.30
  -4 -10  -1  178.58    6.80
  -4 -10  -1  194.58    6.60
  -4 -10  -1  189.68    6.60
   4 -10   1  161.78    6.50
   4  10   1  181.78    6.20
  -4  10  -1  176.58    6.70
   4  10   1  153.68    7.30
   4  10   1  169.98    7.20
  -4  10  -1  179.98    7.90
  -5 -10  -1   46.50    1.90
  -5 -10  -1   44.70    1.90
  -5 -10  -1   45.10    1.90
   5 -10   1   43.20    1.90
  -5  10  -1   40.70    2.90
   5  10   1   39.40    2.50
   5  10   1   39.70    2.40
   5  10   1   37.60    1.50
  -5  10  -1   36.60    1.90
  -5 -11   1   31.90    1.30
  -5 -11   1   28.00    1.30
  -5  11   1   18.20    2.20
   5  11  -1   24.80    2.00
  -5  11   1   26.00    2.30
  -5  11   1   23.60    1.20
   5  11  -1   25.20    1.10
   5  11  -1   24.90    1.00
  -4 -11   1   76.39    3.20
  -4 -11   1   74.19    3.00
  -4 -11   1   82.49    3.00
  -4  11   1   85.99    3.30
   4  11  -1   89.79    4.40
  -4  11   1   66.19    4.50
   4  11  -1   87.89    3.20
  -4  11   1   77.89    4.60
  -3 -11   1   40.80    1.80
  -3 -11   1   38.60    2.10
   3  11  -1   30.50    2.50
  -3  11   1   26.50    2.90
  -3  11   1   32.70    3.00
   3  11  -1   29.40    1.50
  -3  11   1   33.80    1.70
  -2 -11   1  319.37   11.40
  -2 -11   1  305.87   10.90
  -2  11   1  336.77   13.50
  -2  11   1  358.76   12.10
  -2  11   1  344.37   13.50
   2  11  -1  342.87   13.10
   2  11  -1  321.77   12.00
  -1 -11   1   27.40    1.80
   1 -11  -1   23.00    1.60
  -1  11   1   27.20    2.70
  -1  11   1   27.80    1.50
  -1  11   1   28.00    2.70
   1  11  -1   27.80    2.50
   0 -11  -1  691.33   24.70
   0 -11   1  712.43   24.20
   0 -11   1  716.73   24.70
   0  11  -1  677.43   24.50
   0  11   1  688.43   24.50
   0  11   1  667.83   24.40
   0  11   1  656.83   23.10
   1 -11   1  138.39    4.90
  -1 -11  -1  134.09    5.50
   1 -11   1  129.89    5.30
   1  11   1  122.39    4.70
   1  11   1  126.59    5.80
  -1  11  -1  125.29    4.60
  -1  11  -1  124.59    6.00
   1  11   1  119.29    5.80
  -2 -11  -1  134.09    5.20
  -2 -11  -1  147.59    5.70
   2 -11   1  137.29    5.10
   2  11   1  129.79    4.90
  -2  11  -1  123.89    4.80
  -2  11  -1  126.19    6.20
   2  11   1  134.39    5.90
   2  11   1  136.49    5.90
   3 -11   1  217.58    8.10
  -3 -11  -1  233.68    8.50
  -3 -11  -1  225.28    8.10
  -3 -11  -1  240.88    8.20
  -3  11  -1  234.28    9.60
   3  11   1  237.98    8.20
   3  11   1  239.38    9.30
   3  11   1  221.98    9.00
  -3  11  -1  217.98    8.10
  -4 -11  -1   24.00    1.20
  -4 -11  -1   21.20    1.30
  -4 -11  -1   24.60    1.10
   4 -11   1   17.50    1.20
   4  11   1   24.20    1.10
   4  11   1   24.50    1.90
  -4  11  -1   24.80    2.30
   4  11   1   20.30    2.00
  -4 -12   1  112.99    4.40
  -4 -12   1  125.29    4.30
  -4  12   1  127.89    4.40
   4  12  -1  120.09    4.30
   4  12  -1  107.89    5.10
  -4  12   1  121.29    5.30
  -3 -12   1  220.48    8.00
  -3 -12   1  221.08    7.70
   3  12  -1  200.38    7.40
  -3  12   1  200.38    8.60
  -3  12   1  226.28    7.50
   3  12  -1  220.28    8.40
  -3  12   1  205.98    8.60
  -2 -12   1   32.50    1.80
  -2  12   1   35.00    2.70
   2  12  -1   29.80    1.90
   2  12  -1   37.00    2.50
  -2  12   1   34.30    1.60
  -2  12   1   31.80    2.60
  -1 -12   1  231.48    8.50
  -1  12   1  212.78    7.60
   1  12  -1  219.18    8.60
  -1  12   1  199.48    8.60
  -1  12   1  215.48    8.70
   0 -12   1   80.89    3.40
   0 -12  -1   81.79    3.50
   0  12  -1   77.89    4.10
   0  12   1   78.19    4.10
   0  12   1   79.69    4.10
   1 -12   1   34.30    1.60
  -1 -12  -1   41.30    2.10
   1 -12   1   34.90    1.90
   1  12   1   34.70    2.50
   1  12   1   36.70    2.50
   1  12   1   34.10    1.60
  -1  12  -1   35.00    2.60
  -2 -12  -1  232.88    8.20
   2 -12   1  212.08    7.80
   2  12   1  216.48    7.90
   2  12   1  218.38    8.60
   2  12   1  226.58    8.80
  -2  12  -1  232.48    9.10
  -3 -12  -1   36.00    1.60
  -3 -12  -1   41.10    1.90
  -3 -12  -1   38.40    1.60
   3  12   1   31.30    2.30
  -3  12  -1   36.40    2.50
   3  12   1   37.20    2.20
   3  12   1   39.30    1.50
  -1 -13   1    1.50    0.50
   1  13  -1    1.80    0.80
  -1  13   1    2.60    0.80
  -1  13   1    1.90    0.80
   0 -13  -1  245.18    8.70
   0 -13   1  243.98    8.70
   0  13  -1  302.37   10.80
   0  13   1  288.37   10.70
   0  13   1  268.17   10.60
  -1 -13  -1   35.90    1.80
   1  13   1   29.90    1.90
  -1  13  -1   34.60    2.20
   1  13   1   35.40    2.10
   1  13   1   29.30    1.40
   9   0  -2  131.19    4.80
  -9   0   2  131.69    5.30
   9   0  -2  132.49    6.20
   9   0  -2  136.99    4.90
  -8   0   2   62.39    4.20
   8   0  -2   60.39    2.50
   8   0  -2   60.69    4.00
  -8   0   2   63.49    3.10
   8   0  -2   59.79    2.60
   7   0  -2   91.09    3.40
   7   0  -2   89.29    4.80
  -7   0   2   97.49    5.20
  -7   0   2   89.49    3.90
   7   0  -2   88.29    5.00
   7   0  -2   89.69    3.60
   6   0  -2   25.00    1.80
  -6   0   2   25.00    2.40
  -6   0   2   22.10    1.50
   6   0  -2   21.50    2.10
   5   0  -2  300.27   11.30
  -5   0   2  284.47   11.30
   5   0  -2  297.57   10.90
   4   0  -2  369.16   13.20
   4   0  -2  372.76   13.50
   3   0  -2  179.88    6.80
  -3   0   2  183.88    8.60
   3   0  -2  184.28    8.00
  -3   0   2  188.08    6.60
  -2   0   2 3753.12  131.99
   2   0  -2 4050.79  131.39
  -2   0   2 3718.23  131.09
   2   0  -2 3990.50  134.59
   2   0  -2 3974.20  133.59
  -2   0   2 3680.63  135.79
   2   0  -2 3731.23  131.99
   1   0  -2   29.60    2.20
  -1   0   2   31.00    2.30
   1   0  -2   28.10    1.40
   1   0  -2   33.00    2.10
  -1   0   2   31.50    2.00
   0   0   2 1278.17   45.70
   0   0  -2 1276.77   45.60
   0   0  -2 1435.76   46.70
   0   0  -2 1363.86   46.60
   0   0  -2 1385.06   47.50
   0   0   2 1310.57   46.40
  -1   0  -2   75.19    4.00
   1   0   2   72.29    3.10
  -1   0  -2   70.99    3.90
  -2   0  -2   66.59    4.30
  -2   0  -2   68.89    4.10
   2   0   2   69.49    3.10
  -2   0  -2   66.09    4.10
  -3   0  -2 1104.79   41.90
   3   0   2 1213.68   40.20
   4   0   2    3.60    1.00
   5   0   2  381.16   14.60
   6   0   2    1.40    0.50
  -6   0  -2    0.70    1.00
   6   0   2    0.30    0.50
   6   0   2    0.90    1.10
   7   0   2   36.20    1.60
  -7   0  -2   33.20    2.40
   7   0   2   34.10    1.70
   8   0   2   41.40    1.80
   8   0   2   41.50    1.70
   9  -1  -2   35.20    1.60
  -9  -1   2   33.20    1.90
   9  -1  -2   31.80    2.70
   9  -1  -2   31.70    1.50
   9   1  -2   31.60    2.70
  -9   1   2   31.50    1.90
   9   1  -2   30.80    1.40
  -8  -1   2  409.76   16.20
   8  -1  -2  410.76   14.20
   8  -1  -2  392.76   14.10
   8  -1  -2  393.86   15.90
  -8  -1   2  431.26   14.80
   8   1  -2  412.06   14.70
   8   1  -2  412.26   16.30
   8   1  -2  418.26   14.60
  -8   1   2  419.46   16.50
   8   1  -2  419.86   16.20
  -8   1   2  446.46   15.20
   7  -1  -2  106.79    4.20
  -7  -1   2  123.89    6.10
   7  -1  -2  113.79    5.80
   7  -1  -2  111.19    4.30
  -7  -1   2  112.29    4.70
   7   1  -2  119.89    5.80
   7   1  -2  117.39    4.30
   7   1  -2  120.19    5.90
  -7   1   2  117.19    4.90
   7   1  -2  115.69    4.50
  -7   1   2  126.99    6.20
  -6  -1   2  363.76   13.20
  -6  -1   2  379.06   14.50
   6  -1  -2  366.06   14.10
  -6   1   2  359.66   12.90
   6   1  -2  363.16   14.00
   6   1  -2  353.26   13.40
  -6   1   2  371.86   14.10
   5  -1  -2  725.63   25.50
  -5  -1   2  720.43   26.10
   5  -1  -2  741.83   25.90
  -5   1   2  729.63   26.10
   5   1  -2  720.73   25.70
   5   1  -2  747.13   26.10
  -4  -1   2   39.10    1.90
   4  -1  -2   40.60    2.10
  -4  -1   2   40.10    5.50
   4  -1  -2   45.50    2.30
   4   1  -2   59.29    2.70
   4   1  -2   56.39    2.90
  -3  -1   2 1544.55   54.29
   3  -1  -2 1493.65   52.09
  -3  -1   2 1523.85   52.49
   3  -1  -2 1546.55   53.39
   3   1  -2 1560.64   54.69
   3   1  -2 1662.43   54.09
   3   1  -2 1522.85   53.19
  -3   1   2 1607.14   56.09
  -3   1   2 1507.25   53.49
   3   1  -2 1569.24   55.19
  -2  -1   2 2747.23   89.49
   2  -1  -2 2653.73   90.39
   2  -1  -2 2510.05   88.99
  -2  -1   2 2543.65   90.39
   2  -1  -2 2692.63   89.39
   2  -1  -2 2544.85   89.59
   2   1  -2 2569.44   85.49
  -2   1   2 2487.85   86.09
   2   1  -2 2506.85   86.49
  -2   1   2 2391.56   84.89
   2   1  -2 2489.65   85.79
   2   1  -2 2486.05   86.69
  -2   1   2 2504.45   85.39
   1  -1  -2 3315.37  123.99
   1  -1  -2 3341.07  123.99
   1  -1  -2 3631.04  126.99
   1  -1  -2 3712.73  125.79
   1  -1  -2 3700.43  129.39
  -1  -1   2 4088.29  129.09
   1   1  -2 3579.54  129.49
  -1   1   2 3568.74  129.39
   1   1  -2 3787.92  131.99
  -1   1   2 3770.52  128.49
  -1   1   2 4232.78  132.89
   1   1  -2 3738.83  132.79
   0  -1  -2  796.22   27.80
   0  -1  -2  788.72   27.40
   0  -1   2  781.62   26.90
   0  -1  -2  763.92   26.80
   0   1  -2  763.92   26.30
   0   1   2  713.03   25.50
   0   1  -2  729.73   25.40
   0   1  -2  763.92   26.90
   0   1   2  753.32   25.60
  -1  -1  -2  617.84   21.30
  -1  -1  -2  571.64   20.90
  -1  -1  -2  589.84   21.70
   1  -1   2  589.04   20.60
   1   1   2  519.75   19.00
  -1   1  -2  546.55   18.90
   1   1   2  563.34   19.20
  -1   1  -2  548.45   20.00
  -1   1  -2  569.34   20.70
   2  -1   2 2587.24   87.19
  -2  -1  -2 2534.25   88.89
  -2   1  -2 2586.74   91.29
   2   1   2 2695.23   89.99
  -2   1  -2 2592.24   89.89
  -2   1  -2 2539.35   90.49
   3  -1   2  285.47   10.70
   3   1   2  320.87   12.00
   4  -1   2  491.55   17.90
   4   1   2  466.35   17.10
  -5  -1  -2  372.06   13.30
   5  -1   2  330.97   13.40
   5   1   2  329.57   12.90
  -6  -1  -2  180.78    7.70
   6  -1   2  174.18    8.10
   6  -1   2  180.48    6.40
   6  -1   2  182.38    6.50
   6   1   2  185.08    6.70
   6   1   2  190.58    8.30
   6   1   2  192.48    6.90
   7  -1   2  155.88    5.60
   7  -1   2  160.88    5.60
  -7  -1  -2  144.19    6.50
   7   1   2  146.09    5.10
   7   1   2  135.09    5.00
   7   1   2  139.69    6.50
  -7   1  -2  129.59    6.10
   8  -1   2   18.50    1.00
   8  -1   2   18.20    1.00
   8   1   2   17.60    1.00
   8   1   2   19.00    1.10
  -9  -2   2   64.59    3.00
   9  -2  -2   70.19    2.70
   9  -2  -2   65.29    2.60
   9   2  -2   67.19    3.80
   9   2  -2   69.29    2.60
   9   2  -2   66.79    2.70
  -9   2   2   69.39    3.10
  -9   2   2   67.89    2.70
   8  -2  -2   29.00    2.90
  -8  -2   2   32.20    2.00
   8  -2  -2   30.90    1.50
  -8  -2   2   28.80    3.00
   8  -2  -2   30.90    1.70
   8   2  -2   30.80    2.70
   8   2  -2   28.90    1.60
   8   2  -2   30.30    2.70
  -8   2   2   31.30    2.00
  -8   2   2   28.20    2.70
   8   2  -2   28.60    1.40
   7  -2  -2  291.97   10.40
  -7  -2   2  319.87   12.50
  -7  -2   2  305.57   10.90
   7  -2  -2  295.47   10.50
  -7  -2   2  279.57   10.40
  -7  -2   2  292.17   11.50
   7  -2  -2  289.27   12.20
   7   2  -2  288.97   10.10
  -7   2   2  285.67   10.70
  -7   2   2  306.27   12.10
   7   2  -2  289.37   11.60
   7   2  -2  285.17   10.30
   7   2  -2  288.87   11.70
  -6  -2   2  168.68    6.40
  -6  -2   2  166.18    7.60
  -6   2   2  154.08    6.80
   6   2  -2  150.28    6.30
   6   2  -2  144.99    6.70
  -6   2   2  139.89    5.60
  -5  -2   2  813.22   29.00
  -5   2   2  810.12   29.50
   5   2  -2  835.12   29.10
   5   2  -2  845.92   29.50
   4  -2  -2  487.05   17.60
  -4  -2   2  510.45   17.50
   4  -2  -2  506.15   17.80
   4   2  -2  585.64   20.80
   4   2  -2  581.04   20.50
  -3  -2   2   93.29    5.60
   3  -2  -2   92.99    4.70
   3  -2  -2   91.99    3.70
   3  -2  -2   90.49    3.70
  -3  -2   2   97.09    3.60
   3   2  -2   87.89    4.90
   3   2  -2   89.09    3.30
  -3   2   2   96.29    5.80
   3   2  -2   88.29    3.90
   3   2  -2   83.69    3.20
  -3   2   2   84.59    3.60
  -3   2   2   89.29    3.50
   3   2  -2   89.79    3.70
   2  -2  -2 1012.40   35.20
  -2  -2   2 1054.99   35.50
  -2  -2   2 1013.60   37.30
   2  -2  -2 1011.70   35.90
   2  -2  -2 1063.49   35.50
   2  -2  -2 1034.20   36.20
   2  -2  -2 1030.40   35.20
   2   2  -2 1209.78   40.80
  -2   2   2 1177.38   40.70
   2   2  -2 1215.28   41.60
  -2   2   2 1177.98   40.90
   2   2  -2 1178.68   42.00
  -2   2   2 1196.88   42.60
   2   2  -2 1195.48   42.40
   1  -2  -2  632.84   21.40
   1  -2  -2  619.94   22.80
   1  -2  -2  638.84   22.30
   1  -2  -2  598.24   21.40
  -1   2   2  680.63   23.00
   1   2  -2  664.43   23.10
   1   2  -2  667.23   24.70
  -1   2   2  692.23   24.20
   1   2  -2  689.33   24.10
   1   2  -2  661.53   23.10
  -1   2   2  657.03   23.30
   0  -2  -2  351.16   12.70
   0  -2  -2  370.16   13.40
   0  -2  -2  350.46   12.30
   0  -2   2  335.57   12.90
   0   2   2  381.66   13.30
   0   2   2  383.56   13.30
   0   2  -2  377.96   14.90
   0   2  -2  363.86   13.20
   0   2  -2  378.76   13.90
   0   2   2  379.16   13.40
   1  -2   2  396.26   14.10
  -1  -2  -2  407.86   15.50
  -1   2  -2  317.67   13.30
  -1   2  -2  329.47   12.10
  -1   2  -2  291.67   11.20
   1   2   2  327.77   11.40
   1   2   2  342.47   11.60
  -2  -2  -2  173.28    8.40
  -2  -2  -2  175.28    6.60
   2  -2   2  178.48    6.70
  -2   2  -2  181.98    9.50
   2   2   2  189.38    6.80
   2   2   2  177.18    6.40
  -2   2  -2  145.29    8.30
   3  -2   2  268.77   10.10
  -3  -2  -2  271.27   10.00
   3   2   2  305.07   11.30
  -3   2  -2  293.97   11.30
  -4  -2  -2  250.97    9.40
  -4  -2  -2  235.98    9.00
   4   2   2  217.08    8.80
  -5  -2  -2  180.38    7.60
  -5  -2  -2  182.38    7.30
   5   2   2  180.18    7.80
  -6  -2  -2  222.68    9.20
  -6  -2  -2  230.58    9.10
   6  -2   2  215.78    7.90
   6  -2   2  224.28    8.00
   6   2   2  226.78    8.10
   6   2   2  224.38    9.50
  -7  -2  -2   14.30    1.10
   7  -2   2   15.50    1.10
  -7  -2  -2   15.10    1.90
   7  -2   2   15.00    1.00
   7   2   2   14.10    1.10
   7   2   2   13.70    1.90
   8  -2   2  163.68    5.80
   8   2   2  172.08    6.10
  -9  -3   2   11.60    1.10
   9  -3  -2   11.50    0.90
   9  -3  -2   10.90    0.80
  -9   3   2    9.80    1.10
  -9   3   2    9.40    0.80
   9   3  -2    9.70    1.50
   9   3  -2   10.10    0.70
   9   3  -2    8.80    0.80
  -8  -3   2  259.67    9.40
  -8  -3   2  256.47    8.90
   8  -3  -2  254.47    8.90
  -8  -3   2  234.68   10.70
   8  -3  -2  248.98    8.90
   8   3  -2  279.17    9.90
  -8   3   2  297.97   10.60
   8   3  -2  282.87   11.40
  -8   3   2  272.07   11.70
   8   3  -2  286.27   10.00
   8   3  -2  287.07   11.50
   7  -3  -2   38.40    3.40
  -7  -3   2   37.70    3.30
  -7  -3   2   41.30    2.30
  -7  -3   2   36.50    1.80
  -7  -3   2   37.10    2.80
   7  -3  -2   38.70    1.90
   7  -3  -2   39.80    1.80
   7   3  -2   33.60    1.70
   7   3  -2   34.50    2.80
   7   3  -2   34.60    1.50
  -7   3   2   34.60    2.10
   7   3  -2   35.90    2.70
  -7   3   2   38.30    3.10
  -6  -3   2  107.59    5.60
  -6  -3   2  102.69    4.40
  -6  -3   2  107.59    5.00
  -6   3   2  105.49    4.40
  -6   3   2  113.09    5.50
   6   3  -2  107.09    4.90
   6   3  -2  103.99    5.30
  -5  -3   2  409.66   14.10
  -5  -3   2  382.36   14.40
  -5  -3   2  377.96   14.80
  -5   3   2  386.96   15.10
   5   3  -2  400.56   15.00
   5   3  -2  408.86   14.60
   4  -3  -2  220.08    8.10
  -4  -3   2  218.78    7.90
  -4  -3   2  205.28    8.20
   4   3  -2  194.58    7.60
   4   3  -2  194.78    7.30
  -4   3   2  181.68    7.70
  -3  -3   2  614.24   22.50
   3  -3  -2  672.63   22.60
  -3  -3   2  618.54   25.10
  -3  -3   2  643.64   22.20
  -3  -3   2  690.93   22.50
  -3   3   2  638.54   21.90
   3   3  -2  624.54   21.50
   3   3  -2  647.34   21.70
   3   3  -2  647.54   22.10
   3   3  -2  612.14   24.10
   3   3  -2  630.74   22.20
  -3   3   2  623.54   22.20
  -3   3   2  619.64   24.90
   2  -3  -2  157.58    5.70
   2  -3  -2  151.68    6.10
   2  -3  -2  155.88    5.60
  -2  -3   2  166.78    5.80
  -2  -3   2  155.78    5.50
   2  -3  -2  152.78    6.60
   2   3  -2  180.78    6.20
   2   3  -2  158.18    6.40
   2   3  -2  171.88    6.30
   2   3  -2  171.28    7.50
  -2   3   2  158.98    8.00
   2   3  -2  171.78    8.30
  -2   3   2  176.18    6.20
  -2   3   2  168.08    6.60
   1  -3  -2 1126.19   37.10
   1  -3  -2 1040.00   37.00
   1  -3  -2 1085.99   38.00
   1   3  -2 1043.00   38.50
   1   3  -2 1066.09   36.30
  -1   3   2 1076.59   36.20
  -1   3   2 1094.49   36.70
   1   3  -2 1104.79   37.40
   1   3  -2 1044.10   36.70
   1   3  -2 1021.70   36.30
  -1   3   2 1054.19   37.60
   0  -3  -2 1348.57   46.20
   0  -3  -2 1363.16   47.40
   0   3  -2 1491.55   51.29
   0   3   2 1379.56   49.10
   0   3   2 1415.56   49.30
   0   3  -2 1466.95   49.70
  -1  -3  -2  645.54   22.50
  -1  -3  -2  649.34   24.00
  -1   3  -2  695.93   26.60
  -1   3  -2  692.53   28.00
   1   3   2  703.43   24.40
  -1   3  -2  723.83   24.80
   1   3   2  687.03   24.40
  -2  -3  -2 1600.24   54.79
  -2   3  -2 1646.34   59.49
  -2   3  -2 1694.33   57.49
   2   3   2 1654.13   57.09
  -3  -3  -2  136.69    5.60
  -3  -3  -2  136.09    5.50
  -3   3  -2  130.99    5.80
   3   3   2  126.89    5.50
  -4  -3  -2  121.19    5.40
  -4  -3  -2  119.69    5.20
   4   3   2  100.59    4.80
  -5  -3  -2  263.07   10.20
  -5  -3  -2  254.97   10.40
   5   3   2  241.48   10.00
  -6  -3  -2   17.60    1.30
  -6  -3  -2   15.00    2.10
   6  -3   2   17.40    1.20
   6   3   2   14.30    2.00
   6   3   2   14.30    1.10
   6   3   2   14.10    1.20
   6   3   2   14.50    1.00
  -7  -3  -2   66.89    3.90
  -7  -3  -2   69.39    3.00
   7  -3   2   75.09    2.80
   7   3   2   68.69    4.00
   7   3   2   68.99    2.80
   8  -3   2    1.40    0.40
   8   3   2    0.40    0.80
   8   3   2    1.70    0.40
   9  -4  -2   60.69    2.30
   9  -4  -2   59.49    2.30
   9   4  -2   67.59    2.40
  -9   4   2   60.89    3.30
   9   4  -2   65.99    3.40
   8  -4  -2    1.20    0.50
  -8  -4   2    1.10    0.50
   8  -4  -2    0.60    0.50
  -8  -4   2    1.60    0.50
  -8  -4   2    1.00    0.70
   8   4  -2    0.30    0.90
   8   4  -2    0.80    0.40
  -8   4   2    0.60    0.60
   8   4  -2    0.10    0.90
  -8   4   2    0.60    1.00
   7  -4  -2  103.09    4.10
  -7  -4   2  105.79    4.10
   7  -4  -2  109.19    4.10
  -7  -4   2  108.79    4.10
  -7  -4   2  112.59    4.60
  -7  -4   2  105.69    5.30
  -7   4   2   94.29    5.30
   7   4  -2   88.99    4.70
   7   4  -2   92.89    3.40
   7   4  -2   91.09    3.40
   7   4  -2   90.79    4.80
  -7   4   2   92.39    4.00
  -6  -4   2  209.38   10.20
  -6  -4   2  210.68    8.40
  -6  -4   2  210.28    8.00
  -6  -4   2  212.88    8.80
  -6   4   2  214.28    8.20
   6   4  -2  202.98    9.10
  -6   4   2  237.18    9.60
  -5  -4   2   96.99    4.30
   5  -4  -2   95.09    4.20
  -5  -4   2   89.89    4.50
   5   4  -2   99.79    4.90
   5   4  -2   97.39    4.50
  -5   4   2  104.79    5.10
  -5   4   2   96.89    4.10
   4  -4  -2  734.93   24.60
  -4  -4   2  711.73   24.60
  -4  -4   2  664.03   24.10
  -4  -4   2  697.83   24.80
  -4   4   2  722.03   26.00
   4   4  -2  717.53   25.30
   4   4  -2  723.53   25.60
  -3  -4   2  151.08    6.20
  -3  -4   2  156.38    5.80
  -3  -4   2  170.68    6.10
   3  -4  -2  162.48    6.20
   3   4  -2  157.98    6.40
   3   4  -2  162.58    6.20
  -3   4   2  163.88    6.10
   3   4  -2  159.68    5.70
   3   4  -2  158.88    5.80
  -3   4   2  163.48    6.60
   2  -4  -2  608.54   21.20
   2  -4  -2  602.34   20.80
  -2  -4   2  621.44   20.80
   2  -4  -2  587.94   20.80
  -2  -4   2  625.44   21.00
   2   4  -2  552.34   18.30
  -2   4   2  484.75   18.00
   2   4  -2  522.35   21.10
   2   4  -2  518.85   18.50
   2   4  -2  527.25   18.00
  -2   4   2  543.05   18.30
  -2   4   2  537.55   18.80
   2   4  -2  524.75   18.30
  -2   4   2  509.35   20.60
   1  -4  -2 1273.27   43.30
  -1  -4   2 1202.38   43.20
   1  -4  -2 1269.67   43.70
   1  -4  -2 1358.26   43.60
   1   4  -2 1319.17   45.20
  -1   4   2 1316.77   44.90
  -1   4   2 1353.46   45.70
   1   4  -2 1306.77   48.10
  -1   4   2 1354.46   45.20
   1   4  -2 1295.77   45.70
   0  -4  -2   74.99    3.10
   0  -4  -2   72.79    3.00
   0  -4  -2   74.19    4.10
   0  -4  -2   74.59    3.20
   0   4   2   46.80    2.50
   0   4   2   41.60    1.80
   0   4  -2   50.19    2.80
   0   4  -2   45.20    3.90
   0   4   2   44.40    1.70
  -1  -4  -2 1749.53   59.39
  -1  -4  -2 1719.23   61.19
  -1  -4  -2 1755.22   59.59
   1   4   2 1799.72   62.09
   1   4   2 1886.41   62.29
  -1   4  -2 1872.01   62.69
  -1   4  -2 1709.53   64.59
  -2  -4  -2   87.59    3.80
  -2  -4  -2   84.39    3.90
  -2   4  -2   82.09    4.20
   2   4   2   79.09    3.70
  -3  -4  -2  891.41   30.90
  -3  -4  -2  867.61   30.90
  -3   4  -2  892.61   31.30
   3   4   2  855.01   30.80
  -4  -4  -2  152.58    6.50
  -4  -4  -2  152.18    6.50
  -4  -4  -2  140.89    5.60
   4   4   2  149.39    6.70
  -5  -4  -2  243.08   10.00
  -5  -4  -2  252.97    9.90
  -5  -4  -2  241.88    8.90
   5  -4   2  231.08    8.60
   5   4   2  226.18    9.40
   5   4   2  228.98    8.40
   5   4   2  228.68    8.20
   5   4   2  232.28    8.10
  -6  -4  -2  229.68    9.40
  -6  -4  -2  224.28    8.30
   6  -4   2  217.08    8.00
   6   4   2  210.48    7.60
   6   4   2  210.68    7.50
   6   4   2  212.28    8.90
   6   4   2  211.28    7.70
  -7  -4  -2    8.60    1.00
   7  -4   2    9.10    0.80
   7   4   2    8.00    0.70
   7   4   2    8.60    1.50
   7   4   2    7.30    0.80
   8   4   2   96.49    4.30
  -9  -5   2   15.90    0.90
   9   5  -2   15.60    1.60
   9   5  -2   14.80    0.80
  -8  -5   2  265.97    9.20
   8  -5  -2  253.17    9.20
  -8  -5   2  266.77    9.30
   8   5  -2  280.97    9.50
  -8   5   2  280.17   10.10
   8   5  -2  263.27   10.80
   8   5  -2  274.57   10.80
  -7  -5   2   18.50    1.20
  -7  -5   2   19.30    1.70
  -7  -5   2   19.30    1.30
   7   5  -2   14.60    2.00
   7   5  -2   15.50    2.00
   7   5  -2   16.70    1.00
   7   5  -2   15.10    0.90
  -7   5   2   16.10    2.30
  -7   5   2   17.40    1.50
  -6  -5   2  267.27   10.50
  -6  -5   2  256.27    9.60
  -6  -5   2  252.47    9.10
  -6  -5   2  250.67    9.10
   6   5  -2  235.18    9.00
  -6   5   2  270.27   11.00
   6   5  -2  238.68    8.90
   6   5  -2  255.07   10.40
  -6   5   2  262.17    9.50
  -5  -5   2  334.17   12.60
  -5  -5   2  333.17   12.80
   5  -5  -2  332.87   12.40
   5   5  -2  327.57   12.90
   5   5  -2  327.47   12.60
  -5   5   2  345.77   13.50
  -5   5   2  335.07   12.20
  -4  -5   2  305.77   11.30
  -4  -5   2  286.17   11.50
   4  -5  -2  323.37   11.40
  -4  -5   2  304.37   10.90
   4   5  -2  307.07   11.50
   4   5  -2  305.27   11.80
  -4   5   2  311.67   12.30
  -3  -5   2  639.44   22.10
  -3  -5   2  646.44   22.40
   3  -5  -2  637.64   22.50
   3   5  -2  608.74   21.40
  -3   5   2  632.34   22.40
   3   5  -2  650.73   21.20
   3   5  -2  613.94   21.70
  -3   5   2  591.04   22.40
  -3   5   2  618.54   21.70
   2  -5  -2   58.99    2.80
   2  -5  -2   61.39    2.30
  -2  -5   2   59.99    2.40
  -2  -5   2   57.29    2.50
   2   5  -2   49.70    2.20
   2   5  -2   56.29    2.50
  -2   5   2   55.19    3.10
  -2   5   2   51.09    2.20
  -2   5   2   52.39    2.50
   1  -5  -2 1615.04   53.59
   1  -5  -2 1574.54   53.79
  -1  -5   2 1499.35   53.09
   1  -5  -2 1595.04   53.29
   1   5  -2 1615.54   54.29
  -1   5   2 1633.34   54.89
   1   5  -2 1549.64   54.89
  -1   5   2 1647.44   54.19
  -1   5   2 1497.45   53.89
   0  -5  -2  311.07   10.80
   0  -5  -2  287.17   10.40
   0  -5  -2  296.97   11.00
   0   5  -2  336.07   12.60
   0   5   2  319.77   11.30
   0   5   2  328.27   12.20
  -1  -5  -2  461.85   16.50
  -1  -5  -2  459.15   16.30
  -1   5  -2  451.15   16.80
  -1   5  -2  478.75   17.50
   1   5   2  476.45   17.00
  -2  -5  -2  425.46   15.40
  -2  -5  -2  420.06   15.60
  -2   5  -2  419.76   15.30
  -2   5  -2  430.26   16.20
  -3  -5  -2   79.99    4.00
  -3  -5  -2   74.39    3.30
  -3  -5  -2   75.89    4.00
  -3   5  -2   66.69    4.10
  -3   5  -2   66.09    3.20
   3   5   2   68.89    3.60
  -4  -5  -2  280.77   11.10
  -4  -5  -2  282.17   11.20
  -4  -5  -2  274.17   10.10
  -4   5  -2  232.08    8.70
   4   5   2  206.88    9.10
   5  -5   2  189.58    7.00
  -5  -5  -2  191.48    7.30
  -5  -5  -2  204.18    8.50
  -5  -5  -2  190.08    8.40
   5   5   2  194.68    7.30
   5   5   2  199.28    7.00
   5   5   2  197.48    7.10
  -5   5  -2  202.98    8.10
   5   5   2  189.38    8.20
   6  -5   2   73.19    3.00
  -6  -5  -2   70.29    4.30
  -6  -5  -2   76.79    3.30
   6   5   2   74.19    3.20
   6   5   2   77.09    4.20
   6   5   2   76.99    3.00
   6   5   2   74.49    2.90
  -6   5  -2   65.99    3.60
   7  -5   2   64.89    2.60
  -7  -5  -2   65.89    2.80
   7   5   2   76.19    3.90
   7   5   2   71.59    2.80
   7   5   2   71.29    2.90
  -8  -6   2    8.30    0.80
  -8  -6   2    7.20    0.70
   8   6  -2    6.80    0.50
   8   6  -2    7.00    1.20
  -8   6   2    6.40    1.00
  -7  -6   2  159.48    5.90
  -7  -6   2  160.78    5.90
  -7   6   2  151.48    6.00
   7   6  -2  149.09    6.60
  -7   6   2  142.79    7.20
   7   6  -2  150.48    5.20
   7   6  -2  142.09    5.30
  -6  -6   2   51.79    2.90
  -6  -6   2   57.89    2.50
  -6  -6   2   57.39    2.50
   6   6  -2   61.19    2.60
  -6   6   2   68.49    3.20
   6   6  -2   57.99    3.80
  -6   6   2   60.59    3.20
  -6   6   2   67.49    4.40
   6   6  -2   61.59    2.80
  -5  -6   2   97.29    4.50
   5  -6  -2  115.09    5.00
  -5  -6   2  117.89    6.80
  -5  -6   2  118.19    5.20
  -5   6   2  123.99    5.20
  -5   6   2  126.29    6.50
  -4  -6   2 1059.19   36.30
   4  -6  -2 1082.69   36.90
  -4  -6   2 1027.00   36.70
  -4   6   2  985.60   35.30
  -4   6   2  965.10   34.60
  -4   6   2 1010.00   35.80
  -4   6   2 1006.90   34.30
   3  -6  -2   50.99    2.70
  -3  -6   2   54.49    2.30
  -3  -6   2   49.80    2.50
  -3   6   2   49.70    2.60
   3   6  -2   49.50    2.10
  -3   6   2   50.89    3.30
   2  -6  -2 1253.17   42.00
  -2  -6   2 1231.58   41.20
   2  -6  -2 1153.78   41.10
   2   6  -2 1211.98   39.70
  -2   6   2 1100.09   39.20
  -2   6   2 1158.78   40.50
   2   6  -2 1130.49   39.30
  -2   6   2 1152.58   39.60
   1  -6  -2  203.28    7.90
   1  -6  -2  199.98    7.40
   1  -6  -2  206.18    7.30
  -1   6   2  238.98    8.50
   1   6  -2  247.58    9.00
  -1   6   2  238.58    8.70
  -1   6   2  236.28    9.60
   1   6  -2  238.88    9.70
   0  -6  -2  107.89    4.70
   0  -6  -2  106.69    4.10
   0  -6  -2  110.49    4.50
   0   6  -2   90.29    4.10
   0   6   2   89.99    4.40
   0   6  -2   95.29    4.80
   0   6  -2   86.79    3.90
   0   6   2   95.09    3.40
  -1  -6  -2  559.94   19.90
  -1  -6  -2  539.85   19.20
  -1  -6  -2  562.74   19.70
  -1   6  -2  572.74   20.80
  -1   6  -2  558.14   20.00
   1   6   2  537.75   20.00
  -2  -6  -2   29.20    2.20
  -2  -6  -2   28.30    2.30
  -2  -6  -2   33.50    2.10
  -2   6  -2   32.70    2.80
  -2   6  -2   28.80    2.10
  -3  -6  -2  571.34   20.40
  -3  -6  -2  595.44   21.40
  -3  -6  -2  584.34   21.50
  -3   6  -2  585.14   21.00
  -3   6  -2  570.74   21.80
  -4  -6  -2  110.09    5.50
  -4  -6  -2  114.39    4.60
   4  -6   2  114.09    4.30
  -4  -6  -2  111.29    5.60
  -4  -6  -2  107.39    4.30
   4   6   2  119.79    4.40
   4   6   2  114.19    5.60
  -4   6  -2  131.19    5.70
   4   6   2  115.29    4.70
   5  -6   2  144.39    5.50
  -5  -6  -2  152.28    5.80
  -5  -6  -2  144.79    6.80
  -5   6  -2  149.69    6.50
   5   6   2  147.89    5.60
   5   6   2  145.59    5.30
   5   6   2  141.99    6.50
   6  -6   2  201.58    7.00
  -6  -6  -2  180.48    8.40
  -6  -6  -2  198.58    7.00
  -6  -6  -2  197.68    7.30
  -6   6  -2  177.18    7.70
   6   6   2  200.48    8.10
   6   6   2  198.68    7.10
  -7  -6  -2   16.30    1.80
   7  -6   2   16.10    1.00
   7   6   2   13.70    1.00
   7   6   2   14.20    1.70
  -8  -7   2  149.88    5.30
  -8  -7   2  145.49    5.30
   8   7  -2  158.48    5.50
   8   7  -2  156.08    6.40
  -7  -7   2   22.40    1.30
  -7  -7   2   22.10    1.30
   7   7  -2   17.30    1.00
  -7   7   2   16.90    2.90
   7   7  -2   18.60    0.90
   7   7  -2   19.60    2.00
  -7   7   2   20.10    1.50
  -6  -7   2  245.28    9.00
  -6  -7   2  259.07    9.10
  -6  -7   2  256.37    9.10
   6   7  -2  243.78   10.50
   6   7  -2  251.07    9.00
  -6   7   2  247.48    9.20
  -6   7   2  256.97   11.20
  -6   7   2  275.77    9.70
   5  -7  -2  425.66   15.50
  -5  -7   2  393.56   14.90
  -5  -7   2  423.56   14.60
  -5  -7   2  420.96   14.60
  -5  -7   2  422.06   14.60
  -5   7   2  438.26   17.80
   5   7  -2  441.36   15.50
  -5   7   2  442.26   15.80
   5   7  -2  464.05   15.70
   5   7  -2  423.66   16.90
  -5   7   2  473.45   16.20
  -4  -7   2   47.80    2.30
  -4  -7   2   44.90    2.50
   4  -7  -2   49.80    2.80
  -4   7   2   42.70    3.20
  -4   7   2   42.20    2.30
  -4   7   2   39.60    2.50
  -3  -7   2  647.34   22.00
   3  -7  -2  628.74   22.70
  -3   7   2  633.84   22.90
   3   7  -2  633.54   21.20
  -3   7   2  571.04   21.50
  -3   7   2  625.14   21.90
   2  -7  -2  227.98    8.70
  -2  -7   2  218.58    7.80
  -2   7   2  219.98    8.00
   2   7  -2  224.78    8.00
  -2   7   2  223.58    9.30
  -2   7   2  212.68    8.30
   2   7  -2  221.38    8.30
   1  -7  -2  446.46   15.50
   1  -7  -2  449.66   16.30
  -1   7   2  460.95   17.00
   1   7  -2  441.16   15.70
  -1   7   2  462.05   15.60
   1   7  -2  452.25   16.30
   1   7  -2  424.56   17.00
  -1   7   2  458.15   15.90
   0  -7  -2  559.84   20.30
   0  -7  -2  581.74   20.00
   0  -7  -2  592.64   20.80
   0   7  -2  533.75   20.10
   0   7   2  521.55   19.50
   0   7  -2  537.95   19.00
   0   7   2  529.05   18.20
  -1  -7  -2  157.48    6.00
  -1  -7  -2  155.28    6.40
  -1  -7  -2  163.98    6.80
  -1   7  -2  154.48    7.50
   1   7   2  157.28    6.80
  -1   7  -2  162.98    6.80
  -1   7  -2  155.08    5.90
  -2  -7  -2  792.72   27.50
  -2  -7  -2  734.43   26.70
  -2  -7  -2  771.02   27.10
  -2   7  -2  852.31   29.80
  -2   7  -2  830.92   28.80
  -2   7  -2  812.32   30.50
  -3  -7  -2   21.50    2.20
  -3  -7  -2   19.80    1.90
  -3  -7  -2   18.90    1.40
  -3   7  -2   15.60    2.40
  -3   7  -2   15.50    1.80
  -3   7  -2   14.50    1.20
  -4  -7  -2  559.44   20.90
  -4  -7  -2  562.24   19.80
  -4  -7  -2  578.24   19.50
   4  -7   2  587.04   19.50
  -4  -7  -2  521.25   19.90
   4   7   2  567.94   20.20
   4   7   2  560.74   19.90
  -4   7  -2  614.64   21.50
   4   7   2  555.74   19.90
   4   7   2  570.84   21.20
  -4   7  -2  603.74   20.40
  -5  -7  -2   97.69    4.00
   5  -7   2  110.99    4.10
  -5  -7  -2  103.49    4.30
  -5  -7  -2  108.49    4.00
  -5   7  -2  102.99    5.00
   5   7   2   99.59    5.00
  -5   7  -2  101.69    4.20
   5   7   2  103.19    3.80
   5   7   2  104.89    4.20
  -6  -7  -2   96.29    3.70
  -6  -7  -2   92.39    3.90
   6  -7   2  104.49    3.70
   6   7   2  109.39    5.00
   6   7   2  109.89    4.10
  -6   7  -2   94.89    4.10
   7   7   2   58.29    2.90
   7   7   2   55.89    2.30
  -7  -8   2  279.47    9.80
  -7  -8   2  278.17    9.80
   7   8  -2  263.17    9.10
  -7   8   2  274.97   10.90
  -7   8   2  245.78    9.60
   7   8  -2  268.37   10.20
   7   8  -2  266.77    9.10
  -6  -8   2   27.00    1.50
  -6  -8   2   26.90    1.40
  -6  -8   2   24.20    1.40
   6   8  -2   18.00    1.10
  -6   8   2   18.00    1.30
  -6   8   2   21.30    1.60
   6   8  -2   17.00    2.10
  -5  -8   2   80.89    3.20
  -5  -8   2   80.09    3.20
  -5  -8   2   80.09    3.20
  -5  -8   2   77.29    3.50
   5  -8  -2   80.79    4.00
   5   8  -2  100.29    4.00
  -5   8   2  115.59    6.40
  -5   8   2  110.29    4.60
   5   8  -2  100.79    5.30
  -5   8   2  103.49    4.30
  -4  -8   2   92.59    3.70
  -4  -8   2   99.69    3.90
  -4  -8   2   93.09    3.70
  -4  -8   2   92.29    3.60
   4  -8  -2   94.99    4.60
   4   8  -2   96.49    3.70
  -4   8   2   94.99    4.20
  -4   8   2   90.59    5.70
   4   8  -2   98.19    4.90
  -4   8   2   97.49    4.00
  -3  -8   2   34.30    1.70
   3  -8  -2   35.30    2.40
  -3   8   2   34.70    3.10
   3   8  -2   35.10    1.60
  -3   8   2   36.20    2.30
  -3   8   2   33.10    1.90
   2  -8  -2  583.54   21.10
   2   8  -2  585.64   21.30
  -2   8   2  623.94   21.00
  -2   8   2  602.54   22.60
   2   8  -2  613.74   21.00
  -2   8   2  595.24   21.40
   1  -8  -2   40.30    2.60
   1  -8  -2   37.10    1.70
   1   8  -2   36.70    3.10
  -1   8   2   37.40    1.80
   1   8  -2   38.70    2.30
  -1   8   2   37.70    3.00
  -1   8   2   35.20    1.90
   1   8  -2   37.80    2.00
   0  -8  -2  506.85   17.50
   0  -8  -2  496.55   18.50
   0   8  -2  451.65   16.50
   0   8  -2  452.45   17.70
   0   8   2  447.26   17.20
   0   8  -2  449.06   15.90
   0   8   2  461.85   15.60
  -1  -8  -2  748.33   26.70
  -1  -8  -2  763.32   27.30
  -1  -8  -2  765.02   26.30
  -1   8  -2  695.63   26.20
  -1   8  -2  698.23   25.20
  -1   8  -2  701.63   24.30
   2  -8   2   47.90    2.20
  -2  -8  -2   49.80    3.20
  -2  -8  -2   49.99    3.10
  -2  -8  -2   54.09    2.90
  -2  -8  -2   52.39    2.50
  -2  -8  -2   50.79    2.40
   2   8   2   47.40    3.20
  -2   8  -2   52.39    3.20
   2   8   2   48.90    2.20
  -2   8  -2   46.80    3.90
  -2   8  -2   46.70    2.40
  -3  -8  -2  181.58    7.30
  -3  -8  -2  188.28    6.80
  -3  -8  -2  185.18    6.90
  -3  -8  -2  184.88    8.10
   3  -8   2  186.78    6.80
  -3   8  -2  169.98    6.50
  -3   8  -2  173.68    7.50
   3   8   2  157.78    6.30
   3   8   2  170.88    6.10
   3   8   2  165.28    7.30
   3   8   2  162.08    7.20
  -4  -8  -2   33.70    2.10
   4  -8   2   35.70    1.80
  -4  -8  -2   35.80    1.80
  -4  -8  -2   37.10    1.80
   4   8   2   23.30    2.50
   4   8   2   29.60    1.80
  -4   8  -2   31.20    1.80
   4   8   2   29.60    2.50
   4   8   2   28.90    1.40
  -4   8  -2   30.00    2.50
  -5  -8  -2    2.90    0.50
  -5  -8  -2    3.10    0.60
   5  -8   2    1.90    0.70
  -5   8  -2    7.90    1.40
   5   8   2    8.20    1.00
  -5   8  -2    7.30    1.00
   5   8   2    5.90    1.20
  -6  -8  -2   46.00    2.00
  -6  -8  -2   49.80    2.00
   6  -8   2   51.89    2.00
  -6  -8  -2   46.80    1.90
  -6   8  -2   40.10    2.00
   6   8   2   45.40    2.70
   6   8   2   45.90    2.00
  -7  -9   2   98.29    3.50
  -7  -9   2   90.79    3.40
  -7  -9   2   96.89    3.50
   7   9  -2  104.39    3.80
   7   9  -2  106.69    3.80
   7   9  -2  109.59    4.70
  -7   9   2  113.49    5.20
  -6  -9   2   88.09    3.40
  -6  -9   2   87.59    3.40
  -6  -9   2   92.29    3.50
   6   9  -2   98.99    4.90
  -6   9   2  110.39    5.80
   6   9  -2  100.29    3.80
  -6   9   2   98.69    3.90
  -5  -9   2  194.48    7.10
  -5  -9   2  197.88    7.10
  -5  -9   2  196.98    7.10
  -5   9   2  177.08    6.70
   5   9  -2  181.18    6.50
   5   9  -2  167.28    7.80
  -5   9   2  188.98    8.80
  -4  -9   2   75.29    3.40
  -4  -9   2   77.69    3.10
  -4  -9   2   77.79    3.00
  -4  -9   2   74.39    3.10
   4  -9  -2   81.59    4.00
  -4   9   2   78.79    5.30
  -4   9   2   82.39    3.50
   4   9  -2   84.69    4.40
   4   9  -2   77.09    3.20
  -3  -9   2  494.85   17.30
  -3  -9   2  486.75   17.70
   3  -9  -2  517.05   18.40
  -3   9   2  463.95   17.90
  -3   9   2  480.15   16.40
   3   9  -2  469.95   16.20
   3   9  -2  392.66   16.10
   3   9  -2  497.35   17.50
  -3   9   2  466.15   16.30
  -3   9   2  485.05   18.30
  -2  -9   2  150.88    5.50
   2  -9  -2  156.38    6.60
  -2  -9   2  147.79    6.00
   2   9  -2  158.08    7.00
  -2   9   2  158.28    7.60
   2   9  -2  162.48    6.00
  -2   9   2  158.78    6.00
   1  -9  -2  375.26   14.00
   1  -9  -2  402.16   14.70
  -1  -9   2  391.86   13.50
  -1  -9   2  387.76   14.00
   1   9  -2  412.96   15.90
  -1   9   2  415.06   14.70
  -1   9   2  429.26   14.70
  -1   9   2  416.36   16.20
  -1   9   2  417.56   16.00
   1   9  -2  427.16   14.90
   0  -9   2  461.45   16.10
   0  -9  -2  450.75   16.30
   0  -9  -2  481.35   17.40
   0  -9  -2  473.05   16.80
   0  -9   2  460.55   16.50
   0  -9  -2  463.85   16.10
   0   9   2  453.25   16.00
   0   9  -2  466.65   15.90
   0   9   2  460.85   17.40
   0   9   2  444.56   17.00
   0   9  -2  451.15   17.20
  -1  -9  -2   10.10    1.80
   1  -9   2    8.00    1.00
  -1  -9  -2    6.70    0.90
  -1  -9  -2    7.40    0.90
   1  -9   2    7.00    0.80
  -1  -9  -2    7.70    1.20
   1   9   2    8.80    1.60
  -1   9  -2    7.40    1.60
   1   9   2    6.90    1.40
  -1   9  -2    7.40    0.90
   1   9   2    7.50    0.80
  -1   9  -2    7.10    0.80
  -2  -9  -2  184.28    7.10
  -2  -9  -2  190.78    8.30
  -2  -9  -2  185.98    7.20
  -2  -9  -2  200.88    7.70
  -2  -9  -2  196.98    7.00
   2  -9   2  192.78    6.90
  -2   9  -2  204.88    7.60
  -2   9  -2  205.58    9.10
  -2   9  -2  224.88    8.10
   2   9   2  221.88    7.80
   2   9   2  213.88    8.80
   2   9   2  215.38    9.00
  -2   9  -2  206.38    8.90
   3  -9   2   86.79    3.40
  -3  -9  -2   86.39    4.00
  -3  -9  -2   84.99    3.50
  -3  -9  -2   82.49    3.50
  -3   9  -2   85.69    4.60
   3   9   2   86.69    3.70
  -3   9  -2   92.89    3.80
   3   9   2   85.39    4.50
   3   9   2   86.49    3.40
   3   9   2   86.39    4.60
   4  -9   2  249.78    8.70
  -4  -9  -2  235.28    9.00
  -4  -9  -2  244.78    8.70
  -4  -9  -2  242.48    8.70
   4   9   2  228.08    8.30
  -4   9  -2  215.98    9.20
  -4   9  -2  234.58    8.50
   4   9   2  223.98    7.90
   4   9   2  226.88    9.10
  -5  -9  -2  123.39    4.60
  -5  -9  -2  121.99    4.60
  -5  -9  -2  126.99    4.70
   5  -9   2  137.69    4.70
   5   9   2  131.49    5.70
  -5   9  -2  131.69    5.10
   5   9   2  135.49    5.00
  -6 -10   2   68.69    2.60
  -6 -10   2   66.19    2.60
  -6 -10   2   66.79    2.60
   6  10  -2   63.29    3.30
  -6  10   2   63.29    3.90
   6  10  -2   62.49    2.30
  -6  10   2   59.89    2.40
  -6  10   2   56.29    3.40
   6  10  -2   63.79    2.40
  -5 -10   2   85.69    3.30
  -5 -10   2   80.39    3.40
  -5 -10   2   88.49    3.30
   5  10  -2   81.09    3.10
  -5  10   2   82.49    5.00
  -5  10   2   84.19    4.60
  -5  10   2   82.89    3.30
   5  10  -2   67.59    4.10
  -4 -10   2  333.97   11.50
  -4 -10   2  338.47   11.80
  -4 -10   2  313.97   11.50
  -4  10   2  335.37   13.30
   4  10  -2  320.37   11.60
  -4  10   2  342.57   11.90
   4  10  -2  333.47   12.90
  -4  10   2  327.67   13.70
  -3 -10   2   36.30    1.70
  -3 -10   2   37.60    2.10
   3  10  -2   36.30    1.80
  -3  10   2   38.70    2.00
   3  10  -2   37.60    2.70
  -3  10   2   36.80    3.20
  -3  10   2   35.20    3.50
  -2 -10   2  204.08    7.40
  -2 -10   2  214.38    7.90
   2 -10  -2  205.28    8.50
   2  10  -2  200.18    8.40
  -2  10   2  206.88    9.00
  -2  10   2  193.48    7.20
   2  10  -2  193.18    7.20
  -2  10   2  203.68    7.40
  -2  10   2  197.88    8.70
  -1 -10   2    2.90    0.60
  -1 -10   2    3.20    0.80
   1 -10  -2    2.80    0.80
   1 -10  -2    4.00    1.20
  -1  10   2    3.90    0.60
  -1  10   2    4.70    1.40
   1  10  -2    4.80    1.20
  -1  10   2    6.10    1.50
   1  10  -2    3.50    0.70
  -1  10   2    4.30    0.50
   0 -10   2   17.70    1.20
   0 -10  -2   18.80    2.00
   0 -10  -2   19.50    1.70
   0 -10   2   19.60    1.50
   0  10  -2   17.60    1.40
   0  10   2   18.10    1.30
   0  10   2   17.60    2.10
   0  10   2   16.00    2.20
   0  10  -2   16.70    2.10
  -1 -10  -2  210.38    7.90
   1 -10   2  193.88    7.50
  -1 -10  -2  194.48    7.30
   1 -10   2  197.28    7.10
   1  10   2  185.38    8.00
  -1  10  -2  184.78    6.60
   1  10   2  184.58    6.80
   1  10   2  179.78    7.70
  -1  10  -2  181.38    8.00
  -2 -10  -2    1.20    0.80
  -2 -10  -2    1.70    0.60
   2 -10   2    1.90    0.60
  -2 -10  -2    1.40    0.60
   2  10   2    1.50    1.00
   2  10   2    1.40    0.50
  -2  10  -2    1.70    0.40
  -2  10  -2    2.10    1.20
   2  10   2    2.30    1.10
  -2  10  -2    1.30    0.60
  -3 -10  -2  329.27   11.60
  -3 -10  -2  328.27   11.60
   3 -10   2  335.57   11.60
  -3 -10  -2  326.97   12.10
  -3  10  -2  291.67   12.20
  -3  10  -2  322.67   12.50
   3  10   2  298.67   12.20
   3  10   2  330.67   12.30
  -3  10  -2  320.47   11.40
   3  10   2  334.47   11.10
   4 -10   2   47.30    2.00
  -4 -10  -2   45.60    2.00
  -4 -10  -2   43.60    1.90
  -4 -10  -2   40.90    2.20
  -4  10  -2   37.90    2.70
   4  10   2   33.40    2.60
  -4  10  -2   37.20    1.90
   4  10   2   37.60    2.50
   4  10   2   34.70    1.50
   4  10   2   36.10    1.90
  -5 -10  -2   46.30    1.90
   5 -10   2   48.60    1.90
  -5 -10  -2   46.40    1.90
  -5  10  -2   38.50    2.30
   5  10   2   43.90    2.40
  -5 -11   2  113.59    4.20
  -5 -11   2  120.19    4.20
  -5  11   2  128.39    4.60
  -5  11   2  126.59    5.50
  -5  11   2  126.09    5.80
   5  11  -2  111.89    5.30
   5  11  -2  128.39    4.50
  -4 -11   2    3.00    0.60
  -4 -11   2    4.10    0.60
  -4  11   2    8.30    1.70
   4  11  -2    5.80    1.20
  -4  11   2    5.70    1.60
   4  11  -2    5.30    0.60
  -4  11   2    3.40    0.60
  -3 -11   2  179.58    6.70
  -3 -11   2  177.68    6.40
  -3  11   2  196.48    6.90
  -3  11   2  181.58    8.00
   3  11  -2  172.18    6.60
   3  11  -2  189.28    7.70
  -3  11   2  183.18    8.30
  -2 -11   2   82.19    3.50
  -2 -11   2   75.89    3.00
  -2  11   2   83.49    4.60
  -2  11   2   86.69    3.50
  -2  11   2   86.59    4.90
   2  11  -2   87.39    4.40
  -1 -11   2  364.66   13.10
   1 -11  -2  361.66   13.20
   1  11  -2  344.27   13.20
  -1  11   2  343.07   13.50
  -1  11   2  339.97   12.10
  -1  11   2  347.97   13.30
   0 -11  -2  232.18    9.00
   0 -11   2  238.48    8.50
   0 -11   2  249.38    8.90
   0  11   2  232.18    8.30
   0  11   2  228.78    9.30
   0  11  -2  227.18    9.30
   0  11   2  226.08    9.50
  -1 -11  -2  234.28    8.60
   1 -11   2  232.78    8.80
   1 -11   2  240.08    8.50
  -1 -11  -2  252.87    9.20
   1  11   2  232.78    9.40
   1  11   2  231.28    8.20
   1  11   2  229.38    9.20
  -1  11  -2  221.78    9.30
  -2 -11  -2  220.78    8.30
   2 -11   2  218.98    7.70
  -2 -11  -2  215.88    7.80
   2  11   2  210.98    7.60
  -2  11  -2  203.78    8.70
   2  11   2  211.58    8.50
   2  11   2  220.18    8.60
   3 -11   2   24.90    1.30
  -3 -11  -2   24.20    1.30
  -3 -11  -2   23.80    1.30
  -3 -11  -2   24.10    1.60
   3  11   2   24.50    1.20
  -3  11  -2   23.70    1.70
  -3  11  -2   23.90    2.20
   3  11   2   18.40    1.90
   3  11   2   27.00    2.10
  -4 -11  -2  164.38    5.90
  -4 -11  -2  174.08    6.00
  -4 -11  -2  161.18    6.10
   4 -11   2  174.58    6.00
   4  11   2  170.38    6.40
  -4  11  -2  162.28    6.40
   4  11   2  149.39    5.50
  -4 -12   2  115.29    4.40
  -4 -12   2  126.09    4.30
  -4  12   2  129.99    5.10
  -4  12   2  112.79    5.20
  -4  12   2  115.29    4.30
   4  12  -2  104.69    4.90
   4  12  -2  116.19    4.20
  -3 -12   2   31.20    1.70
  -3 -12   2   33.30    1.40
  -3  12   2   32.60    1.60
  -3  12   2   32.10    2.30
   3  12  -2   29.90    1.40
  -3  12   2   33.50    2.70
   3  12  -2   34.50    2.20
  -2 -12   2  317.27   11.30
  -2  12   2  305.87   11.70
   2  12  -2  312.27   11.60
  -2  12   2  301.77   11.90
  -2  12   2  304.77   10.70
  -1 -12   2   91.69    3.80
  -1  12   2   79.09    4.20
   1  12  -2   82.49    4.00
  -1  12   2   80.29    3.10
  -1  12   2   80.69    4.00
   0 -12   2  111.09    4.30
   0 -12  -2  105.59    4.40
   0  12   2   97.29    4.70
   0  12   2   95.69    4.50
   0  12   2   94.39    3.70
   0  12  -2   92.89    4.50
   1 -12   2  262.27    9.70
  -1 -12  -2  284.27   10.00
   1 -12   2  272.97    9.50
   1  12   2  271.47    9.60
   1  12   2  271.27   10.40
  -1  12  -2  267.07   10.40
   1  12   2  281.57   10.50
   2 -12   2   22.70    1.20
  -2 -12  -2   21.60    1.10
  -2 -12  -2   26.20    1.60
   2  12   2   21.00    1.80
   2  12   2   21.10    1.10
   2  12   2   20.10    1.80
  -2  12  -2   20.00    1.80
   9   0  -3   95.69    3.50
   9   0  -3   92.49    4.80
  -9   0   3   95.19    4.00
   9   0  -3   96.19    3.60
  -8   0   3   57.39    2.40
   8   0  -3   54.29    3.70
  -8   0   3   54.39    3.90
  -8   0   3   59.89    2.90
   8   0  -3   54.19    2.30
   8   0  -3   54.29    2.40
  -7   0   3  190.08    7.10
   7   0  -3  170.48    6.50
   7   0  -3  188.88    6.70
   7   0  -3  181.48    6.60
  -7   0   3  171.78    6.70
   7   0  -3  177.48    7.90
  -7   0   3  192.98    8.60
   7   0  -3  199.88    9.90
   6   0  -3   12.10    1.30
   6   0  -3   12.20    1.70
  -6   0   3   10.60    1.80
  -6   0   3   12.80    1.20
  -6   0   3   12.10    1.20
  -5   0   3  136.29    6.20
   5   0  -3  144.09    6.10
   5   0  -3  141.19    5.70
  -5   0   3  137.59    5.40
   4   0  -3   59.99    2.20
  -4   0   3   64.09    2.60
   4   0  -3   57.99    2.80
  -3   0   3   20.90    1.10
   3   0  -3   22.30    1.40
   3   0  -3   20.90    1.10
   3   0  -3   23.60    1.20
  -3   0   3   20.80    1.00
  -3   0   3   18.50    2.50
   3   0  -3   20.90    2.40
   2   0  -3  142.99    5.40
  -2   0   3  145.49    5.10
   2   0  -3  138.99    6.70
  -2   0   3  142.89    7.10
   2   0  -3  142.29    6.40
   2   0  -3  143.99    5.40
  -2   0   3  148.29    5.40
   1   0  -3  393.76   13.60
   1   0  -3  395.06   14.90
  -1   0   3  384.26   15.20
  -1   0   3  406.76   13.70
   1   0  -3  386.56   14.90
   1   0  -3  366.46   13.60
   0   0  -3 4317.27  153.98
   0   0  -3 4493.95  153.78
   0   0  -3 4583.24  156.88
   0   0   3 4505.85  154.38
  -1   0  -3   57.29    2.70
  -1   0  -3   58.59    3.90
   1   0   3   59.89    2.90
  -1   0  -3   63.49    4.20
   2   0   3  283.47   10.70
   3   0   3  479.95   17.60
   4   0   3  106.39    5.20
   5   0   3   58.29    2.50
   6   0   3   17.20    1.20
   7   0   3   66.49    2.70
  -9  -1   3  136.09    5.00
  -9  -1   3  133.09    5.40
   9  -1  -3  141.69    5.00
   9  -1  -3  133.59    4.90
   9   1  -3  125.19    4.60
   9   1  -3  129.89    4.70
   9   1  -3  126.89    5.90
  -9   1   3  129.89    5.10
  -8  -1   3  135.09    5.00
   8  -1  -3  129.99    6.40
   8  -1  -3  131.99    5.00
  -8  -1   3  138.49    5.50
  -8  -1   3  123.79    6.80
   8  -1  -3  130.69    4.80
  -8   1   3  145.99    7.20
   8   1  -3  150.98    6.90
   8   1  -3  146.89    5.30
  -8   1   3  143.99    5.50
  -8   1   3  156.88    6.00
   8   1  -3  144.59    5.50
   7  -1  -3  306.27   11.50
   7  -1  -3  332.37   11.60
  -7  -1   3  339.37   13.50
   7  -1  -3  317.67   13.00
  -7  -1   3  325.47   11.50
  -7  -1   3  347.47   12.00
   7   1  -3  309.97   12.60
  -7   1   3  344.67   11.90
  -7   1   3  345.57   13.40
   7   1  -3  314.07   11.30
   7   1  -3  319.47   11.20
   7   1  -3  319.37   11.40
  -7   1   3  315.47   11.40
  -6  -1   3  525.05   18.90
  -6  -1   3  539.15   20.20
  -6  -1   3  551.84   19.00
   6  -1  -3  537.85   19.80
   6   1  -3  586.84   21.70
  -6   1   3  600.14   22.00
   6   1  -3  583.24   21.20
  -6   1   3  593.84   20.70
  -5  -1   3  178.58    6.50
   5  -1  -3  177.28    7.10
   5  -1  -3  170.08    6.80
  -5  -1   3  162.48    7.30
   5   1  -3  190.28    7.40
   5   1  -3  185.68    7.70
  -5   1   3  188.78    7.00
  -5   1   3  181.58    7.80
   4  -1  -3 3237.28  115.79
  -4  -1   3 3518.05  117.39
  -4  -1   3 3271.97  116.09
   4  -1  -3 3691.13  118.59
   4   1  -3 3792.32  126.39
  -4   1   3 3482.45  123.79
   4   1  -3 3691.43  123.79
   3  -1  -3  765.92   26.20
  -3  -1   3  740.43   28.70
  -3  -1   3  739.83   25.70
   3  -1  -3  765.12   25.80
  -3  -1   3  779.32   25.90
   3  -1  -3  746.93   27.80
   3   1  -3  743.33   24.20
   3   1  -3  711.73   23.70
   3   1  -3  695.63   25.90
   3   1  -3  665.93   25.70
  -3   1   3  661.93   23.70
  -3   1   3  684.93   26.40
   3   1  -3  730.03   23.90
  -3   1   3  720.23   23.90
  -3   1   3  632.94   23.90
  -2  -1   3  660.43   23.10
   2  -1  -3  699.63   23.40
   2  -1  -3  677.03   23.40
   2  -1  -3  681.53   24.30
   2  -1  -3  686.43   24.90
  -2  -1   3  662.63   25.60
   2   1  -3  710.93   24.40
  -2   1   3  687.43   24.30
  -2   1   3  730.73   26.20
   2   1  -3  680.03   25.80
  -2   1   3  724.03   24.00
   2   1  -3  703.13   24.20
   2   1  -3  688.23   25.80
   1  -1  -3  897.91   29.80
   1  -1  -3  862.31   31.00
   1  -1  -3  825.52   29.70
   1  -1  -3  886.11   31.30
   1   1  -3  869.61   31.00
  -1   1   3  870.01   29.70
   1   1  -3  839.22   29.60
  -1   1   3  865.21   31.00
   1   1  -3  866.81   31.40
   0  -1  -3    6.70    1.40
   0  -1  -3    9.20    0.90
   0  -1  -3    8.60    1.50
   0  -1   3    8.80    1.00
   0   1  -3    3.20    1.10
   0   1   3    7.20    1.00
   0   1   3    4.10    0.80
   0   1  -3    8.00    1.80
   0   1  -3    4.90    0.70
  -1  -1  -3 1589.44   57.29
  -1  -1  -3 1591.94   57.39
   1  -1   3 1696.43   55.79
  -1   1  -3 1783.32   62.69
  -1   1  -3 1733.83   61.89
  -1   1  -3 1700.43   60.29
   1   1   3 1790.72   60.69
   1   1   3 1834.22   60.59
   2  -1   3   42.90    2.40
  -2   1  -3   50.29    2.50
   2   1   3   54.09    2.90
   3  -1   3  740.93   26.30
   3   1   3  787.72   28.10
   4  -1   3  128.29    5.90
   4   1   3  132.29    6.10
   5  -1   3   52.19    2.20
   5   1   3   47.00    2.30
   5   1   3   48.80    2.10
   5   1   3   48.20    2.00
  -6  -1  -3  360.36   13.10
   6  -1   3  348.67   12.40
   6   1   3  365.06   12.80
   7  -1   3    6.80    0.70
   7   1   3    7.50    0.70
   9  -2  -3   54.69    2.20
  -9  -2   3   48.50    2.10
   9  -2  -3   46.70    2.10
   9   2  -3   44.20    1.90
  -9   2   3   48.50    2.40
  -9   2   3   48.00    2.00
   9   2  -3   44.90    2.00
   9   2  -3   43.50    3.00
   8  -2  -3  105.29    5.80
  -8  -2   3  122.89    4.40
   8  -2  -3  117.29    4.40
  -8  -2   3  112.89    4.80
  -8   2   3  107.49    4.50
   8   2  -3   95.79    5.50
   8   2  -3  103.99    5.20
   8   2  -3  104.89    3.80
  -8   2   3   97.19    5.50
   8   2  -3  105.69    4.00
  -8   2   3  102.69    4.30
  -7  -2   3  158.98    6.00
  -7  -2   3  165.78    6.40
   7  -2  -3  166.88    6.00
   7  -2  -3  160.48    7.50
   7   2  -3  166.28    5.90
   7   2  -3  167.28    6.10
  -7   2   3  167.38    7.80
   7   2  -3  162.38    7.20
   7   2  -3  164.38    6.00
  -7   2   3  165.58    6.20
  -7   2   3  175.28    6.60
  -6  -2   3  104.69    5.80
  -6  -2   3  101.69    4.30
  -6  -2   3  101.99    4.30
  -6   2   3  109.99    4.50
   6   2  -3  107.79    4.90
  -6   2   3  107.39    5.50
   6   2  -3  110.29    5.40
  -5  -2   3  462.65   16.50
   5  -2  -3  473.75   17.40
   5   2  -3  459.75   16.90
  -5   2   3  457.95   16.20
  -5   2   3  426.46   16.90
   5   2  -3  476.25   16.60
   4  -2  -3  116.39    4.60
   4  -2  -3  115.09    4.70
  -4  -2   3  123.79    4.60
  -4  -2   3  116.29    4.30
   4   2  -3  126.19    5.40
   4   2  -3  125.69    5.10
   4   2  -3  122.79    4.40
  -4   2   3  122.09    4.80
  -3  -2   3  838.02   28.40
   3  -2  -3  827.62   30.40
   3  -2  -3  863.01   28.50
   3  -2  -3  830.12   28.80
  -3  -2   3  852.51   31.90
  -3  -2   3  852.31   28.60
   3  -2  -3  785.22   28.70
   3   2  -3  904.51   29.40
  -3   2   3  880.11   29.10
   3   2  -3  803.82   31.20
  -3   2   3  822.42   29.30
   3   2  -3  880.81   29.10
  -3   2   3  805.42   28.90
   3   2  -3  834.42   31.20
   3   2  -3  855.91   28.90
  -3   2   3  843.12   31.80
   2  -2  -3  706.63   24.70
   2  -2  -3  745.63   24.70
  -2  -2   3  690.83   27.10
  -2  -2   3  715.73   24.40
   2  -2  -3  694.63   26.00
  -2  -2   3  699.23   24.30
   2  -2  -3  739.13   24.70
   2  -2  -3  731.03   25.50
   2   2  -3  759.82   26.30
  -2   2   3  759.72   28.10
  -2   2   3  755.32   26.50
  -2   2   3  793.32   26.10
   2   2  -3  761.02   28.40
  -2   2   3  739.13   26.00
   2   2  -3  770.22   28.00
   2   2  -3  771.02   26.40
   1  -2  -3  968.00   34.00
   1  -2  -3 1003.70   35.20
   1  -2  -3 1010.10   35.60
   1  -2  -3  990.90   34.10
   1   2  -3 1022.40   36.40
  -1   2   3 1065.89   37.70
   1   2  -3 1059.19   37.90
   1   2  -3 1093.49   38.80
  -1   2   3 1078.89   36.60
   0  -2  -3  828.02   30.40
   0  -2  -3  836.62   28.70
   0   2  -3  802.82   29.40
   0   2  -3  835.42   30.80
   0   2  -3  762.32   28.10
   0   2   3  823.92   28.40
   0   2   3  861.11   28.30
   1  -2   3  115.09    4.70
   1   2   3  120.79    4.90
  -1   2  -3  111.59    7.00
   1   2   3  121.09    4.70
  -1   2  -3  112.99    5.70
  -1   2  -3  111.19    4.50
   2  -2   3  177.18    6.90
  -2  -2  -3  168.78    6.60
   2   2   3  140.89    6.00
  -3  -2  -3  838.92   29.30
  -3  -2  -3  855.51   29.60
   3  -2   3  843.62   29.80
   3   2   3  895.11   31.70
  -4  -2  -3  107.89    4.90
  -4  -2  -3  107.99    4.60
   4   2   3  121.69    5.80
  -5  -2  -3  489.85   17.30
   5  -2   3  459.85   16.50
   5   2   3  457.75   15.50
   5   2   3  436.86   15.40
   5   2   3  444.76   15.60
  -6  -2  -3   22.30    1.90
   6  -2   3   19.90    1.20
   6   2   3   21.30    1.30
   6   2   3   21.30    2.70
   6   2   3   19.90    1.40
   7  -2   3   93.79    3.40
  -7  -2  -3   91.49    3.60
   7   2   3  102.29    3.80
   9  -3  -3  134.59    4.80
  -9  -3   3  129.99    4.80
   9   3  -3  119.09    5.40
   9   3  -3  113.79    4.40
  -9   3   3  118.49    4.80
  -9   3   3  123.19    4.40
   9   3  -3  121.09    4.30
  -8  -3   3   32.30    1.60
  -8  -3   3   24.60    1.90
   8  -3  -3   27.40    1.50
   8   3  -3   22.20    1.10
   8   3  -3   23.80    2.30
  -8   3   3   21.90    2.50
  -8   3   3   23.10    1.40
   8   3  -3   22.40    1.70
  -8   3   3   23.50    1.70
   7  -3  -3  242.68    8.80
  -7  -3   3  248.08    8.80
  -7  -3   3  245.98    9.20
   7   3  -3  282.97    9.60
  -7   3   3  274.27   11.60
   7   3  -3  274.57   11.00
  -7   3   3  279.97   10.30
  -7   3   3  273.07    9.90
   7   3  -3  276.77    9.70
  -6  -3   3  125.99    5.30
  -6  -3   3  131.19    5.20
  -6   3   3  107.09    5.60
   6   3  -3  112.99    5.60
   6   3  -3  114.19    5.10
  -6   3   3  112.59    4.60
  -5  -3   3    7.90    0.80
  -5  -3   3    6.90    0.90
  -5   3   3    4.60    0.90
   5   3  -3    6.40    1.20
   5   3  -3    6.10    1.00
  -5   3   3    4.70    1.20
  -4  -3   3  607.54   21.00
  -4  -3   3  619.84   21.30
   4  -3  -3  603.44   21.40
   4   3  -3  629.54   21.30
   4   3  -3  620.94   22.10
  -4   3   3  616.64   21.80
   4   3  -3  628.54   22.40
  -3  -3   3  278.87    9.50
   3  -3  -3  253.07    9.50
   3  -3  -3  261.67    9.20
  -3  -3   3  258.27    9.20
   3   3  -3  305.47   10.50
   3   3  -3  288.07   10.80
  -3   3   3  300.27   10.60
   3   3  -3  296.27   10.30
   3   3  -3  290.87   14.00
  -3   3   3  289.37   10.90
   2  -3  -3  454.05   17.00
   2  -3  -3  500.25   16.80
   2  -3  -3  506.95   17.00
   2  -3  -3  475.45   17.00
  -2  -3   3  501.75   16.60
   2  -3  -3  484.45   18.40
  -2   3   3  446.46   15.40
   2   3  -3  442.06   15.70
   2   3  -3  431.26   17.20
   2   3  -3  458.75   15.60
   2   3  -3  449.76   18.20
  -2   3   3  442.96   15.90
  -2   3   3  448.16   15.20
  -2   3   3  432.06   17.40
   1  -3  -3  541.45   19.00
   1  -3  -3  557.04   19.00
   1  -3  -3  538.05   20.50
  -1   3   3  521.25   18.30
   1   3  -3  523.15   20.10
   1   3  -3  524.55   21.40
  -1   3   3  554.74   19.10
   1   3  -3  576.94   19.20
   1   3  -3  525.65   18.70
   0  -3  -3   81.89    3.70
   0  -3  -3   86.19    3.50
   0  -3  -3   89.39    5.00
   0  -3  -3   92.59    3.60
   0   3   3   79.59    3.60
   0   3   3   81.19    3.60
   0   3  -3   86.79    5.90
  -1  -3  -3 1137.89   39.10
   1   3   3 1255.87   43.80
   1   3   3 1278.07   43.60
  -2  -3  -3   43.90    2.40
  -2  -3  -3   43.50    2.30
   2   3   3   47.90    2.90
   2   3   3   56.99    3.20
  -3  -3  -3  342.47   12.90
  -3  -3  -3  360.26   13.00
   3   3   3  413.96   15.60
  -3   3  -3  418.56   15.90
  -4  -3  -3   35.60    2.50
  -4  -3  -3   32.60    2.20
   4   3   3   36.60    2.90
  -5  -3  -3   24.90    2.50
  -5  -3  -3   31.10    2.30
   5  -3   3   28.90    1.50
   5   3   3   26.50    1.40
   5   3   3   26.40    1.50
   5   3   3   24.60    1.60
   5   3   3   28.60    2.40
  -6  -3  -3  184.48    7.70
  -6  -3  -3  178.38    6.70
   6  -3   3  180.08    6.50
   6   3   3  202.98    7.20
   6   3   3  199.78    7.40
   6   3   3  201.18    8.50
   7  -3   3   33.00    1.40
  -7  -3  -3   30.50    1.60
   7   3   3   32.10    2.50
   7   3   3   35.20    1.60
   9  -4  -3   30.70    1.40
  -9  -4   3   32.60    1.50
  -9   4   3   31.30    1.90
   9   4  -3   34.70    2.30
  -9   4   3   32.30    1.70
   9   4  -3   32.20    1.40
  -8  -4   3  137.49    5.00
   8  -4  -3  132.39    5.00
  -8  -4   3  140.09    5.10
   8   4  -3  123.99    5.60
  -8   4   3  128.49    5.00
   8   4  -3  124.49    4.40
   8   4  -3  117.29    4.40
  -8   4   3  107.79    6.00
  -8   4   3  122.19    4.50
  -7  -4   3  235.88    8.40
   7  -4  -3  232.88    8.30
  -7  -4   3  231.78    8.30
  -7   4   3  251.77   11.10
   7   4  -3  264.07   10.50
  -7   4   3  265.87    9.40
   7   4  -3  263.27    9.10
  -7   4   3  269.47    9.80
   7   4  -3  267.37    9.20
  -7   4   3  241.48    9.20
  -6  -4   3  138.79    5.90
   6   4  -3  133.19    6.50
  -6   4   3  139.09    5.50
  -6   4   3  139.59    6.70
   6   4  -3  136.19    6.10
  -5  -4   3  442.96   15.90
   5  -4  -3  423.36   15.80
  -5  -4   3  454.55   15.40
  -5   4   3  376.06   15.30
  -5   4   3  395.16   14.40
  -5   4   3  389.46   14.10
   5   4  -3  409.06   15.10
   5   4  -3  411.46   14.70
   4  -4  -3   97.49    4.30
  -4  -4   3  102.39    3.90
  -4  -4   3  106.89    4.30
  -4   4   3   91.79    5.20
   4   4  -3  102.29    4.80
   4   4  -3  107.09    3.80
   4   4  -3  108.79    4.60
  -4   4   3  103.59    4.30
  -3  -4   3  998.20   34.00
   3  -4  -3  974.50   34.20
   3  -4  -3  983.60   33.70
  -3  -4   3 1003.20   33.70
   3   4  -3  955.50   32.40
  -3   4   3  967.70   32.80
   3   4  -3  986.50   32.70
   3   4  -3  971.40   33.20
  -3   4   3  895.21   32.40
  -3   4   3  936.11   33.20
   3   4  -3  938.21   32.90
   2  -4  -3 1397.76   47.50
  -2  -4   3 1399.36   47.10
   2  -4  -3 1357.96   47.60
   2  -4  -3 1408.26   47.30
   2   4  -3 1360.56   48.00
  -2   4   3 1440.86   47.90
   2   4  -3 1314.97   50.19
   2   4  -3 1490.25   48.30
   2   4  -3 1349.86   48.70
   2   4  -3 1407.56   48.30
  -2   4   3 1443.36   48.70
  -2   4   3 1469.25   48.10
   1  -4  -3  253.37    9.10
   1  -4  -3  257.87   11.20
   1  -4  -3  254.27    9.40
   1  -4  -3  250.97    9.30
   1  -4  -3  274.87    9.50
   1   4  -3  285.57   10.50
   1   4  -3  285.77   11.20
  -1   4   3  305.77   11.00
  -1   4   3  292.87   10.10
   0  -4  -3 1476.55   51.99
   0  -4  -3 1527.15   51.99
   0  -4  -3 1549.64   51.99
   0   4   3 1682.53   57.39
   0   4   3 1596.04   57.09
   0   4  -3 1723.03   57.89
  -1  -4  -3  163.38    6.50
  -1  -4  -3  168.08    6.90
  -1   4  -3  186.08    7.70
   1   4   3  170.48    6.90
   1   4   3  170.98    7.00
  -2  -4  -3  852.51   29.80
  -2  -4  -3  827.22   29.40
   2   4   3  840.62   29.80
  -2   4  -3  846.82   30.40
  -3  -4  -3  535.65   19.70
  -3  -4  -3  532.65   18.80
  -3  -4  -3  550.54   19.50
  -3   4  -3  546.15   21.00
   3   4   3  575.24   20.70
  -4  -4  -3  582.34   21.20
  -4  -4  -3  563.64   20.30
  -4  -4  -3  599.94   21.30
   4   4   3  556.54   20.70
  -5  -4  -3  162.58    7.30
   5  -4   3  166.38    6.10
  -5  -4  -3  176.68    7.50
  -5  -4  -3  169.18    6.40
   5   4   3  156.68    5.70
   5   4   3  158.38    5.80
   5   4   3  153.88    7.00
   5   4   3  159.28    6.00
   6  -4   3   55.19    2.30
  -6  -4  -3   53.69    2.50
   6   4   3   55.79    3.50
   6   4   3   55.19    2.40
   6   4   3   58.19    2.30
   6   4   3   57.89    2.60
   7  -4   3  141.19    5.00
  -7  -4  -3  137.29    5.20
   7   4   3  143.19    5.00
   7   4   3  135.89    5.10
   7   4   3  139.99    5.90
  -9  -5   3   79.69    3.00
   9   5  -3   68.89    3.50
   9   5  -3   76.29    2.70
  -8  -5   3   21.30    1.30
  -8  -5   3   24.20    1.30
   8   5  -3   21.40    1.10
   8   5  -3   21.70    2.00
  -8   5   3   22.40    1.60
   8   5  -3   23.00    1.10
  -7  -5   3  126.89    4.80
  -7  -5   3  120.69    5.20
  -7  -5   3  132.09    4.80
   7   5  -3  136.09    4.90
   7   5  -3  134.09    6.10
   7   5  -3  132.49    4.70
  -7   5   3  131.79    5.10
  -7   5   3  125.59    6.60
  -7   5   3  134.09    5.40
   6  -5  -3  231.58    8.50
  -6  -5   3  237.88    8.50
  -6  -5   3  243.98    8.70
  -6  -5   3  231.78    8.50
  -6   5   3  204.98    7.80
  -6   5   3  207.28    9.40
  -6   5   3  219.18    8.10
   6   5  -3  207.48    7.50
   6   5  -3  203.38    8.70
  -5  -5   3   95.49    3.80
  -5  -5   3   94.19    4.20
   5  -5  -3   90.19    4.30
  -5   5   3   74.89    4.50
  -5   5   3   79.89    3.50
   5   5  -3   78.09    4.20
   5   5  -3   80.59    4.00
  -5   5   3   80.89    3.80
   4  -5  -3  715.63   25.40
  -4  -5   3  724.23   24.80
  -4  -5   3  720.83   25.10
   4   5  -3  688.63   26.00
   4   5  -3  740.03   24.90
   4   5  -3  734.93   25.70
  -4   5   3  744.73   25.50
  -3  -5   3    3.80    0.50
   3  -5  -3    3.70    0.40
   3   5  -3    3.20    0.50
  -3   5   3    1.90    0.60
   3   5  -3    3.30    0.70
  -3   5   3    2.00    0.40
   3   5  -3    4.30    0.80
  -3   5   3    3.10    1.10
  -2  -5   3  883.71   30.00
   2  -5  -3  902.11   30.30
   2  -5  -3  886.21   30.50
   2  -5  -3  869.31   30.70
   2   5  -3  958.50   32.60
   2   5  -3  894.21   32.20
  -2   5   3  941.21   32.10
  -2   5   3  964.40   32.40
  -2   5   3  949.51   33.20
   1  -5  -3  139.59    5.30
   1  -5  -3  127.99    4.90
   1  -5  -3  127.19    5.30
  -1   5   3  101.09    3.70
   1   5  -3  107.69    5.10
  -1   5   3  106.99    4.70
   1   5  -3  101.49    4.20
   1   5  -3   94.49    4.20
   0  -5  -3  107.39    5.50
   0  -5  -3  120.39    4.80
   0  -5  -3  110.49    4.80
   0   5  -3  113.89    5.50
   0   5  -3  105.69    4.60
   0   5   3  112.79    5.00
  -1  -5  -3  250.67    9.70
  -1  -5  -3  256.87    9.60
  -1  -5  -3  257.57    9.60
  -1  -5  -3  254.87   10.20
   1   5   3  235.58    9.00
  -1   5  -3  221.08    8.80
  -1   5  -3  242.28    9.90
  -2  -5  -3  107.09    4.90
  -2  -5  -3  110.29    5.20
  -2   5  -3  114.79    5.80
   2   5   3  105.89    5.20
  -2   5  -3  106.59    4.60
  -3  -5  -3  262.27   10.50
  -3  -5  -3  259.47    9.60
  -3  -5  -3  259.87   10.20
  -3   5  -3  229.88    8.70
  -3   5  -3  232.68   10.00
   3   5   3  224.58    9.40
  -4  -5  -3  187.08    7.10
  -4  -5  -3  200.38    8.20
  -4  -5  -3  181.58    7.90
   4  -5   3  184.08    6.80
   4   5   3  155.58    5.60
   4   5   3  148.39    5.60
   4   5   3  150.08    6.70
   4   5   3  158.88    5.90
   5  -5   3   76.39    3.10
  -5  -5  -3   77.49    3.40
  -5  -5  -3   84.19    4.50
   5   5   3   63.89    3.80
   5   5   3   69.19    2.70
   5   5   3   66.59    3.00
   5   5   3   65.39    2.70
  -6  -5  -3   59.49    2.70
   6  -5   3   58.79    2.40
   6   5   3   65.89    2.80
   6   5   3   62.49    2.60
   6   5   3   70.09    3.80
   7  -5   3   32.10    1.40
   7   5   3   32.60    1.40
   7   5   3   33.30    2.20
   7   5   3   32.30    1.50
  -8  -6   3  109.89    4.20
  -8  -6   3  116.49    4.20
   8   6  -3  115.69    3.90
   8   6  -3  107.69    3.90
  -8   6   3   99.69    4.30
   8   6  -3  109.09    4.90
  -7  -6   3  276.57    9.60
  -7  -6   3  265.77    9.60
   7   6  -3  283.77    9.80
   7   6  -3  290.27   10.00
  -7   6   3  289.97   10.20
  -7   6   3  268.67   10.40
   7   6  -3  283.87   11.20
  -6  -6   3  116.39    4.60
  -6  -6   3  121.99    4.60
  -6  -6   3  123.09    4.90
  -6   6   3  121.89    4.90
   6   6  -3  109.49    5.60
  -6   6   3  110.79    4.60
   6   6  -3  114.59    4.30
   5  -6  -3  513.35   18.80
  -5  -6   3  535.45   18.20
  -5  -6   3  503.95   18.50
  -5   6   3  461.85   17.10
   5   6  -3  484.85   18.30
  -5   6   3  464.85   16.80
  -4  -6   3   25.70    1.50
   4  -6  -3   27.50    2.00
  -4   6   3   24.60    1.80
   4   6  -3   26.70    1.30
  -4   6   3   21.60    2.10
  -4   6   3   25.10    2.30
  -3  -6   3  715.03   24.20
   3  -6  -3  697.93   24.90
  -3   6   3  671.43   24.00
  -3   6   3  648.94   23.10
  -3   6   3  652.13   22.70
   3   6  -3  661.23   23.00
   3   6  -3  660.33   22.70
   2  -6  -3  201.68    8.00
   2  -6  -3  213.18    7.40
   2   6  -3  204.48    7.90
  -2   6   3  213.78    7.40
   2   6  -3  206.88    7.50
  -2   6   3  202.18    7.60
  -2   6   3  204.68    8.50
   1  -6  -3  498.95   17.30
   1  -6  -3  487.15   16.90
   1  -6  -3  470.65   17.50
  -1   6   3  479.95   17.60
   1   6  -3  457.25   17.10
   1   6  -3  491.55   17.10
  -1   6   3  480.35   16.30
   1   6  -3  469.65   18.00
   0  -6  -3  740.53   26.10
   0  -6  -3  730.03   25.50
   0  -6  -3  745.33   26.00
   0   6  -3  791.22   28.30
   0   6   3  760.02   27.50
   0   6  -3  766.22   27.30
  -1  -6  -3   63.59    3.20
  -1  -6  -3   60.09    3.30
  -1   6  -3   65.09    4.20
  -1   6  -3   63.69    3.30
   1   6   3   63.29    3.40
  -2  -6  -3  589.14   21.50
  -2  -6  -3  627.44   20.90
  -2  -6  -3  588.64   22.00
  -2  -6  -3  566.84   21.20
  -2   6  -3  605.24   21.80
  -2   6  -3  604.24   22.90
  -3  -6  -3  413.36   14.80
  -3  -6  -3  414.86   15.90
  -3  -6  -3  411.06   15.50
  -3   6  -3  472.55   16.60
  -3   6  -3  423.16   17.60
   4  -6   3  216.18    7.70
  -4  -6  -3  204.98    8.90
  -4  -6  -3  216.38    8.20
  -4  -6  -3  226.18    9.30
   4   6   3  223.18    9.40
   4   6   3  240.18    8.60
  -4   6  -3  233.08    9.20
   4   6   3  237.08    8.30
   5  -6   3  143.69    5.20
  -5  -6  -3  131.59    6.50
  -5  -6  -3  142.39    5.50
   5   6   3  134.79    6.10
   5   6   3  137.49    5.20
  -5   6  -3  123.39    5.60
   5   6   3  136.49    4.90
   5   6   3  133.79    4.90
  -6  -6  -3    8.70    1.00
  -6  -6  -3    9.20    0.80
   6  -6   3    8.60    0.80
   6   6   3    9.50    0.90
   6   6   3    7.70    0.70
   6   6   3    9.10    1.40
  -8  -7   3   41.70    1.80
  -8  -7   3   43.50    1.80
   8   7  -3   36.60    1.40
  -8   7   3   37.60    2.80
   8   7  -3   33.60    1.40
   8   7  -3   35.30    2.20
  -7  -7   3  236.88    8.30
  -7  -7   3  230.88    8.30
   7   7  -3  251.47    8.60
   7   7  -3  255.87    8.50
  -7   7   3  219.88    9.00
  -7   7   3  245.78    8.80
   7   7  -3  246.68    9.70
  -6  -7   3  315.47   10.80
  -6  -7   3  295.17   10.70
  -6  -7   3  307.57   10.80
   6   7  -3  298.17   10.50
  -6   7   3  300.27   10.90
  -6   7   3  289.97   10.70
   6   7  -3  294.07   11.80
  -5  -7   3  207.68    7.60
  -5  -7   3  207.48    7.60
   5  -7  -3  212.38    8.50
  -5  -7   3  227.38    7.90
  -5  -7   3  206.78    7.70
  -5   7   3  158.68    7.00
   5   7  -3  198.58    6.70
   5   7  -3  198.38    8.10
   4  -7  -3  650.83   23.30
  -4  -7   3  648.24   22.40
  -4   7   3  652.53   24.70
   4   7  -3  665.73   23.10
  -4   7   3  692.83   23.90
  -4   7   3  685.73   23.40
  -3  -7   3  123.99    4.60
   3  -7  -3  130.79    5.50
   3   7  -3  127.09    4.70
  -3   7   3  124.19    6.00
  -3   7   3  124.09    4.70
  -3   7   3  118.19    5.10
   3   7  -3  120.59    4.90
   2  -7  -3  228.38    9.10
   2  -7  -3  235.48    8.20
  -2   7   3  200.28    7.00
  -2   7   3  187.68    7.20
   2   7  -3  196.98    7.20
  -2   7   3  190.38    8.30
   2   7  -3  193.48    7.70
   1  -7  -3  816.92   26.40
   1  -7  -3  690.83   26.60
   1  -7  -3  793.22   27.20
   1   7  -3  732.53   25.50
  -1   7   3  743.43   24.60
  -1   7   3  709.43   26.00
   1   7  -3  708.03   24.80
   1   7  -3  701.63   26.50
   0  -7  -3   53.49    2.50
   0  -7  -3   53.79    3.10
   0  -7  -3   52.79    2.80
   0   7  -3   46.70    2.10
   0   7  -3   45.40    3.60
   0   7   3   44.80    3.00
  -1  -7  -3  559.94   20.50
  -1  -7  -3  567.74   20.30
  -1  -7  -3  560.74   19.70
   1   7   3  523.35   20.30
  -1   7  -3  555.04   21.50
  -1   7  -3  585.04   20.40
  -1   7  -3  562.94   19.50
  -2  -7  -3  132.39    5.40
  -2  -7  -3  126.29    5.80
  -2  -7  -3  144.29    6.20
  -2   7  -3  125.89    5.60
  -2   7  -3  117.99    6.50
  -2   7  -3  116.09    4.70
  -3  -7  -3  383.36   14.10
  -3  -7  -3  383.96   13.60
  -3  -7  -3  391.86   13.90
  -3  -7  -3  398.76   17.30
  -3  -7  -3  364.16   14.60
  -3   7  -3  419.56   14.60
   3   7   3  407.96   14.60
  -3   7  -3  429.56   15.60
   3   7   3  405.56   14.30
   3   7   3  412.86   15.60
   3   7   3  396.96   14.30
  -4  -7  -3  139.29    5.10
  -4  -7  -3  129.69    6.50
  -4  -7  -3  129.79    5.50
  -4  -7  -3  134.79    5.40
   4  -7   3  143.69    5.10
  -4   7  -3  110.39    5.20
   4   7   3  109.09    5.30
   4   7   3  113.89    4.20
  -4   7  -3  110.89    4.40
   4   7   3  112.39    4.50
  -5  -7  -3  103.29    4.00
   5  -7   3  107.59    4.00
  -5  -7  -3  105.49    4.30
  -5   7  -3   97.19    4.70
   5   7   3  106.79    4.00
   5   7   3  102.19    3.70
   5   7   3  100.09    4.80
  -5   7  -3   92.39    3.90
   6  -7   3  131.29    4.60
  -6  -7  -3  124.99    4.60
   6   7   3  132.29    5.80
   6   7   3  142.59    5.10
  -7  -8   3   13.70    1.00
  -7  -8   3   13.00    1.00
   7   8  -3   20.20    1.90
   7   8  -3   22.60    1.10
   7   8  -3   23.00    1.00
  -7   8   3   22.00    2.60
  -7   8   3   19.20    1.20
  -6  -8   3   28.90    1.50
  -6  -8   3   28.80    1.50
  -6  -8   3   28.90    1.50
   6   8  -3   25.00    1.40
   6   8  -3   27.00    2.40
  -6   8   3   24.30    1.60
   5  -8  -3   57.29    3.30
  -5  -8   3   61.29    2.50
  -5  -8   3   58.59    2.50
  -5  -8   3   57.79    2.50
  -5  -8   3   58.09    2.50
  -5   8   3   42.20    2.40
   5   8  -3   51.29    2.10
   5   8  -3   49.50    3.30
  -5   8   3   57.89    4.30
  -4  -8   3   63.69    2.60
  -4  -8   3   62.09    2.60
   4  -8  -3   62.39    3.50
  -4  -8   3   62.89    2.60
  -4   8   3   62.09    2.80
  -4   8   3   68.09    4.70
   4   8  -3   61.39    2.60
  -4   8   3   60.49    2.90
   4   8  -3   62.99    3.60
  -3  -8   3  310.47   11.00
   3  -8  -3  317.77   12.00
  -3  -8   3  310.97   11.40
  -3   8   3  311.77   11.40
  -3   8   3  374.26   14.80
   3   8  -3  306.47   12.40
  -3   8   3  318.97   13.20
  -3   8   3  313.27   11.50
   3   8  -3  313.87   11.40
   2  -8  -3  281.57   10.90
  -2   8   3  265.87   11.10
  -2   8   3  260.87    9.40
   2   8  -3  265.87   10.10
   2   8  -3  268.57    9.70
   1  -8  -3  222.18    8.00
   1  -8  -3  218.58    8.90
  -1   8   3  220.68    7.60
   1   8  -3  204.88    9.60
   1   8  -3  215.38    8.60
  -1   8   3  216.98    9.20
   0  -8  -3  373.06   14.20
   0  -8  -3  401.36   14.80
   0  -8  -3  397.06   13.80
   0   8  -3  421.46   15.20
   0   8  -3  411.96   14.30
   0   8  -3  392.26   16.40
   0   8  -3  384.26   15.00
   0   8   3  405.26   15.50
  -1  -8  -3    7.50    0.90
   1  -8   3    7.10    0.80
  -1  -8  -3    7.70    1.30
  -1  -8  -3   10.40    1.60
  -1  -8  -3    7.60    0.90
   1  -8   3    8.10    1.10
   1   8   3    8.90    0.90
   1   8   3    8.50    1.60
  -1   8  -3    9.30    0.90
  -1   8  -3    9.80    1.50
  -2  -8  -3  279.87   10.00
  -2  -8  -3  292.67   10.60
  -2  -8  -3  263.37   10.50
  -2  -8  -3  267.17   11.00
  -2   8  -3  244.48    9.10
   2   8   3  248.28    8.90
  -2   8  -3  257.77   10.10
   2   8   3  242.38   10.00
  -3  -8  -3  127.19    7.30
  -3  -8  -3  134.29    5.10
   3  -8   3  139.49    5.00
  -3  -8  -3  135.09    5.70
   3   8   3  131.09    5.50
  -3   8  -3  145.49    5.50
   3   8   3  139.19    5.20
  -3   8  -3  152.48    6.40
   3   8   3  140.49    6.40
   4  -8   3   34.50    1.70
  -4  -8  -3   30.60    2.00
  -4  -8  -3   31.50    1.60
  -4  -8  -3   33.10    1.70
  -4   8  -3   20.00    1.80
  -4   8  -3   19.50    1.30
   4   8   3   20.90    2.10
   4   8   3   19.60    1.60
   4   8   3   20.60    1.10
  -5  -8  -3  180.48    6.40
   5  -8   3  176.98    6.30
  -5  -8  -3  174.28    6.30
   5   8   3  174.28    6.20
   5   8   3  182.98    7.30
   5   8   3  186.78    6.50
  -5   8  -3  165.38    6.50
  -7  -9   3   31.00    1.40
  -7  -9   3   28.60    1.30
  -7  -9   3   33.00    1.40
   7   9  -3   40.20    1.50
  -7   9   3   37.50    2.80
   7   9  -3   36.70    2.20
  -7   9   3   38.40    1.70
   7   9  -3   39.60    1.60
  -6  -9   3  372.36   13.10
  -6  -9   3  378.96   13.00
  -6  -9   3  377.56   13.10
  -6   9   3  411.76   15.60
   6   9  -3  406.46   13.90
  -6   9   3  398.76   14.10
   6   9  -3  388.36   15.00
  -5  -9   3    9.10    0.80
  -5  -9   3    9.30    0.90
   5   9  -3    8.80    1.60
  -5   9   3    7.30    1.90
   5   9  -3    8.40    0.80
  -5   9   3    7.10    1.00
  -4  -9   3  324.27   11.40
  -4   9   3  317.57   12.10
   4   9  -3  317.27   11.70
   4   9  -3  353.56   13.10
  -4   9   3  360.66   13.90
  -4   9   3  328.57   13.50
  -3  -9   3   68.49    2.80
   3  -9  -3   67.39    3.70
  -3  -9   3   71.19    3.20
  -3   9   3   59.69    4.20
  -3   9   3   56.09    2.70
   3   9  -3   56.69    2.40
  -3   9   3   54.39    2.50
   3   9  -3   57.39    3.40
   2  -9  -3  440.46   16.10
  -2  -9   3  439.56   15.00
  -2  -9   3  431.86   15.50
  -2  -9   3  420.56   15.00
  -2   9   3  424.06   15.40
   2   9  -3  426.76   16.40
  -2   9   3  435.26   15.20
  -2   9   3  453.25   17.10
   2   9  -3  457.15   15.60
   1  -9  -3  472.55   16.80
  -1  -9   3  491.35   16.50
   1  -9  -3  491.45   17.80
   1  -9  -3  464.95   17.20
  -1  -9   3  490.25   17.00
  -1  -9   3  463.45   16.50
  -1   9   3  475.55   18.10
   1   9  -3  470.85   16.80
  -1   9   3  475.05   16.70
   0  -9  -3  115.69    4.50
   0  -9   3  112.99    4.70
   0  -9  -3  113.19    5.40
   0  -9  -3  114.99    5.00
   0  -9   3  110.69    4.30
   0  -9  -3  114.59    4.50
   0   9  -3  115.59    4.60
   0   9   3  116.49    5.80
   0   9   3  120.79    4.60
  -1  -9  -3  447.46   15.90
  -1  -9  -3  448.06   16.90
  -1  -9  -3  445.36   15.80
   1  -9   3  447.86   15.60
   1  -9   3  448.96   16.00
  -1  -9  -3  461.55   16.50
   1   9   3  475.35   16.50
  -1   9  -3  482.05   16.70
  -1   9  -3  461.85   17.50
   1   9   3  466.35   17.70
  -2  -9  -3   86.39    3.60
  -2  -9  -3   85.19    3.60
  -2  -9  -3   94.29    4.30
   2  -9   3   86.69    3.50
   2   9   3   86.59    3.40
   2   9   3   85.29    4.60
  -2   9  -3   84.29    4.40
  -2   9  -3   87.09    3.60
  -3  -9  -3   79.59    3.20
  -3  -9  -3   79.69    3.70
  -3  -9  -3   75.49    3.20
   3  -9   3   78.09    3.10
   3   9   3   65.39    3.70
   3   9   3   63.09    2.50
  -3   9  -3   65.59    2.80
  -3   9  -3   61.19    3.40
   3   9   3   53.59    2.80
  -4  -9  -3  140.89    5.70
  -4  -9  -3  150.98    5.50
  -4  -9  -3  144.49    5.40
   4  -9   3  156.18    5.40
   4   9   3  139.79    6.00
   4   9   3  142.29    5.30
  -4   9  -3  137.99    5.30
  -5  -9  -3   15.20    0.90
  -5  -9  -3   15.80    0.90
  -5  -9  -3   16.90    0.90
   5  -9   3   16.80    0.90
   5   9   3   15.70    1.10
   5   9   3   13.10    1.50
  -6 -10   3   54.59    2.20
  -6 -10   3   55.59    2.20
  -6 -10   3   58.59    2.20
   6  10  -3   63.29    2.40
  -6  10   3   57.29    3.10
  -6  10   3   64.19    3.70
   6  10  -3   61.49    3.10
  -6  10   3   60.99    2.50
  -5 -10   3  291.57   10.20
  -5  10   3  231.08    9.00
  -5  10   3  252.97    9.90
  -5  10   3  290.77   10.70
   5  10  -3  266.57    8.80
   5  10  -3  207.88    9.70
  -4 -10   3   23.00    1.30
  -4 -10   3   22.20    1.50
   4  10  -3   24.30    2.20
  -4  10   3   21.90    2.40
  -4  10   3   23.80    2.90
   4  10  -3   23.20    1.30
  -4  10   3   21.20    1.50
  -3 -10   3  224.78    8.40
  -3 -10   3  226.98    8.00
   3  10  -3  235.38    9.30
  -3  10   3  220.88    8.40
  -3  10   3  228.68   10.00
  -2 -10   3  143.49    5.60
  -2 -10   3  134.59    5.10
   2  10  -3  164.58    7.10
  -2  10   3  163.88    6.20
  -2  10   3  170.68    7.80
  -1 -10   3   56.99    2.40
  -1 -10   3   57.99    2.80
   1 -10  -3   56.29    2.90
  -1  10   3   37.30    2.00
   1  10  -3   36.30    2.70
  -1  10   3   39.10    3.20
   0 -10  -3  169.08    6.90
   0 -10  -3  170.78    6.40
   0 -10   3  169.48    6.10
   0 -10   3  168.08    6.60
   0  10   3  188.68    7.00
   0  10   3  189.78    8.20
  -1 -10  -3   39.20    2.00
   1 -10   3   41.70    1.90
  -1 -10  -3   41.60    2.60
   1 -10   3   38.60    2.20
  -1  10  -3   33.60    1.70
   1  10   3   37.30    2.80
   1  10   3   34.30    1.80
  -2 -10  -3  327.57   12.30
   2 -10   3  352.06   12.20
  -2 -10  -3  366.86   13.00
  -2 -10  -3  353.66   12.40
  -2  10  -3  325.17   11.40
   2  10   3  339.87   11.20
  -2  10  -3  272.37   12.00
   2  10   3  335.87   12.40
   3 -10   3   29.30    1.50
  -3 -10  -3   29.10    1.50
  -3 -10  -3   28.80    1.90
  -3 -10  -3   27.30    1.50
  -3  10  -3   25.50    1.40
   3  10   3   26.20    1.20
   3  10   3   25.40    2.10
  -4 -10  -3   64.79    2.50
  -4 -10  -3   61.69    2.70
  -4 -10  -3   60.69    2.40
   4 -10   3   64.99    2.50
   4  10   3   62.49    3.10
   4  10   3   59.19    2.50
  -5 -11   3    1.70    0.40
  -5  11   3    3.90    1.20
  -5  11   3    2.90    0.50
   5  11  -3    3.40    0.40
   5  11  -3    1.40    0.70
  -4 -11   3  199.98    7.50
  -4 -11   3  215.58    7.30
  -4  11   3  235.88    8.70
   4  11  -3  202.18    8.10
  -4  11   3  168.78    7.20
   4  11  -3  196.78    7.10
  -3 -11   3   65.09    2.50
  -3 -11   3   63.89    2.90
  -3  11   3   58.19    2.60
   3  11  -3   59.19    3.30
  -3  11   3   65.39    4.00
  -2 -11   3  189.98    7.00
  -2 -11   3  206.18    7.50
  -2  11   3  178.48    6.80
  -2  11   3  204.38    8.40
   2  11  -3  186.08    7.70
  -1 -11   3  209.08    7.80
   1  11  -3  185.68    7.90
  -1  11   3  197.98    7.20
  -1  11   3  197.18    8.30
   0 -11   3   57.59    2.70
   0 -11  -3   56.59    2.90
   0 -11   3   58.89    2.30
   0 -11  -3   54.09    2.50
   0  11  -3   52.99    3.30
   0  11   3   53.69    2.40
   0  11   3   58.39    3.50
  -1 -11  -3  273.37   10.30
   1 -11   3  259.27    9.80
   1 -11   3  287.97    9.60
  -1 -11  -3  275.87    9.80
   1  11   3  290.47   11.10
   1  11   3  275.07   10.00
   2 -11   3   15.00    1.00
  -2 -11  -3   14.10    1.40
  -2 -11  -3   13.00    1.00
   2  11   3   14.00    0.90
   2  11   3   15.40    1.80
  -3 -11  -3  137.49    5.00
   3 -11   3  132.99    4.60
  -3 -11  -3  125.79    4.70
  -3 -11  -3  118.99    4.60
   3  11   3  122.09    4.40
   3  11   3  130.99    5.30
  -3 -12   3  305.07   10.60
  -3 -12   3  312.07   10.90
   3  12  -3  301.07   11.40
  -3  12   3  288.47   10.70
  -3  12   3  337.47   11.90
  -2 -12   3   83.59    3.40
   2  12  -3   66.09    3.20
  -2  12   3   62.39    2.60
  -2  12   3   70.59    3.70
  -1 -12   3  113.59    4.40
   1  12  -3  106.79    4.90
  -1  12   3  130.59    5.50
  -1  12   3  114.69    4.40
   0 -12  -3  227.08    8.40
   0 -12   3  230.18    8.30
   0  12   3  248.78    9.50
   0  12   3  234.78    8.50
   1 -12   3   24.90    1.30
  -1 -12  -3   21.20    1.60
   1 -12   3   31.30    1.20
  -1 -12  -3   26.00    1.30
   1  12   3   27.50    1.30
   1  12   3   28.90    2.10
  -9   0   4   57.19    2.40
   9   0  -4   53.39    2.30
  -9   0   4   56.69    2.40
  -8   0   4   51.79    2.90
   8   0  -4   59.49    2.50
  -8   0   4   58.79    2.50
   8   0  -4   56.29    2.30
  -7   0   4   37.70    2.20
   7   0  -4   39.60    1.80
  -7   0   4   38.10    1.90
   7   0  -4   37.40    1.90
  -6   0   4  438.86   16.10
   6   0  -4  464.15   17.20
  -6   0   4  459.75   16.20
   6   0  -4  456.65   16.70
   5   0  -4    4.10    0.90
  -5   0   4    4.20    0.50
   5   0  -4    3.50    0.90
  -5   0   4    5.20    0.70
  -4   0   4    4.30    0.50
   4   0  -4    3.10    0.50
  -4   0   4    5.50    0.70
   4   0  -4    5.90    1.00
   4   0  -4    3.20    0.50
   3   0  -4 1502.55   49.30
   3   0  -4 1400.36   48.70
  -3   0   4 1411.66   48.60
  -3   0   4 1407.76   48.70
   3   0  -4 1443.16   49.00
   2   0  -4    3.40    1.30
  -2   0   4    3.70    0.30
  -2   0   4    4.90    1.60
   2   0  -4    2.80    0.70
   2   0  -4    4.30    0.80
   1   0  -4 1577.64   57.49
   1   0  -4 1697.23   55.59
   1   0  -4 1592.14   57.49
   0   0  -4   28.60    1.70
   0   0   4   26.80    1.90
   1   0   4 1622.54   56.09
  -1   0  -4 1629.94   55.79
   2   0   4  270.97   10.40
  -2   0  -4  260.37   10.00
  -3   0  -4   84.09    4.00
   3   0   4   86.39    4.50
   4   0   4  250.97   10.40
   5   0   4    7.40    0.80
   5   0   4    8.40    0.80
   6   0   4   32.30    1.60
   7   0   4   42.70    1.70
  -9  -1   4  181.58    6.40
   9  -1  -4  176.78    6.40
  -9  -1   4  173.38    6.40
   9   1  -4  177.78    6.70
  -9   1   4  202.18    6.70
  -9   1   4  181.98    6.80
  -8  -1   4  257.97    8.90
   8  -1  -4  238.28    8.70
   8  -1  -4  246.48    8.80
   8   1  -4  243.88    8.90
   8   1  -4  247.48    8.80
  -8   1   4  255.47    9.40
  -8   1   4  253.57    9.00
   7  -1  -4  195.78    7.10
   7  -1  -4  196.08    7.10
  -7  -1   4  195.28    7.10
  -7   1   4  214.88    7.90
   7   1  -4  219.98    7.70
  -7   1   4  218.98    8.30
   7   1  -4  214.58    7.80
  -6  -1   4   48.90    2.40
   6  -1  -4   44.50    2.70
   6  -1  -4   44.10    3.00
  -6   1   4   42.80    2.30
   6   1  -4   44.00    2.70
  -6   1   4   46.30    2.30
   6   1  -4   44.90    3.10
  -5  -1   4  631.54   21.90
   5  -1  -4  648.24   23.10
  -5  -1   4  631.04   22.20
   5  -1  -4  642.14   22.60
  -5   1   4  605.24   21.50
   5   1  -4  646.34   22.80
   5   1  -4  635.34   22.30
  -5   1   4  618.84   21.80
   4  -1  -4  216.48    8.00
  -4  -1   4  200.48    7.30
  -4  -1   4  203.28    7.50
   4  -1  -4  213.58    7.40
   4   1  -4  180.58    6.90
   4   1  -4  179.38    6.20
   4   1  -4  168.18    6.30
  -4   1   4  169.48    6.30
  -4   1   4  164.58    6.10
  -3  -1   4 2067.19   73.59
   3  -1  -4 2290.47   73.99
  -3  -1   4 2149.78   73.49
   3  -1  -4 2199.78   74.19
   3  -1  -4 2156.28   73.69
  -3   1   4 2259.57   74.19
   3   1  -4 2298.67   74.49
  -3   1   4 2182.08   73.89
  -3   1   4 2069.49   74.09
   3   1  -4 2086.29   73.89
   2  -1  -4  474.05   18.30
   2  -1  -4  512.45   16.90
  -2  -1   4  463.25   16.20
   2  -1  -4  488.25   16.80
   2  -1  -4  447.16   16.50
   2   1  -4  415.66   15.00
  -2   1   4  421.96   15.00
   2   1  -4  439.76   15.10
  -2   1   4  416.16   17.20
   2   1  -4  424.46   17.20
  -2   1   4  422.06   14.40
   1  -1  -4  139.29    7.10
   1  -1  -4  140.09    5.50
   1   1  -4  135.59    7.00
   1   1  -4  132.29    5.40
   1   1  -4  141.49    7.90
  -1   1   4  147.19    5.50
   0  -1  -4  592.74   20.90
   0   1  -4  642.54   23.10
   0   1   4  685.33   23.20
   0   1   4  657.53   23.50
  -1  -1  -4  625.14   21.80
   1  -1   4  608.54   22.00
  -1   1  -4  585.74   21.40
   1   1   4  629.64   21.80
  -2  -1  -4  577.64   20.50
   2  -1   4  568.84   20.70
   2   1   4  592.24   21.30
  -2   1  -4  580.94   20.80
   3  -1   4  122.19    5.80
  -3  -1  -4  133.39    5.70
   3   1   4  109.49    5.40
  -4  -1  -4   72.89    3.90
   4  -1   4   71.49    4.10
   4   1   4   74.49    3.50
   4   1   4   70.29    4.30
   4   1   4   71.99    3.00
   5  -1   4  100.99    3.90
   5   1   4   92.79    3.50
   5   1   4   89.79    3.70
   5   1   4   95.19    3.60
   6  -1   4   15.20    1.00
   6   1   4   16.50    1.10
   7   1   4   84.89    3.10
   9  -2  -4   59.79    2.50
  -9  -2   4   61.89    2.50
  -9   2   4   57.79    2.40
   9   2  -4   57.99    2.20
  -9   2   4   59.49    2.40
   9   2  -4   56.59    2.30
   8  -2  -4  267.17    9.40
  -8  -2   4  261.97    9.50
   8   2  -4  216.38    7.80
  -8   2   4  225.78    8.10
   8   2  -4  216.48    7.90
  -8   2   4  223.88    8.40
   8   2  -4  222.68    7.90
  -8   2   4  224.68    7.90
   7  -2  -4   -0.20    0.50
   7  -2  -4    0.00    0.50
  -7  -2   4    0.80    0.50
  -7   2   4    0.90    0.50
  -7   2   4    0.80    0.70
   7   2  -4    1.20    0.50
   7   2  -4    0.90    0.40
  -7   2   4    0.70    0.60
  -6  -2   4 1089.09   37.60
  -6   2   4 1106.99   39.20
   6   2  -4 1129.19   40.40
  -6   2   4 1146.59   39.30
   6   2  -4 1169.88   39.90
   5  -2  -4   81.99    4.10
  -5  -2   4   82.79    3.50
  -5  -2   4   83.39    3.20
   5  -2  -4   82.99    4.00
  -5   2   4   80.29    3.20
   5   2  -4   83.39    4.30
  -5   2   4   82.19    3.50
   5   2  -4   85.09    4.00
   4  -2  -4  413.96   15.50
  -4  -2   4  444.36   14.90
  -4  -2   4  429.06   15.20
   4  -2  -4  439.86   14.90
  -4   2   4  465.15   16.20
   4   2  -4  452.95   16.30
  -4   2   4  473.85   16.40
   4   2  -4  476.45   16.20
   4   2  -4  476.55   16.90
   3  -2  -4 1045.30   35.80
   3  -2  -4 1069.29   36.30
  -3  -2   4 1084.19   35.70
   3  -2  -4 1086.59   36.10
  -3  -2   4  968.10   35.80
   3   2  -4 1029.70   35.80
  -3   2   4 1038.80   35.10
  -3   2   4  998.30   35.60
  -3   2   4 1048.00   35.20
   3   2  -4 1078.59   35.50
   3   2  -4  998.20   35.20
   2  -2  -4  459.95   16.40
   2  -2  -4  491.15   16.80
   2  -2  -4  470.55   16.70
  -2   2   4  443.66   15.40
   2   2  -4  434.86   15.90
   2   2  -4  451.45   16.00
  -2   2   4  454.55   16.10
  -2   2   4  472.35   20.00
   1  -2  -4  846.22   30.20
   1  -2  -4  933.41   30.40
   1  -2  -4  846.52   32.10
   1   2  -4  801.42   30.40
  -1   2   4  862.51   28.60
   1   2  -4  799.52   28.50
   0  -2  -4   60.99    2.90
   0   2   4   58.39    3.10
   0   2  -4   56.69    2.70
   0   2   4   60.99    2.90
   0   2  -4   57.69    4.40
  -1  -2  -4  459.65   17.90
  -1  -2  -4  541.55   18.00
   1  -2   4  502.25   18.00
   1   2   4  523.35   18.70
  -1   2  -4  497.95   18.20
   1   2   4  524.55   18.40
  -2  -2  -4  284.77   10.70
  -2  -2  -4  275.97   10.50
   2  -2   4  281.07   10.80
   2   2   4  240.98    9.70
  -3  -2  -4   93.89    4.50
  -3  -2  -4   92.59    4.10
   3   2   4   90.79    4.70
  -4  -2  -4  656.63   23.40
   4   2   4  626.04   21.60
   4   2   4  613.74   21.50
   4   2   4  639.54   21.70
  -5  -2  -4    5.00    1.10
   5   2   4    4.50    0.70
   5   2   4    3.60    0.60
   5   2   4    3.30    0.70
   6   2   4   76.89    3.20
   6   2   4   78.49    3.00
   7   2   4   61.99    2.40
   9  -3  -4   35.70    1.60
  -9  -3   4   30.40    1.50
  -9  -3   4   32.80    1.60
  -9   3   4   30.10    1.50
  -9   3   4   31.70    1.50
   9   3  -4   30.20    1.30
  -8  -3   4  117.89    4.50
   8  -3  -4  119.19    4.50
  -8   3   4  124.59    4.70
  -8   3   4  120.09    4.50
   8   3  -4  122.49    4.40
   8   3  -4  119.79    4.40
  -8   3   4  116.69    5.00
  -7  -3   4  131.19    5.20
   7  -3  -4  142.79    5.10
  -7  -3   4  140.29    5.10
   7  -3  -4  135.59    5.10
  -7  -3   4  130.49    5.20
  -7   3   4  111.59    4.70
   7   3  -4  117.89    4.20
  -7   3   4  105.29    4.20
  -7   3   4  113.89    4.40
   7   3  -4  109.69    4.00
  -6  -3   4    9.70    1.20
  -6  -3   4    6.10    0.70
   6   3  -4    5.70    1.30
  -6   3   4    7.00    1.10
   6   3  -4    6.30    1.20
  -6   3   4    5.00    0.90
  -5  -3   4  135.49    5.50
  -5  -3   4  144.59    5.20
  -5   3   4  150.08    5.50
  -5   3   4  152.08    5.80
   5   3  -4  147.99    6.60
   5   3  -4  139.49    5.20
   5   3  -4  146.59    6.20
  -4  -3   4  447.36   16.00
  -4  -3   4  474.05   15.80
   4  -3  -4  451.45   15.70
  -4   3   4  468.35   16.50
   4   3  -4  454.75   16.40
   4   3  -4  484.65   16.30
  -4   3   4  464.45   16.30
   4   3  -4  478.75   17.00
   3  -3  -4  166.08    5.90
  -3  -3   4  167.18    5.80
   3  -3  -4  166.58    6.10
   3  -3  -4  150.48    6.30
  -3   3   4  187.68    6.40
   3   3  -4  168.78    6.50
  -3   3   4  184.08    7.10
  -3   3   4  182.48    6.50
   3   3  -4  183.28    6.80
   3   3  -4  170.28    7.00
   2  -3  -4  877.01   31.30
   2  -3  -4  952.90   31.70
   2  -3  -4  914.21   31.70
  -2   3   4  889.31   30.10
   2   3  -4  878.51   30.80
  -2   3   4  890.71   30.90
   1  -3  -4  198.28    7.50
   1  -3  -4  194.18    7.40
   1   3  -4  178.18    7.00
  -1   3   4  190.18    7.30
   0  -3  -4  573.44   18.60
   0  -3  -4  469.95   19.00
   0   3   4  565.34   20.50
   0   3  -4  537.85   19.90
   0   3   4  614.04   20.40
  -1  -3  -4  354.96   12.60
  -1  -3  -4  325.97   12.90
   1   3   4  369.46   13.50
   1   3   4  371.26   13.10
  -1   3  -4  335.87   12.60
  -2  -3  -4  180.38    7.40
  -2  -3  -4  180.58    7.40
   2   3   4  207.58    8.60
  -3  -3  -4  449.66   16.80
  -3  -3  -4  465.45   17.00
  -3   3  -4  447.86   17.60
   3   3   4  459.35   17.20
  -4  -3  -4   35.50    2.50
   4   3   4   36.20    1.80
   4   3   4   37.20    1.90
   4   3   4   35.80    1.70
  -5  -3  -4  259.87   10.30
   5   3   4  281.27    9.90
   5   3   4  274.17    9.80
   5   3   4  281.37   10.00
  -6  -3  -4   55.69    2.40
   6   3   4   59.09    2.40
   6   3   4   57.89    2.50
   9  -4  -4   87.69    3.30
  -9  -4   4   90.19    3.40
  -9   4   4   93.59    3.50
  -9   4   4   92.79    3.40
   9   4  -4   91.29    3.30
  -8  -4   4  189.48    6.90
   8  -4  -4  192.88    7.00
  -8  -4   4  198.58    7.00
   8   4  -4  202.78    7.10
  -8   4   4  192.98    7.10
  -8   4   4  200.68    7.30
   8   4  -4  200.88    7.00
  -7  -4   4   79.39    3.20
   7  -4  -4   76.89    3.10
   7  -4  -4   77.69    3.20
  -7  -4   4   74.79    3.30
  -7  -4   4   79.59    3.10
   7   4  -4   74.19    2.90
  -7   4   4   70.39    2.90
   7   4  -4   73.19    2.70
  -7   4   4   75.99    3.20
  -7   4   4   70.29    3.40
  -6  -4   4  776.42   26.60
  -6  -4   4  780.22   26.70
  -6  -4   4  741.53   26.60
   6  -4  -4  763.22   26.70
  -6  -4   4  782.22   27.50
   6  -4  -4  790.32   26.80
  -6   4   4  770.42   26.90
   6   4  -4  796.12   26.30
  -6   4   4  728.93   26.70
   6   4  -4  756.02   27.40
   6   4  -4  725.33   27.80
  -6   4   4  738.03   26.50
  -6   4   4  834.52   26.60
  -5  -4   4   71.19    3.20
  -5  -4   4   74.59    3.00
   5  -4  -4   67.59    3.30
   5   4  -4   65.99    3.50
  -5   4   4   72.89    3.20
   5   4  -4   62.49    3.80
  -4  -4   4  732.63   24.30
   4  -4  -4  681.33   24.80
  -4   4   4  656.43   22.40
  -4   4   4  651.73   22.70
   4   4  -4  652.63   23.20
   4   4  -4  664.63   23.60
   4   4  -4  616.24   22.60
   4   4  -4  671.23   22.40
   3  -4  -4  630.24   23.30
   3  -4  -4  656.43   23.20
  -3  -4   4  739.23   23.10
   3   4  -4  648.04   23.20
  -3   4   4  677.03   24.00
  -3   4   4  665.63   23.00
   3   4  -4  680.23   23.50
   3   4  -4  701.03   23.80
  -3   4   4  662.83   23.20
   2  -4  -4  131.69    5.60
   2  -4  -4  142.09    5.30
   2  -4  -4  149.79    5.60
   2   4  -4  140.49    5.80
  -2   4   4  156.38    5.20
   2   4  -4  145.39    5.80
   2   4  -4  138.99    5.90
   2   4  -4  142.39    6.40
  -2   4   4  150.88    6.20
   1  -4  -4 2025.80   67.69
   1  -4  -4 1932.31   67.59
   1   4  -4 1880.41   67.79
  -1   4   4 2086.89   68.19
   0  -4  -4  193.08    8.50
   0  -4  -4  207.18    7.80
   0  -4  -4  208.98    7.80
   0   4   4  197.18    7.80
   0   4   4  198.88    7.70
   0   4  -4  188.48    7.40
  -1  -4  -4  781.72   28.00
  -1  -4  -4  771.22   27.30
   1   4   4  812.52   28.20
  -1   4  -4  739.13   27.50
   1   4   4  789.02   27.90
  -1   4  -4  832.42   29.10
  -2  -4  -4  177.68    7.30
  -2  -4  -4  172.28    6.70
  -2  -4  -4  178.98    7.60
   2   4   4  164.18    7.30
  -2   4  -4  172.58    8.00
  -3  -4  -4  167.18    7.10
  -3  -4  -4  156.78    6.90
  -3  -4  -4  155.18    6.10
   3   4   4  132.89    6.30
  -3   4  -4  131.79    6.80
  -4  -4  -4  375.26   14.60
  -4  -4  -4  389.06   13.70
   4   4   4  389.76   13.80
   4   4   4  386.46   13.50
   4   4   4  394.06   13.60
  -5  -4  -4   93.49    3.90
  -5  -4  -4   96.19    4.80
   5   4   4   96.49    3.90
   5   4   4   90.99    3.70
   5   4   4   97.79    3.60
  -6  -4  -4  141.89    5.30
   6   4   4  142.79    5.20
   6   4   4  144.09    5.30
  -9  -5   4   15.90    1.00
  -9   5   4   16.70    0.90
   9   5  -4   16.40    0.80
  -8  -5   4   37.50    1.70
   8  -5  -4   33.70    1.60
  -8  -5   4   33.20    1.60
   8   5  -4   27.20    1.20
   8   5  -4   28.40    1.30
  -8   5   4   26.40    1.40
  -8   5   4   27.20    1.50
  -7  -5   4  205.78    7.20
   7  -5  -4  191.68    7.20
  -7  -5   4  199.88    7.20
   7  -5  -4  193.68    7.10
  -7   5   4  181.18    6.80
   7   5  -4  191.18    6.80
   7   5  -4  189.58    6.60
  -7   5   4  191.28    7.10
  -6  -5   4   70.19    2.90
  -6  -5   4   72.69    3.10
  -6  -5   4   69.99    2.90
   6  -5  -4   73.29    3.10
   6  -5  -4   67.99    2.90
   6   5  -4   70.39    2.90
  -6   5   4   65.89    2.80
  -6   5   4   72.99    3.20
  -5  -5   4  383.66   13.20
   5  -5  -4  361.86   13.70
   5   5  -4  331.07   13.30
  -5   5   4  344.17   12.00
  -5   5   4  347.07   12.40
   5   5  -4  332.97   12.90
   4  -5  -4   59.39    3.00
  -4  -5   4   61.79    2.50
   4   5  -4   67.29    3.50
   4   5  -4   71.59    2.80
  -4   5   4   66.89    3.10
  -4   5   4   67.99    2.80
   3  -5  -4  321.37   11.10
   3  -5  -4  310.57   11.60
  -3   5   4  342.77   11.70
  -3   5   4  330.27   11.90
   3   5  -4  324.87   11.90
   3   5  -4  339.87   12.30
  -3   5   4  341.57   12.80
   2  -5  -4  195.18    7.70
   2  -5  -4  205.38    7.70
   2  -5  -4  210.38    7.40
   2   5  -4  215.68    8.40
   2   5  -4  237.38    9.80
  -2   5   4  217.68    7.70
  -2   5   4  210.08    8.80
   1  -5  -4    6.40    0.70
   1  -5  -4    7.90    1.30
   1  -5  -4    7.10    1.10
   1   5  -4    7.90    1.90
   1   5  -4    6.90    1.00
  -1   5   4    8.40    1.50
   0  -5  -4  537.05   20.30
   0  -5  -4  522.85   19.30
   0  -5  -4  560.94   19.40
   0   5   4  543.85   19.70
   0   5  -4  569.74   20.90
   0   5  -4  516.05   19.30
  -1  -5  -4  209.58    7.90
  -1  -5  -4  203.18    8.20
  -1  -5  -4  209.88    9.00
  -1   5  -4  214.08    9.60
   1   5   4  205.38    8.30
  -1   5  -4  212.88    8.20
  -2  -5  -4  212.88    9.20
  -2  -5  -4  210.08    8.60
  -2  -5  -4  221.98    8.20
  -2   5  -4  179.08    8.70
  -2   5  -4  188.48    7.30
  -3  -5  -4  321.87   11.20
  -3  -5  -4  314.87   12.30
   3  -5   4  276.57   10.80
  -3   5  -4  279.17   10.40
   3   5   4  280.57    9.80
   3   5   4  274.97    9.80
   3   5   4  275.57   10.00
  -4  -5  -4   74.39    4.10
   4  -5   4   64.19    2.80
  -4  -5  -4   70.39    3.20
   4   5   4   60.89    2.80
   4   5   4   62.69    2.50
   4   5   4   59.79    2.50
  -5  -5  -4  103.49    5.10
   5  -5   4  102.39    3.90
  -5  -5  -4  105.29    4.20
   5   5   4  111.19    4.30
   5   5   4  111.99    4.10
   5   5   4  105.59    4.10
  -6  -5  -4   60.89    2.60
   6   5   4   61.89    2.50
   6   5   4   59.09    2.30
  -8  -6   4   91.79    3.50
  -8  -6   4   91.29    3.50
   8   6  -4   90.49    3.30
  -8   6   4   94.09    3.60
   8   6  -4   91.79    3.40
  -7  -6   4   72.69    3.00
  -7  -6   4   75.79    3.00
   7   6  -4   72.69    2.70
  -7   6   4   71.39    3.20
   7   6  -4   76.49    2.90
  -6  -6   4  717.23   24.80
   6  -6  -4  743.53   25.00
  -6  -6   4  717.93   24.90
  -6  -6   4  706.03   24.80
  -6   6   4  763.72   26.50
   6   6  -4  758.12   26.20
  -5  -6   4   92.79    3.50
  -5  -6   4   86.69    3.50
  -5  -6   4   84.59    3.40
   5  -6  -4   84.09    4.10
   5  -6  -4   90.29    3.80
  -5  -6   4   88.39    3.50
  -5   6   4   78.29    3.10
   5   6  -4   72.99    3.00
  -5   6   4   73.79    3.30
   4  -6  -4  647.54   22.70
  -4  -6   4  624.14   21.80
   4   6  -4  605.84   20.20
  -4   6   4  577.64   20.50
  -4   6   4  552.34   21.30
  -4   6   4  595.74   20.20
   3  -6  -4  316.87   11.70
   3  -6  -4  312.07   11.00
  -3   6   4  295.17   11.10
  -3   6   4  318.37   11.00
  -3   6   4  325.87   12.40
   3   6  -4  317.27   11.60
   3   6  -4  316.37   11.20
   2  -6  -4  222.58    8.50
   2  -6  -4  209.18    8.20
   2  -6  -4  225.08    7.90
  -2   6   4  197.58    8.40
   2   6  -4  194.38    7.90
  -2   6   4  209.58    7.10
   1  -6  -4  491.75   16.90
   1  -6  -4  483.95   17.40
   1  -6  -4  467.15   17.30
  -1   6   4  485.65   17.60
   1   6  -4  477.55   16.50
   1   6  -4  461.95   18.40
   1   6  -4  465.85   17.20
   0  -6  -4   48.90    2.60
   0  -6  -4   55.09    2.90
   0  -6  -4   54.59    3.00
   0   6  -4   55.69    2.90
   0   6  -4   51.89    4.10
   0   6   4   56.69    3.20
   0   6  -4   53.29    2.40
  -1  -6  -4  766.22   28.20
  -1  -6  -4  751.02   27.20
  -1  -6  -4  753.12   27.20
  -1  -6  -4  794.42   26.90
  -1   6  -4  860.21   29.00
  -1   6  -4  835.92   30.60
  -1   6  -4  803.02   28.20
   1   6   4  777.02   29.00
  -2  -6  -4   27.70    2.20
  -2  -6  -4   30.50    2.80
  -2  -6  -4   31.60    2.00
   2   6   4   44.90    2.30
  -2   6  -4   50.59    2.80
  -2   6  -4   49.10    4.00
   3  -6   4   92.99    3.80
  -3  -6  -4  106.19    4.30
  -3  -6  -4   96.39    5.20
   3   6   4  109.99    4.00
   3   6   4  104.59    5.10
  -3   6  -4  106.69    4.80
   3   6   4  103.99    4.00
   3   6   4  106.49    4.40
  -4  -6  -4  253.97   10.70
  -4  -6  -4  268.67    9.60
  -4  -6  -4  254.97    9.70
   4  -6   4  261.77    9.20
   4   6   4  289.57   10.00
   4   6   4  273.97   11.00
   4   6   4  289.87   10.00
  -4   6  -4  274.37   10.70
   4   6   4  292.07   10.30
  -5  -6  -4   43.30    2.10
   5  -6   4   40.80    1.80
   5   6   4   37.60    2.60
   5   6   4   41.10    2.00
   5   6   4   39.80    1.70
   5   6   4   40.10    1.70
  -6  -6  -4   61.79    2.30
   6  -6   4   61.99    2.30
   6   6   4   53.49    2.10
   6   6   4   58.89    2.30
  -8  -7   4  138.69    4.90
  -8  -7   4  133.39    4.90
  -8   7   4  139.49    5.10
   8   7  -4  142.19    4.90
  -8   7   4  133.79    6.00
   8   7  -4  140.69    4.90
  -7  -7   4   78.59    3.20
  -7  -7   4   84.59    3.20
   7   7  -4   68.79    2.60
   7   7  -4   72.69    2.80
  -7   7   4   71.29    3.00
  -6  -7   4   73.49    3.00
  -6  -7   4   72.59    2.90
  -6  -7   4   75.69    3.00
   6   7  -4   75.89    3.10
  -6   7   4   76.49    4.70
  -6   7   4   74.39    3.40
   5  -7  -4  442.46   16.50
  -5  -7   4  432.36   15.50
  -5  -7   4  468.55   15.70
  -5  -7   4  451.55   15.60
  -5  -7   4  453.15   15.70
  -5   7   4  376.26   14.30
  -5   7   4  412.26   14.10
   5   7  -4  411.46   14.00
  -4  -7   4   47.70    2.10
   4  -7  -4   45.90    2.80
  -4  -7   4   45.20    2.00
  -4   7   4   36.80    3.40
  -4   7   4   34.80    2.00
  -4   7   4   33.90    1.80
   4   7  -4   36.30    1.70
   3  -7  -4  232.88    9.10
  -3   7   4  232.38    9.60
   3   7  -4  219.98    8.80
  -3   7   4  234.38    8.20
   3   7  -4  230.38    8.40
   2  -7  -4  520.65   19.00
   2  -7  -4  532.55   18.30
  -2   7   4  470.85   16.50
   2   7  -4  482.05   17.50
  -2   7   4  487.85   18.10
   1  -7  -4   19.40    1.40
   1  -7  -4   19.30    1.60
   1  -7  -4   20.10    1.80
  -1   7   4   17.70    2.10
   1   7  -4   15.40    1.60
   1   7  -4   17.20    2.50
   1   7  -4   16.60    1.10
   1   7  -4   17.90    1.70
   0  -7  -4  419.96   15.70
   0  -7  -4  435.16   15.10
   0  -7  -4  424.06   15.80
   0   7   4  380.86   15.20
   0   7  -4  398.06   16.60
   0   7  -4  405.96   14.30
   0   7  -4  428.06   15.10
   1  -7   4  149.29    5.30
  -1  -7  -4  132.79    5.90
  -1  -7  -4  138.99    6.20
  -1  -7  -4  143.49    5.50
  -1  -7  -4  143.89    7.00
   1  -7   4  151.08    5.70
   1   7   4  140.09    6.70
  -1   7  -4  156.38    5.90
   1   7   4  145.89    5.60
  -1   7  -4  172.48    6.80
   1   7   4  152.68    5.70
  -2  -7  -4  140.89    5.30
   2  -7   4  138.29    5.10
   2  -7   4  133.59    5.70
  -2  -7  -4  129.69    6.20
  -2  -7  -4  152.38    5.80
   2   7   4  139.69    6.40
   2   7   4  136.39    5.20
  -2   7  -4  149.49    5.60
  -2   7  -4  147.89    6.30
   2   7   4  142.09    5.30
  -3  -7  -4  287.47   10.30
   3  -7   4  270.77    9.70
  -3  -7  -4  281.77   10.50
  -3  -7  -4  273.47    9.80
  -3  -7  -4  261.17   11.50
  -3   7  -4  250.17    9.50
   3   7   4  241.28    9.70
   3   7   4  239.78    8.90
  -3   7  -4  238.98    8.80
   3   7   4  239.18    8.50
  -4  -7  -4   58.39    3.80
  -4  -7  -4   65.79    3.10
  -4  -7  -4   69.19    3.00
   4  -7   4   67.09    2.60
   4   7   4   68.09    3.70
   4   7   4   69.09    3.00
  -4   7  -4   64.29    2.80
  -4   7  -4   64.89    3.30
   4   7   4   70.89    2.70
  -5  -7  -4  164.88    5.80
  -5  -7  -4  155.78    6.00
   5  -7   4  161.78    5.70
   5   7   4  155.38    5.50
   5   7   4  153.08    6.40
   5   7   4  156.08    5.70
  -7  -8   4   10.40    0.90
  -7  -8   4    9.60    0.80
   7   8  -4    9.60    0.80
  -7   8   4    9.20    1.60
  -7   8   4   10.60    1.00
   7   8  -4   10.40    0.60
  -6  -8   4   93.39    3.50
  -6  -8   4   95.09    3.60
  -6  -8   4   90.09    3.60
   6   8  -4  119.99    4.70
  -6   8   4  133.49    5.00
  -6   8   4  125.89    6.30
  -5  -8   4  123.59    4.70
  -5  -8   4  125.39    4.60
  -5   8   4  135.49    6.50
  -5   8   4  106.49    4.80
   5   8  -4  120.69    4.50
  -4  -8   4  260.77    9.30
   4  -8  -4  257.77   10.20
  -4  -8   4  265.97    9.30
  -4   8   4  248.98    9.20
  -4   8   4  248.28    8.90
  -4   8   4  263.87   10.80
   4   8  -4  235.48    8.80
  -3  -8   4  192.48    6.90
  -3  -8   4  192.68    7.30
   3  -8  -4  188.68    7.80
  -3   8   4  205.78    7.60
  -3   8   4  219.78    9.40
  -3   8   4  208.08    7.80
   3   8  -4  212.28    7.80
  -2  -8   4  185.98    6.90
   2  -8  -4  190.88    6.90
  -2  -8   4  194.58    7.30
  -2  -8   4  194.38    6.80
   2  -8  -4  193.48    7.30
   2  -8  -4  191.58    7.80
  -2   8   4  188.98    7.10
  -2   8   4  201.38    8.80
  -2   8   4  214.58    7.60
  -2   8   4  202.98    7.80
   2   8  -4  199.18    7.60
   1  -8  -4  460.55   17.40
   1  -8  -4  496.45   16.80
   1  -8  -4  478.05   16.60
  -1  -8   4  477.55   16.80
   1  -8  -4  457.75   17.00
  -1  -8   4  465.45   16.30
  -1  -8   4  475.65   16.30
  -1   8   4  447.96   17.40
  -1   8   4  470.15   16.20
   0  -8  -4  134.09    5.20
   0  -8  -4  129.99    5.90
   0  -8   4  135.39    4.90
   0  -8  -4  136.69    5.20
   0  -8   4  132.29    5.30
   0  -8  -4  128.29    5.70
   0   8   4  125.99    4.90
   0   8  -4  131.09    5.80
   0   8   4  117.89    5.90
   0   8  -4  129.29    4.90
  -1  -8  -4  297.67   10.60
  -1  -8  -4  288.37   10.70
   1  -8   4  290.57   10.80
  -1  -8  -4  302.87   11.40
   1  -8   4  300.17   10.40
  -1  -8  -4  287.57   11.50
  -1   8  -4  319.97   11.50
   1   8   4  305.47   12.40
  -1   8  -4  353.86   12.50
   1   8   4  309.07   11.30
   1   8   4  308.07   11.40
   2  -8   4  235.68    8.50
  -2  -8  -4  237.48    8.70
  -2  -8  -4  244.68    9.40
  -2   8  -4  226.68    8.20
   2   8   4  220.28    9.10
   2   8   4  216.78    7.90
  -2   8  -4  231.68    9.00
   2   8   4  216.68    7.90
  -3  -8  -4   14.10    1.10
   3  -8   4   13.90    1.10
  -3  -8  -4   13.20    1.50
   3   8   4   10.90    0.90
   3   8   4   11.20    1.10
  -3   8  -4   11.40    1.40
  -3   8  -4   12.00    1.00
   3   8   4   10.80    1.50
   4  -8   4  103.19    3.90
  -4  -8  -4  114.19    4.10
  -4  -8  -4  105.49    4.00
  -4  -8  -4  102.89    4.30
   4   8   4  114.49    4.30
  -4   8  -4  105.29    4.10
   4   8   4  107.39    4.00
   4   8   4  108.39    4.90
   5  -8   4    7.90    0.60
  -5  -8  -4    7.80    0.70
   5   8   4    7.50    1.00
   5   8   4    8.00    0.80
  -7  -9   4  237.18    8.50
  -7  -9   4  253.67    8.50
  -7  -9   4  243.78    8.50
   7   9  -4  268.87    9.30
  -7   9   4  273.07    9.40
   7   9  -4  276.87    9.20
  -7   9   4  251.97   10.20
  -6  -9   4    4.00    0.50
  -6  -9   4    2.50    0.50
  -6  -9   4    2.50    0.50
  -6   9   4    1.70    0.60
  -6   9   4    2.40    1.30
   6   9  -4    1.80    0.40
  -5  -9   4  461.25   16.30
  -5  -9   4  484.45   16.30
   5   9  -4  456.25   15.20
  -5   9   4  417.66   15.50
  -4  -9   4  110.69    4.20
  -4   9   4  107.99    5.70
  -4   9   4  101.49    4.30
  -3  -9   4  221.78    8.00
  -3  -9   4  230.18    8.50
  -3   9   4  264.27   10.70
   3   9  -4  237.18    9.30
  -3   9   4  247.48    9.10
  -2  -9   4  333.97   11.20
  -2  -9   4  334.37   11.70
   2  -9  -4  301.67   12.20
  -2  -9   4  315.47   11.20
  -2   9   4  299.77   10.70
   2   9  -4  290.77   10.70
  -2   9   4  288.87   11.90
   1  -9  -4   83.69    3.60
  -1  -9   4   80.89    3.20
  -1  -9   4   83.49    3.70
   1  -9  -4   80.59    3.30
  -1  -9   4   86.59    3.20
   1  -9  -4   79.99    4.20
   1  -9  -4   86.79    3.90
  -1   9   4   93.59    3.80
  -1   9   4   87.79    4.90
   0  -9  -4  289.17   11.30
   0  -9   4  301.27   10.50
   0  -9  -4  310.57   10.80
   0  -9  -4  291.17   10.70
   0  -9   4  302.37   10.90
   0  -9  -4  296.57   11.90
   0   9   4  274.67    9.80
   0   9  -4  271.97    9.70
   0   9   4  267.57   10.90
  -1  -9  -4   83.79    3.50
  -1  -9  -4   78.79    4.10
   1  -9   4   84.19    3.60
   1  -9   4   84.19    3.20
   1   9   4  102.19    5.10
  -1   9  -4  103.09    4.10
   1   9   4  102.99    4.00
  -1   9  -4  100.69    4.90
  -2  -9  -4  150.68    6.10
  -2  -9  -4  142.99    5.40
  -2  -9  -4  135.49    5.40
   2  -9   4  140.09    5.20
   2   9   4  141.79    5.30
   2   9   4  150.48    6.50
  -2   9  -4  137.39    6.20
  -2   9  -4  150.88    5.50
  -3  -9  -4  252.17    9.20
  -3  -9  -4  256.67    9.70
  -3  -9  -4  267.87    9.20
   3  -9   4  261.47    9.10
   3   9   4  246.08    9.80
  -3   9  -4  258.57    9.10
  -4  -9  -4    2.90    0.40
  -4  -9  -4    3.40    0.50
   4  -9   4    2.60    0.50
  -4  -9  -4    2.10    0.60
   4   9   4    3.40    0.90
   4   9   4    3.30    0.60
  -6 -10   4  116.79    4.10
  -6 -10   4  112.59    4.10
  -6  10   4  108.69    5.10
   6  10  -4  114.09    4.10
  -6  10   4  119.09    4.30
  -5 -10   4    9.00    0.80
  -5  10   4    7.00    0.80
   5  10  -4    8.20    0.80
  -5  10   4    9.40    1.60
  -4 -10   4  173.58    6.60
  -4 -10   4  183.38    6.40
  -4  10   4  157.38    6.20
  -4  10   4  174.48    7.50
  -3 -10   4  288.37   10.40
  -3 -10   4  284.17   10.00
  -3  10   4  316.87   12.70
  -3  10   4  316.97   11.30
  -2 -10   4    2.60    0.50
  -2 -10   4    3.70    0.80
  -2  10   4    7.10    0.90
  -2  10   4    3.90    1.40
   1 -10  -4  367.86   13.30
  -1 -10   4  370.56   12.90
  -1 -10   4  382.06   13.40
  -1  10   4  387.36   13.70
  -1  10   4  386.36   14.80
   0 -10   4  109.99    4.50
   0 -10  -4  108.29    4.40
   0 -10  -4  106.49    4.80
   0 -10   4  108.09    4.00
   0  10   4  109.49    5.40
   0  10   4  108.99    4.30
   1 -10   4  184.98    7.00
  -1 -10  -4  168.68    7.40
   1 -10   4  191.18    6.60
  -1 -10  -4  198.58    6.90
   1  10   4  191.18    6.80
   1  10   4  196.48    7.90
  -1  10  -4  173.98    6.80
   2 -10   4  101.69    3.90
  -2 -10  -4  106.69    4.10
  -2 -10  -4  110.69    4.70
   2  10   4   92.79    3.40
  -2  10  -4   88.39    3.60
   2  10   4   95.19    4.40
  -3 -10  -4   54.79    2.20
  -3 -10  -4   58.59    2.70
  -3 -10  -4   53.99    2.30
   3 -10   4   55.99    2.20
   3  10   4   47.20    2.60
  -5 -11   4  102.39    3.70
  -5  11   4   99.79    4.60
  -5  11   4  106.99    3.80
   5  11  -4   95.39    3.70
  -4 -11   4   23.90    1.40
  -4 -11   4   25.90    1.20
  -4  11   4   29.10    1.50
  -4  11   4   32.30    2.60
  -3 -11   4   50.09    2.30
  -3 -11   4   50.09    2.00
  -3  11   4   43.60    3.00
  -3  11   4   38.40    1.80
  -2 -11   4  218.18    8.00
  -2 -11   4  239.18    8.40
  -2  11   4  238.68    9.30
  -2  11   4  216.38    8.30
  -1 -11   4   15.60    1.30
  -1  11   4   13.80    1.10
  -1  11   4   14.10    1.80
   0 -11  -4  242.28    8.70
   0 -11   4  246.68    8.40
   0 -11  -4  242.58    9.00
   0 -11   4  233.18    8.70
   0  11   4  246.48    9.60
   0  11   4  237.08    8.60
  -1 -11  -4   36.60    1.80
   1 -11   4   35.40    1.80
   1 -11   4   38.60    1.60
   1  11   4   39.40    1.70
   1  11   4   40.50    2.60
  -2 -11  -4   88.99    3.30
   2 -11   4   85.39    3.20
  -2 -11  -4   87.89    3.70
   2  11   4   86.89    3.90
   2  11   4   86.19    3.10
  -2 -12   4  127.79    4.80
  -2  12   4   88.19    3.40
  -1 -12   4  201.68    7.30
  -1  12   4  178.58    6.70
  -1  12   4  197.48    7.50
   0 -12   4    3.30    0.50
   0 -12  -4    4.60    0.70
   0  12   4    3.10    0.40
   0  12   4    2.60    0.80
  -9   0   5  166.28    6.00
  -9   0   5  167.78    5.90
   9   0  -5  157.68    5.90
  -8   0   5    6.90    0.80
  -8   0   5    3.70    0.70
   8   0  -5    5.90    0.70
   8   0  -5    4.80    0.70
  -7   0   5  161.28    6.00
   7   0  -5  165.88    6.00
  -7   0   5  163.98    6.00
  -7   0   5  158.68    6.10
   7   0  -5  167.78    6.00
  -6   0   5   10.90    1.10
   6   0  -5    9.60    1.50
   6   0  -5   13.90    1.70
  -6   0   5    9.80    0.90
   5   0  -5  325.37   11.10
   5   0  -5  314.47   12.10
  -5   0   5  328.77   11.20
  -5   0   5  313.97   11.40
  -4   0   5   49.60    2.00
   4   0  -5   46.20    2.30
   4   0  -5   51.19    2.20
   4   0  -5   50.49    2.80
  -3   0   5    7.50    0.50
   3   0  -5    6.30    1.10
   3   0  -5    6.80    1.00
   3   0  -5    6.80    0.80
   2   0  -5 2437.46   87.89
   2   0  -5 2601.44   87.59
   2   0  -5 2665.23   87.79
   1   0  -5   73.69    3.60
   1   0  -5   81.89    3.70
   0   0  -5  639.44   21.40
   0   0  -5  564.54   21.10
  -1   0  -5  318.67   11.80
   1   0   5  325.67   12.30
  -1   0  -5  299.87   11.30
   2   0   5    0.20    0.90
  -2   0  -5    1.10    0.80
   3   0   5  346.87   13.90
   3   0   5  350.86   12.40
  -3   0  -5  354.56   14.20
   4   0   5    4.00    0.60
   4   0   5    4.00    0.70
   5   0   5  154.28    5.80
   5   0   5  157.48    5.70
   6   0   5   15.00    0.90
  -9  -1   5   62.69    2.50
   9  -1  -5   61.09    2.50
  -9  -1   5   65.39    2.70
   9   1  -5   63.79    2.60
  -9   1   5   69.99    2.70
  -9   1   5   67.79    2.70
   9   1  -5   61.69    2.50
  -8  -1   5  345.47   12.30
  -8  -1   5  353.36   12.50
   8  -1  -5  357.06   12.40
   8  -1  -5  359.26   12.40
  -8   1   5  386.36   14.00
  -8   1   5  405.16   13.90
   8   1  -5  400.46   13.80
   8   1  -5  395.06   13.80
   7  -1  -5   88.89    3.50
  -7  -1   5   87.09    3.50
  -7  -1   5   89.19    3.60
  -7  -1   5   89.59    3.50
   7  -1  -5   89.79    3.60
  -7   1   5   85.59    3.40
  -7   1   5   85.59    3.50
   7   1  -5   89.99    3.40
   7   1  -5   82.69    3.40
  -7   1   5   88.39    3.40
   6  -1  -5  279.17   10.80
   6  -1  -5  281.27   11.30
  -6  -1   5  284.47    9.90
  -6  -1   5  277.07   10.20
  -6   1   5  290.47   10.10
   6   1  -5  284.27   11.10
  -6   1   5  284.57   10.40
   5  -1  -5  212.48    8.20
  -5  -1   5  193.88    7.60
  -5  -1   5  213.38    7.30
  -5   1   5  209.48    8.00
   5   1  -5  219.68    8.80
  -5   1   5  228.08    7.80
   5   1  -5  225.18    7.80
   4  -1  -5  316.17   11.70
  -4  -1   5  341.07   11.40
   4  -1  -5  327.77   12.30
   4  -1  -5  334.17   11.60
   4   1  -5  296.77   10.50
   4   1  -5  296.17   11.20
  -4   1   5  279.57   10.40
   4   1  -5  295.87   10.70
  -4   1   5  308.57   10.30
   3  -1  -5  379.66   13.60
  -3  -1   5  357.36   12.60
   3  -1  -5  382.46   13.40
   3  -1  -5  355.66   12.90
  -3   1   5  344.47   12.80
   3   1  -5  380.66   13.10
   3   1  -5  334.57   12.40
   3   1  -5  344.17   12.80
  -3   1   5  366.16   12.10
   2  -1  -5  137.39    6.10
   2  -1  -5  145.09    5.80
   2  -1  -5  149.39    5.90
  -2   1   5  146.99    5.90
   2   1  -5  144.29    5.90
   2   1  -5  144.39    6.10
   2   1  -5  148.29    6.00
   1  -1  -5  783.62   28.50
   1  -1  -5  832.52   28.30
   1   1  -5  765.42   28.10
   1   1  -5  847.52   28.30
   0  -1  -5  286.17   10.70
   0  -1  -5  282.57   10.80
   0   1  -5  239.18    8.80
   0   1  -5  219.98    8.50
  -1  -1  -5  237.68    9.10
  -1  -1  -5  238.38    9.30
   1   1   5  252.17    9.90
  -1   1  -5  251.87    9.40
  -1   1  -5  231.78    8.80
  -2  -1  -5  400.66   14.80
  -2  -1  -5  395.16   14.40
   2  -1   5  387.26   15.10
   2   1   5  398.46   15.40
  -3  -1  -5    2.30    1.00
   3  -1   5    2.70    1.20
  -3  -1  -5    2.10    0.80
   3  -1   5    1.30    0.60
   3   1   5    1.50    0.50
   3   1   5    1.00    0.60
   3   1   5    1.20    0.60
  -4  -1  -5  174.58    7.10
   4  -1   5  176.18    6.50
   4   1   5  168.18    6.30
   4   1   5  176.38    6.40
   5   1   5   31.60    1.70
   5   1   5   32.60    1.60
   6   1   5   68.19    2.70
   6   1   5   71.79    2.70
  -9  -2   5   27.80    1.40
   9  -2  -5   30.40    1.50
  -9  -2   5   32.00    1.50
  -9   2   5   28.90    1.50
   9   2  -5   28.70    1.30
  -9   2   5   30.70    1.50
   8  -2  -5    7.80    0.80
   8  -2  -5    8.70    0.80
  -8  -2   5    9.00    1.00
  -8  -2   5    7.40    0.80
   8   2  -5    6.20    0.70
  -8   2   5    4.60    0.80
  -8   2   5    4.70    0.80
  -7  -2   5  577.84   19.70
   7  -2  -5  575.34   19.60
  -7  -2   5  532.55   19.60
   7  -2  -5  579.44   19.70
  -7   2   5  532.95   18.70
  -7   2   5  514.15   18.60
   7   2  -5  557.64   18.50
  -6  -2   5  351.26   12.00
  -6  -2   5  334.37   12.40
   6   2  -5  329.67   12.70
  -6   2   5  331.67   11.90
  -6   2   5  337.47   11.60
   6   2  -5  320.97   13.10
  -5  -2   5 1183.28   41.20
  -5  -2   5 1262.27   40.90
   5  -2  -5 1152.18   41.70
   5   2  -5 1203.68   42.30
  -5   2   5 1210.38   41.30
   5   2  -5 1241.08   41.30
  -5   2   5 1193.08   41.50
   4  -2  -5  503.35   18.50
   4  -2  -5  553.14   18.50
  -4  -2   5  557.24   18.30
   4  -2  -5  522.95   19.20
   4   2  -5  500.75   17.90
  -4   2   5  509.15   16.90
   4   2  -5  485.35   17.30
   4   2  -5  496.45   17.10
  -4   2   5  468.95   17.00
   3  -2  -5   29.70    1.60
   3  -2  -5   29.40    2.00
   3  -2  -5   32.20    2.00
   3   2  -5   19.30    1.30
   3   2  -5   20.70    1.70
  -3   2   5   21.60    1.60
  -3   2   5   21.90    0.90
   2  -2  -5  752.02   26.30
   2  -2  -5  741.93   27.00
   2  -2  -5  761.92   26.40
   2   2  -5  792.92   28.70
   2   2  -5  844.22   28.70
  -2   2   5  808.22   28.60
   2   2  -5  822.82   28.50
   1  -2  -5   25.70    2.10
   1  -2  -5   27.30    1.90
  -1   2   5   29.80    2.00
   1   2  -5   30.80    2.00
   1   2  -5   30.30    1.80
   0  -2  -5  450.35   16.40
   0  -2  -5  452.95   16.70
   0   2  -5  367.16   13.60
   0   2  -5  395.26   13.90
  -1  -2  -5  173.68    7.10
  -1  -2  -5  173.08    7.30
   1   2   5  162.78    6.90
  -1   2  -5  148.09    5.80
  -2  -2  -5  178.68    7.40
  -2  -2  -5  173.28    7.30
   2   2   5  168.08    7.60
   3  -2   5  314.37   11.10
  -3  -2  -5  315.67   12.00
   3   2   5  287.07   10.10
   3   2   5  270.67    9.80
   3   2   5  278.97    9.90
   3   2   5  283.27   10.10
  -4  -2  -5    4.30    1.10
   4  -2   5    4.20    0.70
   4   2   5    2.90    0.60
   4   2   5    3.40    0.60
   4   2   5    2.60    0.70
  -5  -2  -5   77.69    3.70
   5   2   5   83.09    3.30
   5   2   5   77.89    3.10
   5   2   5   83.49    3.20
   6   2   5   98.59    3.80
   6   2   5  105.79    3.70
  -9  -3   5   29.50    1.50
   9  -3  -5   27.40    1.40
  -9   3   5   27.30    1.40
   9   3  -5   27.10    1.20
  -9   3   5   27.90    1.40
  -8  -3   5  193.28    6.90
   8  -3  -5  178.78    6.80
   8  -3  -5  192.18    6.80
  -8   3   5  210.38    7.50
  -8   3   5  202.98    7.60
   8   3  -5  214.98    7.50
  -7  -3   5   76.99    3.20
   7  -3  -5   80.69    3.30
  -7  -3   5   78.79    3.10
  -7  -3   5   73.89    3.20
   7  -3  -5   81.29    3.20
   7   3  -5   79.59    3.10
  -7   3   5   70.39    3.10
  -7   3   5   76.69    3.30
  -7   3   5   81.39    3.20
  -6  -3   5   48.10    2.20
   6  -3  -5   52.99    2.30
  -6  -3   5   51.29    2.20
  -6  -3   5   48.20    2.20
   6  -3  -5   50.29    2.40
  -6   3   5   38.60    1.80
  -6   3   5   37.60    1.90
  -6   3   5   36.50    1.80
   6   3  -5   37.00    1.80
  -5  -3   5  818.82   28.00
   5   3  -5  767.02   28.40
  -5   3   5  772.52   27.20
  -5   3   5  805.22   27.00
   5   3  -5  788.32   28.00
   5   3  -5  798.62   26.90
   4  -3  -5  166.68    7.40
  -4  -3   5  180.78    6.30
   4  -3  -5  181.18    6.40
  -4   3   5  151.48    5.80
   4   3  -5  155.08    6.20
  -4   3   5  171.08    5.80
   4   3  -5  163.08    6.70
   4   3  -5  160.88    5.90
   3  -3  -5  959.70   32.70
   3  -3  -5  917.41   32.80
   3  -3  -5  941.61   32.30
  -3   3   5  887.61   31.20
   3   3  -5  866.41   30.60
   3   3  -5  883.51   31.00
  -3   3   5  931.91   30.30
   3   3  -5  884.21   31.20
   2  -3  -5    2.10    0.70
   2  -3  -5    0.90    0.70
   2  -3  -5    2.30    0.50
  -2   3   5    2.60    0.90
   2   3  -5    1.40    0.70
   2   3  -5    1.50    0.70
   2   3  -5    1.60    0.70
   1  -3  -5  818.42   29.50
   1  -3  -5  824.22   28.80
   1  -3  -5  819.52   28.70
  -1   3   5  810.72   27.60
   1   3  -5  777.02   27.40
   1   3  -5  754.02   27.30
   0  -3  -5  484.85   18.80
   0  -3  -5  521.15   18.20
   0   3   5  523.65   18.40
   0   3  -5  494.75   18.00
  -1  -3  -5  172.68    7.00
  -1  -3  -5  160.08    6.40
  -1  -3  -5  173.38    7.50
  -1   3  -5  191.68    7.20
   1   3   5  191.28    8.10
  -2  -3  -5  787.52   27.90
  -2  -3  -5  817.52   28.20
  -2  -3  -5  734.33   27.00
   2   3   5  807.32   29.30
  -3  -3  -5   35.70    2.60
  -3  -3  -5   37.90    2.00
   3  -3   5   35.60    1.80
   3   3   5   35.90    1.70
   3   3   5   37.40    1.80
   3   3   5   37.00    2.00
  -4  -3  -5  341.87   12.20
  -4  -3  -5  336.97   13.00
   4   3   5  340.97   12.10
   4   3   5  349.67   12.40
   4   3   5  354.86   12.20
  -5  -3  -5   98.19    3.90
   5   3   5  108.99    4.10
   5   3   5  109.49    4.20
   5   3   5  106.99    4.00
   6   3   5  101.09    3.60
   6   3   5   98.89    3.70
  -9  -4   5  142.19    5.20
   9   4  -5  126.59    4.60
  -9   4   5  130.79    4.70
  -9   4   5  130.49    4.80
  -8  -4   5   27.80    1.40
   8  -4  -5   30.90    1.50
  -8  -4   5   31.90    1.60
  -8   4   5   32.10    1.60
  -8   4   5   33.00    1.80
   8   4  -5   34.40    1.60
  -7  -4   5  209.38    7.60
   7  -4  -5  213.28    7.80
   7  -4  -5  216.58    7.70
  -7  -4   5  207.88    7.70
   7   4  -5  212.58    7.60
  -7   4   5  210.68    7.60
  -7   4   5  214.48    7.90
  -6  -4   5   24.80    1.40
   6  -4  -5   26.70    1.50
   6  -4  -5   27.20    1.70
  -6  -4   5   25.20    1.40
  -6   4   5   34.20    1.70
   6   4  -5   33.80    1.70
  -6   4   5   35.90    1.90
  -6   4   5   33.10    1.70
  -5  -4   5  613.44   21.10
   5   4  -5  593.44   21.60
  -5   4   5  587.64   20.70
  -5   4   5  618.34   20.50
   5   4  -5  578.14   22.00
   5   4  -5  593.04   20.40
   4  -4  -5   54.89    2.30
  -4   4   5   66.39    3.00
   4   4  -5   72.39    3.30
   4   4  -5   76.59    3.00
   4   4  -5   73.49    3.70
  -4   4   5   76.19    2.90
   3  -4  -5  259.97    9.30
   3  -4  -5  257.07    9.60
   3   4  -5  247.58    9.50
   3   4  -5  240.08    9.70
  -3   4   5  256.97    8.70
  -3   4   5  261.37    9.80
   2  -4  -5  627.94   22.00
   2  -4  -5  631.54   21.50
   2  -4  -5  600.14   22.00
   2   4  -5  621.64   21.90
   2   4  -5  601.84   22.10
  -2   4   5  629.64   22.20
   1  -4  -5  187.88    7.30
   1  -4  -5  172.78    8.10
   1  -4  -5  183.58    7.30
  -1   4   5  172.08    6.90
   1   4  -5  160.88    6.60
   0  -4  -5  297.57   13.20
   0  -4  -5  350.06   12.10
   0  -4  -5  344.47   12.50
   0   4  -5  295.27   11.20
   0   4   5  327.57   11.90
   0   4  -5  317.97   11.60
  -1  -4  -5  560.94   19.80
  -1  -4  -5  583.54   20.70
  -1  -4  -5  491.35   19.20
   1   4   5  541.35   20.50
  -1   4  -5  537.35   19.70
   1   4   5  551.84   20.10
  -1   4  -5  599.44   21.80
  -2  -4  -5   68.39    3.30
  -2  -4  -5   73.09    3.90
  -2  -4  -5   74.49    4.30
   2   4   5   70.79    3.70
   2   4   5   72.89    3.20
  -2   4  -5   63.19    4.50
   2   4   5   67.29    4.10
  -2   4  -5   67.69    3.10
   2   4   5   56.89    3.30
  -3  -4  -5  114.49    4.80
  -3  -4  -5  120.49    5.80
   3   4   5  120.89    4.50
   3   4   5  120.39    4.60
   3   4   5  125.39    4.80
  -4  -4  -5    2.30    1.10
  -4  -4  -5    1.50    0.60
   4   4   5    1.50    0.50
   4   4   5    3.10    0.60
   4   4   5    1.90    0.70
  -5  -4  -5   60.89    2.70
   5   4   5   64.29    2.70
   5   4   5   61.79    2.50
   5   4   5   62.19    2.50
  -9  -5   5   14.10    0.90
  -9   5   5    9.00    0.70
  -9   5   5    7.70    0.70
   9   5  -5    8.20    0.50
  -8  -5   5  283.77    9.70
  -8  -5   5  263.97    9.60
   8   5  -5  262.57    9.40
  -8   5   5  261.57    9.60
   8   5  -5  284.57    9.60
  -8   5   5  285.47    9.80
   7  -5  -5    9.20    1.00
  -7  -5   5    9.40    1.00
  -7  -5   5    8.30    0.80
   7   5  -5   10.10    0.90
  -7   5   5   10.20    1.20
  -7   5   5   10.50    0.90
   6  -5  -5  363.46   12.40
  -6  -5   5  338.27   12.10
  -6  -5   5  333.37   12.10
  -6  -5   5  342.97   12.10
  -6   5   5  294.77   11.00
   6   5  -5  311.27   10.90
  -6   5   5  321.57   11.20
  -6   5   5  311.67   10.90
   5  -5  -5  568.14   20.10
  -5  -5   5  584.44   19.80
  -5  -5   5  563.74   19.60
   5   5  -5  609.74   20.80
  -5   5   5  611.34   20.80
   5   5  -5  572.54   22.00
  -5   5   5  602.14   20.90
   5   5  -5  593.24   20.90
  -5   5   5  633.74   21.10
   4  -5  -5   44.70    1.90
   4   5  -5   58.09    2.60
  -4   5   5   60.99    2.40
   4   5  -5   56.39    2.80
   3  -5  -5  703.03   24.30
  -3   5   5  702.23   25.30
  -3   5   5  699.63   24.10
   3   5  -5  687.13   24.90
   3   5  -5  735.63   24.50
   2  -5  -5   15.00    1.20
   2  -5  -5   14.40    1.50
   2   5  -5   14.40    1.00
  -2   5   5   14.60    1.70
   2   5  -5   15.80    1.50
   2   5  -5   15.10    1.60
   1  -5  -5  674.03   24.00
   1  -5  -5  690.73   24.30
  -1   5   5  659.43   23.30
   1   5  -5  658.23   23.10
   1   5  -5  622.54   22.20
   0  -5  -5  168.98    6.90
   0  -5  -5  168.08    6.90
   0  -5  -5  160.08    6.60
   0   5  -5  189.08    9.40
   0   5  -5  191.08    7.00
   0   5   5  192.98    7.90
   0   5  -5  195.78    7.60
  -1  -5  -5  362.16   14.20
  -1  -5  -5  318.27   12.60
  -1  -5  -5  348.67   13.10
   1   5   5  324.47   12.80
  -1   5  -5  343.57   12.60
  -1   5  -5  355.16   14.60
  -2  -5  -5  380.26   13.60
   2  -5   5  362.76   13.20
  -2  -5  -5  396.16   15.00
   2  -5   5  350.26   13.20
  -2   5  -5  362.06   13.00
   2   5   5  365.96   12.30
   2   5   5  349.27   12.40
   2   5   5  331.07   12.50
  -3  -5  -5   12.80    1.90
  -3  -5  -5   11.50    1.30
   3   5   5    9.70    0.90
   3   5   5    8.60    1.00
  -3   5  -5    9.90    1.00
   3   5   5   10.30    0.90
  -4  -5  -5  157.28    5.90
  -4  -5  -5  142.79    6.70
   4   5   5  133.39    5.10
   4   5   5  138.79    5.30
   4   5   5  140.79    5.00
  -5  -5  -5  166.18    6.20
   5   5   5  180.48    6.40
   5   5   5  177.18    6.20
   5   5   5  168.88    6.20
  -8  -6   5   62.69    2.50
  -8  -6   5   65.19    2.60
  -8   6   5   56.29    2.40
   8   6  -5   64.49    2.40
  -8   6   5   63.99    2.60
   8   6  -5   59.49    2.20
  -7  -6   5  230.88    8.40
  -7  -6   5  240.38    8.40
  -7   6   5  252.87    8.90
   7   6  -5  246.28    8.70
  -7   6   5  238.38    8.60
   7   6  -5  242.18    8.50
  -6  -6   5   20.20    1.30
   6  -6  -5   20.70    1.60
  -6  -6   5   18.80    1.20
   6   6  -5   11.80    1.00
  -6   6   5   12.70    1.20
  -5  -6   5  289.37   10.20
   5  -6  -5  288.67   10.70
  -5  -6   5  298.97   10.30
  -5   6   5  326.07   11.20
  -5   6   5  315.77   11.20
   5   6  -5  308.77   11.20
   5   6  -5  302.47   11.00
  -5   6   5  332.17   11.50
  -4  -6   5  492.85   16.80
  -4  -6   5  483.25   16.90
   4   6  -5  446.96   15.70
  -4   6   5  445.16   15.50
  -4   6   5  455.05   15.80
  -4   6   5  444.16   15.60
   3  -6  -5  133.69    5.10
  -3   6   5  123.39    4.40
   3   6  -5  120.19    5.30
   3   6  -5  123.69    4.90
  -3   6   5  124.99    5.80
   2  -6  -5  423.36   15.60
   2  -6  -5  436.36   15.20
   2   6  -5  409.36   15.60
   2   6  -5  429.96   14.90
  -2   6   5  433.26   16.00
   1  -6  -5   29.90    2.20
   1  -6  -5   31.30    1.80
   1   6  -5   29.00    3.30
  -1   6   5   37.50    2.70
   1   6  -5   39.50    2.50
   1   6  -5   38.80    1.80
   0  -6  -5  178.08    7.40
   0  -6  -5  195.78    7.70
   0   6   5  197.28    8.30
   0   6  -5  223.68    8.30
   0   6  -5  202.58    7.40
   0   6  -5  186.58    9.80
  -1  -6  -5   51.89    3.90
  -1  -6  -5   45.90    2.80
   1  -6   5   48.90    2.50
  -1  -6  -5   50.79    2.40
   1  -6   5   51.99    2.20
  -1   6  -5   65.99    2.80
   1   6   5   65.99    2.70
   1   6   5   60.49    2.70
  -1   6  -5   70.19    3.40
   1   6   5   63.39    2.70
  -2  -6  -5  126.09    6.40
   2  -6   5  119.49    4.90
  -2  -6  -5  116.69    4.70
  -2  -6  -5  130.39    5.30
   2   6   5  131.59    4.80
   2   6   5  130.69    4.80
  -2   6  -5  130.29    4.90
  -2   6  -5  130.39    5.50
   2   6   5  118.09    5.00
  -3  -6  -5   69.99    4.30
  -3  -6  -5   76.69    3.40
   3   6   5   70.99    3.10
   3   6   5   69.19    2.70
   3   6   5   66.69    2.70
  -3   6  -5   65.19    3.20
  -4  -6  -5   21.80    1.60
  -4  -6  -5   23.40    1.50
   4   6   5   17.70    1.10
   4   6   5   18.70    1.40
   4   6   5   20.10    1.10
   5   6   5   35.10    1.50
   5   6   5   34.80    1.70
   5   6   5   33.50    1.40
  -8  -7   5  129.69    4.60
  -8  -7   5  127.79    4.70
  -8   7   5  114.09    5.30
   8   7  -5  123.39    4.40
   8   7  -5  128.39    4.50
  -8   7   5  131.89    4.60
  -7  -7   5   97.09    3.50
  -7  -7   5   82.39    3.40
  -7   7   5   83.49    4.50
   7   7  -5   86.09    3.20
   7   7  -5   88.79    3.30
  -7   7   5   90.39    3.60
  -6  -7   5  171.88    6.50
  -6  -7   5  180.88    6.40
  -6  -7   5  189.48    6.60
   6   7  -5  162.88    6.00
  -6   7   5  153.48    7.40
  -6   7   5  172.08    6.30
  -5  -7   5   30.60    1.60
  -5  -7   5   30.30    1.50
  -5   7   5   45.80    2.10
  -5   7   5   42.90    3.60
   5   7  -5   41.90    2.00
  -5   7   5   47.20    2.30
  -5   7   5   42.40    1.90
  -4  -7   5  143.89    5.40
  -4  -7   5  149.29    5.40
  -4   7   5  127.49    4.70
   4   7  -5  124.29    4.90
  -4   7   5  126.59    4.80
  -4   7   5  129.99    5.00
  -3  -7   5  425.96   15.10
  -3  -7   5  423.96   14.70
  -3  -7   5  431.06   14.70
   3  -7  -5  435.86   14.70
   3  -7  -5  405.56   15.10
  -3   7   5  390.36   14.40
   3   7  -5  410.36   14.30
  -3   7   5  402.46   14.00
   2  -7  -5    7.60    1.10
  -2  -7   5   14.00    1.00
  -2  -7   5   11.60    1.30
   2  -7  -5   12.70    1.20
  -2   7   5   13.40    1.30
   2   7  -5   12.70    1.10
  -2   7   5   12.80    1.10
   1  -7  -5  448.36   15.50
  -1  -7   5  426.56   15.50
  -1  -7   5  433.26   15.10
   1  -7  -5  447.56   15.60
  -1  -7   5  432.26   15.20
  -1   7   5  447.86   15.70
   1   7  -5  442.56   16.60
   1   7  -5  457.65   15.70
  -1   7   5  432.96   15.50
   0  -7  -5  195.68    7.10
   0  -7   5  186.08    6.70
   0  -7  -5  177.68    7.10
   0  -7   5  186.48    7.10
   0  -7   5  188.88    6.70
   0   7  -5  180.78    6.70
   0   7   5  180.98    6.60
   0   7  -5  191.88    7.70
   0   7   5  174.08    6.70
  -1  -7  -5   11.00    1.40
   1  -7   5   13.60    1.30
  -1  -7  -5   13.00    1.20
  -1   7  -5   15.50    1.60
  -1   7  -5   15.00    1.10
   1   7   5   15.00    1.10
   1   7   5   15.10    1.10
  -2  -7  -5  392.86   14.20
  -2  -7  -5  392.36   13.70
   2  -7   5  379.46   13.80
   2   7   5  373.06   13.70
  -2   7  -5  393.16   13.80
   2   7   5  389.66   13.60
  -2   7  -5  411.06   14.60
  -3  -7  -5   31.50    1.60
  -3  -7  -5   33.50    2.20
  -3  -7  -5   32.20    2.00
   3   7   5   29.80    1.80
   3   7   5   28.40    1.40
  -3   7  -5   30.60    1.90
  -3   7  -5   28.90    1.50
   3   7   5   29.40    1.40
  -4  -7  -5  207.28    7.90
  -4  -7  -5  222.48    8.00
   4   7   5  210.28    7.40
   4   7   5  221.68    7.60
   4   7   5  219.88    7.40
  -4   7  -5  196.38    7.50
  -7  -8   5  230.18    7.80
  -7  -8   5  210.88    7.70
  -7   8   5  245.78    8.20
   7   8  -5  219.68    7.90
  -7   8   5  213.48    8.90
   7   8  -5  232.08    8.00
  -6  -8   5  135.59    5.00
  -6  -8   5  133.89    4.90
  -6   8   5  138.49    5.10
  -6   8   5  128.09    6.10
   6   8  -5  129.29    4.90
  -5  -8   5  152.48    5.60
  -5  -8   5  153.18    5.50
   5   8  -5  173.98    6.60
  -5   8   5  184.48    6.80
  -5   8   5  184.28    8.10
  -4  -8   5  288.87   10.50
  -4  -8   5  306.97   10.50
  -4   8   5  302.47   10.80
  -4   8   5  296.27   12.10
  -3  -8   5   39.10    1.80
  -3  -8   5   40.90    2.20
  -3   8   5   39.00    2.30
   3   8  -5   42.20    2.10
  -3   8   5   39.10    3.10
   2  -8  -5  246.48    9.80
  -2  -8   5  270.67    9.40
  -2  -8   5  277.17    9.80
  -2  -8   5  271.17    9.30
   2  -8  -5  265.37    9.50
  -2   8   5  300.07   12.20
  -2   8   5  316.87   11.30
  -1  -8   5   36.60    1.70
  -1  -8   5   39.60    2.20
   1  -8  -5   38.60    2.10
  -1  -8   5   41.10    1.80
   1  -8  -5   40.60    2.20
   1  -8  -5   37.20    2.50
  -1  -8   5   38.40    1.80
  -1   8   5   31.60    1.90
  -1   8   5   32.50    1.60
   1   8  -5   34.30    1.80
  -1   8   5   32.40    3.30
   0  -8   5  308.17   11.30
   0  -8   5  316.77   10.90
   0  -8   5  308.17   10.90
   0  -8  -5  304.07   11.30
   0  -8  -5  321.27   11.30
   0  -8  -5  311.17   11.90
   0   8  -5  332.47   11.40
   0   8   5  297.97   11.10
   0   8   5  321.17   11.30
   0   8  -5  318.37   12.30
   1  -8   5  405.86   14.00
  -1  -8  -5  344.77   14.50
  -1  -8  -5  413.56   14.00
   1  -8   5  407.86   13.60
  -1   8  -5  412.56   14.00
   1   8   5  390.06   13.70
  -1   8  -5  394.26   14.80
   1   8   5  382.86   13.80
   2  -8   5   44.80    2.20
  -2  -8  -5   46.00    2.70
  -2  -8  -5   44.10    2.10
   2  -8   5   44.60    1.90
  -2   8  -5   45.70    2.00
   2   8   5   43.00    1.90
  -2   8  -5   43.10    2.60
  -3  -8  -5  215.38    7.60
  -3  -8  -5  217.88    8.10
   3  -8   5  204.98    7.40
   3   8   5  181.98    6.80
  -3   8  -5  189.98    6.70
   3   8   5  187.38    6.60
  -4  -8  -5   35.80    1.60
  -4  -8  -5   35.30    1.80
   4   8   5   30.40    1.50
   4   8   5   30.20    1.30
  -6  -9   5  243.88    8.50
  -6  -9   5  244.38    8.50
  -6   9   5  268.97    9.00
   6   9  -5  244.68    8.80
  -6   9   5  235.88    9.70
  -5  -9   5   67.19    2.60
  -5  -9   5   61.29    2.50
   5   9  -5   59.99    2.50
  -5   9   5   61.39    2.70
  -5   9   5   56.09    3.60
  -4  -9   5  158.98    5.70
  -4   9   5  151.88    5.80
  -4   9   5  154.88    6.90
  -3  -9   5  493.15   17.50
  -3  -9   5  497.25   17.10
  -3   9   5  443.46   16.80
   2  -9  -5    0.80    0.70
  -2  -9   5    1.90    0.70
  -2  -9   5    1.80    0.50
  -2   9   5    1.10    0.60
  -2   9   5    1.30    1.10
  -1  -9   5  315.67   11.30
   1  -9  -5  335.57   11.80
   1  -9  -5  326.27   12.10
  -1  -9   5  328.77   11.30
  -1  -9   5  321.87   11.80
  -1  -9   5  326.27   11.40
  -1   9   5  336.07   11.80
  -1   9   5  322.67   12.70
   0  -9   5   32.20    1.50
   0  -9  -5   31.40    2.40
   0  -9   5   32.80    2.00
   0  -9  -5   33.90    1.90
   0   9   5   32.90    1.70
   0   9   5   28.40    2.40
   0   9  -5   34.50    1.70
   1  -9   5   38.00    2.00
   1  -9   5   36.50    1.70
  -1  -9  -5   42.40    2.00
  -1  -9  -5   32.10    2.40
   1   9   5   31.80    1.50
  -1   9  -5   34.30    1.70
   1   9   5   33.00    1.60
   1   9   5   33.40    2.50
  -2  -9  -5  103.29    4.20
   2  -9   5  107.29    4.00
  -2  -9  -5  117.29    4.80
  -2  -9  -5  111.79    4.20
  -2   9  -5  118.59    4.40
   2   9   5  117.49    5.10
   2   9   5  114.59    4.20
  -3  -9  -5    5.20    0.50
  -3  -9  -5    5.70    0.60
   3  -9   5    5.20    0.50
  -3  -9  -5    6.00    0.90
   3   9   5    4.90    0.50
  -5 -10   5  123.09    4.40
  -5  10   5  126.39    5.60
  -5  10   5  129.79    4.80
  -4 -10   5  280.37    9.80
  -4  10   5  256.57    9.10
  -4  10   5  256.77   10.10
  -3 -10   5   33.00    1.50
  -3 -10   5   31.10    1.80
  -3  10   5   30.10    2.40
  -3  10   5   24.60    1.70
  -2 -10   5  234.38    8.50
  -2 -10   5  230.08    8.10
  -2 -10   5  228.08    8.10
  -2  10   5  238.58    8.70
  -2  10   5  235.38    9.50
   1 -10  -5   74.49    3.30
  -1 -10   5   81.19    3.40
  -1 -10   5   77.39    3.30
  -1  10   5   77.39    4.10
  -1  10   5   80.99    3.30
   0 -10   5  224.38    8.20
   0 -10  -5  226.78    8.60
   0 -10   5  211.88    7.80
   0 -10  -5  235.48    8.20
   0  10   5  212.78    8.70
   0  10   5  225.58    7.90
   1 -10   5  159.98    5.90
  -1 -10  -5  182.48    6.20
   1 -10   5  168.38    6.20
  -1 -10  -5  157.98    6.60
   1  10   5  170.58    5.90
  -1  10  -5  158.58    6.00
   1  10   5  167.78    6.70
  -2 -10  -5   63.59    2.50
   2 -10   5   56.69    2.30
  -2 -10  -5   62.79    2.90
   2  10   5   50.29    2.50
  -4 -11   5   22.50    1.00
  -4 -11   5   22.70    1.10
  -4  11   5   15.50    1.50
  -3 -11   5  118.89    4.50
  -3 -11   5  118.39    4.30
  -3 -11   5  121.99    4.30
  -3  11   5  110.99    4.70
  -3  11   5  140.29    5.40
  -2 -11   5   27.00    1.50
  -2 -11   5   23.20    1.10
  -2 -11   5   24.20    1.20
  -2  11   5   23.00    1.40
  -2  11   5   25.00    2.00
   1 -11  -5  198.18    8.10
  -1 -11   5  257.77    8.30
  -1  11   5  283.77    9.80
  -1  11   5  269.37   10.40
   0 -11  -5   64.39    2.80
   0 -11   5   63.39    2.60
   0 -11  -5   61.29    2.60
   0  11   5   54.59    2.90
   0  11   5   58.09    2.30
  -9   0   6   76.49    3.00
  -9   0   6   73.89    2.80
   9   0  -6   69.09    2.80
  -8   0   6  276.17    9.60
   8   0  -6  259.87    9.40
   8   0  -6  266.97    9.50
  -8   0   6  264.67    9.40
   7   0  -6  242.68    8.50
  -7   0   6  233.08    8.40
  -7   0   6  229.08    8.40
   7   0  -6  240.18    8.50
  -7   0   6  234.68    8.60
  -6   0   6   40.30    2.00
   6   0  -6   44.20    2.00
   6   0  -6   41.10    2.00
  -6   0   6   43.80    1.90
  -6   0   6   44.90    2.10
  -5   0   6  243.08    8.80
   5   0  -6  260.07   10.00
   4   0  -6   15.20    1.30
   4   0  -6   15.60    1.70
   4   0  -6   14.60    1.40
   3   0  -6  442.66   16.40
   3   0  -6  444.86   16.10
   2   0  -6    8.60    1.30
   2   0  -6    8.40    1.50
   2   0  -6    6.80    1.20
   1   0  -6  655.73   22.80
   1   0  -6  642.74   23.00
   1   0  -6  607.14   22.00
   0   0  -6  425.66   15.50
   0   0  -6  467.85   16.50
   0   0  -6  447.16   16.50
  -1   0  -6    2.40    0.90
  -1   0  -6    0.40    0.70
   2   0   6  518.65   18.40
  -2   0  -6  545.35   19.20
   2   0   6  524.25   18.40
  -3   0  -6  135.89    5.70
   3   0   6  132.09    5.00
   3   0   6  140.89    5.20
   3   0   6  133.89    5.20
   4   0   6   53.39    2.30
   4   0   6   54.59    2.40
   5   0   6   26.60    1.40
   9  -1  -6  111.29    4.30
  -9  -1   6  112.39    4.30
  -9  -1   6  127.79    4.40
  -9   1   6  106.59    3.80
   9   1  -6   97.89    3.80
  -9   1   6  105.49    4.00
  -8  -1   6    1.10    0.60
   8  -1  -6    1.00    0.60
   8  -1  -6    1.60    0.50
  -8  -1   6    1.90    0.60
   8   1  -6    0.40    0.50
   8   1  -6    0.70    0.50
  -8   1   6    1.50    0.60
  -8   1   6    1.20    0.60
   7  -1  -6  226.48    8.00
  -7  -1   6  224.28    7.90
   7  -1  -6  224.38    8.00
  -7  -1   6  209.88    7.90
   7   1  -6  207.98    7.50
  -7   1   6  204.18    7.70
  -7   1   6  218.88    7.60
   7   1  -6  211.68    7.60
  -7   1   6  207.08    7.50
   6  -1  -6   27.10    1.50
  -6  -1   6   27.30    1.60
   6  -1  -6   29.50    1.60
  -6  -1   6   25.30    1.40
  -6   1   6   26.50    1.40
   6   1  -6   28.90    1.50
  -6   1   6   26.60    1.50
   5  -1  -6  159.08    5.70
  -5  -1   6  155.68    5.60
   5  -1  -6  152.08    6.70
   5   1  -6  175.98    6.40
   5   1  -6  171.68    7.40
  -5   1   6  174.58    6.20
   4  -1  -6  934.31   33.00
   4  -1  -6  933.71   32.10
   4   1  -6  953.60   33.30
   4   1  -6  959.10   33.00
   4   1  -6  962.20   33.80
   3  -1  -6   27.20    2.10
   3  -1  -6   30.20    1.80
   3  -1  -6   30.70    2.20
   3   1  -6   26.00    1.90
   3   1  -6   23.60    2.00
   2  -1  -6  213.38    8.50
   2  -1  -6  205.78    8.70
   2  -1  -6  213.68    8.30
   2   1  -6  194.98    7.30
   2   1  -6  192.88    8.20
   2   1  -6  203.08    8.00
   1  -1  -6  594.14   21.20
   1  -1  -6  558.04   20.40
   1  -1  -6  609.64   21.50
   1   1  -6  581.04   20.70
   1   1  -6  588.34   20.70
   1   1  -6  550.04   19.80
   0  -1  -6  181.18    6.90
   0  -1  -6  189.68    7.70
   0  -1  -6  189.98    7.80
   0   1  -6  176.18    6.50
   0   1  -6  184.18    7.40
   0   1  -6  181.48    7.30
  -1  -1  -6  304.97   11.70
  -1  -1  -6  296.47   11.70
  -1   1  -6  245.08    9.70
  -1   1  -6  250.37    9.50
  -2  -1  -6   40.40    2.70
   2  -1   6   38.00    2.00
   2  -1   6   39.40    1.90
   2  -1   6   40.30    2.00
   2  -1   6   42.40    2.30
  -2   1  -6   40.00    2.30
   2   1   6   38.30    2.10
   2   1   6   40.50    2.00
   2   1   6   39.20    1.90
   2   1   6   42.60    2.00
   3  -1   6   81.89    3.40
  -3  -1  -6   84.29    4.10
   3  -1   6   88.09    3.50
   3   1   6   79.59    3.30
   3   1   6   82.49    3.40
   3   1   6   76.49    3.10
  -4  -1  -6   71.29    3.60
   4  -1   6   77.19    3.10
   4   1   6   68.99    2.80
   4   1   6   72.09    3.00
   5  -1   6   39.00    1.70
   5   1   6   42.00    1.90
   5   1   6   43.30    1.80
   9  -2  -6    6.40    0.60
  -9  -2   6    4.70    0.60
  -9   2   6    7.50    0.90
  -9   2   6    6.90    0.70
   9   2  -6    6.70    0.70
  -8  -2   6  214.38    7.80
   8  -2  -6  213.48    7.70
   8   2  -6  197.68    7.20
  -8   2   6  193.68    7.30
  -8   2   6  206.08    7.20
  -7  -2   6   70.19    2.90
  -7  -2   6   67.19    2.80
   7  -2  -6   64.09    2.90
  -7   2   6   80.09    3.10
   7   2  -6   75.99    3.00
  -7   2   6   70.49    3.10
  -7   2   6   71.89    3.00
   6  -2  -6  363.36   12.70
  -6  -2   6  353.26   12.60
  -6  -2   6  354.86   12.50
  -6  -2   6  360.56   12.50
  -6   2   6  346.97   12.10
  -6   2   6  356.26   12.00
   6   2  -6  339.67   12.10
  -6   2   6  335.07   12.20
  -5  -2   6  484.75   16.90
   5  -2  -6  491.75   18.10
   5  -2  -6  499.05   17.00
   5   2  -6  458.65   17.70
  -5   2   6  495.15   16.50
   5   2  -6  483.95   16.70
   4  -2  -6   15.60    1.20
   4  -2  -6   14.20    1.60
  -4   2   6   10.40    0.60
   4   2  -6   11.60    1.10
   4   2  -6   11.30    1.20
   4   2  -6   12.20    1.60
   3  -2  -6  901.91   32.00
   3  -2  -6  927.71   31.50
   3  -2  -6  908.41   32.30
  -3   2   6  795.72   29.40
   3   2  -6  863.71   29.70
   3   2  -6  856.41   29.00
   2  -2  -6  139.19    6.70
   2  -2  -6  152.98    6.30
   2  -2  -6  146.69    6.10
   2  -2  -6  149.69    5.70
   2   2  -6  156.68    6.80
   2   2  -6  154.88    5.90
   2   2  -6  162.08    6.70
   1  -2  -6  338.77   12.50
   1  -2  -6  343.27   13.20
   1  -2  -6  366.66   13.70
   1   2  -6  380.26   13.70
   1   2  -6  367.06   12.80
   1   2  -6  348.47   13.60
   0  -2  -6  222.08    8.50
   0  -2  -6  227.28    9.20
   0  -2  -6  241.18    9.70
   0   2  -6  193.38    7.20
   0   2  -6  209.88    8.00
  -1  -2  -6   54.49    3.20
  -1  -2  -6   50.89    2.50
  -1  -2  -6   55.09    3.40
  -1   2  -6   44.70    2.50
  -2  -2  -6  297.77   11.00
  -2  -2  -6  318.87   12.20
   2  -2   6  302.37   10.80
   2  -2   6  305.57   10.90
   2  -2   6  307.97   11.20
   2   2   6  288.57   10.30
   2   2   6  284.07   10.30
  -2   2  -6  286.47   10.60
   2   2   6  285.27   10.00
  -3  -2  -6   69.79    3.80
   3  -2   6   68.29    2.90
   3   2   6   80.79    3.30
   3   2   6   76.69    3.30
   3   2   6   76.29    3.10
   3   2   6   74.19    3.30
  -4  -2  -6   98.49    4.60
   4  -2   6  101.09    3.90
   4   2   6  107.69    4.10
   4   2   6  102.69    4.00
   5   2   6   69.29    2.70
   5   2   6   69.49    2.80
  -9  -3   6  215.08    7.60
   9   3  -6  207.68    7.50
  -9   3   6  218.58    7.70
  -9   3   6  218.38    7.60
   8  -3  -6   66.89    2.80
  -8  -3   6   66.89    2.80
  -8   3   6   69.89    3.00
   8   3  -6   73.89    2.90
  -8   3   6   72.69    2.90
  -7  -3   6  402.86   14.30
   7  -3  -6  412.56   14.40
  -7  -3   6  407.86   14.20
  -7   3   6  427.76   15.30
   7   3  -6  432.56   15.10
  -7   3   6  443.66   15.10
  -6  -3   6  446.66   15.40
  -6  -3   6  436.16   15.30
   6  -3  -6  452.55   15.70
  -6  -3   6  442.26   15.50
  -6   3   6  427.06   15.30
   6   3  -6  442.06   15.10
  -6   3   6  427.36   15.00
  -6   3   6  440.76   15.10
  -5  -3   6   29.10    2.00
   5   3  -6   36.90    2.70
  -5   3   6   44.40    1.80
   5   3  -6   46.60    2.00
  -5   3   6   43.20    2.30
   4  -3  -6  961.90   32.10
   4  -3  -6  904.61   32.90
  -4   3   6  882.41   30.60
   4   3  -6  919.71   31.40
   4   3  -6  901.21   31.90
   3  -3  -6    2.50    1.00
   3  -3  -6    3.00    0.70
   3  -3  -6    0.70    0.80
  -3   3   6    4.00    1.10
   3   3  -6    1.70    0.60
   3   3  -6    1.40    0.90
   3   3  -6    1.10    0.70
   2  -3  -6  539.25   18.80
   2  -3  -6  529.05   19.20
   2  -3  -6  533.45   19.40
   2   3  -6  489.05   16.90
   2   3  -6  495.65   17.90
  -2   3   6  477.95   17.60
   2   3  -6  468.15   17.60
   1  -3  -6  369.46   14.30
   1  -3  -6  348.87   13.50
   1  -3  -6  357.66   13.00
   1   3  -6  342.07   12.20
   1   3  -6  358.66   13.10
  -1   3   6  345.17   13.20
   0  -3  -6  350.36   13.60
   0  -3  -6  359.06   14.30
   0  -3  -6  365.06   13.00
   0   3  -6  369.56   13.10
   0   3  -6  331.37   12.20
  -1  -3  -6  682.93   24.10
  -1  -3  -6  676.83   25.90
   1  -3   6  689.63   23.70
   1  -3   6  691.03   24.10
  -1  -3  -6  712.43   25.50
   1  -3   6  681.63   23.70
   1   3   6  686.63   23.00
  -1   3  -6  682.63   23.70
   1   3   6  668.93   23.10
   1   3   6  627.54   23.40
   1   3   6  672.33   23.10
  -2  -3  -6   26.30    1.70
  -2  -3  -6   29.00    2.60
   2  -3   6   24.90    1.50
   2  -3   6   25.30    1.70
   2  -3   6   23.00    1.40
  -2   3  -6   24.10    1.70
   2   3   6   25.60    1.60
   2   3   6   25.60    1.60
   2   3   6   23.30    1.40
   2   3   6   24.40    1.40
   3  -3   6  370.56   13.40
  -3  -3  -6  391.06   14.80
  -3  -3  -6  387.16   13.70
   3   3   6  365.06   12.90
   3   3   6  374.46   13.20
   3   3   6  376.36   13.00
  -4  -3  -6   49.00    2.30
   4   3   6   53.99    2.40
   4   3   6   49.30    2.10
   4   3   6   53.89    2.20
   5   3   6   24.70    1.30
   5   3   6   24.50    1.20
  -9  -4   6   10.20    0.80
  -9   4   6   11.40    0.80
   9   4  -6   10.50    0.70
  -9   4   6   10.70    0.80
   8  -4  -6  172.68    6.20
  -8  -4   6  172.38    6.20
  -8  -4   6  165.18    6.10
   8   4  -6  163.28    5.80
  -8   4   6  163.38    6.00
  -8   4   6  155.58    5.80
  -7  -4   6   37.70    1.80
   7  -4  -6   37.90    2.00
  -7  -4   6   38.20    1.90
   7   4  -6   48.10    2.10
  -7   4   6   48.80    2.20
  -7   4   6   46.90    2.30
  -6  -4   6  117.29    4.50
  -6  -4   6  114.69    4.50
   6  -4  -6  124.29    4.80
  -6   4   6  135.29    5.00
  -6   4   6  138.29    5.30
   6   4  -6  135.59    5.10
  -6   4   6  138.49    5.10
   5  -4  -6   17.60    1.40
  -5  -4   6   16.20    1.10
  -5   4   6   19.20    1.00
  -5   4   6   19.50    1.40
  -5   4   6   17.90    1.30
   5   4  -6   17.80    1.20
   4  -4  -6   43.20    2.10
   4   4  -6   35.40    2.50
   4   4  -6   39.10    2.30
   4   4  -6   38.80    2.00
   3  -4  -6  292.77   11.00
   3  -4  -6  295.57   10.60
   3   4  -6  288.37   10.30
   3   4  -6  286.07   10.80
  -3   4   6  278.37   11.00
   2  -4  -6   79.99    3.90
   2  -4  -6   79.79    3.50
   2  -4  -6   80.49    4.00
   2   4  -6   87.19    4.40
   2   4  -6   84.19    3.40
  -2   4   6   82.39    4.20
   1  -4  -6  150.68    6.50
   1  -4  -6  145.69    6.40
   1  -4  -6  147.39    7.50
   1  -4  -6  162.68    6.20
   1   4  -6  151.08    6.30
   1   4  -6  141.59    5.40
  -1   4   6  140.99    6.30
   0  -4  -6  451.55   17.30
   0  -4  -6  478.15   16.90
   0  -4  -6  473.65   18.40
   0   4  -6  487.55   16.80
   0   4  -6  447.96   18.50
   0   4  -6  435.06   15.90
   1  -4   6  107.29    4.40
   1  -4   6  107.09    4.10
  -1  -4  -6  104.99    4.60
   1  -4   6  105.59    4.00
  -1  -4  -6  112.69    5.90
  -1   4  -6  100.19    4.40
   1   4   6   98.49    3.80
   1   4   6   88.19    3.90
   1   4   6   95.19    3.90
   1   4   6  101.09    3.80
  -2  -4  -6  480.15   17.40
   2  -4   6  421.86   15.70
  -2  -4  -6  446.46   15.90
   2  -4   6  423.56   15.40
  -2   4  -6  424.96   15.80
   2   4   6  450.95   15.50
   2   4   6  449.46   15.50
   2   4   6  440.76   15.30
   2   4   6  431.36   15.20
  -3  -4  -6   69.09    4.00
  -3  -4  -6   70.39    3.20
   3  -4   6   67.79    2.80
   3   4   6   68.79    2.70
  -3   4  -6   59.39    2.90
   3   4   6   66.59    2.60
   3   4   6   66.59    2.90
  -4  -4  -6  104.99    4.20
   4   4   6  119.49    4.30
   4   4   6  114.59    4.30
   4   4   6  119.09    4.50
   5   4   6    9.10    0.70
   5   4   6    8.70    0.80
  -8  -5   6   33.60    1.60
  -8  -5   6   34.40    1.50
  -8   5   6   38.40    1.80
  -8   5   6   37.60    1.70
   8   5  -6   39.30    1.70
   7  -5  -6  308.57   10.70
  -7  -5   6  292.57   10.60
  -7  -5   6  299.07   10.50
  -7   5   6  298.27   10.60
  -7   5   6  293.87   10.40
   7   5  -6  298.97   10.40
   6  -5  -6  175.18    6.70
  -6  -5   6  177.38    6.40
  -6   5   6  178.08    6.50
  -6   5   6  172.68    6.60
   6   5  -6  179.58    6.40
   5  -5  -6  102.79    4.30
  -5  -5   6  100.19    3.80
   5   5  -6   96.49    3.80
  -5   5   6   97.19    4.00
  -5   5   6   97.39    3.60
   4  -5  -6 1025.70   34.40
  -4  -5   6  998.90   34.10
   4  -5  -6 1011.70   34.10
  -4  -5   6 1021.50   34.00
   4  -5  -6  926.01   34.30
   4   5  -6 1081.99   37.10
  -4   5   6 1080.49   36.90
   3  -5  -6   74.29    3.20
   3  -5  -6   75.79    4.40
  -3  -5   6   74.59    3.20
   3  -5  -6   72.79    3.40
  -3  -5   6   70.79    2.90
  -3   5   6   62.49    3.60
   3   5  -6   67.99    3.40
  -3   5   6   70.69    2.80
   2  -5  -6  883.71   32.20
   2  -5  -6  951.20   31.70
   2   5  -6  927.81   31.20
   2   5  -6  836.92   31.80
  -2   5   6  905.31   32.10
   2   5  -6  947.91   32.30
  -1  -5   6  218.48    8.00
   1  -5  -6  232.88    8.40
   1  -5  -6  227.38    8.60
  -1  -5   6  217.88    8.00
  -1  -5   6  227.48    8.40
   1  -5  -6  219.78    9.00
   1   5  -6  270.47   10.30
  -1   5   6  260.97    9.10
  -1   5   6  241.48   10.60
   1   5  -6  251.07    9.20
  -1   5   6  270.27    9.40
  -1   5   6  250.87    9.20
   0  -5  -6  402.56   14.00
   0  -5   6  378.96   13.20
   0  -5   6  373.86   13.60
   0  -5  -6  374.66   15.60
   0  -5  -6  366.96   13.40
   0  -5   6  376.36   13.20
   0   5   6  397.96   13.90
   0   5  -6  388.06   13.90
   0   5   6  386.76   13.90
   0   5  -6  417.16   14.90
  -1  -5  -6   60.69    2.80
  -1  -5  -6   69.09    4.50
  -1  -5  -6   65.09    3.30
   1  -5   6   66.19    3.00
   1  -5   6   64.59    2.60
   1  -5   6   65.99    2.70
  -1   5  -6   60.29    3.10
   1   5   6   60.69    2.50
   1   5   6   55.89    2.70
   1   5   6   60.39    2.60
  -1   5  -6   60.59    2.50
   2  -5   6    7.80    1.00
  -2  -5  -6    8.00    1.20
  -2  -5  -6    8.40    1.80
   2  -5   6    6.30    0.70
   2   5   6    8.90    0.80
   2   5   6    8.70    0.90
  -2   5  -6    7.90    1.10
   2   5   6    8.00    1.00
  -3  -5  -6  184.38    6.80
  -3  -5  -6  167.48    7.70
   3   5   6  163.38    6.00
  -3   5  -6  145.69    6.20
   3   5   6  162.18    5.80
   3   5   6  168.98    5.80
  -4  -5  -6   56.19    2.50
  -4  -5  -6   54.19    2.60
   4   5   6   56.49    2.20
   4   5   6   56.39    2.30
   4   5   6   55.79    2.40
  -8  -6   6   92.79    3.40
  -8  -6   6   89.09    3.40
  -8   6   6  124.39    4.40
   8   6  -6  123.99    4.30
  -8   6   6  107.09    4.20
  -7  -6   6   48.30    2.00
  -7  -6   6   42.20    2.00
   7   6  -6   45.40    1.90
  -7   6   6   46.00    2.10
  -7   6   6   43.20    2.00
   6  -6  -6  112.59    4.60
  -6  -6   6  115.59    4.30
  -6   6   6  109.69    4.30
   6   6  -6  105.49    4.10
  -6   6   6  106.19    4.10
  -5  -6   6  395.56   13.70
  -5  -6   6  399.86   13.80
   5  -6  -6  394.16   14.20
   5   6  -6  329.17   12.10
  -5   6   6  350.46   12.00
  -5   6   6  347.27   12.20
   4  -6  -6   38.80    2.30
  -4  -6   6   40.60    1.90
  -4  -6   6   40.90    1.80
   4  -6  -6   43.20    2.30
  -4   6   6   32.00    1.70
   4   6  -6   34.00    1.80
   3  -6  -6  258.37   10.10
  -3  -6   6  281.77    9.60
  -3  -6   6  266.57    9.70
  -3  -6   6  275.67   10.00
   3  -6  -6  288.07    9.90
   3   6  -6  243.38    9.00
   2  -6  -6   46.00    2.30
  -2  -6   6   46.90    1.90
   2  -6  -6   41.10    2.40
  -2  -6   6   43.70    2.30
  -2  -6   6   43.30    2.00
   2   6  -6   37.00    1.90
  -2   6   6   36.90    2.10
   1  -6  -6  157.88    6.00
  -1  -6   6  153.88    5.70
  -1  -6   6  155.08    5.60
   1  -6  -6  147.39    6.00
  -1  -6   6  157.48    6.00
  -1   6   6  180.18    6.70
  -1   6   6  171.78    6.60
   1   6  -6  183.98    7.70
  -1   6   6  180.38    6.60
   1   6  -6  183.28    6.70
   0  -6  -6  101.69    4.20
   0  -6   6  101.99    4.30
   0  -6   6  101.89    3.90
   0  -6   6  104.39    4.00
   0   6  -6   94.29    4.50
   0   6  -6   91.39    3.70
   0   6   6   92.29    3.70
   0   6   6   91.79    3.60
   0   6   6   91.59    3.60
  -1  -6  -6   35.00    2.20
  -1  -6  -6   29.70    1.70
   1  -6   6   31.60    1.60
   1  -6   6   30.10    1.90
  -1   6  -6   26.20    1.40
  -1   6  -6   28.90    2.10
   1   6   6   26.40    1.50
   1   6   6   28.10    1.50
  -2  -6  -6  144.89    7.20
   2  -6   6  153.78    5.80
   2  -6   6  163.78    6.20
  -2  -6  -6  143.19    6.00
   2   6   6  176.78    6.10
   2   6   6  162.38    6.30
  -2   6  -6  165.78    6.70
   2   6   6  169.98    6.10
  -2   6  -6  161.28    6.10
  -3  -6  -6   71.99    3.20
   3   6   6   75.39    2.90
   3   6   6   76.99    2.90
   3   6   6   75.39    3.10
  -4  -6  -6   41.00    2.00
   4   6   6   45.60    1.90
   4   6   6   47.20    1.80
   4   6   6   46.60    2.00
  -7  -7   6  220.88    7.80
  -7   7   6  211.88    7.30
  -7   7   6  188.18    7.00
   7   7  -6  200.28    7.10
  -6  -7   6   85.69    3.30
  -6  -7   6   91.99    3.50
  -6   7   6   76.89    3.20
  -6   7   6   75.79    3.00
   6   7  -6   77.39    3.00
  -5  -7   6  189.98    6.70
  -5  -7   6  188.38    6.80
  -5   7   6  191.48    6.70
  -5   7   6  180.18    6.90
  -4  -7   6  121.59    4.70
  -4  -7   6  130.29    4.70
  -4   7   6  170.58    6.70
  -4   7   6  173.28    6.30
   3  -7  -6    0.80    0.70
  -3  -7   6    0.80    0.50
  -3  -7   6    1.30    0.50
   3  -7  -6    1.20    0.50
  -3  -7   6    1.40    0.70
  -3   7   6    2.60    0.80
  -3   7   6    3.80    0.70
   3   7  -6    1.60    0.60
  -2  -7   6  249.58    8.90
  -2  -7   6  247.08    9.30
  -2  -7   6  250.07    9.00
   2  -7  -6  266.77    9.30
  -2   7   6  232.38    8.40
  -2   7   6  241.48    8.70
   2   7  -6  232.68    8.60
  -2   7   6  233.58    8.40
  -1  -7   6  225.08    7.90
   1  -7  -6  225.18    8.30
   1  -7  -6  216.18    8.20
  -1  -7   6  225.58    8.00
  -1  -7   6  217.28    8.30
   1   7  -6  241.58   10.00
  -1   7   6  244.08    8.80
  -1   7   6  244.68    9.00
  -1   7   6  237.88    8.80
   1   7  -6  261.37    9.00
   0  -7  -6   93.29    3.80
   0  -7   6   87.49    3.80
   0  -7   6   87.49    3.50
   0  -7   6   88.19    3.40
   0   7  -6   89.89    3.50
   0   7   6   83.89    3.40
   0   7   6   88.09    3.50
   0   7  -6   86.19    4.40
   0   7   6   84.09    3.40
   1  -7   6  326.37   11.40
   1  -7   6  324.07   11.70
  -1  -7  -6  324.87   11.60
   1   7   6  301.47   10.50
  -1   7  -6  302.57   10.60
  -1   7  -6  292.27   11.50
   1   7   6  300.37   10.50
  -2  -7  -6    8.60    1.20
  -2  -7  -6    9.40    0.90
  -2  -7  -6    9.50    1.30
   2  -7   6    9.80    1.10
   2   7   6    9.20    0.80
  -2   7  -6    7.70    0.70
   2   7   6    8.40    0.70
  -3  -7  -6  145.69    5.60
  -3  -7  -6  135.29    5.70
   3   7   6  138.89    5.30
   3   7   6  145.09    5.10
  -3   7  -6  139.49    5.20
   3   7   6  153.28    5.10
  -7  -8   6   49.99    2.00
  -7   8   6   50.29    2.10
   7   8  -6   50.19    2.00
  -6  -8   6  128.09    4.50
  -6  -8   6  118.79    4.40
  -6   8   6  127.19    4.70
   6   8  -6  119.39    4.50
  -5  -8   6  284.27   10.10
  -5  -8   6  290.07   10.00
  -5   8   6  278.67   10.10
  -5   8   6  289.87   10.00
  -4  -8   6   25.50    1.30
  -4  -8   6   24.40    1.30
  -4   8   6   28.10    1.90
  -4   8   6   28.90    1.60
  -3  -8   6  349.47   12.80
  -3  -8   6  369.26   12.40
  -3  -8   6  360.66   12.50
   3  -8  -6  349.67   12.90
  -3   8   6  401.46   13.50
  -3   8   6  374.36   13.90
   2  -8  -6  118.29    5.20
  -2  -8   6  136.49    4.80
  -2  -8   6  137.69    4.90
  -2  -8   6  130.09    5.20
  -2   8   6  130.49    5.20
  -2   8   6  135.09    5.00
  -1  -8   6  144.69    5.20
  -1  -8   6  142.29    5.30
  -1  -8   6  139.89    5.60
   1  -8  -6  139.69    5.90
   1  -8  -6  146.79    5.70
   1   8  -6  151.98    5.80
  -1   8   6  149.88    5.60
  -1   8   6  153.58    5.80
   0  -8  -6  295.67   11.40
   0  -8   6  306.07   10.80
   0  -8  -6  307.67   10.90
   0  -8   6  305.97   10.60
   0  -8   6  297.97   10.90
   0   8  -6  300.97   10.10
   0   8   6  283.57    9.90
   0   8   6  273.17    9.90
   0   8  -6  262.97   10.90
   1  -8   6   54.29    2.50
  -1  -8  -6   53.49    2.40
  -1  -8  -6   52.79    3.00
  -1   8  -6   51.59    2.20
   1   8   6   51.09    2.10
  -2  -8  -6  176.48    6.50
   2  -8   6  175.88    6.60
  -2  -8  -6  188.98    7.00
   2   8   6  153.68    5.50
  -2   8  -6  155.98    5.60
  -3  -8  -6   20.90    1.40
  -3  -8  -6   19.70    1.10
   3   8   6   15.10    0.80
  -6  -9   6  114.89    4.10
  -6  -9   6  112.69    4.00
   6   9  -6  108.39    4.00
  -6   9   6  113.19    4.10
  -5  -9   6   51.99    2.10
  -5  -9   6   56.89    2.20
  -5   9   6   52.79    2.20
  -4  -9   6  202.28    7.10
  -4   9   6  176.68    6.60
  -3  -9   6   20.40    1.40
  -3  -9   6   20.90    1.20
  -3  -9   6   22.20    1.20
  -3   9   6   19.50    1.50
  -2  -9   6  399.56   13.40
  -2  -9   6  400.76   13.30
   2  -9  -6  355.56   13.70
  -2  -9   6  382.36   13.60
  -2   9   6  387.46   13.70
  -2   9   6  388.96   13.60
  -1  -9   6  109.99    4.40
   1  -9  -6  106.29    4.40
  -1  -9   6  110.09    4.00
  -1  -9   6  112.19    4.10
  -1   9   6  122.79    4.60
  -1   9   6  114.49    4.40
   0  -9  -6   87.89    4.00
   0  -9  -6   91.19    3.70
   0  -9   6   90.29    3.70
   0   9  -6   97.39    3.80
   0   9   6   99.09    3.70
   0   9   6   93.79    3.60
   1  -9   6  162.28    6.10
  -1  -9  -6  170.58    6.10
  -1  -9  -6  163.98    6.50
  -1   9  -6  161.68    5.90
   1   9   6  159.58    5.70
  -2  -9  -6    7.80    1.00
  -2  -9  -6    7.10    0.60
  -2  -9  -6    8.40    0.70
   2   9   6    6.30    0.60
  -4 -10   6   17.20    1.00
  -4 -10   6   18.40    0.90
  -4  10   6   18.00    1.20
  -3 -10   6  297.27   10.70
  -3 -10   6  308.07   10.50
  -3 -10   6  300.77   10.40
  -3  10   6  298.47   10.60
  -2 -10   6   24.80    1.10
   2 -10  -6   21.30    1.40
  -2 -10   6   28.20    1.20
  -2 -10   6   23.60    1.40
  -2  10   6   25.30    1.40
  -1 -10   6   72.39    2.90
   1 -10  -6   66.99    2.90
  -1 -10   6   69.39    2.60
  -1  10   6   65.79    2.70
   0 -10   6  215.78    7.80
   0 -10  -6  218.58    7.80
   0 -10  -6  218.48    8.00
   0  10   6  220.18    7.70
  -9   0   7  128.59    4.60
  -9   0   7  129.29    4.80
   9   0  -7  131.09    4.70
  -8   0   7   34.30    1.70
   8   0  -7   37.70    1.80
  -8   0   7   34.80    1.80
  -7   0   7  229.98    8.20
  -7   0   7  231.78    8.40
   7   0  -7  234.68    8.40
   6   0  -7  422.96   14.80
   5   0  -7    0.60    0.50
   5   0  -7   -0.10    0.50
   4   0  -7  240.98    8.80
   4   0  -7  232.58    9.70
   4   0  -7  233.48    9.10
   4   0  -7  245.48    8.90
   3   0  -7  281.97   10.90
   3   0  -7  265.57   10.50
   3   0  -7  273.57   10.00
   2   0  -7  343.47   13.40
   2   0  -7  351.46   13.60
   2   0  -7  341.27   12.40
   1   0  -7   25.50    2.40
   1   0  -7   22.50    2.10
   1   0  -7   22.50    1.50
   0   0   7    9.80    1.00
   0   0   7    7.80    0.90
   0   0  -7    8.80    1.00
   0   0   7    7.10    0.80
   0   0   7   11.50    1.30
   0   0  -7    8.30    1.60
   1   0   7  301.87   11.00
  -1   0  -7  307.37   11.10
   1   0   7  300.67   11.00
   1   0   7  312.27   10.90
  -1   0  -7  318.77   12.20
   2   0   7  110.49    4.30
  -2   0  -7  108.09    5.20
   2   0   7  113.19    4.30
   2   0   7  106.79    4.30
   3   0   7  232.78    8.40
   4   0   7  143.49    5.20
   9  -1  -7   10.70    0.80
  -9  -1   7   12.30    0.90
   9   1  -7   11.10    0.80
  -9   1   7   11.80    0.80
  -9   1   7   12.40    0.90
  -8  -1   7   69.69    2.90
   8  -1  -7   70.39    2.90
  -8   1   7   59.79    2.60
   8   1  -7   59.59    2.50
  -8   1   7   57.59    2.40
   7  -1  -7  119.69    4.60
  -7  -1   7  116.39    4.60
   7   1  -7  108.29    4.20
  -7   1   7  108.09    4.30
  -7   1   7  107.99    4.10
   6  -1  -7   34.60    1.80
  -6   1   7   29.10    1.60
   6   1  -7   30.90    1.60
  -6   1   7   26.30    1.60
   6   1  -7   29.00    1.70
   5  -1  -7  271.77    9.90
  -5  -1   7  276.07    9.80
   5  -1  -7  286.47    9.90
  -5   1   7  251.37    9.20
   5   1  -7  268.07    9.30
   4  -1  -7   47.60    3.10
   4  -1  -7   49.30    2.40
   4  -1  -7   43.90    2.40
  -4  -1   7   46.40    2.30
   4   1  -7   39.40    2.10
   4   1  -7   39.60    2.50
   4   1  -7   38.80    2.90
   4   1  -7   39.80    1.90
   3  -1  -7  429.76   16.20
   3  -1  -7  451.65   16.60
   3   1  -7  444.96   16.60
   3   1  -7  433.86   16.20
   3   1  -7  449.16   15.80
   2  -1  -7  211.68    9.10
   2  -1  -7  199.18    8.50
   2  -1  -7  217.78    8.80
   2  -1  -7  211.78    7.90
   2   1  -7  201.18    8.60
   2   1  -7  193.98    7.40
   2   1  -7  194.98    8.30
   1  -1  -7   17.20    1.40
   1  -1  -7   16.90    2.10
  -1  -1   7   20.30    2.00
   1  -1  -7   15.70    1.90
   1   1  -7    9.40    1.00
   1   1  -7    8.30    1.50
   1   1  -7   11.40    1.80
   0  -1  -7  615.34   21.70
   0  -1   7  571.24   20.10
   0  -1   7  587.84   20.50
   0  -1  -7  569.64   20.40
   0  -1   7  581.54   20.10
   0  -1   7  558.94   20.10
   0   1  -7  635.84   22.00
   0   1   7  608.34   20.60
   0   1   7  582.34   20.50
   0   1   7  561.74   20.60
   0   1   7  586.24   20.60
   0   1  -7  596.64   20.70
   1  -1   7   48.40    2.60
   1  -1   7   47.50    2.20
   1  -1   7   45.20    2.30
  -1  -1  -7   47.20    2.30
  -1  -1  -7   46.20    3.20
   1  -1   7   47.00    2.20
   1   1   7   49.80    2.30
   1   1   7   46.60    2.30
   1   1   7   48.20    2.30
  -1   1  -7   46.60    2.20
  -1   1  -7   47.30    3.10
   1   1   7   47.70    2.10
   2  -1   7  116.79    4.40
   2  -1   7  110.39    4.30
   2  -1   7  106.29    4.30
  -2  -1  -7  111.19    4.40
  -2  -1  -7  109.19    5.30
   2   1   7   92.89    3.70
   2   1   7   93.19    3.70
   2   1   7   88.99    3.50
  -2   1  -7   89.29    4.40
   3  -1   7   82.29    3.20
  -3  -1  -7   73.59    3.20
   3   1   7   69.09    2.90
   3   1   7   68.59    2.70
   4  -1   7   26.90    1.40
   4   1   7   22.30    1.30
   4   1   7   23.20    1.10
   9  -2  -7   76.69    2.90
  -9  -2   7   74.99    2.90
  -9   2   7   74.59    2.90
  -9   2   7   74.19    2.80
   9   2  -7   74.39    2.80
  -8  -2   7   98.19    3.90
   8  -2  -7  103.79    3.90
  -8   2   7   84.09    3.50
  -8   2   7   88.39    3.40
   8   2  -7   88.19    3.40
  -7  -2   7  129.89    5.00
   7  -2  -7  131.79    5.00
  -7   2   7  125.49    4.60
  -7   2   7  119.69    4.70
   7   2  -7  120.89    4.60
  -6  -2   7  331.37   11.70
   6  -2  -7  337.07   11.90
   6   2  -7  343.17   11.90
   6   2  -7  334.57   11.90
  -6   2   7  338.17   11.80
  -6   2   7  330.97   11.90
   5  -2  -7   25.00    1.50
  -5  -2   7   27.90    1.50
   5  -2  -7   25.20    1.60
   5   2  -7   25.60    1.40
   5   2  -7   27.00    1.50
  -5   2   7   23.00    1.50
  -4  -2   7  396.76   14.20
   4  -2  -7  408.26   14.40
   4  -2  -7  414.56   14.30
   4   2  -7  445.36   15.50
   4   2  -7  448.66   15.30
  -4   2   7  418.56   15.20
   3  -2  -7  573.64   21.20
   3  -2  -7  600.24   21.60
   3  -2  -7  590.54   20.60
   3   2  -7  594.34   21.50
   3   2  -7  581.44   20.60
   2  -2  -7  569.94   21.00
   2  -2  -7  569.44   20.30
   2  -2  -7  593.34   21.20
   2   2  -7  603.64   21.30
   2   2  -7  633.74   22.60
   2   2  -7  584.14   22.00
  -1  -2   7  317.67   11.50
   1  -2  -7  341.37   13.00
   1  -2  -7  326.37   11.50
   1  -2  -7  283.77   11.20
  -1  -2   7  318.87   11.10
  -1  -2   7  312.47   11.10
  -1  -2   7  312.27   11.20
  -1   2   7  295.07   10.60
  -1   2   7  288.97   10.80
  -1   2   7  292.17   10.50
   1   2  -7  308.97   11.90
   1   2  -7  294.57   10.70
   0  -2  -7   31.80    2.80
   0  -2   7   27.60    1.90
   0  -2   7   27.10    1.50
   0  -2  -7   28.40    1.80
   0  -2   7   28.20    1.60
   0  -2   7   25.90    1.60
   0   2   7   26.60    1.70
   0   2  -7   29.40    1.60
   0   2   7   26.60    1.60
   0   2  -7   29.50    2.40
   0   2   7   26.50    1.60
   0   2   7   26.20    1.70
  -1  -2  -7  219.18    8.20
   1  -2   7  207.68    7.90
  -1  -2  -7  229.38    9.40
   1  -2   7  219.58    8.20
   1  -2   7  215.78    7.90
   1  -2   7  209.68    7.80
   1   2   7  210.78    7.90
  -1   2  -7  214.58    7.80
   1   2   7  213.58    7.80
  -1   2  -7  223.48    8.80
   1   2   7  216.38    7.90
   2  -2   7   67.39    2.80
  -2  -2  -7   67.89    3.10
  -2  -2  -7   70.19    4.00
   2  -2   7   70.89    2.90
   2   2   7   73.19    3.10
  -2   2  -7   70.79    3.70
   2   2   7   73.19    3.10
   2   2   7   74.19    2.90
  -3  -2  -7  129.79    5.10
   3  -2   7  136.19    5.00
   3   2   7  140.29    5.10
   3   2   7  138.99    5.30
   4  -2   7  110.09    4.10
   4   2   7  122.29    4.40
   4   2   7  121.39    4.50
  -8  -3   7  264.57    9.60
   8  -3  -7  282.17    9.70
   8   3  -7  303.37   10.70
  -8   3   7  297.67   10.80
  -8   3   7  320.47   10.70
  -7  -3   7  386.56   13.40
   7  -3  -7  377.86   13.60
  -7  -3   7  390.06   14.20
  -7   3   7  391.96   13.20
  -7   3   7  372.26   13.30
   7   3  -7  366.06   13.20
  -6  -3   7  193.38    6.90
   6  -3  -7  187.68    7.10
   6   3  -7  184.68    6.70
  -6   3   7  174.38    6.80
  -6   3   7  189.98    6.70
   6   3  -7  184.68    6.70
   5  -3  -7  525.35   18.20
   5  -3  -7  532.45   18.60
   5  -3  -7  532.75   18.50
  -5  -3   7  524.35   18.30
   5   3  -7  552.84   19.10
   5   3  -7  558.34   19.10
  -5   3   7  538.45   19.00
   4  -3  -7   11.30    1.10
   4  -3  -7   12.90    1.30
  -4  -3   7   13.40    1.00
  -4   3   7    8.90    0.90
  -3  -3   7  298.97   10.30
   3  -3  -7  295.07   10.70
   3  -3  -7  307.37   10.70
  -3  -3   7  291.57   10.40
  -3  -3   7  281.47   10.30
   3   3  -7  278.47   10.00
  -3   3   7  263.77    9.60
  -2  -3   7  309.77   11.20
  -2  -3   7  315.07   10.80
  -2  -3   7  302.17   10.80
   2  -3  -7  306.87   11.30
  -2  -3   7  309.97   10.90
   2  -3  -7  308.37   11.10
  -2   3   7  275.27   10.10
   2   3  -7  292.27   11.70
   2   3  -7  295.57   10.50
  -1  -3   7  163.88    6.20
  -1  -3   7  161.58    5.80
   1  -3  -7  149.59    6.00
   1  -3  -7  168.88    6.40
  -1  -3   7  153.18    5.90
  -1  -3   7  156.28    5.80
  -1   3   7  146.29    5.60
  -1   3   7  143.09    5.60
   1   3  -7  158.08    6.80
   1   3  -7  144.59    5.60
  -1   3   7  147.99    5.50
  -1   3   7  147.59    5.50
   0  -3   7  515.25   18.70
   0  -3   7  543.55   18.70
   0  -3   7  526.85   18.60
   0  -3   7  545.95   19.10
   0  -3  -7  551.74   20.70
   0  -3  -7  555.34   19.20
   0   3   7  532.05   18.60
   0   3   7  527.35   18.70
   0   3   7  525.45   18.50
   0   3  -7  571.84   19.80
   0   3  -7  523.55   18.70
  -1  -3  -7   72.19    4.40
   1  -3   7   66.59    3.20
   1  -3   7   67.69    2.80
   1  -3   7   63.29    2.80
  -1  -3  -7   71.09    3.30
   1   3   7   65.09    2.70
  -1   3  -7   65.59    3.50
   1   3   7   64.29    2.90
  -1   3  -7   66.49    2.70
   1   3   7   65.39    2.70
   1   3   7   62.79    2.80
   2  -3   7  169.98    6.30
   2  -3   7  175.78    6.30
  -2  -3  -7  168.28    6.70
   2  -3   7  173.48    6.60
  -2  -3  -7  174.88    7.80
   2   3   7  175.98    6.30
   2   3   7  173.78    6.50
   2   3   7  172.88    6.20
  -2   3  -7  169.18    7.10
   2   3   7  177.78    6.50
  -3  -3  -7   57.39    2.60
   3  -3   7   58.49    2.40
   3   3   7   53.19    2.20
   3   3   7   59.39    2.40
   3   3   7   58.89    2.50
   4   3   7    5.00    0.50
   4   3   7    4.20    0.60
  -8  -4   7   87.49    3.40
  -8  -4   7   86.59    3.30
   8  -4  -7   93.59    3.50
   8   4  -7  103.09    3.90
  -8   4   7  102.59    4.00
  -8   4   7  104.99    3.80
  -7  -4   7   53.89    2.30
   7  -4  -7   57.29    2.50
  -7   4   7   58.49    2.60
  -7   4   7   63.89    2.50
   7   4  -7   54.09    2.40
  -6  -4   7  153.18    5.60
   6  -4  -7  150.78    5.80
   6   4  -7  163.38    6.00
  -6   4   7  157.38    6.10
  -6   4   7  173.28    6.00
   6   4  -7  161.08    6.10
   5  -4  -7    5.00    0.80
   5  -4  -7    5.80    0.90
  -5  -4   7    4.90    0.70
   5   4  -7    4.10    0.60
   5   4  -7    4.90    0.70
  -5   4   7    6.70    0.80
   4  -4  -7  132.29    5.00
  -4  -4   7  123.89    4.80
  -4  -4   7  130.39    4.70
  -4  -4   7  122.99    4.70
   4  -4  -7  134.99    5.10
  -4   4   7  111.69    4.30
   4   4  -7  111.49    4.50
  -3  -4   7  275.07    9.60
   3  -4  -7  285.57   10.00
  -3  -4   7  261.87    9.60
   3  -4  -7  268.77   10.00
  -3   4   7  291.67   10.00
   3   4  -7  273.67   10.80
  -2  -4   7  145.69    5.40
  -2  -4   7  152.78    5.80
  -2  -4   7  147.39    5.50
  -2  -4   7  142.69    5.40
   2  -4  -7  146.39    5.70
   2   4  -7  171.38    6.50
   2   4  -7  168.18    7.60
  -2   4   7  166.48    6.20
  -1  -4   7  516.65   18.30
  -1  -4   7  536.15   18.60
  -1  -4   7  519.85   18.30
   1  -4  -7  556.44   18.90
  -1  -4   7  524.15   18.20
   1  -4  -7  520.45   18.50
  -1   4   7  565.34   20.00
   1   4  -7  592.74   21.30
  -1   4   7  574.84   19.90
   1   4  -7  579.64   20.10
  -1   4   7  573.44   20.00
   0  -4   7   17.60    1.60
   0  -4   7   19.90    1.30
   0  -4  -7   20.60    1.70
   0  -4  -7   18.00    1.30
   0  -4   7   19.50    1.30
   0  -4  -7   19.30    2.50
   0  -4   7   21.10    1.70
   0   4   7   20.00    1.50
   0   4   7   19.70    1.30
   0   4   7   18.40    1.30
   0   4  -7   19.70    1.30
   0   4  -7   20.50    2.00
  -1  -4  -7  405.26   14.00
  -1  -4  -7  367.46   15.30
   1  -4   7  370.76   13.30
   1  -4   7  386.36   13.70
   1  -4   7  383.96   13.40
   1   4   7  388.66   14.00
  -1   4  -7  405.06   14.90
   1   4   7  407.56   13.80
   1   4   7  390.66   14.00
   1   4   7  397.06   13.90
  -1   4  -7  394.76   13.90
  -2  -4  -7  170.18    6.50
   2  -4   7  171.28    6.20
   2  -4   7  169.38    6.10
  -2  -4  -7  155.08    7.40
   2  -4   7  162.98    6.30
   2   4   7  162.18    5.60
   2   4   7  159.28    5.70
  -2   4  -7  147.89    6.30
   2   4   7  152.08    5.80
   3  -4   7   76.69    3.00
  -3  -4  -7   79.69    3.30
   3   4   7   77.79    3.20
   3   4   7   76.59    2.90
   3   4   7   81.19    3.00
  -8  -5   7   94.39    3.50
  -8   5   7   85.59    3.30
  -8   5   7   87.69    3.20
   8   5  -7   88.39    3.30
   7  -5  -7  132.49    5.00
  -7  -5   7  129.49    4.80
   7   5  -7  125.49    4.80
  -7   5   7  136.59    4.80
  -7   5   7  127.39    4.90
  -6  -5   7   20.40    1.30
   6  -5  -7   19.20    1.50
   6   5  -7   18.20    1.10
  -6   5   7   19.70    1.30
  -6   5   7   18.20    1.30
   5  -5  -7  508.85   17.80
  -5  -5   7  501.25   17.40
  -5  -5   7  513.05   17.80
  -5  -5   7  500.95   17.50
  -5   5   7  540.35   18.70
   4  -5  -7   32.00    1.70
  -4  -5   7   34.30    1.60
  -4  -5   7   31.80    1.60
  -4  -5   7   32.00    1.60
   4   5  -7   26.10    1.60
  -4   5   7   26.80    1.50
  -3  -5   7  656.23   23.00
  -3  -5   7  662.73   23.00
   3  -5  -7  678.53   23.30
  -3  -5   7  679.63   23.00
  -3   5   7  741.03   25.50
  -2  -5   7   89.39    3.70
   2  -5  -7   81.09    3.70
  -2  -5   7   86.39    3.30
   2  -5  -7   85.49    3.70
  -2  -5   7   84.39    3.40
  -2  -5   7   87.79    3.40
  -2   5   7   97.59    3.80
   2   5  -7  103.69    4.10
  -2   5   7   98.99    4.00
   2   5  -7   90.39    5.00
  -1  -5   7  111.69    4.20
  -1  -5   7  110.49    4.20
  -1  -5   7  113.79    4.60
  -1  -5   7  108.99    4.20
   1  -5  -7  108.69    4.50
  -1   5   7  124.09    4.70
   1   5  -7  129.59    4.90
  -1   5   7  121.69    4.70
  -1   5   7  118.19    4.70
   1   5  -7  121.29    5.80
   0  -5   7  292.37   10.70
   0  -5   7  288.57   10.30
   0  -5   7  300.67   10.40
   0  -5  -7  290.67   10.50
   0   5   7  331.37   11.80
   0   5   7  315.87   11.80
   0   5   7  338.57   11.70
   0   5  -7  341.37   12.90
   0   5  -7  341.87   11.90
   1  -5   7    6.80    0.80
   1  -5   7    5.80    0.90
   1  -5   7    5.00    0.70
  -1  -5  -7    4.80    1.00
  -1  -5  -7    4.90    1.60
   1   5   7    4.40    0.70
   1   5   7    4.80    0.70
  -1   5  -7    4.10    0.60
  -1   5  -7    3.80    1.10
   2  -5   7  103.59    4.20
   2  -5   7  106.19    4.00
  -2  -5  -7  106.29    4.40
   2   5   7   80.59    3.10
  -2   5  -7   72.79    3.00
   2   5   7   80.29    3.00
   2   5   7   79.99    3.20
  -3  -5  -7   30.40    1.80
   3   5   7   28.50    1.50
   3   5   7   28.80    1.30
   3   5   7   27.90    1.30
  -7  -6   7   41.10    1.80
   7   6  -7   48.50    2.00
  -7   6   7   49.30    2.10
  -7   6   7   52.79    2.10
   6  -6  -7  274.27   10.00
  -6  -6   7  282.57    9.80
  -6   6   7  278.17    9.50
  -6   6   7  262.27    9.60
   6   6  -7  266.37    9.40
  -5  -6   7   25.70    1.30
  -5  -6   7   24.80    1.30
  -5  -6   7   27.10    1.40
   5  -6  -7   22.90    1.70
  -5   6   7   24.60    1.50
  -4  -6   7  474.95   16.50
  -4  -6   7  480.45   16.60
   4  -6  -7  496.45   17.00
  -4  -6   7  466.95   16.60
  -4   6   7  462.35   16.10
  -3  -6   7  172.98    6.40
  -3  -6   7  178.88    6.70
  -3  -6   7  174.58    6.40
  -3  -6   7  174.48    6.30
   3  -6  -7  179.28    6.80
  -3   6   7  199.28    7.30
  -3   6   7  203.28    7.60
  -2  -6   7   80.89    3.10
   2  -6  -7   77.79    3.50
  -2  -6   7   76.89    3.10
  -2  -6   7   76.99    3.10
  -2  -6   7   80.99    3.50
  -2   6   7   74.19    3.10
  -2   6   7   72.79    3.10
  -2   6   7   78.19    3.30
   2   6  -7   74.59    3.30
  -1  -6   7  245.88    8.80
  -1  -6   7  256.17    8.90
   1  -6  -7  250.97    9.20
  -1  -6   7  247.48    9.20
   1   6  -7  221.18    7.90
   1   6  -7  207.68    9.00
  -1   6   7  215.78    7.80
  -1   6   7  212.88    7.80
  -1   6   7  217.28    7.70
   0  -6   7    4.40    0.70
   0  -6   7    6.10    0.90
   0  -6  -7    4.50    0.70
   0  -6   7    4.10    0.60
   0   6  -7    5.30    1.30
   0   6   7    6.10    0.80
   0   6   7    5.40    0.70
   0   6  -7    6.40    0.80
   1  -6   7  224.28    8.10
  -1  -6  -7  208.98    8.30
   1  -6   7  226.58    7.90
  -1  -6  -7  223.08    8.00
   1  -6   7  219.58    7.80
   1   6   7  212.38    7.60
   1   6   7  226.08    7.60
  -1   6  -7  214.78    7.70
  -1   6  -7  198.78    8.50
   2  -6   7   37.20    1.60
  -2  -6  -7   32.90    1.90
   2  -6   7   35.90    1.80
  -2   6  -7   44.20    1.90
   2   6   7   46.00    1.90
   2   6   7   43.50    1.90
  -3  -6  -7   78.69    3.30
   3   6   7   85.19    3.10
   3   6   7   80.09    3.10
   3   6   7   84.49    3.00
  -7  -7   7   65.99    2.50
   7   7  -7   70.19    2.60
  -7   7   7   66.99    2.70
  -7   7   7   70.49    2.60
  -6  -7   7   72.39    2.60
  -6  -7   7   57.89    2.50
  -6  -7   7   64.49    2.50
  -6   7   7   63.29    2.60
   6   7  -7   66.59    2.60
  -6   7   7   66.99    2.60
  -5  -7   7  136.29    4.90
  -5  -7   7  138.79    5.00
  -5  -7   7  135.99    5.00
  -5   7   7  138.09    5.20
  -5   7   7  143.29    5.40
  -4  -7   7   15.90    1.10
   4  -7  -7   16.00    1.40
  -4  -7   7   14.50    1.00
  -4   7   7   12.70    1.10
  -4   7   7   12.20    1.30
  -3  -7   7   66.49    2.90
  -3  -7   7   64.89    2.70
   3  -7  -7   66.89    3.00
  -3  -7   7   60.79    2.60
  -3  -7   7   66.29    2.60
  -3   7   7   73.39    3.20
  -3   7   7   72.09    3.00
  -3   7   7   72.79    3.00
  -2  -7   7   99.09    3.80
   2  -7  -7  101.69    4.20
  -2  -7   7   98.19    4.10
  -2  -7   7  102.69    3.90
  -2   7   7  105.49    4.10
  -2   7   7  102.19    4.00
  -2   7   7   99.39    3.90
   1  -7  -7   22.00    1.60
   1  -7  -7   21.90    1.80
  -1  -7   7   21.70    1.60
  -1  -7   7   22.90    1.20
  -1  -7   7   22.30    1.30
   1   7  -7   15.30    1.20
  -1   7   7   13.80    1.10
  -1   7   7   14.70    1.10
  -1   7   7   16.00    1.10
   1   7  -7   13.60    1.80
   0  -7  -7  278.97   10.10
   0  -7   7  276.57    9.80
   0  -7   7  289.37    9.90
   0  -7   7  280.57   10.10
   0  -7  -7  278.97   10.50
   0   7   7  300.67   10.40
   0   7  -7  306.87   10.60
   0   7   7  282.67   10.40
  -1  -7  -7   13.50    1.00
   1  -7   7   15.00    1.20
   1  -7   7   16.70    1.00
  -1  -7  -7   15.70    1.60
   1   7   7   14.80    1.00
  -1   7  -7   16.30    1.10
   1   7   7   14.00    1.00
   2  -7   7  129.39    4.90
  -2  -7  -7  135.49    5.20
   2   7   7  118.09    4.30
   2   7   7  123.99    4.30
  -6  -8   7  126.59    4.60
  -6  -8   7  135.19    4.70
  -6  -8   7  133.09    4.70
  -6   8   7  124.99    4.50
  -5  -8   7    4.70    0.50
  -5  -8   7    4.50    0.50
  -5  -8   7    4.50    0.60
  -5   8   7    5.90    0.60
  -5   8   7    3.50    0.60
  -4  -8   7  348.47   12.90
  -4  -8   7  389.76   12.90
  -4  -8   7  380.76   12.90
  -4   8   7  389.26   13.60
  -4   8   7  380.76   13.30
  -3  -8   7   60.49    2.40
  -3  -8   7   61.89    2.50
   3  -8  -7   61.49    2.80
  -3  -8   7   60.49    2.70
  -3   8   7   74.49    3.00
  -3   8   7   76.89    3.20
  -2  -8   7  256.37    8.70
  -2  -8   7  244.18    9.00
   2  -8  -7  242.48    9.00
  -2  -8   7  245.48    8.70
  -2   8   7  271.37    9.50
  -2   8   7  268.37    9.70
  -1  -8   7  312.67   10.90
  -1  -8   7  307.77   10.70
   1  -8  -7  302.97   10.90
  -1  -8   7  296.47   10.60
  -1   8   7  285.47    9.80
   1   8  -7  275.77   10.10
  -1   8   7  281.27    9.90
   0  -8   7    3.90    0.50
   0  -8  -7    4.30    0.90
   0  -8   7    5.00    0.80
   0  -8  -7    3.80    0.60
   0  -8   7    4.20    0.80
   0   8   7    3.90    0.60
   0   8  -7    4.70    0.70
  -1  -8  -7  208.08    7.50
  -1  -8  -7  215.78    7.90
   1  -8   7  209.58    7.60
   1   8   7  197.58    6.90
  -5  -9   7  222.78    7.50
  -5  -9   7  220.88    7.40
  -5  -9   7  198.28    7.40
  -5   9   7  188.68    7.10
   5   9  -7  211.28    7.00
  -4  -9   7   41.00    1.70
  -4  -9   7   42.60    1.70
  -4   9   7   35.70    1.80
  -4   9   7   39.40    1.80
  -3  -9   7  178.08    6.20
   3  -9  -7  172.28    6.40
  -3  -9   7  172.28    6.40
  -3  -9   7  175.38    6.20
  -3   9   7  179.38    6.40
  -3   9   7  169.58    6.20
  -2  -9   7  234.28    8.30
  -2  -9   7  226.78    8.00
  -2  -9   7  233.38    8.10
   2  -9  -7  228.58    8.30
  -2   9   7  222.08    7.80
  -2   9   7  212.98    7.60
  -1  -9   7   62.29    2.40
   1  -9  -7   63.79    2.70
  -1  -9   7   64.39    2.50
  -1  -9   7   66.99    2.70
  -1   9   7   60.19    2.40
  -1   9   7   59.79    2.30
   0  -9   7  140.49    5.10
   0  -9  -7  135.39    5.30
   0  -9  -7  141.09    5.10
   0   9   7  137.19    4.90
   8   0  -8   59.19    2.50
   7   0  -8  213.18    7.70
   6   0  -8   46.50    2.20
   5   0  -8  292.77   10.40
   4   0  -8   36.40    2.10
  -4   0   8   39.40    1.90
   4   0  -8   39.20    1.90
   3   0  -8   66.99    2.90
  -3   0   8   67.89    2.90
   2   0  -8  528.55   17.90
   2   0  -8  481.15   19.10
  -2   0   8  512.65   17.50
  -2   0   8  507.25   17.50
   2   0  -8  488.25   17.50
   1   0  -8    9.90    1.80
  -1   0   8    8.50    0.90
   1   0  -8   10.90    1.30
  -1   0   8   12.40    1.00
  -1   0   8    9.00    0.90
   0   0  -8   37.90    3.00
   0   0   8   40.60    2.10
   0   0   8   38.60    1.90
   0   0   8   37.50    2.00
   0   0  -8   42.30    2.20
   1   0   8   43.40    2.10
   1   0   8   42.90    2.10
  -1   0  -8   42.40    2.20
   1   0   8   42.60    2.10
  -1   0  -8   41.30    3.00
  -2   0  -8   10.20    1.00
   2   0   8   11.20    1.00
   2   0   8   11.10    1.10
   3   0   8   52.29    2.20
   8  -1  -8   73.69    2.90
  -8   1   8   67.99    2.80
   8   1  -8   74.89    2.80
  -8   1   8   70.59    2.70
   7  -1  -8    3.30    0.60
  -7   1   8    2.80    0.60
   7   1  -8    2.50    0.60
   6  -1  -8  279.87   10.10
   6  -1  -8  277.07   10.00
  -6   1   8  244.78    8.80
   6   1  -8  252.67    8.90
   5  -1  -8  116.39    4.60
  -5  -1   8  120.29    4.50
   5   1  -8  117.59    4.50
   4  -1  -8  264.07    9.60
  -4  -1   8  270.77    9.50
   4  -1  -8  266.77    9.80
   4   1  -8  238.78    8.50
   4   1  -8  232.28    8.70
  -3  -1   8   81.79    3.50
   3  -1  -8   86.59    3.50
  -3  -1   8   86.49    3.40
  -3   1   8   85.69    3.40
   3   1  -8   77.29    4.50
   3   1  -8   85.79    3.40
   2  -1  -8    2.00    0.80
   2  -1  -8    2.00    0.60
  -2  -1   8    2.60    0.80
  -2  -1   8    2.60    0.70
  -2  -1   8    2.40    0.70
  -2   1   8    0.60    0.60
   2   1  -8    1.00    0.70
  -2   1   8    0.80    0.60
  -2   1   8    1.80    0.70
   2   1  -8    1.10    1.10
   2   1  -8    0.20    0.40
  -1  -1   8  367.36   13.10
  -1  -1   8  361.76   13.00
   1  -1  -8  371.76   14.70
   1  -1  -8  384.26   13.40
  -1  -1   8  362.16   13.40
  -1  -1   8  375.96   13.00
   1   1  -8  390.76   15.10
  -1   1   8  378.56   13.50
  -1   1   8  369.26   13.40
  -1   1   8  381.46   13.50
   1   1  -8  400.66   13.80
   0  -1   8   76.59    3.20
   0  -1  -8   76.89    4.50
   0  -1   8   76.29    3.10
   0  -1  -8   76.29    3.40
   0  -1   8   75.39    3.10
   0   1   8   74.69    3.10
   0   1   8   74.29    3.20
   0   1   8   75.89    3.10
   0   1  -8   78.59    3.40
   0   1  -8   77.39    4.30
   0   1   8   74.99    3.20
   1  -1   8  213.78    7.70
   1  -1   8  217.78    7.70
  -1  -1  -8  211.28    7.90
   1  -1   8  219.08    7.70
  -1  -1  -8  200.68    8.90
  -1   1  -8  213.08    8.70
   1   1   8  206.08    7.50
  -1   1  -8  210.88    7.80
   1   1   8  214.28    7.70
   1   1   8  208.18    7.60
   2  -1   8  176.08    6.20
  -2  -1  -8  169.38    6.40
   2  -1   8  166.98    6.20
   2   1   8  173.28    6.30
   2   1   8  172.88    6.20
   2   1   8  181.38    6.40
  -2   1  -8  168.48    6.40
   3  -1   8   13.50    0.90
   3   1   8   10.20    0.80
   8  -2  -8   53.29    2.30
   8   2  -8   46.90    2.00
  -8   2   8   46.80    1.90
  -8   2   8   43.70    1.90
   7  -2  -8  243.98    8.80
   7   2  -8  253.27    9.10
  -7   2   8  258.27    9.00
  -6  -2   8   30.30    1.60
   6  -2  -8   28.60    1.90
   6  -2  -8   30.20    1.70
  -6   2   8   27.90    1.50
   6   2  -8   27.90    1.50
   5  -2  -8  384.46   14.00
  -5  -2   8  408.56   13.90
  -5   2   8  371.86   13.60
   5   2  -8  410.46   13.80
   4  -2  -8  185.18    6.90
   4  -2  -8  184.88    7.00
  -4  -2   8  188.28    6.80
   4   2  -8  168.58    6.50
   4   2  -8  178.78    6.40
  -4   2   8  167.58    6.20
  -3  -2   8  134.59    4.80
   3  -2  -8  132.69    5.10
  -3  -2   8  128.59    4.90
   3  -2  -8  123.19    5.40
   3   2  -8  149.69    5.60
   3   2  -8  144.19    6.90
  -3   2   8  154.08    5.50
   2  -2  -8  616.14   21.80
   2  -2  -8  636.24   22.10
  -2  -2   8  620.04   21.70
  -2  -2   8  623.44   21.70
  -2  -2   8  629.34   22.00
  -2  -2   8  647.54   21.70
  -2   2   8  649.04   22.90
   2   2  -8  640.64   22.80
  -2   2   8  651.53   22.80
   2   2  -8  701.73   23.20
   2   2  -8  666.33   24.50
  -1  -2   8   51.69    2.60
  -1  -2   8   49.90    2.30
  -1  -2   8   52.89    2.30
   1  -2  -8   54.39    2.70
   1  -2  -8   51.29    3.60
  -1  -2   8   49.30    2.40
   1  -2  -8   49.40    2.40
   1   2  -8   54.19    3.60
  -1   2   8   53.09    2.40
  -1   2   8   52.59    2.40
   1   2  -8   56.59    2.70
  -1   2   8   53.49    2.50
   0  -2  -8  286.77   12.20
   0  -2   8  304.27   10.70
   0  -2   8  301.07   10.70
   0  -2   8  298.47   11.00
   0  -2  -8  311.47   11.10
   0  -2   8  301.87   10.60
   0   2  -8  284.87   10.20
   0   2   8  268.67    9.90
   0   2  -8  284.07   11.30
   0   2   8  278.47   10.00
   0   2   8  276.57    9.90
   1  -2   8   49.50    2.20
   1  -2   8   48.50    2.20
  -1  -2  -8   47.70    2.40
   1  -2   8   50.59    2.20
  -1  -2  -8   45.00    3.20
   1   2   8   52.89    2.40
   1   2   8   57.39    2.50
  -1   2  -8   55.09    2.50
  -1   2  -8   51.69    3.20
   1   2   8   54.09    2.30
  -2  -2  -8  122.89    4.90
   2  -2   8  125.09    4.60
   2   2   8  118.29    4.30
  -2   2  -8  113.29    4.50
   2   2   8  120.29    4.40
   3  -2   8   54.19    2.20
   3   2   8   47.30    1.90
   3   2   8   44.40    1.80
   8  -3  -8   59.49    2.40
   8   3  -8   53.59    2.20
  -8   3   8   51.59    2.20
  -8   3   8   55.59    2.10
  -7  -3   8   51.19    2.10
   7  -3  -8   49.10    2.30
  -7   3   8   60.59    2.40
   7   3  -8   57.29    2.40
   6  -3  -8  249.97    9.10
  -6  -3   8  251.57    8.90
  -6   3   8  253.87    9.00
   6   3  -8  255.37    9.10
  -5  -3   8   97.19    3.70
   5  -3  -8   93.99    3.90
   5   3  -8  109.89    4.10
  -5   3   8   98.69    4.00
   4  -3  -8  378.06   13.10
  -4  -3   8  361.06   12.90
  -4  -3   8  364.46   12.80
  -4   3   8  332.47   11.90
   4   3  -8  350.96   12.10
   3  -3  -8  144.59    6.30
  -3  -3   8  157.88    5.70
  -3  -3   8  154.38    5.80
  -3  -3   8  161.78    5.70
   3  -3  -8  158.58    6.00
   3   3  -8  155.88    5.60
  -3   3   8  144.19    5.50
  -2  -3   8   96.89    3.80
  -2  -3   8  101.69    4.20
   2  -3  -8   95.39    4.00
  -2  -3   8   98.69    3.90
  -2  -3   8  102.09    3.80
  -2   3   8   87.49    3.80
  -2   3   8   94.09    3.60
   2   3  -8   89.89    5.00
  -2   3   8   87.19    3.50
   2   3  -8   94.29    3.90
   2   3  -8   86.19    3.50
   1  -3  -8  287.27   10.70
  -1  -3   8  309.47   10.60
  -1  -3   8  290.37   10.90
   1  -3  -8  301.57   11.00
  -1  -3   8  305.77   10.50
  -1  -3   8  298.27   10.60
   1   3  -8  265.87   11.00
  -1   3   8  262.27    9.50
  -1   3   8  251.47    9.40
   1   3  -8  279.97    9.80
  -1   3   8  267.17    9.50
   0  -3   8    7.90    0.80
   0  -3   8    7.10    0.90
   0  -3   8    9.90    1.20
   0  -3  -8    7.10    1.20
   0  -3  -8    7.30    1.70
   0  -3   8    6.10    0.70
   0   3   8   10.10    1.00
   0   3  -8   10.20    1.10
   0   3   8   11.10    0.90
   0   3  -8    9.90    1.70
   0   3   8    9.40    0.80
  -1  -3  -8  117.89    4.70
   1  -3   8  113.39    4.30
   1  -3   8  114.09    4.90
   1  -3   8  111.59    4.30
   1   3   8  110.09    4.00
   1   3   8  107.59    4.10
  -1   3  -8  100.99    4.10
   1   3   8  101.39    4.00
   2  -3   8   68.19    2.70
  -2   3  -8   68.19    2.90
   2   3   8   73.49    2.80
   2   3   8   72.39    2.90
   8  -4  -8   39.20    1.70
  -8   4   8   40.50    1.80
   8   4  -8   45.20    1.80
   7  -4  -8  208.98    7.80
  -7  -4   8  224.38    7.60
   7   4  -8  214.98    8.00
  -7   4   8  240.18    8.00
   6  -4  -8    7.60    0.90
  -6  -4   8    6.50    0.70
  -6   4   8    6.80    0.80
   6   4  -8    6.10    0.70
   5  -4  -8  289.37   10.40
  -5  -4   8  291.17   10.20
  -5   4   8  285.27   10.20
   5   4  -8  295.87   10.30
  -4  -4   8  116.29    4.50
  -4  -4   8  121.39    4.40
   4  -4  -8  118.89    4.70
  -4  -4   8  113.89    4.50
   4   4  -8  137.29    5.10
  -4   4   8  134.89    5.10
  -3  -4   8   94.49    3.40
  -3  -4   8   84.19    3.40
  -3  -4   8   87.69    3.50
   3  -4  -8   90.29    3.80
  -3   4   8   92.09    3.60
   3   4  -8   92.29    3.60
   2  -4  -8  621.04   22.10
  -2  -4   8  636.04   21.80
  -2  -4   8  628.24   21.80
  -2  -4   8  624.74   21.90
  -2  -4   8  659.73   22.20
  -2   4   8  692.63   23.90
  -2   4   8  724.23   24.00
   2   4  -8  671.13   23.80
  -2   4   8  694.83   23.80
   2   4  -8  667.43   27.90
   2   4  -8  710.13   24.20
  -1  -4   8   79.89    3.20
  -1  -4   8   82.59    3.10
  -1  -4   8   77.19    3.40
   1  -4  -8   72.09    3.50
  -1  -4   8   79.09    3.20
   1  -4  -8   74.49    3.30
   1   4  -8   79.59    3.50
  -1   4   8   81.59    3.20
  -1   4   8   79.89    3.20
  -1   4   8   78.19    3.30
   1   4  -8   75.49    4.40
   0  -4   8  302.07   10.50
   0  -4   8  300.97   10.80
   0  -4   8  287.17   10.50
   0  -4   8  302.87   10.40
   0  -4  -8  285.47   10.60
   0  -4  -8  299.27   10.90
   0   4   8  305.57   10.60
   0   4  -8  316.67   10.90
   0   4   8  301.37   10.50
   0   4   8  292.27   10.70
   0   4  -8  290.17   11.80
   1  -4   8  174.88    6.20
   1  -4   8  165.88    6.10
  -1  -4  -8  170.18    6.60
   1  -4   8  171.68    6.50
  -1   4  -8  165.88    6.10
   1   4   8  159.38    5.80
   1   4   8  166.78    5.90
   2  -4   8   81.09    3.10
   2   4   8   79.89    3.00
   2   4   8   86.49    3.10
   2   4   8   82.79    3.20
  -7  -5   8   36.30    1.50
   7  -5  -8   33.70    1.70
  -7   5   8   32.10    1.40
   7   5  -8   30.60    1.40
  -6  -5   8  240.58    8.20
   6  -5  -8  221.08    8.30
   6   5  -8  218.88    8.00
  -6   5   8  234.98    8.00
   5  -5  -8   48.90    2.30
  -5  -5   8   49.70    2.10
  -5  -5   8   47.70    2.00
  -5   5   8   54.59    2.30
   5   5  -8   52.69    2.30
  -4  -5   8  271.37    9.50
  -4  -5   8  267.57    9.50
  -4  -5   8  272.37    9.60
   4  -5  -8  273.47    9.80
   4   5  -8  315.97   11.20
  -4   5   8  319.97   11.20
   3  -5  -8   77.99    3.30
  -3  -5   8   74.99    3.00
  -3  -5   8   71.69    2.90
  -3  -5   8   72.49    2.90
  -3   5   8   68.09    3.00
  -3   5   8   66.49    2.80
  -2  -5   8   60.79    2.60
  -2  -5   8   59.59    2.50
   2  -5  -8   61.29    2.80
  -2  -5   8   60.89    2.80
  -2  -5   8   60.99    2.50
   2   5  -8   69.69    2.80
  -2   5   8   71.19    3.00
  -2   5   8   75.59    2.90
   2   5  -8   69.99    3.20
  -1  -5   8  112.89    4.40
  -1  -5   8  115.39    4.60
  -1  -5   8  118.49    4.40
  -1  -5   8  119.79    4.30
   1  -5  -8  109.79    4.50
  -1   5   8  140.79    5.20
  -1   5   8  144.49    5.10
   1   5  -8  126.29    6.30
   1   5  -8  144.29    5.40
   0  -5  -8   43.70    2.40
   0  -5  -8   47.50    2.20
   0  -5   8   50.49    2.10
   0  -5   8   50.29    2.40
   0  -5   8   48.80    2.10
   0   5   8   50.49    2.20
   0   5  -8   52.59    2.40
   0   5   8   51.19    2.20
  -1  -5  -8  124.79    5.10
   1  -5   8  136.29    5.10
   1  -5   8  133.79    4.80
   1  -5   8  135.89    4.90
   1   5   8  136.59    5.00
   1   5   8  140.59    5.00
  -1   5  -8  139.59    5.20
   2  -5   8  116.89    4.20
   2   5   8  108.99    3.90
   2   5   8  113.19    4.00
  -6  -6   8   12.50    0.90
  -6   6   8   12.10    1.00
  -6   6   8   12.50    0.90
   6   6  -8   12.80    0.80
  -5  -6   8  203.68    7.20
  -5  -6   8  213.58    7.30
  -5  -6   8  200.18    7.20
  -5   6   8  220.28    8.30
  -5   6   8  239.88    8.20
   5   6  -8  230.38    8.10
   4  -6  -8  194.28    7.00
  -4  -6   8  186.28    6.60
  -4  -6   8  180.38    6.70
  -4  -6   8  186.98    6.70
   4   6  -8  187.88    6.80
  -4   6   8  190.08    7.00
  -4   6   8  187.88    6.80
  -3  -6   8  119.69    4.50
   3  -6  -8  124.09    4.80
  -3  -6   8  124.19    4.50
  -3  -6   8  116.99    4.50
  -3  -6   8  120.99    4.70
  -3   6   8  117.49    4.50
  -3   6   8  118.29    4.40
  -3   6   8  111.99    4.40
   2  -6  -8  343.57   12.00
  -2  -6   8  327.87   11.70
  -2  -6   8  337.97   11.70
  -2  -6   8  339.67   11.70
  -2  -6   8  331.57   12.00
  -2   6   8  360.16   11.90
  -2   6   8  340.47   11.90
   2   6  -8  315.07   12.10
  -2   6   8  341.47   11.90
  -1  -6   8   50.39    2.10
  -1  -6   8   48.70    2.40
   1  -6  -8   48.60    2.30
  -1  -6   8   49.99    2.10
   1   6  -8   47.50    2.30
  -1   6   8   49.30    2.10
  -1   6   8   50.39    2.10
   0  -6   8  174.48    6.40
   0  -6  -8  163.48    6.30
   0  -6   8  178.58    6.20
   0  -6   8  171.18    6.10
   0   6   8  146.89    5.40
   0   6  -8  146.39    5.60
   0   6   8  153.48    5.40
  -1  -6  -8   35.30    1.90
   1  -6   8   34.70    1.50
   1  -6   8   32.00    1.70
   1   6   8   42.40    1.80
   1   6   8   43.50    1.70
  -6  -7   8   64.49    2.50
  -6   7   8   72.19    2.90
   6   7  -8   74.09    2.80
  -6   7   8   82.09    2.80
  -5  -7   8   24.40    1.20
  -5  -7   8   26.20    1.30
  -5  -7   8   24.70    1.20
  -5   7   8   34.10    1.70
  -5   7   8   35.00    1.60
   5   7  -8   33.90    1.50
  -5   7   8   35.40    1.60
   4  -7  -8   29.20    1.60
  -4  -7   8   30.00    1.40
  -4  -7   8   29.70    1.40
  -4  -7   8   29.90    1.40
  -4   7   8   31.20    1.70
   4   7  -8   32.50    1.50
  -4   7   8   32.50    1.60
  -4   7   8   32.30    1.50
  -3  -7   8  264.37    9.00
  -3  -7   8  252.97    9.00
  -3  -7   8  259.77    9.00
   3  -7  -8  258.57    9.30
  -3  -7   8  252.07    9.20
  -3   7   8  247.68    9.00
  -3   7   8  258.07    8.90
  -3   7   8  253.07    8.90
  -2  -7   8   18.00    1.10
   2  -7  -8   18.70    1.30
  -2  -7   8   19.80    1.30
  -2  -7   8   18.30    1.10
  -2   7   8   16.80    1.10
  -2   7   8   13.40    1.00
  -2   7   8   14.40    1.00
  -1  -7   8  148.29    5.70
   1  -7  -8  156.48    5.70
  -1  -7   8  159.68    5.50
  -1  -7   8  148.69    5.50
   1   7  -8  120.69    5.00
  -1   7   8  134.69    4.80
  -1   7   8  140.49    4.80
   0  -7   8   55.99    2.40
   0  -7  -8   52.49    2.30
   0  -7   8   57.89    2.20
   0  -7  -8   57.29    2.60
   0  -7   8   53.59    2.20
   0   7   8   49.70    2.00
   0   7   8   51.39    2.00
  -4  -8   8   80.59    2.80
  -4  -8   8   67.59    2.80
  -4  -8   8   79.19    2.80
  -4   8   8   73.19    2.90
  -4   8   8   73.69    2.80
   4   8  -8   75.89    2.80
   3  -8  -8   89.79    3.50
  -3  -8   8   90.09    3.30
  -3  -8   8   93.29    3.30
  -3  -8   8   88.29    3.50
   3   8  -8   94.09    3.40
  -3   8   8   87.59    3.40
  -3   8   8   95.89    3.50
  -3   8   8   97.29    3.60
   2  -8  -8  159.28    5.80
  -2  -8   8  158.08    5.80
  -2  -8   8  153.28    5.60
  -2  -8   8  164.08    5.70
   2   8  -8  174.48    6.20
  -2   8   8  171.58    6.20
  -2   8   8  177.08    6.20
  -2   8   8  184.18    6.20
  -1  -8   8   21.40    1.10
  -1  -8   8   22.90    1.30
   1  -8  -8   23.90    1.30
  -1  -8   8   22.60    1.10
  -1   8   8   20.10    1.10
  -1   8   8   24.50    1.10
   7   0  -9    1.80    0.50
   6   0  -9  158.18    5.80
   5   0  -9   53.99    2.40
   4   0  -9   56.99    2.50
  -4   0   9   58.39    2.50
   3   0  -9   91.29    3.70
  -3   0   9   96.69    3.70
  -2   0   9   -0.10    0.60
  -2   0   9    0.70    0.60
   2   0  -9    0.40    0.60
   2   0  -9    0.40    0.50
  -1   0   9   64.49    2.80
   1   0  -9   66.39    3.00
  -1   0   9   62.39    2.70
  -1   0   9   63.89    2.70
   0   0  -9  122.39    4.80
   0   0   9  116.29    4.50
   0   0   9  126.99    4.60
   1   0   9    1.40    0.50
   1   0   9    0.50    0.50
   7  -1  -9  169.48    6.10
   7   1  -9  157.48    5.70
   6  -1  -9   43.50    2.00
   6   1  -9   48.50    2.10
   5  -1  -9  125.69    4.80
  -5  -1   9  127.99    4.70
   5   1  -9  118.19    4.50
   4  -1  -9  379.06   13.20
  -4  -1   9  367.46   13.00
   4   1  -9  374.26   12.30
  -4   1   9  317.37   12.70
   3  -1  -9   34.50    1.80
  -3  -1   9   33.90    1.80
  -3  -1   9   33.60    1.60
  -3   1   9   28.20    1.90
  -3   1   9   32.90    1.70
   3   1  -9   30.20    1.60
  -2  -1   9  286.57   10.00
   2  -1  -9  285.97   10.10
  -2  -1   9  297.67   10.10
   2  -1  -9  265.07   10.30
  -2   1   9  289.47   10.00
   2   1  -9  281.77   10.30
   2   1  -9  281.07   10.00
  -2   1   9  274.97    9.90
  -1  -1   9  212.78    7.60
  -1  -1   9  222.78    7.70
  -1  -1   9  212.48    7.60
   1  -1  -9  206.88    8.00
   1   1  -9  230.88    8.50
  -1   1   9  227.38    8.20
   0  -1   9  196.98    7.30
   0  -1  -9  201.78    7.60
   0  -1   9  210.68    7.40
   0  -1   9  207.68    7.30
   0   1   9  215.28    7.50
   0   1  -9  213.18    7.70
   0   1   9  193.58    7.40
   1  -1   9   76.89    3.00
   1  -1   9   78.49    3.00
   1   1   9   78.49    3.00
   1   1   9   72.99    2.90
   7  -2  -9    6.80    0.70
  -7   2   9    8.20    0.70
  -6  -2   9  137.79    5.00
   6  -2  -9  136.59    5.10
  -6   2   9  146.89    5.40
   6   2  -9  155.78    5.60
  -5  -2   9  187.68    6.80
   5  -2  -9  192.78    7.00
   5   2  -9  181.58    6.60
   4  -2  -9   45.30    2.20
  -4  -2   9   42.90    2.00
   4   2  -9   48.80    2.20
  -3  -2   9  317.57   11.20
   3  -2  -9  311.97   11.30
  -3  -2   9  326.07   11.10
   3   2  -9  285.87   10.00
  -3   2   9  283.87    9.90
  -3   2   9  274.77   10.00
  -2  -2   9    3.80    0.60
  -2  -2   9    4.20    0.80
   2  -2  -9    3.50    0.70
  -2  -2   9    4.10    0.70
   2   2  -9    3.60    0.80
   2   2  -9    2.50    0.50
  -2   2   9    2.70    0.60
  -2   2   9    3.10    0.70
  -1  -2   9  214.88    7.40
  -1  -2   9  197.48    7.40
   1  -2  -9  202.28    7.70
  -1  -2   9  211.68    7.50
  -1   2   9  213.38    7.70
   1   2  -9  221.38    8.10
  -1   2   9  212.68    7.80
   0  -2   9   50.39    2.00
   0  -2   9   49.80    2.10
   0  -2  -9   42.50    2.30
   0  -2   9   43.00    2.00
   0   2  -9   42.10    2.10
   0   2   9   42.20    2.00
   0   2   9   39.10    1.80
   1  -2   9   75.89    2.90
   1  -2   9   77.29    2.90
   1   2   9   70.39    2.70
   1   2   9   69.79    2.60
   7  -3  -9  137.29    5.10
  -7  -3   9  141.99    5.00
  -7   3   9  158.48    5.60
   6  -3  -9   80.29    3.20
  -6  -3   9   84.29    3.20
   6   3  -9   87.19    3.30
  -6   3   9   86.79    3.30
   5  -3  -9  119.99    4.60
  -5  -3   9  117.39    4.40
  -5   3   9  127.09    4.70
   5   3  -9  130.69    4.80
   4  -3  -9  485.15   16.10
  -4  -3   9  473.85   15.90
  -4  -3   9  416.76   15.90
   4   3  -9  500.85   16.80
  -4   3   9  466.95   16.70
   3  -3  -9  113.49    4.50
  -3  -3   9  112.29    4.30
  -3  -3   9  116.89    4.40
  -3  -3   9  117.59    4.30
  -3   3   9  102.29    3.90
  -3   3   9  103.39    4.00
   3   3  -9  105.79    4.00
   2  -3  -9  191.28    7.10
  -2  -3   9  188.48    6.90
  -2  -3   9  197.38    7.00
  -2  -3   9  192.58    7.20
  -2  -3   9  191.78    6.90
   2   3  -9  167.38    6.20
  -2   3   9  170.58    6.30
  -2   3   9  174.08    6.40
   2   3  -9  172.28    6.60
  -2   3   9  181.28    6.30
  -1  -3   9   52.79    2.30
  -1  -3   9   57.39    2.40
   1  -3  -9   53.79    2.30
   1  -3  -9   48.40    2.60
  -1  -3   9   57.79    2.30
  -1   3   9   68.69    2.70
  -1   3   9   65.19    2.80
   1   3  -9   67.89    3.00
   0  -3   9   39.00    1.80
   0  -3  -9   38.50    2.00
   0  -3   9   42.50    1.80
   0  -3   9   41.70    1.80
   0   3   9   42.30    1.90
   0   3   9   41.40    1.80
   0   3  -9   40.60    2.00
   1  -3   9   65.99    2.60
   1   3   9   54.19    2.10
  -6  -4   9  181.88    6.40
   6   4  -9  177.48    6.40
  -6   4   9  178.58    6.30
  -5  -4   9   30.50    1.50
   5  -4  -9   30.90    1.60
   5   4  -9   40.30    1.80
  -5   4   9   37.70    1.70
  -4  -4   9  141.49    5.10
   4  -4  -9  144.79    5.40
  -4  -4   9  140.69    5.20
  -4   4   9  152.58    5.50
  -4   4   9  155.98    5.60
   4   4  -9  151.68    5.60
  -3  -4   9  258.47    9.00
  -3  -4   9  249.28    8.90
  -3  -4   9  251.97    8.90
   3  -4  -9  256.87    9.20
  -3   4   9  260.07    9.10
  -3   4   9  252.77    9.00
  -3   4   9  267.57    9.10
   3   4  -9  251.37    9.10
  -2  -4   9   29.60    1.50
  -2  -4   9   28.40    1.40
  -2  -4   9   28.70    1.50
   2  -4  -9   30.00    1.60
  -2  -4   9   27.90    1.70
  -2   4   9   27.20    1.40
   2   4  -9   22.80    1.20
   2   4  -9   25.50    1.60
  -2   4   9   24.60    1.30
   1  -4  -9  257.67    9.30
  -1  -4   9  261.87    9.20
  -1  -4   9  260.27    9.40
  -1  -4   9  261.37    9.20
  -1  -4   9  269.07    9.20
  -1   4   9  270.77    9.20
  -1   4   9  262.37    9.10
  -1   4   9  247.58    9.20
   1   4  -9  261.57    9.40
   0  -4   9  150.38    5.50
   0  -4   9  155.28    5.50
   0   4   9  129.79    4.70
   0   4   9  135.79    4.80
  -6  -5   9   30.40    1.40
   6   5  -9   32.50    1.40
  -6   5   9   32.40    1.50
  -6   5   9   33.10    1.40
  -5  -5   9   47.50    1.90
   5  -5  -9   42.90    2.00
  -5   5   9   49.90    2.10
   5   5  -9   49.90    2.10
  -5   5   9   50.59    2.20
  -4  -5   9  175.68    6.50
  -4  -5   9  189.48    6.50
   4  -5  -9  188.18    6.70
  -4  -5   9  179.48    6.50
  -4   5   9  207.18    7.40
  -4   5   9  207.18    7.40
   4   5  -9  202.78    7.40
  -4   5   9  211.68    7.30
  -3  -5   9   38.90    1.70
   3  -5  -9   38.40    1.90
  -3  -5   9   35.10    1.60
  -3  -5   9   37.00    1.70
  -3   5   9   42.10    1.90
  -3   5   9   41.00    1.80
  -3   5   9   43.20    1.90
   3   5  -9   42.20    1.80
  -2  -5   9  209.08    7.40
   2  -5  -9  213.38    7.60
  -2  -5   9  209.08    7.40
  -2  -5   9  204.38    7.60
  -2  -5   9  209.98    7.40
  -2   5   9  224.98    7.60
   2   5  -9  196.48    7.50
  -2   5   9  218.08    7.50
  -1  -5   9   77.69    2.90
  -1  -5   9   72.79    3.10
   1  -5  -9   75.69    3.00
  -1  -5   9   74.59    2.90
  -1   5   9   73.99    2.70
  -1   5   9   67.79    2.70
   0  -5   9  124.59    4.40
   0  -5   9  119.89    4.40
   0   5   9  126.29    4.50
   0   5   9  123.69    4.40
  -5  -6   9  133.69    4.30
  -5  -6   9  122.29    4.30
   5  -6  -9  104.39    4.40
  -5   6   9  138.99    4.90
   5   6  -9  134.19    4.90
  -5   6   9  142.29    4.90
  -5   6   9  132.09    5.00
   4  -6  -9   49.40    2.10
  -4  -6   9   47.30    1.90
  -4  -6   9   49.70    1.90
  -4  -6   9   48.30    2.00
  -4   6   9   46.00    1.90
  -4   6   9   44.20    1.90
   4   6  -9   45.10    1.90
  -4   6   9   45.80    1.90
  -3  -6   9   83.29    3.10
  -3  -6   9   80.79    3.10
  -3  -6   9   82.69    3.10
   3  -6  -9   87.89    3.30
  -3   6   9   78.39    3.00
  -3   6   9   83.49    3.00
  -3   6   9   82.39    3.10
   3   6  -9   77.79    3.00
  -2  -6   9   23.90    1.20
   2  -6  -9   26.00    1.40
  -2  -6   9   23.90    1.30
  -2  -6   9   23.00    1.20
  -2   6   9   25.00    1.20
  -2   6   9   26.50    1.20
   1  -6  -9  125.49    4.60
   6   0 -10  102.39    3.80
   5   0 -10   16.50    1.10
  -4   0  10  260.67    9.30
   4   0 -10  272.97    9.40
   3   0 -10   28.80    1.50
  -3   0  10   30.30    1.50
   2   0 -10   36.70    1.70
  -2   0  10   40.10    1.80
  -1   0  10   50.49    2.10
   5  -1 -10   76.49    2.90
  -5  -1  10   72.29    2.80
   5   1 -10   86.09    3.30
  -4  -1  10   11.60    0.90
   4  -1 -10   11.10    1.00
   4   1 -10   11.80    0.90
   3  -1 -10  248.08    8.90
  -3  -1  10  254.07    8.80
  -3   1  10  249.08    8.80
   3   1 -10  250.27    8.80
   2  -1 -10   83.09    3.30
  -2  -1  10   94.09    3.30
  -2  -1  10   83.29    3.20
  -2   1  10   93.99    3.50
  -1  -1  10  173.58    6.20
  -1   1  10  184.48    6.50
   5  -2 -10   12.20    0.90
  -5  -2  10   13.70    0.90
   5   2 -10    9.30    0.80
  -5   2  10    7.70    0.70
  -4  -2  10  222.18    7.90
   4  -2 -10  225.48    8.00
  -4   2  10  213.68    7.50
   4   2 -10  226.18    7.70
  -4   2  10  206.78    7.50
  -3  -2  10   50.59    2.10
   3  -2 -10   51.49    2.20
  -3  -2  10   49.90    2.00
  -3   2  10   44.00    1.80
   3   2 -10   44.80    1.90
   2  -2 -10  100.59    3.80
  -2  -2  10  103.69    3.80
  -2  -2  10  103.79    3.80
  -2   2  10   93.29    3.60
  -2   2  10   92.89    3.50
  -5  -3  10  168.58    5.80
   5  -3 -10  159.48    5.90
   5   3 -10  175.38    6.30
  -5   3  10  175.38    6.20
  -5   3  10  178.28    6.20
   4  -3 -10   24.50    1.30
  -4  -3  10   25.20    1.30
   4   3 -10   22.70    1.10
  -4   3  10   22.90    1.10
  -4   3  10   21.30    1.00
  -3  -3  10  162.28    5.70
   3  -3 -10  167.58    5.80
  -3  -3  10  150.98    5.60
  -3   3  10  157.38    5.60
   3   3 -10  157.58    5.60
   2  -3 -10   36.00    1.60
  -2  -3  10   36.20    1.60
  -2  -3  10   37.20    1.50
  -2  -3  10   33.50    1.50
  -2   3  10   36.70    1.50

_computing_structure_solution     'SHELXT 2014/4 (Sheldrick, 2014)'
;
_shelx_hkl_checksum              53370
loop_
_space_group_symop_operation_xyz
'x, y, z'
'-x, y+1/2, -z'
loop_
_atom_site_label
_atom_site_type_symbol
_atom_site_fract_x
_atom_site_fract_y
_atom_site_fract_z
_atom_site_U_iso_or_equiv
_atom_site_adp_type
_atom_site_occupancy
_atom_site_site_symmetry_order
_atom_site_calc_flag
_atom_site_refinement_flags_posn
_atom_site_refinement_flags_adp
Br1 Br 0.20177(3) 0.13799(3) 0.68131(3) 0.02354(10) Uani 1 1 d . .
O1 O 0.2762(2) 0.86124(17) 0.6443(2) 0.0192(4) Uani 1 1 d . .
O2 O 0.4116(2) 0.68415(18) 0.7486(2) 0.0162(4) Uani 1 1 d . .
N1 N 0.2139(3) 0.7567(2) 0.8383(3) 0.0169(5) Uani 1 1 d . .
C1 C 0.2123(3) 0.2998(2) 0.7576(3) 0.0177(5) Uani 1 1 d . .
C2 C 0.3358(3) 0.3272(3) 0.9080(3) 0.0197(5) Uani 1 1 d . .
H2 H 0.4130 0.2671 0.9695 0.024 Uiso 1 1 calc R U
C3 C 0.3448(3) 0.4439(3) 0.9670(3) 0.0177(5) Uani 1 1 d . .
H3 H 0.4308 0.4639 1.0688 0.021 Uiso 1 1 calc R U
C4 C 0.2305(3) 0.5320(3) 0.8802(3) 0.0148(6) Uani 1 1 d . .
C5 C 0.1069(3) 0.5016(3) 0.7289(3) 0.0180(5) Uani 1 1 d . .
H5 H 0.0281 0.5611 0.6682 0.022 Uiso 1 1 calc R U
C6 C 0.0977(3) 0.3865(3) 0.6661(3) 0.0187(5) Uani 1 1 d . .
H6 H 0.0146 0.3668 0.5625 0.022 Uiso 1 1 calc R U
C7 C 0.2376(3) 0.6552(3) 0.9533(3) 0.0174(6) Uani 1 1 d . .
H7 H 0.3498 0.6650 1.0453 0.021 Uiso 1 1 calc R U
C8 C 0.0909(4) 0.6783(3) 1.0180(4) 0.0196(6) Uani 1 1 d . .
H8A H -0.0186 0.6444 0.9432 0.024 Uiso 1 1 calc R U
H8B H 0.1177 0.6432 1.1282 0.024 Uiso 1 1 calc R U
C9 C 0.0833(4) 0.8158(3) 1.0232(4) 0.0233(6) Uani 1 1 d . .
H9A H -0.0285 0.8436 1.0249 0.028 Uiso 1 1 calc R U
H9B H 0.1760 0.8483 1.1202 0.028 Uiso 1 1 calc R U
C10 C 0.1074(4) 0.8535(3) 0.8655(4) 0.0231(6) Uani 1 1 d . .
H10A H -0.0041 0.8586 0.7738 0.028 Uiso 1 1 calc R U
H10B H 0.1661 0.9324 0.8785 0.028 Uiso 1 1 calc R U
C11 C 0.2992(3) 0.7744(2) 0.7348(3) 0.0156(5) Uani 1 1 d . .
C12 C 0.4974(4) 0.6703(2) 0.6290(3) 0.0186(6) Uani 1 1 d . .
C13 C 0.6197(4) 0.7748(3) 0.6446(4) 0.0242(6) Uani 1 1 d . .
H13A H 0.5541 0.8495 0.6096 0.036 Uiso 1 1 calc R U
H13B H 0.6872 0.7597 0.5755 0.036 Uiso 1 1 calc R U
H13C H 0.6966 0.7826 0.7587 0.036 Uiso 1 1 calc R U
C14 C 0.3644(4) 0.6587(3) 0.4577(3) 0.0272(8) Uani 1 1 d . .
H14A H 0.2839 0.5940 0.4559 0.041 Uiso 1 1 calc R U
H14B H 0.4215 0.6397 0.3807 0.041 Uiso 1 1 calc R U
H14C H 0.3019 0.7349 0.4261 0.041 Uiso 1 1 calc R U
C15 C 0.5935(4) 0.5528(3) 0.6829(4) 0.0250(6) Uani 1 1 d . .
H15A H 0.6774 0.5617 0.7940 0.037 Uiso 1 1 calc R U
H15B H 0.6529 0.5320 0.6084 0.037 Uiso 1 1 calc R U
H15C H 0.5124 0.4886 0.6812 0.037 Uiso 1 1 calc R U
loop_
_atom_site_aniso_label
_atom_site_aniso_U_11
_atom_site_aniso_U_22
_atom_site_aniso_U_33
_atom_site_aniso_U_23
_atom_site_aniso_U_13
_atom_site_aniso_U_12
Br1 0.03623(16) 0.01668(15) 0.02248(15) -0.00319(12) 0.01630(11) -0.00382(13)
O1 0.0238(10) 0.0173(9) 0.0187(9) 0.0026(7) 0.0103(8) 0.0015(7)
O2 0.0171(9) 0.0191(8) 0.0151(8) 0.0003(7) 0.0090(7) 0.0015(7)
N1 0.0210(11) 0.0138(12) 0.0204(12) 0.0022(10) 0.0128(10) -0.0007(9)
C1 0.0241(13) 0.0149(13) 0.0190(13) -0.0018(10) 0.0136(11) -0.0036(10)
C2 0.0200(13) 0.0224(14) 0.0180(12) 0.0037(10) 0.0082(10) 0.0025(11)
C3 0.0161(11) 0.0236(14) 0.0134(11) 0.0000(10) 0.0051(10) -0.0008(10)
C4 0.0151(12) 0.0197(14) 0.0123(12) 0.0017(11) 0.0081(10) -0.0040(11)
C5 0.0178(12) 0.0205(13) 0.0159(12) 0.0041(10) 0.0062(10) 0.0000(10)
C6 0.0182(13) 0.0229(14) 0.0138(11) 0.0008(10) 0.0045(10) -0.0052(10)
C7 0.0159(10) 0.0224(18) 0.0153(10) 0.0016(11) 0.0071(9) -0.0023(10)
C8 0.0221(13) 0.0210(14) 0.0206(13) 0.0000(10) 0.0135(11) -0.0016(10)
C9 0.0280(14) 0.0200(14) 0.0280(14) -0.0044(12) 0.0173(12) -0.0008(11)
C10 0.0252(14) 0.0203(14) 0.0299(15) 0.0008(12) 0.0174(12) 0.0042(11)
C11 0.0143(11) 0.0171(13) 0.0147(12) -0.0036(10) 0.0045(9) -0.0029(9)
C12 0.0200(13) 0.0230(18) 0.0171(12) -0.0022(9) 0.0120(11) -0.0019(10)
C13 0.0238(14) 0.0290(16) 0.0256(14) -0.0036(12) 0.0159(12) -0.0051(12)
C14 0.0297(14) 0.035(2) 0.0178(12) -0.0044(11) 0.0090(11) -0.0012(12)
C15 0.0264(15) 0.0242(15) 0.0299(15) -0.0001(12) 0.0170(13) 0.0047(12)
loop_
_atom_type_symbol
_atom_type_description
_atom_type_scat_dispersion_real
_atom_type_scat_dispersion_imag
_atom_type_scat_source
C C 0.0181 0.0091 'International Tables Vol C Tables 4.2.6.8 and 6.1.1.4'
H H 0.0000 0.0000 'International Tables Vol C Tables 4.2.6.8 and 6.1.1.4'
N N 0.0311 0.0180 'International Tables Vol C Tables 4.2.6.8 and 6.1.1.4'
O O 0.0492 0.0322 'International Tables Vol C Tables 4.2.6.8 and 6.1.1.4'
Br Br -0.6763 1.2805 'International Tables Vol C Tables 4.2.6.8 and 6.1.1.4'
loop_
_geom_angle_atom_site_label_1
_geom_angle_atom_site_label_2
_geom_angle_atom_site_label_3
_geom_angle
C11 O2 C12 121.0(2)
C11 N1 C10 120.0(2)
C11 N1 C7 126.4(2)
C10 N1 C7 112.7(2)
C2 C1 C6 121.4(3)
C2 C1 Br1 117.7(2)
C6 C1 Br1 120.8(2)
C1 C2 C3 118.8(2)
C1 C2 H2 120.6
C3 C2 H2 120.6
C2 C3 C4 121.3(2)
C2 C3 H3 119.4
C4 C3 H3 119.4
C3 C4 C5 118.6(3)
C3 C4 C7 119.6(2)
C5 C4 C7 121.7(3)
C6 C5 C4 121.1(3)
C6 C5 H5 119.4
C4 C5 H5 119.4
C5 C6 C1 118.7(2)
C5 C6 H6 120.6
C1 C6 H6 120.6
N1 C7 C4 115.33(19)
N1 C7 C8 101.2(2)
C4 C7 C8 113.1(2)
N1 C7 H7 109.0
C4 C7 H7 109.0
C8 C7 H7 109.0
C9 C8 C7 102.9(2)
C9 C8 H8A 111.2
C7 C8 H8A 111.2
C9 C8 H8B 111.2
C7 C8 H8B 111.2
H8A C8 H8B 109.1
C10 C9 C8 103.0(2)
C10 C9 H9A 111.2
C8 C9 H9A 111.2
C10 C9 H9B 111.2
C8 C9 H9B 111.2
H9A C9 H9B 109.1
N1 C10 C9 103.5(2)
N1 C10 H10A 111.1
C9 C10 H10A 111.1
N1 C10 H10B 111.1
C9 C10 H10B 111.1
H10A C10 H10B 109.0
O1 C11 O2 126.0(2)
O1 C11 N1 123.5(2)
O2 C11 N1 110.5(2)
O2 C12 C15 101.9(2)
O2 C12 C13 109.9(2)
C15 C12 C13 111.3(2)
O2 C12 C14 109.9(2)
C15 C12 C14 110.7(2)
C13 C12 C14 112.6(2)
C12 C13 H13A 109.5
C12 C13 H13B 109.5
H13A C13 H13B 109.5
C12 C13 H13C 109.5
H13A C13 H13C 109.5
H13B C13 H13C 109.5
C12 C14 H14A 109.5
C12 C14 H14B 109.5
H14A C14 H14B 109.5
C12 C14 H14C 109.5
H14A C14 H14C 109.5
H14B C14 H14C 109.5
C12 C15 H15A 109.5
C12 C15 H15B 109.5
H15A C15 H15B 109.5
C12 C15 H15C 109.5
H15A C15 H15C 109.5
H15B C15 H15C 109.5
loop_
_geom_bond_atom_site_label_1
_geom_bond_atom_site_label_2
_geom_bond_distance
Br1 C1 1.907(3)
O1 C11 1.219(3)
O2 C11 1.349(3)
O2 C12 1.477(3)
N1 C11 1.355(4)
N1 C10 1.468(4)
N1 C7 1.477(4)
C1 C2 1.385(4)
C1 C6 1.391(4)
C2 C3 1.386(4)
C2 H2 0.9500
C3 C4 1.388(4)
C3 H3 0.9500
C4 C5 1.399(4)
C4 C7 1.502(4)
C5 C6 1.382(4)
C5 H5 0.9500
C6 H6 0.9500
C7 C8 1.547(3)
C7 H7 1.0000
C8 C9 1.527(4)
C8 H8A 0.9900
C8 H8B 0.9900
C9 C10 1.525(4)
C9 H9A 0.9900
C9 H9B 0.9900
C10 H10A 0.9900
C10 H10B 0.9900
C12 C15 1.515(4)
C12 C13 1.519(4)
C12 C14 1.520(4)
C13 H13A 0.9800
C13 H13B 0.9800
C13 H13C 0.9800
C14 H14A 0.9800
C14 H14B 0.9800
C14 H14C 0.9800
C15 H15A 0.9800
C15 H15B 0.9800
C15 H15C 0.9800
loop_
_geom_torsion_atom_site_label_1
_geom_torsion_atom_site_label_2
_geom_torsion_atom_site_label_3
_geom_torsion_atom_site_label_4
_geom_torsion
C6 C1 C2 C3 -0.3(4)
Br1 C1 C2 C3 -179.25(19)
C1 C2 C3 C4 1.5(4)
C2 C3 C4 C5 -1.3(4)
C2 C3 C4 C7 176.2(2)
C3 C4 C5 C6 0.1(4)
C7 C4 C5 C6 -177.4(2)
C4 C5 C6 C1 1.0(4)
C2 C1 C6 C5 -0.9(4)
Br1 C1 C6 C5 178.00(19)
C11 N1 C7 C4 -50.9(3)
C10 N1 C7 C4 139.7(2)
C11 N1 C7 C8 -173.4(2)
C10 N1 C7 C8 17.3(3)
C3 C4 C7 N1 139.5(3)
C5 C4 C7 N1 -43.1(3)
C3 C4 C7 C8 -104.7(3)
C5 C4 C7 C8 72.7(3)
N1 C7 C8 C9 -35.2(3)
C4 C7 C8 C9 -159.2(2)
C7 C8 C9 C10 40.9(3)
C11 N1 C10 C9 -162.4(2)
C7 N1 C10 C9 7.7(3)
C8 C9 C10 N1 -29.9(3)
C12 O2 C11 O1 -11.9(4)
C12 O2 C11 N1 168.8(2)
C10 N1 C11 O1 -10.1(4)
C7 N1 C11 O1 -178.7(3)
C10 N1 C11 O2 169.3(2)
C7 N1 C11 O2 0.6(4)
C11 O2 C12 C15 -174.3(2)
C11 O2 C12 C13 67.5(3)
C11 O2 C12 C14 -56.9(3)
