#------------------------------------------------------------------------------
#$Date: 2019-11-26 03:38:48 +0200 (Tue, 26 Nov 2019) $
#$Revision: 242524 $
#$URL: file:///home/coder/svn-repositories/cod/cif/4/13/25/4132566.cif $
#------------------------------------------------------------------------------
#
# This file is available in the Crystallography Open Database (COD),
# http://www.crystallography.net/
#
# All data on this site have been placed in the public domain by the
# contributors.
#
data_4132566
loop_
_publ_author_name
'Yuan, Shuai'
'Zhang, Peng'
'Zhang, Liangliang'
'Garcia-Esparza, Angel T'
'Sokaras, Dimosthenis'
'Qin, Jun-Sheng'
'Feng, Liang'
'Day, Gregory S.'
'Chen, Wenmiao'
'Drake, Hannah F.'
'Elumalai, Palani'
'Madrahimov, Sherzod T.'
'Sun, Daofeng'
'Zhou, Hong-Cai'
_publ_section_title
;
 Exposed Equatorial Positions of Metal Centers via Sequential Ligand
 Elimination and Installation in MOFs.
;
_journal_issue                   34
_journal_name_full               'Journal of the American Chemical Society'
_journal_page_first              10814
_journal_page_last               10819
_journal_paper_doi               10.1021/jacs.8b04886
_journal_volume                  140
_journal_year                    2018
_chemical_formula_moiety         'C16 H22 Cl2 N2 Ni O6 S2, 2(C2 H6 O S)'
_chemical_formula_sum            'C20 H34 Cl2 N2 Ni O8 S4'
_chemical_formula_weight         688.34
_space_group_crystal_system      triclinic
_space_group_IT_number           2
_space_group_name_Hall           '-P 1'
_space_group_name_H-M_alt        'P -1'
_atom_sites_solution_hydrogens   geom
_atom_sites_solution_primary     dual
_audit_creation_date             2018-05-04
_audit_creation_method
;
Olex2 1.2
(compiled 2018.04.26 svn.r3504 for OlexSys, GUI svn.r5492)
;
_cell_angle_alpha                73.312(3)
_cell_angle_beta                 82.332(3)
_cell_angle_gamma                75.812(3)
_cell_formula_units_Z            1
_cell_length_a                   7.1382(9)
_cell_length_b                   10.4292(12)
_cell_length_c                   10.7797(13)
_cell_measurement_reflns_used    8439
_cell_measurement_temperature    293(2)
_cell_measurement_theta_max      27.629
_cell_measurement_theta_min      2.467
_cell_volume                     743.54(16)
_computing_cell_refinement       'SAINT v8.37A (Bruker, 2015)'
_computing_data_reduction        'SAINT v8.37A (Bruker, 2015)'
_computing_molecular_graphics    'Olex2 (Dolomanov et al., 2009)'
_computing_publication_material  'Olex2 (Dolomanov et al., 2009)'
_computing_structure_refinement  'XL (Sheldrick, 2008)'
_computing_structure_solution    'XT (Sheldrick, 2015)'
_diffrn_ambient_temperature      293(2)
_diffrn_detector                 'Bruker APEX2 area detector'
_diffrn_detector_area_resol_mean 7.9
_diffrn_detector_type            'CCD area detector'
_diffrn_measured_fraction_theta_full 0.992
_diffrn_measured_fraction_theta_max 0.977
_diffrn_measurement_device       'three-circle diffractometer'
_diffrn_measurement_device_type  'Bruker SMART APEX2 area detector'
_diffrn_measurement_method       '\w and \f scans'
_diffrn_radiation_monochromator  'mirror optics'
_diffrn_radiation_probe          x-ray
_diffrn_radiation_type           MoK\a
_diffrn_radiation_wavelength     0.71073
_diffrn_reflns_av_R_equivalents  0.0297
_diffrn_reflns_av_unetI/netI     0.0335
_diffrn_reflns_Laue_measured_fraction_full 0.992
_diffrn_reflns_Laue_measured_fraction_max 0.977
_diffrn_reflns_limit_h_max       9
_diffrn_reflns_limit_h_min       -9
_diffrn_reflns_limit_k_max       13
_diffrn_reflns_limit_k_min       -13
_diffrn_reflns_limit_l_max       13
_diffrn_reflns_limit_l_min       -14
_diffrn_reflns_number            10397
_diffrn_reflns_point_group_measured_fraction_full 0.992
_diffrn_reflns_point_group_measured_fraction_max 0.977
_diffrn_reflns_theta_full        25.242
_diffrn_reflns_theta_max         27.629
_diffrn_reflns_theta_min         2.467
_diffrn_source                   'microfocus sealed X-ray tube'
_diffrn_source_type              'Incoatec I\ms'
_exptl_absorpt_coefficient_mu    1.157
_exptl_absorpt_correction_T_max  0.7456
_exptl_absorpt_correction_T_min  0.6030
_exptl_absorpt_correction_type   multi-scan
_exptl_crystal_colour            greenish
_exptl_crystal_colour_modifier   greenish
_exptl_crystal_density_diffrn    1.537
_exptl_crystal_description       needle
_exptl_crystal_F_000             358
_exptl_crystal_size_max          0.1
_exptl_crystal_size_mid          0.05
_exptl_crystal_size_min          0.03
_refine_diff_density_max         0.344
_refine_diff_density_min         -0.627
_refine_diff_density_rms         0.104
_refine_ls_extinction_method     none
_refine_ls_goodness_of_fit_ref   1.170
_refine_ls_hydrogen_treatment    constr
_refine_ls_matrix_type           full
_refine_ls_number_parameters     174
_refine_ls_number_reflns         3382
_refine_ls_number_restraints     0
_refine_ls_restrained_S_all      1.170
_refine_ls_R_factor_all          0.0399
_refine_ls_R_factor_gt           0.0319
_refine_ls_shift/su_max          0.001
_refine_ls_shift/su_mean         0.000
_refine_ls_structure_factor_coef Fsqd
_refine_ls_weighting_details
'w=1/[\s^2^(Fo^2^)+(0.0252P)^2^+0.6965P] where P=(Fo^2^+2Fc^2^)/3'
_refine_ls_weighting_scheme      calc
_refine_ls_wR_factor_gt          0.0744
_refine_ls_wR_factor_ref         0.0790
_reflns_Friedel_coverage         0.000
_reflns_number_gt                2979
_reflns_number_total             3382
_reflns_threshold_expression     'I > 2\s(I)'
_cod_data_source_file            ja8b04886_si_002.cif
_cod_data_source_block           NiINA2
_cod_database_code               4132566
_shelx_shelxl_version_number     2014/7
_shelx_space_group_comment
;
The symmetry employed for this shelxl refinement is uniquely defined
by the following loop, which should always be used as a source of
symmetry information in preference to the above space-group names.
They are only intended as comments.
;
_shelx_estimated_absorpt_t_max   0.966
_shelx_estimated_absorpt_t_min   0.893
_olex2_refinement_description
;
1. Fixed Uiso
 At 1.2 times of:
  All C(H) groups
 At 1.5 times of:
  All C(H,H,H) groups, All O(H) groups
2.a Aromatic/amide H refined with riding coordinates:
 C5(H5), C4(H4), C6(H6), C3(H3)
2.b Idealised Me refined as rotating group:
 C10(H10a,H10b,H10c), C9(H9a,H9b,H9c), C8(H8a,H8b,H8c), C7(H7a,H7b,H7c)
2.c Idealised tetrahedral OH refined as rotating group:
 O2(H2)
;
_shelx_res_file
;
    NiINA2.res created by SHELXL-2014/7

TITL NiINA2_a.res in P-1
REM Old TITL NiINA2 in P-1 #2
REM SHELXT solution in P-1
REM R1 0.070, Rweak 0.005, Alpha 0.041, Orientation as input
REM Formula found by SHELXT: C20 Cl2 N4 Ni O6 S4
CELL 0.71073 7.1382 10.4292 10.7797 73.312 82.332 75.812
ZERR 1 0.0009 0.0012 0.0013 0.003 0.003 0.003
LATT 1
SFAC C H Cl N Ni O S
UNIT 20 34 2 2 1 8 4

L.S. 99
PLAN  5
SIZE 0.03 0.05 0.1
BOND $H
list 4
fmap 2
acta
REM <olex2.extras>
REM <HklSrc "%.\\NiINA2.hkl">
REM </olex2.extras>

WGHT    0.025200    0.696500
FVAR       0.85387
NI1   5    1.000000    0.500000    1.000000    10.50000    0.01092    0.01021 =
         0.00760   -0.00138   -0.00132   -0.00235
CL1   3    0.886123    0.310202    0.971804    11.00000    0.01591    0.01319 =
         0.01285   -0.00318   -0.00081   -0.00503
S003  7    0.707835    0.641604    1.201315    11.00000    0.01577    0.01327 =
         0.01313   -0.00439   -0.00063   -0.00187
S004  7    0.044402    0.986503    0.275872    11.00000    0.01927    0.01876 =
         0.01434   -0.00580   -0.00120   -0.00664
O4    6    0.776919    0.518749    1.145110    11.00000    0.01394    0.01299 =
         0.01134   -0.00518    0.00098   -0.00224
O1    6    0.523292    0.876201    0.430153    11.00000    0.01866    0.02290 =
         0.00979    0.00011   -0.00229   -0.00584
O3    6    0.093698    0.845280    0.371463    11.00000    0.02080    0.02684 =
         0.01379    0.00252   -0.00570   -0.00820
O2    6    0.279530    0.808565    0.566547    11.00000    0.01401    0.05539 =
         0.01175    0.00012   -0.00382   -0.01057
AFIX 147
H2    2    0.224517    0.828136    0.499342    11.00000   -1.50000
AFIX   0
N1    4    0.817192    0.632618    0.857865    11.00000    0.01250    0.01030 =
         0.01091   -0.00270   -0.00177   -0.00232
C5    1    0.625027    0.640427    0.873685    11.00000    0.01484    0.01427 =
         0.01103   -0.00130   -0.00031   -0.00453
AFIX  43
H5    2    0.572666    0.599416    0.954888    11.00000   -1.20000
AFIX   0
C4    1    0.889415    0.697403    0.741153    11.00000    0.01218    0.01241 =
         0.01361   -0.00202   -0.00038   -0.00335
AFIX  43
H4    2    1.020983    0.697042    0.730139    11.00000   -1.20000
AFIX   0
C2    1    0.579369    0.766817    0.653214    11.00000    0.01426    0.01129 =
         0.01089   -0.00369   -0.00210   -0.00094
C6    1    0.501704    0.706256    0.775432    11.00000    0.01180    0.01740 =
         0.01182   -0.00388   -0.00050   -0.00364
AFIX  43
H6    2    0.369334    0.710131    0.790483    11.00000   -1.20000
AFIX   0
C3    1    0.776422    0.764534    0.636815    11.00000    0.01467    0.01403 =
         0.00954   -0.00232    0.00036   -0.00410
AFIX  43
H3    2    0.831453    0.807284    0.557261    11.00000   -1.20000
AFIX   0
C1    1    0.458342    0.824934    0.538269    11.00000    0.01356    0.01447 =
         0.01427   -0.00436   -0.00211   -0.00124

C10   1   -0.141620    0.976164    0.187568    11.00000    0.01957    0.01873 =
         0.01741   -0.00150   -0.00517   -0.00428
AFIX 137
H10A  2   -0.097813    0.900017    0.150003    11.00000   -1.50000
H10B  2   -0.173301    1.059438    0.119882    11.00000   -1.50000
H10C  2   -0.254406    0.963443    0.245036    11.00000   -1.50000
AFIX   0
C9    1    0.236188    0.989698    0.151648    11.00000    0.02161    0.02988 =
         0.01699   -0.00095   -0.00086   -0.00731
AFIX 137
H9A   2    0.354249    0.986100    0.187265    11.00000   -1.50000
H9B   2    0.205838    1.072656    0.083420    11.00000   -1.50000
H9C   2    0.251790    0.912057    0.117341    11.00000   -1.50000
AFIX   0

C8    1    0.483385    0.613873    1.286925    11.00000    0.01609    0.02719 =
         0.02252   -0.01232    0.00204   -0.00350
AFIX 137
H8A   2    0.392798    0.619142    1.226387    11.00000   -1.50000
H8B   2    0.432776    0.682744    1.332908    11.00000   -1.50000
H8C   2    0.503778    0.524809    1.347556    11.00000   -1.50000
AFIX   0
C7    1    0.846722    0.606654    1.337795    11.00000    0.02254    0.02717 =
         0.01732   -0.00986   -0.00264   -0.00703
AFIX 137
H7A   2    0.838613    0.518057    1.394286    11.00000   -1.50000
H7B   2    0.796765    0.675371    1.384031    11.00000   -1.50000
H7C   2    0.979507    0.607733    1.308493    11.00000   -1.50000
AFIX   0
HKLF 4

REM  NiINA2_a.res in P-1
REM R1 =  0.0319 for    2979 Fo > 4sig(Fo)  and  0.0399 for all    3382 data
REM    174 parameters refined using      0 restraints

END

WGHT      0.0252      0.6965

REM Highest difference peak  0.344,  deepest hole -0.627,  1-sigma level  0.104
Q1    1   0.5031  0.5893  1.4871  11.00000  0.05    0.34
Q2    1   0.5959  0.4557  1.1638  11.00000  0.05    0.33
Q3    1  -0.1970  0.7992  0.0733  11.00000  0.05    0.32
Q4    1   0.5511  0.7475  0.7181  11.00000  0.05    0.32
Q5    1   1.0095  0.6579  0.7333  11.00000  0.05    0.31
;
_shelx_res_checksum              3687
_shelx_hkl_file
;
  -1   0   0 1602.38   60.78
  -1   0   0 1680.69   60.85
  -1   0   0 1670.87   61.16
   1   0   0 1654.74   61.15
  -2   0   0  302.98   12.34
  -2   0   0  310.36   12.99
  -2   0   0  298.69   12.35
   2   0   0  310.93   13.08
   2   0   0  311.87   12.47
  -3   0   0  221.51    9.89
  -3   0   0  229.74   10.89
  -3   0   0  221.91   10.40
   3   0   0  226.46   10.13
   3   0   0  233.50   10.19
   3   0   0  227.98   10.95
  -4   0   0  645.34   27.11
  -4   0   0  646.28   26.01
  -4   0   0  634.34   25.85
   4   0   0  628.04   26.05
   4   0   0  672.05   27.64
   4   0   0  663.31   26.21
  -5   0   0  169.07    9.56
  -5   0   0  164.10   10.77
  -5   0   0  179.18    9.12
   5   0   0  192.13    9.93
   5   0   0  188.30   11.32
   5   0   0  174.77    9.93
   6   0   0   19.33    4.13
  -7   0   0  148.02    9.28
   7   0   0  147.69   12.79
   7   0   0  147.55   11.57
  -8   0   0  175.18   11.06
   8   0   0  146.41   13.84
   8   0   0  134.73   15.13
   8  -1   0   -1.57    7.29
   8  -1   0    7.19    7.22
  -8   1   0   15.26    4.64
   7  -1   0   35.27    9.95
   7  -1   0   36.13    9.25
  -7   1   0   32.12    6.26
   6  -1   0   58.34    7.67
   6  -1   0   49.54    8.77
  -6   1   0   59.63    5.65
   5  -1   0   88.15    7.38
   5  -1   0  110.99    8.40
   5  -1   0  101.38    7.51
  -5   1   0   85.83    8.04
  -5   1   0   99.09    6.23
  -5   1   0   89.54    7.18
   4  -1   0  376.02   16.21
   4  -1   0  369.34   15.96
   4  -1   0  372.33   17.17
  -4   1   0  349.90   15.32
  -4   1   0  357.61   16.99
  -4   1   0  357.66   16.02
   3  -1   0  709.14   28.05
   3  -1   0  721.58   28.85
   3  -1   0  708.02   27.71
  -3   1   0  718.43   27.98
  -3   1   0  673.74   27.38
  -3   1   0  717.91   28.74
   2  -1   0  134.69    6.58
   2  -1   0  127.61    6.09
   2  -1   0  122.74    5.76
  -2   1   0  122.80    5.64
  -2   1   0  119.64    6.37
  -2   1   0  127.20    6.09
   1  -1   0  347.79   13.86
   1  -1   0  361.06   14.12
  -1   1   0  363.32   14.15
  -1   1   0  344.74   13.82
  -1  -1   0  379.15   14.08
  -1  -1   0  352.30   13.61
   1   1   0  346.22   13.60
   1   1   0  351.13   13.78
   1   1   0  375.72   14.12
  -2  -1   0  994.43   38.82
  -2  -1   0 1047.15   39.39
   2   1   0 1084.75   39.63
   2   1   0 1004.39   38.89
  -3  -1   0  177.15    8.46
  -3  -1   0  188.41    9.30
   3   1   0  186.55    8.88
   3   1   0  212.70    9.89
  -4  -1   0   66.51    4.77
  -4  -1   0   61.71    5.41
  -4  -1   0   60.56    4.46
   4   1   0   68.32    4.74
   4   1   0   64.18    5.13
   4   1   0   69.94    5.94
  -5  -1   0   78.23    5.71
  -5  -1   0   79.58    6.96
  -5  -1   0   75.92    6.26
   5   1   0   96.25    7.75
   5   1   0   81.27    6.92
   5   1   0   89.88    6.29
  -6  -1   0  546.77   23.18
  -6  -1   0  493.40   23.09
   6   1   0  540.13   25.98
   6   1   0  591.87   23.88
  -7  -1   0  556.92   24.32
   7   1   0  622.22   31.41
   7   1   0  504.56   27.22
  -8  -1   0  405.01   18.88
   8   1   0  441.88   20.93
   8   1   0  326.95   22.63
  -9  -1   0    5.44    6.61
   9   1   0   -1.02    8.54
   9   1   0   10.68   10.52
   8  -2   0   52.97   14.05
   8  -2   0   62.66   13.54
   7  -2   0   11.88    6.04
   7  -2   0   14.94    5.86
   6  -2   0  205.16   17.77
   6  -2   0  242.11   13.67
   5  -2   0  793.04   31.97
   5  -2   0  785.73   33.12
   5  -2   0  759.20   31.12
  -5   2   0  733.71   31.75
  -5   2   0  774.65   30.49
  -5   2   0  691.88   32.41
   4  -2   0  267.22   12.44
   4  -2   0  283.33   13.84
   4  -2   0  272.80   13.11
  -4   2   0  261.89   11.86
  -4   2   0  260.83   13.62
  -4   2   0  245.74   12.55
   3  -2   0 2082.86   77.14
   3  -2   0 2070.00   76.45
   3  -2   0 1985.58   75.62
  -3   2   0 1987.14   75.41
  -3   2   0 2023.22   76.22
  -3   2   0 1984.20   76.94
   2  -2   0  499.63   20.45
   2  -2   0  499.15   20.12
  -2   2   0  487.76   20.54
  -2   2   0  509.54   20.62
   1  -2   0    1.58    0.59
  -1   2   0    0.41    0.81
  -1   2   0    2.00    0.68
   0  -2   0   16.93    1.75
   0  -2   0   21.33    1.65
   0   2   0   16.68    1.54
  -1  -2   0 7323.38  263.13
  -1  -2   0 6902.16  263.26
   1   2   0 7533.07  263.15
   1   2   0 7020.45  263.33
  -2  -2   0  186.33    8.04
  -2  -2   0  179.79    8.29
  -2  -2   0  202.92    8.82
   2   2   0  195.51    8.41
   2   2   0  208.38    9.04
   2   2   0  203.02    8.12
  -3  -2   0  104.62    5.74
  -3  -2   0  117.42    6.45
   3   2   0  112.15    5.97
   3   2   0  115.60    6.70
   3   2   0  105.74    5.12
  -4  -2   0 2097.94   81.36
  -4  -2   0 2028.42   80.34
   4   2   0 2153.32   80.72
   4   2   0 2288.53   82.51
  -5  -2   0 1332.95   55.97
  -5  -2   0 1410.66   55.01
   5   2   0 1498.97   57.47
   5   2   0 1471.41   55.52
  -6  -2   0  261.21   12.75
   6   2   0  242.69   15.07
  -7  -2   0   42.04    6.10
   7   2   0   42.44    9.24
  -8  -2   0  181.97   11.39
   8   2   0  148.16   14.93
  -9  -2   0   63.41    9.66
   9   2   0   43.34    9.68
   8  -3   0   -2.30    8.23
   8  -3   0   -1.88    8.55
  -8   3   0   -3.83    5.58
   7  -3   0    0.24    6.33
   7  -3   0    4.52    6.24
  -7   3   0   -3.66    3.92
   6  -3   0  277.39   16.78
   6  -3   0  282.36   15.91
  -6   3   0  270.95   13.84
   5  -3   0 1092.40   45.46
   5  -3   0 1102.61   44.63
   4  -3   0  553.92   23.86
   4  -3   0  553.91   23.14
  -4   3   0  503.86   22.72
  -4   3   0  511.35   23.71
   3  -3   0  149.54    8.22
  -3   3   0  149.86    8.79
  -3   3   0  141.68    7.99
   2  -3   0  117.85    6.36
  -2   3   0  111.25    6.55
  -2   3   0  114.55    6.20
  -2   3   0  107.10    6.64
   1  -3   0 1210.00   44.44
   1  -3   0 1142.94   44.25
  -1   3   0 1173.38   43.79
  -1   3   0 1164.99   44.32
  -1   3   0 1167.34   44.56
   0  -3   0 1482.24   54.52
   0  -3   0 1437.67   54.87
   0   3   0 1469.85   54.52
  -1  -3   0   59.22    3.35
  -1  -3   0   62.52    3.65
   1   3   0   62.37    3.41
   1   3   0   61.84    3.62
  -2  -3   0  500.05   20.02
  -2  -3   0  522.83   20.55
  -2  -3   0  495.22   19.95
   2   3   0  523.70   20.78
   2   3   0  522.01   20.05
  -3  -3   0    7.11    1.81
  -3  -3   0    7.93    1.77
  -3  -3   0   11.21    2.15
   3   3   0    6.45    1.76
   3   3   0    5.28    1.27
   3   3   0    7.87    2.00
  -4  -3   0 1014.41   40.43
  -4  -3   0 1041.97   41.26
  -4  -3   0 1027.43   39.47
   4   3   0 1019.93   40.60
   4   3   0 1109.77   42.35
  -5  -3   0  240.47   11.58
  -5  -3   0  238.07   12.85
   5   3   0  248.74   13.79
   5   3   0  241.49   12.41
  -6  -3   0   29.96    5.15
  -7  -3   0    5.80    3.77
   7   3   0    2.64    5.28
  -8  -3   0   49.35    7.63
   8   3   0   47.65   11.91
  -9  -3   0  191.20   13.15
   9   3   0  162.14   17.52
   7  -4   0   13.21    7.41
   6  -4   0   34.99    6.68
  -6   4   0   52.71    6.48
   5  -4   0  927.25   39.27
   4  -4   0  410.04   18.15
  -4   4   0  348.58   17.49
  -4   4   0  386.51   18.50
  -4   4   0  372.20   18.60
   3  -4   0   43.13    4.84
  -3   4   0   42.64    5.21
  -3   4   0   41.55    5.49
  -3   4   0   44.85    4.72
   2  -4   0   11.39    1.80
   2  -4   0   14.52    3.04
  -2   4   0    8.21    2.32
  -2   4   0   12.92    2.20
  -2   4   0    9.50    2.10
  -2   4   0   11.30    2.13
   1  -4   0 1972.50   73.45
   1  -4   0 2022.82   72.99
  -1   4   0 1940.38   73.71
  -1   4   0 1944.83   72.98
  -1   4   0 1919.60   73.38
   0  -4   0  180.05    8.23
   0  -4   0  162.19    7.58
   0   4   0  161.78    7.93
  -1  -4   0 1875.10   71.17
  -1  -4   0 1914.34   70.92
   1   4   0 1897.22   71.28
   1   4   0 1911.46   70.90
  -2  -4   0 1626.20   60.49
  -2  -4   0 1574.28   60.02
   2   4   0 1597.36   60.03
   2   4   0 1599.56   60.67
  -3  -4   0 1165.49   45.05
  -3  -4   0 1196.93   45.80
  -3  -4   0 1151.53   45.27
   3   4   0 1197.84   45.10
   3   4   0 1220.06   46.54
  -4  -4   0  280.30   13.26
  -4  -4   0  269.77   11.93
  -4  -4   0  263.81   12.42
   4   4   0  269.32   12.65
   4   4   0  291.43   14.13
   4   4   0  277.91   12.01
  -5  -4   0  790.69   32.92
  -5  -4   0  769.12   33.75
  -5  -4   0  839.94   31.96
   5   4   0  876.33   35.49
   5   4   0  839.37   32.09
   5   4   0  812.28   33.23
  -6  -4   0   53.04    5.68
   6   4   0   51.04    9.38
  -7  -4   0   35.80    6.42
   7   4   0   46.42    9.59
  -8  -4   0   22.54    4.94
   8   4   0   16.80    7.05
  -9  -4   0  249.73   17.46
   9   4   0  209.13   22.08
   7  -5   0  132.01   14.45
  -7   5   0  122.18   15.73
   6  -5   0   28.77    6.59
  -6   5   0   40.47   10.87
   5  -5   0   -1.34    4.43
   4  -5   0  109.93    8.80
  -4   5   0  121.60    9.73
  -4   5   0  115.76    9.16
   3  -5   0  185.88   10.33
  -3   5   0  176.67   11.04
  -3   5   0  183.09   10.59
  -3   5   0  174.88    9.99
   2  -5   0   30.29    4.03
   2  -5   0   30.66    2.88
  -2   5   0   26.06    5.07
  -2   5   0   29.96    3.17
  -2   5   0   26.49    3.95
  -2   5   0   25.59    3.78
   1  -5   0  372.52   15.94
   1  -5   0  374.81   15.40
   1  -5   0  376.76   16.68
  -1   5   0  349.96   15.64
  -1   5   0  379.54   15.44
  -1   5   0  371.11   16.13
   0  -5   0    2.73    1.86
   0  -5   0    4.86    1.34
   0   5   0    5.27    1.57
   0   5   0    5.76    1.57
  -1  -5   0  149.18    7.74
  -1  -5   0  143.14    7.16
   1   5   0  141.28    7.21
   1   5   0  143.35    7.50
  -2  -5   0 1446.34   54.58
  -2  -5   0 1422.18   54.18
   2   5   0 1408.18   54.14
   2   5   0 1432.62   54.80
  -3  -5   0   44.84    3.78
  -3  -5   0   44.72    3.91
   3   5   0   51.18    4.09
   3   5   0   40.96    4.59
  -4  -5   0  269.54   12.13
  -4  -5   0  257.07   13.04
  -4  -5   0  255.67   12.17
   4   5   0  278.47   14.01
   4   5   0  272.80   12.12
  -5  -5   0    4.63    2.03
  -5  -5   0    2.95    3.54
  -5  -5   0    3.13    2.59
   5   5   0    2.34    2.42
   5   5   0    0.89    3.43
   5   5   0    3.77    3.51
  -6  -5   0   40.76    5.14
  -6  -5   0   34.64    7.12
   6   5   0   28.56    6.34
   6   5   0   34.05    5.77
  -7  -5   0   52.88    7.24
   7   5   0   35.99   10.79
  -8  -5   0   78.89    9.48
   8   5   0   51.64   12.31
  -7   6   0   -1.14    8.08
  -7   6   0   -1.10    6.45
  -6   6   0   25.96    6.66
   5  -6   0  292.35   16.23
  -5   6   0  282.13   16.99
   4  -6   0  181.58   11.40
  -4   6   0  178.34   11.96
   3  -6   0  287.89   12.93
   3  -6   0  305.91   15.03
  -3   6   0  305.19   15.10
  -3   6   0  300.32   13.32
  -3   6   0  301.01   16.12
   2  -6   0  321.54   13.89
   2  -6   0  335.95   15.23
  -2   6   0  292.25   14.67
  -2   6   0  322.43   14.06
  -2   6   0  335.65   16.00
  -2   6   0  317.32   15.06
   1  -6   0 2813.36  102.70
   1  -6   0 2809.26  103.21
   1  -6   0 2793.33  104.21
  -1   6   0 2606.17  102.80
  -1   6   0 2788.45  102.69
  -1   6   0 2694.59  103.42
   0  -6   0 3778.12  138.67
   0  -6   0 3745.42  139.45
   0   6   0 3732.74  139.23
   0   6   0 3688.29  138.58
  -1  -6   0  283.89   13.08
  -1  -6   0  285.94   12.64
   1   6   0  276.78   13.00
   1   6   0  277.28   12.64
  -2  -6   0   36.85    3.85
  -2  -6   0   42.88    4.95
   2   6   0   34.41    4.11
   2   6   0   45.19    4.25
  -3  -6   0  265.05   13.04
  -3  -6   0  277.14   12.54
   3   6   0  280.45   13.46
   3   6   0  263.36   12.48
  -4  -6   0  109.55    7.03
  -4  -6   0  112.83    7.10
  -4  -6   0  112.67    8.12
   4   6   0  124.55    8.67
   4   6   0  114.97    7.07
  -5  -6   0  203.53   10.53
  -5  -6   0  203.15   10.86
   5   6   0  216.24   13.22
   5   6   0  201.46   10.79
  -6  -6   0  213.55   10.61
  -6  -6   0  194.02   14.23
   6   6   0  188.35   11.02
   6   6   0  179.34   13.71
  -7  -6   0  360.90   16.04
  -7  -6   0  334.34   16.84
   7   6   0  310.91   19.87
  -8  -6   0   12.72    5.36
   8   6   0   17.65    7.93
   6  -7   0   19.20    7.71
   5  -7   0  324.68   18.75
  -5   7   0  342.73   18.86
   4  -7   0  324.01   17.45
   3  -7   0 1030.16   42.74
   3  -7   0 1020.35   40.00
  -3   7   0 1067.93   42.37
  -3   7   0  997.38   40.24
   2  -7   0   64.46    5.37
   2  -7   0   67.71    6.71
  -2   7   0   68.70    5.68
  -2   7   0   63.57    8.23
  -2   7   0   56.87    6.09
  -2   7   0   64.15    5.98
   1  -7   0   95.29    6.21
   1  -7   0   91.97    8.03
  -1   7   0   84.93    6.28
  -1   7   0  111.22    6.70
  -1   7   0   97.81    7.02
   0  -7   0  118.99    6.96
   0  -7   0  111.14    8.25
   0   7   0  112.65    7.38
   0   7   0  114.15    7.11
  -1  -7   0  604.21   25.45
  -1  -7   0  612.96   24.79
   1   7   0  606.60   25.22
   1   7   0  572.66   24.64
  -2  -7   0  975.25   37.60
  -2  -7   0  928.01   37.97
   2   7   0  961.80   38.12
   2   7   0  918.17   37.42
  -3  -7   0   45.67    6.21
  -3  -7   0   37.54    4.63
   3   7   0   30.47    4.87
   3   7   0   35.23    5.53
  -4  -7   0  170.89   10.82
  -4  -7   0  192.08   10.16
   4   7   0  199.03   11.83
   4   7   0  177.37   10.00
  -5  -7   0  136.81    8.78
   5   7   0  138.16   12.04
  -6  -7   0  297.20   15.00
  -6  -7   0  301.73   14.66
   6   7   0  286.31   17.62
  -7  -7   0  324.89   17.14
  -7  -7   0  349.69   16.77
  -8  -7   0    2.41    5.52
   8   7   0    3.94    8.40
   5  -8   0   17.77    6.63
   4  -8   0  287.32   17.15
  -4   8   0  306.43   16.63
   3  -8   0  291.29   13.89
   3  -8   0  311.49   16.61
  -3   8   0  298.72   15.16
  -3   8   0  325.77   16.90
   2  -8   0   58.89    5.72
   2  -8   0   65.47    7.11
  -2   8   0   87.81   15.92
  -2   8   0   78.22    7.02
  -2   8   0   64.38    6.41
   1  -8   0  145.12   10.79
   1  -8   0  157.46    8.84
  -1   8   0  159.44    9.69
  -1   8   0  142.43    8.91
   0  -8   0  811.13   34.26
   0  -8   0  838.74   33.06
   0   8   0  760.27   32.89
   0   8   0  846.36   33.83
  -1  -8   0  633.11   27.83
  -1  -8   0  641.18   26.97
   1   8   0  673.33   27.68
  -2  -8   0   16.94    3.85
  -2  -8   0   21.33    4.51
   2   8   0   19.33    5.21
  -3  -8   0  420.74   20.76
  -3  -8   0  462.30   20.14
   3   8   0  476.78   21.37
  -4  -8   0 1538.98   60.01
   4   8   0 1540.29   61.95
   5   8   0 1493.82   61.18
  -6  -8   0  345.94   16.31
   6   8   0  301.90   19.49
  -7  -8   0   37.49    8.64
  -7  -8   0   26.93    5.41
   7   8   0   33.70    8.25
  -8  -8   0   19.84    6.38
   8   8   0   20.73    8.87
   5  -9   0   36.11    8.04
   4  -9   0   44.68   11.24
  -4   9   0   65.60   10.31
   3  -9   0   44.16    8.20
   3  -9   0   35.49    5.87
  -3   9   0   50.13    7.93
   2  -9   0   94.00    7.38
   2  -9   0   92.75    8.55
  -2   9   0   86.11    9.27
   1  -9   0  400.31   18.48
  -1   9   0  405.20   19.25
   0  -9   0   21.25    5.17
   0   9   0   16.85    3.99
  -1  -9   0  813.98   36.27
   1   9   0  921.30   36.46
  -2  -9   0   33.61    6.20
   2   9   0   35.98    6.54
  -3  -9   0   36.67    6.25
   3   9   0   28.44    7.17
  -4  -9   0    9.36    3.76
   4   9   0    9.00    5.15
  -5  -9   0    6.62    3.80
   5   9   0   -4.97    5.65
  -6  -9   0   33.63    8.32
   6   9   0   54.38   12.41
  -7  -9   0    0.22    5.48
  -7  -9   0    5.05    5.42
  -4  10   0   36.12   10.73
   3 -10   0   -4.40    5.13
   3 -10   0   -3.30    3.51
  -3  10   0   -5.10    4.91
   2 -10   0  160.69    9.82
  -2  10   0  137.03   11.28
   1 -10   0  104.72    8.81
  -1  10   0  110.34    9.61
   0 -10   0  318.55   16.50
   0  10   0  347.03   20.02
  -1 -10   0 1143.66   46.87
   1  10   0 1183.27   48.16
  -2 -10   0 1095.72   44.58
  -3 -10   0   -0.35    3.87
   3  10   0   -2.16    4.86
  -4 -10   0  329.09   16.57
   4  10   0  296.81   18.35
  -5 -10   0    8.83    4.77
   5  10   0    3.75    6.70
  -6 -10   0  205.60   13.34
   6  10   0  165.63   17.63
  -7 -10   0    0.19    6.04
   7  10   0    0.45    9.72
   3 -11   0    3.31    4.73
   3 -11   0    1.37    6.19
  -3  11   0   -1.37    6.51
   2 -11   0  106.27    9.54
  -2  11   0  117.78   11.73
   1 -11   0  242.79   13.66
  -1  11   0  229.81   14.67
   0 -11   0    2.30    3.99
   0  11   0   10.75    4.78
  -1 -11   0  102.66    9.45
   1  11   0   82.69    9.73
  -2 -11   0  257.35   14.78
   2  11   0  263.53   15.23
  -3 -11   0   74.73    9.16
   3  11   0   52.74   10.04
  -4 -11   0  245.39   14.77
   4  11   0  213.24   16.35
  -5 -11   0    3.41    5.31
  -6 -11   0    9.00    5.93
   6  11   0    2.59    9.89
   1 -12   0  281.26   15.94
  -1  12   0  292.04   17.18
   0 -12   0   12.21    5.29
   0  12   0    3.94    5.85
   1  12   0   18.71    6.15
  -2 -12   0   57.17   10.48
   2  12   0   79.50   10.88
   3  12   0   75.60   12.71
  -4 -12   0   14.14    5.63
   4  12   0    3.69    7.96
  -5 -12   0  707.04   30.52
   5  12   0  609.79   33.58
   4  12  -1   33.70    8.68
   3  12  -1   40.66   12.21
   2  12  -1    5.67    6.30
  -2 -12   1   10.02    5.28
  -1 -12   1   16.73    5.30
   0  12  -1   37.38   10.78
   0 -12   1   47.87    9.94
   1 -12   1   87.42   10.63
  -6 -11   1    1.12    6.40
   5  11  -1   80.17   15.19
  -5 -11   1   71.08   11.17
   4  11  -1   50.64   12.12
  -4 -11   1   57.66    9.39
   3  11  -1   45.33   10.56
  -3 -11   1   70.65    9.33
   2  11  -1   62.11   10.18
  -2 -11   1   75.20    8.79
   1  11  -1  549.24   25.94
  -1 -11   1  544.03   24.91
   0  11  -1  279.39   15.74
   0 -11   1  260.27   15.04
  -1  11  -1  225.44   15.36
   1 -11   1  250.14   13.94
  -2  11  -1  462.13   23.43
   2 -11   1  460.14   21.86
   6  10  -1  152.94   17.70
  -6 -10   1  174.22   13.42
   5  10  -1   99.27   13.49
  -5 -10   1  121.36   10.81
   4  10  -1  162.91   13.58
  -4 -10   1  197.85   12.11
   3  10  -1   22.64    5.20
  -3 -10   1   17.12    4.26
   2  10  -1   27.22    8.17
  -2 -10   1   33.27    7.43
   1  10  -1  657.43   29.53
  -1 -10   1  657.29   28.62
   0  10  -1  128.12   10.50
   0 -10   1  130.51    9.35
  -1  10  -1   71.31    9.08
   1 -10   1   77.06    7.60
  -2  10  -1   -2.43    4.87
   2 -10   1    0.85    3.57
   3 -10   1   -3.61    5.34
   3 -10   1    1.98    3.72
  -7  -9   1    1.08    5.71
   6   9  -1   25.55    7.74
  -6  -9   1   19.92    5.03
   5   9  -1  185.24   15.09
  -5  -9   1  224.97   12.66
   4   9  -1  958.15   41.31
  -4  -9   1  949.61   39.17
   3   9  -1  594.28   28.46
  -3  -9   1  615.75   26.39
   2   9  -1  408.76   19.90
  -2  -9   1  402.63   18.90
   1   9  -1  347.78   17.54
  -1  -9   1  356.52   16.90
   0   9  -1  825.53   34.90
   0  -9   1  822.43   34.42
  -2   9  -1    6.26    4.01
   2  -9   1   -3.33    3.87
  -3   9  -1  112.86    9.73
   3  -9   1   93.42    7.92
   3  -9   1  110.91   10.21
  -4   9  -1  213.76   14.90
   4  -9   1  217.50   15.03
  -8  -8   1   15.41    6.86
   7   8  -1  199.68   17.43
  -7  -8   1  244.29   14.27
   6   8  -1  744.74   37.45
  -6  -8   1  884.73   34.47
   5   8  -1  236.16   15.40
  -5  -8   1  243.69   13.07
   3   8  -1  496.31   23.20
  -3  -8   1  503.02   22.08
   2   8  -1  137.89    9.54
  -2  -8   1  134.59   10.54
  -2  -8   1  137.44    8.55
   1   8  -1   47.23    5.83
  -1  -8   1   52.25    7.30
  -1  -8   1   46.66    5.26
   0   8  -1   -0.77    2.82
   0  -8   1    0.74    3.79
   0  -8   1    2.36    2.27
  -1   8  -1   67.05    6.77
  -1   8  -1   51.73    6.40
   1  -8   1   77.00    5.84
  -2   8  -1   55.73    7.16
  -2   8  -1   68.21    6.28
   2  -8   1   64.30    7.04
   2  -8   1   70.58    5.75
  -3   8  -1  306.67   15.73
  -3   8  -1  328.15   17.47
   3  -8   1  332.26   15.28
   3  -8   1  350.37   17.12
  -4   8  -1  536.32   25.63
   4  -8   1  524.87   25.10
  -5   8  -1   12.13    5.82
   5  -8   1    1.91    6.32
   8   7  -1   27.68    8.91
  -8  -7   1   17.13    6.24
  -8  -7   1   13.13    5.89
   7   7  -1   49.23   12.32
  -7  -7   1   52.24    9.00
   6   7  -1  210.79   15.33
  -6  -7   1  214.79   12.28
   5   7  -1  319.68   18.25
  -5  -7   1  345.54   15.79
   4   7  -1  201.76   13.00
  -4  -7   1  208.38   10.96
   3   7  -1  179.03   10.46
   3   7  -1  210.61   11.83
  -3  -7   1  209.44   10.71
  -3  -7   1  208.79   11.92
   2   7  -1   48.95    5.28
   2   7  -1   65.90    6.09
  -2  -7   1   64.32    6.80
  -2  -7   1   65.87    5.33
   1   7  -1   59.60    5.37
   1   7  -1   62.98    5.93
  -1  -7   1   74.39    6.70
  -1  -7   1   62.21    5.34
   0   7  -1  729.22   29.90
   0   7  -1  695.35   28.91
   0  -7   1  712.92   30.32
   0  -7   1  716.39   28.99
  -1   7  -1 1002.00   42.19
  -1   7  -1 1048.42   41.97
  -1   7  -1 1119.50   43.46
   1  -7   1 1106.48   42.19
   1  -7   1 1052.56   44.00
   1  -7   1 1115.22   42.61
  -2   7  -1  548.20   23.67
  -2   7  -1  512.40   24.57
  -2   7  -1  510.48   21.97
   2  -7   1  520.19   21.99
   2  -7   1  548.67   23.18
  -3   7  -1  351.63   17.40
  -3   7  -1  324.06   15.33
   3  -7   1  347.19   15.19
  -4   7  -1 1315.71   53.82
   4  -7   1 1313.96   53.61
  -5   7  -1  320.48   18.18
   5  -7   1  297.37   18.46
  -6   7  -1    7.78    6.81
   6  -7   1    5.23    7.60
  -8  -6   1  207.13   13.52
  -7  -6   1   69.60    7.99
  -7  -6   1   67.50    8.22
   6   6  -1  666.72   28.48
   6   6  -1  660.80   32.13
  -6  -6   1  706.46   30.09
  -6  -6   1  724.54   28.69
   5   6  -1  913.27   39.37
   5   6  -1  867.71   35.96
  -5  -6   1  929.94   36.13
   4   6  -1   13.07    3.49
   4   6  -1    6.86    2.49
  -4  -6   1    7.62    3.29
   3   6  -1  121.45    8.15
   3   6  -1  122.45    7.12
  -3  -6   1  122.15    8.08
  -3  -6   1  114.50    7.06
   2   6  -1  154.13    8.29
   2   6  -1  160.21    8.99
  -2  -6   1  158.34    9.16
  -2  -6   1  151.22    8.21
   1   6  -1    4.37    1.65
  -1  -6   1    4.47    2.36
  -1  -6   1    1.60    1.61
   0   6  -1  162.42    8.81
   0   6  -1  155.25    8.22
   0  -6   1  160.40    8.20
   0  -6   1  150.20    9.25
  -1   6  -1  972.32   38.73
  -1   6  -1  943.53   38.00
  -1   6  -1  952.50   37.52
   1  -6   1  975.96   37.65
   1  -6   1  965.28   39.31
   1  -6   1  972.45   38.08
  -2   6  -1   74.61    5.38
  -2   6  -1   60.19    5.97
  -2   6  -1   73.75    7.94
  -2   6  -1   79.28    6.34
   2  -6   1   79.50    5.02
   2  -6   1   79.06    6.50
  -3   6  -1   60.89    8.02
  -3   6  -1   67.05    5.05
  -3   6  -1   67.32    6.63
   3  -6   1   58.25    4.60
   3  -6   1   53.06    6.80
  -4   6  -1   18.17    4.60
   4  -6   1   15.47    4.28
  -5   6  -1  320.44   18.34
   5  -6   1  322.58   18.00
  -6   6  -1  281.22   18.75
   6  -6   1  267.73   17.66
   8   5  -1  165.06   16.44
  -8  -5   1  212.47   12.63
   7   5  -1   23.75    6.25
  -7  -5   1   36.78    7.04
   6   5  -1  228.46   15.09
   6   5  -1  238.45   11.96
  -6  -5   1  243.32   11.76
   5   5  -1    7.21    2.51
   5   5  -1    6.14    3.55
   5   5  -1    4.89    3.73
  -5  -5   1    8.28    2.52
  -5  -5   1    6.66    2.35
   4   5  -1    1.26    2.66
   4   5  -1    2.17    1.97
   4   5  -1   -0.50    2.59
  -4  -5   1    0.42    1.95
  -4  -5   1    0.90    1.79
  -4  -5   1    5.02    2.66
   3   5  -1   24.99    4.18
  -3  -5   1   23.43    4.31
  -3  -5   1   27.73    3.45
   2   5  -1  763.60   29.89
   2   5  -1  750.61   30.60
  -2  -5   1  758.57   29.96
  -2  -5   1  758.95   30.60
   1   5  -1  827.56   33.43
   1   5  -1  840.86   32.78
  -1  -5   1  846.29   32.89
  -1  -5   1  846.73   33.58
   0   5  -1  920.76   35.21
   0   5  -1  895.47   35.96
   0  -5   1  903.51   35.26
   0  -5   1  910.55   36.18
  -1   5  -1 2736.11  100.80
  -1   5  -1 2684.73  101.36
  -1   5  -1 2717.59  101.93
   1  -5   1 2684.65  101.26
   1  -5   1 2707.69  100.85
   1  -5   1 2724.11  102.42
  -2   5  -1  109.69    6.92
  -2   5  -1   95.35    5.58
  -2   5  -1   96.74    7.88
  -2   5  -1   89.06    6.39
   2  -5   1   98.11    5.39
   2  -5   1  108.21    6.91
  -3   5  -1   17.65    3.38
  -3   5  -1   17.70    3.93
   3  -5   1   15.30    2.76
   3  -5   1   22.41    4.90
  -4   5  -1    0.65    3.44
   4  -5   1    1.73    3.62
  -5   5  -1 1054.77   44.52
   5  -5   1 1038.66   43.53
  -6   5  -1  476.22   24.69
   6  -5   1  470.29   23.77
  -7   5  -1  120.44   15.17
   7  -5   1   91.38   14.24
   8   4  -1  350.95   23.59
  -8  -4   1  453.11   19.83
   7   4  -1   16.26    6.53
  -7  -4   1   22.43    4.57
   6   4  -1   -0.12    4.72
  -6  -4   1    0.07    2.95
   5   4  -1  603.71   26.41
   5   4  -1  669.45   28.62
   5   4  -1  639.39   25.20
  -5  -4   1  613.82   25.89
  -5  -4   1  636.52   25.24
  -5  -4   1  612.79   27.04
   4   4  -1 1399.76   54.66
   4   4  -1 1489.32   54.24
   4   4  -1 1489.38   56.57
  -4  -4   1 1399.04   54.53
  -4  -4   1 1406.48   54.07
  -4  -4   1 1376.86   55.25
   3   4  -1    3.64    1.41
   3   4  -1    5.11    2.02
  -3  -4   1    2.38    1.35
   2   4  -1 2217.13   82.90
   2   4  -1 2207.92   82.11
  -2  -4   1 2183.61   82.16
  -2  -4   1 2196.61   82.70
   1   4  -1 2119.72   81.84
   1   4  -1 2219.41   81.32
  -1  -4   1 2214.78   81.96
  -1  -4   1 2171.03   81.37
   0   4  -1  329.47   14.37
   0   4  -1  331.09   13.70
   0  -4   1  332.89   13.78
   0  -4   1  330.59   14.53
  -1   4  -1  194.93    8.45
  -1   4  -1  187.15    8.98
  -1   4  -1  180.75    9.21
   1  -4   1  187.52    9.78
   1  -4   1  186.01    8.83
   1  -4   1  191.95    8.46
  -2   4  -1  482.28   20.93
  -2   4  -1  459.69   19.98
  -2   4  -1  482.45   20.59
   2  -4   1  501.73   20.31
   2  -4   1  461.55   18.88
  -3   4  -1  320.62   15.52
  -3   4  -1  347.13   16.88
  -3   4  -1  345.75   16.51
   3  -4   1  357.73   15.91
  -4   4  -1   77.54    8.46
  -4   4  -1   87.07    8.12
  -5   4  -1   95.42    9.57
   5  -4   1  105.32    8.82
  -6   4  -1  708.58   32.54
   6  -4   1  677.87   31.14
  -7   4  -1   13.94    7.23
   7  -4   1   -6.03    6.71
   8   3  -1   19.78    7.43
  -8  -3   1   32.84    7.59
   7   3  -1   33.28    9.43
  -7  -3   1   21.25    4.06
   6   3  -1    8.15    4.74
  -6  -3   1    9.09    2.91
   5   3  -1   59.90    6.69
   5   3  -1   61.67    6.70
  -5  -3   1   64.50    5.18
  -5  -3   1   51.15    6.16
   4   3  -1 1675.62   63.23
   4   3  -1 1685.54   62.25
   4   3  -1 1738.53   64.93
  -4  -3   1 1648.90   63.84
  -4  -3   1 1565.53   62.83
  -4  -3   1 1647.72   62.24
   3   3  -1  315.29   13.38
   3   3  -1  309.67   12.95
   3   3  -1  327.64   14.45
  -3  -3   1  318.78   13.90
  -3  -3   1  296.62   13.09
  -3  -3   1  299.11   12.81
   2   3  -1  475.01   19.21
  -2  -3   1  481.19   19.08
  -2  -3   1  437.97   18.33
   1   3  -1  446.35   18.35
   1   3  -1  462.99   17.91
  -1  -3   1  457.90   18.34
  -1  -3   1  442.35   17.85
   0   3  -1  103.92    5.63
   0   3  -1  110.40    5.19
   0   3  -1  104.04    5.15
   0  -3   1  108.09    5.73
   0  -3   1  106.65    5.11
   0  -3   1  105.08    5.06
  -1   3  -1   25.76    2.66
  -1   3  -1   28.04    2.29
   1  -3   1   23.33    2.53
   1  -3   1   25.38    2.03
  -2   3  -1  499.65   21.18
  -2   3  -1  498.46   20.63
  -2   3  -1  513.69   21.44
  -2   3  -1  500.06   19.41
   2  -3   1  503.23   19.47
   2  -3   1  497.01   20.63
  -3   3  -1  722.22   30.65
  -3   3  -1  773.02   31.67
  -3   3  -1  775.56   31.94
   3  -3   1  790.05   31.03
  -4   3  -1  741.09   31.89
  -4   3  -1  698.82   30.42
   4  -3   1  782.66   30.95
   5  -3   1 1160.89   47.42
   5  -3   1 1120.52   46.18
   6  -3   1  879.80   38.82
   6  -3   1  877.12   37.59
   7  -3   1  159.69   13.16
   7  -3   1  115.35   14.09
   8  -3   1    7.04    8.14
   9   2  -1   42.83   15.89
   8   2  -1  107.99   14.60
  -8  -2   1  142.76   10.06
   7   2  -1 1466.67   67.64
   7   2  -1 1840.72   65.50
  -7  -2   1 1679.31   64.77
   6   2  -1  654.33   30.46
  -6  -2   1  673.56   27.77
   5   2  -1  911.16   37.15
   5   2  -1  977.84   39.29
  -5  -2   1  885.74   37.67
  -5  -2   1  925.32   36.70
   4   2  -1 3333.41  125.69
   4   2  -1 3550.04  127.40
  -4  -2   1 3246.45  125.33
  -4  -2   1 3364.63  126.34
   3   2  -1  121.69    5.69
   3   2  -1  126.53    7.17
   3   2  -1  117.67    6.51
  -3  -2   1  126.70    6.88
  -3  -2   1  112.07    6.00
   2   2  -1 3642.61  133.01
   2   2  -1 3716.12  133.25
   2   2  -1 3753.65  134.04
  -2  -2   1 3478.30  132.96
  -2  -2   1 3614.58  133.64
  -2  -2   1 3500.05  133.09
   1   2  -1 1036.26   38.36
   1   2  -1  983.83   37.32
  -1  -2   1  966.22   37.64
   0   2  -1 1817.59   65.60
   0   2  -1 1717.21   66.57
   0   2  -1 1766.65   65.60
   0  -2   1 1742.99   65.59
   0  -2   1 1769.11   65.59
   0  -2   1 1824.22   66.18
  -1   2  -1   85.59    3.97
  -1   2  -1   84.78    4.50
  -1   2  -1   81.80    4.71
   1  -2   1   80.04    3.93
   1  -2   1   92.65    4.97
   1  -2   1   82.47    4.48
  -2   2  -1  229.70   11.53
  -2   2  -1  219.79   10.07
  -2   2  -1  221.92   10.60
   2  -2   1  219.87   10.04
  -3   2  -1 1425.99   56.34
  -3   2  -1 1495.19   57.51
   3  -2   1 1483.63   56.56
   3  -2   1 1501.38   57.35
  -4   2  -1  756.86   31.40
  -4   2  -1  736.01   32.47
   4  -2   1  790.23   31.72
   4  -2   1  813.61   32.71
  -5   2  -1    6.91    4.12
  -5   2  -1   12.35    3.77
  -5   2  -1   16.09    3.79
   5  -2   1    9.02    3.54
   5  -2   1    9.05    3.69
   5  -2   1   11.45    3.40
  -6   2  -1   77.71    6.57
   6  -2   1   76.28    9.44
   6  -2   1   81.57    8.64
  -7   2  -1    2.56    3.47
   7  -2   1   -6.11    5.77
   7  -2   1   -6.93    5.73
   8  -2   1   93.89   14.68
   8  -2   1  105.84   14.11
   9   1  -1   12.56   15.71
   9   1  -1    1.97    8.79
   8   1  -1   26.57    7.62
  -8  -1   1   13.76    4.57
   7   1  -1  249.23   17.05
   7   1  -1  266.68   17.09
  -7  -1   1  276.59   13.65
   6   1  -1    2.29    3.70
   6   1  -1    3.39    4.12
  -6  -1   1    6.19    3.95
  -6  -1   1    8.10    2.82
   5   1  -1  415.83   18.88
   5   1  -1  462.97   20.75
   5   1  -1  448.84   18.78
  -5  -1   1  393.09   19.36
  -5  -1   1  422.96   18.49
  -5  -1   1  419.10   18.29
   4   1  -1   24.34    3.89
   4   1  -1   33.58    4.55
  -4  -1   1   30.20    4.14
  -4  -1   1   30.91    3.76
  -4  -1   1   28.83    3.28
   3   1  -1  248.43   11.20
   3   1  -1  274.90   12.26
  -3  -1   1  254.83   11.71
  -3  -1   1  241.47   10.95
   2   1  -1  126.33    5.49
   2   1  -1  135.53    6.59
   2   1  -1  129.37    6.03
  -2  -1   1  126.09    5.87
  -2  -1   1  122.11    5.77
  -2  -1   1  136.29    6.43
   1   1  -1   28.82    2.12
   1   1  -1   26.58    1.73
   1   1  -1   25.03    1.72
  -1  -1   1   29.11    1.80
  -1  -1   1   24.06    1.69
  -1  -1   1   27.96    2.10
   0   1  -1 3267.22  117.25
   0   1  -1 3066.17  117.48
   0   1  -1 3336.31  117.23
   0  -1   1 3352.48  117.25
   0  -1   1 2968.13  117.47
  -1   1  -1 2471.25   90.91
  -1   1  -1 2461.66   91.47
  -1   1  -1 2447.14   91.86
  -1   1  -1 2520.24   91.90
   1  -1   1 2483.04   91.49
   1  -1   1 2489.82   90.94
  -2   1  -1 2551.14   94.65
  -2   1  -1 2483.82   93.87
   2  -1   1 2573.90   94.58
   2  -1   1 2511.76   93.93
  -3   1  -1  933.67   36.48
  -3   1  -1  953.51   38.00
  -3   1  -1  954.27   37.09
   3  -1   1  988.54   37.30
   3  -1   1  965.80   38.07
   3  -1   1  940.54   36.62
  -4   1  -1 1103.79   43.26
  -4   1  -1 1110.17   43.96
  -4   1  -1 1091.52   45.04
   4  -1   1 1194.35   44.39
   4  -1   1 1146.77   43.64
   4  -1   1 1125.22   45.31
  -5   1  -1   11.81    3.58
  -5   1  -1    4.80    3.04
  -5   1  -1    9.38    2.61
   5  -1   1    8.59    3.35
   5  -1   1    6.45    3.42
   5  -1   1    9.42    3.18
  -6   1  -1  191.57   10.13
   6  -1   1  185.91   11.76
  -7   1  -1  133.85    8.75
   7  -1   1  103.41   11.76
   7  -1   1  122.49   11.37
  -8   1  -1   35.10    7.88
   8  -1   1   34.53    8.22
   8   0  -1   50.70    8.93
   8   0  -1   57.52   12.00
   7   0  -1   85.79   12.08
   7   0  -1  120.14   10.15
  -7   0   1   96.40    7.97
   6   0  -1  891.84   35.01
   6   0  -1  835.85   37.00
  -6   0   1  785.45   35.82
   5   0  -1  491.73   21.83
   5   0  -1  482.73   20.17
   5   0  -1  442.50   19.94
  -5   0   1  446.13   19.59
  -5   0   1  448.43   19.37
  -5   0   1  428.18   20.65
   4   0  -1   48.84    4.41
   4   0  -1   42.95    4.47
   4   0  -1   43.72    5.13
  -4   0   1   40.28    4.82
  -4   0   1   40.84    3.59
  -4   0   1   41.40    4.21
   3   0  -1 3416.00  120.81
   3   0  -1 3341.62  119.76
   3   0  -1 3196.08  119.60
  -3   0   1 3159.78  119.38
  -3   0   1 2969.95  119.23
  -3   0   1 3279.85  120.31
   2   0  -1  190.01    8.33
   2   0  -1  204.63    9.00
   2   0  -1  198.28    8.37
  -2   0   1  176.32    8.09
  -2   0   1  198.09    8.73
  -2   0   1  192.62    8.26
   1   0  -1 2452.60   89.27
   1   0  -1 2522.71   89.52
  -1   0   1 2235.10   89.10
  -1   0   1 2517.54   89.44
  -1   0   1 2412.56   89.25
  -1   0  -1 2662.53   99.28
  -1   0  -1 2760.62   99.72
   1   0   1 2687.90   99.69
  -2   0  -1  701.41   26.72
  -2   0  -1  641.49   26.90
  -2   0  -1  715.18   27.43
   2   0   1  732.89   26.69
   2   0   1  666.93   27.22
   2   0   1  726.23   27.50
  -3   0  -1  575.09   23.61
  -3   0  -1  550.42   22.38
  -3   0  -1  533.21   23.13
   3   0   1  592.19   23.83
   3   0   1  576.72   22.79
   3   0   1  592.77   22.74
  -4   0  -1   36.99    4.94
  -4   0  -1   35.02    3.49
   4   0   1   38.99    4.68
   4   0   1   32.08    4.35
   4   0   1   36.78    3.93
  -5   0  -1    7.39    2.76
  -5   0  -1    3.31    2.09
   5   0   1    5.77    3.05
   5   0   1    6.84    2.65
  -6   0  -1  153.08    8.90
   6   0   1  151.50   10.11
   6   0   1  151.43   11.49
  -7   0  -1  134.17    8.95
   7   0   1  119.72   11.95
   7   0   1  138.36   11.09
  -8   0  -1  454.36   20.59
   8   0   1  373.65   24.03
   8   0   1  467.93   22.75
   8  -1  -1    1.07    7.56
  -8   1   1    4.73    4.69
   7  -1  -1  137.05   11.97
   7  -1  -1  138.25   13.10
  -7   1   1  154.03    9.81
   6  -1  -1   48.29    6.96
   6  -1  -1   29.77    8.23
   5  -1  -1   27.93    5.61
   5  -1  -1   24.16    5.15
   5  -1  -1   19.01    4.10
  -5   1   1   16.21    3.89
  -5   1   1   12.57    3.36
  -5   1   1   19.34    3.68
   4  -1  -1  152.20    8.21
   4  -1  -1  144.90    8.99
   4  -1  -1  140.95    7.88
  -4   1   1  143.58    8.17
  -4   1   1  150.07    8.73
  -4   1   1  142.78    7.50
   3  -1  -1  901.67   34.72
   3  -1  -1  909.06   35.43
   3  -1  -1  887.61   34.42
  -3   1   1  898.79   35.21
  -3   1   1  856.02   34.14
  -3   1   1  885.12   34.50
   2  -1  -1 1834.08   65.57
   2  -1  -1 1713.69   65.19
   2  -1  -1 1785.55   65.84
  -2   1   1 1745.05   65.75
  -2   1   1 1710.11   65.10
  -2   1   1 1725.54   65.35
   1  -1  -1  399.46   15.65
   1  -1  -1  401.72   15.83
   1  -1  -1  424.52   15.90
  -1   1   1  389.45   15.64
  -1   1   1  419.53   15.87
  -1   1   1  411.62   15.81
   0  -1  -1 3105.41  110.06
   0   1   1 2928.56  110.03
   0   1   1 2982.85  110.09
  -1  -1  -1 1257.09   45.81
  -1  -1  -1 1230.28   45.44
  -1  -1  -1 1226.61   45.58
   1   1   1 1214.40   45.45
  -2  -1  -1  234.95   10.07
  -2  -1  -1  244.21   10.63
   2   1   1  238.82   10.11
   2   1   1  258.57   10.90
  -3  -1  -1  324.21   13.97
  -3  -1  -1  336.90   14.87
   3   1   1  340.35   14.17
   3   1   1  349.40   15.11
  -4  -1  -1 1909.22   72.75
  -4  -1  -1 1937.73   74.28
  -4  -1  -1 1888.43   72.95
   4   1   1 1950.70   73.24
   4   1   1 2009.63   74.82
  -5  -1  -1 2163.16   87.33
  -5  -1  -1 2252.98   85.87
  -5  -1  -1 2270.27   85.72
   5   1   1 2324.05   86.31
   5   1   1 2370.58   88.38
  -6  -1  -1  474.17   20.78
   6   1   1  458.37   23.24
   6   1   1  494.16   21.34
  -7  -1  -1  247.03   12.89
   7   1   1  247.39   14.33
   7   1   1  231.62   15.82
  -8  -1  -1  566.16   25.10
   8   1   1  617.38   26.58
   8   1   1  490.32   28.56
  -9  -1  -1   53.21    9.24
   9   1   1   35.87   10.51
   8  -2  -1  126.38   16.09
   8  -2  -1  133.12   15.28
  -8   2   1  127.18   11.24
   7  -2  -1   -5.47    5.93
   7  -2  -1    0.92    5.77
  -7   2   1    1.95    3.75
   6  -2  -1   29.66    7.55
  -6   2   1   32.06    5.35
   5  -2  -1 1812.57   66.73
   5  -2  -1 1663.93   65.91
   5  -2  -1 1792.45   67.89
  -5   2   1 1719.21   65.30
  -5   2   1 1613.86   66.98
  -5   2   1 1656.14   68.59
   4  -2  -1 2091.74   81.45
   4  -2  -1 2217.27   82.12
   4  -2  -1 2266.12   83.11
  -4   2   1 2155.51   82.75
  -4   2   1 2117.18   81.05
  -4   2   1 2110.56   81.73
   3  -2  -1  375.02   15.78
   3  -2  -1  369.55   15.36
   3  -2  -1  361.10   16.19
  -3   2   1  361.33   15.65
  -3   2   1  344.55   14.93
  -3   2   1  366.32   16.18
   2  -2  -1 1333.64   50.12
   2  -2  -1 1353.72   50.40
   2  -2  -1 1271.20   49.61
  -2   2   1 1297.78   49.55
  -2   2   1 1332.25   50.35
  -2   2   1 1348.28   50.66
   1  -2  -1  180.04    7.20
  -1   2   1  169.22    8.20
  -1   2   1  176.69    7.72
  -1   2   1  174.73    7.60
  -1   2   1  178.59    7.23
   0  -2  -1  939.13   35.83
   0  -2  -1  991.50   35.96
   0   2   1  971.45   35.96
   0   2   1  953.26   35.87
  -1  -2  -1  750.44   28.23
  -1  -2  -1  752.42   28.20
  -1  -2  -1  770.64   28.25
   1   2   1  762.36   28.26
   1   2   1  724.57   28.28
   1   2   1  742.42   28.23
  -2  -2  -1   17.90    2.13
  -2  -2  -1   13.96    1.65
  -2  -2  -1   14.40    1.75
   2   2   1   16.19    1.69
   2   2   1   12.88    1.99
   2   2   1   15.77    2.16
  -3  -2  -1   59.19    4.34
  -3  -2  -1   54.11    3.62
   3   2   1   50.46    3.97
   3   2   1   60.51    4.57
  -4  -2  -1  192.96    9.77
  -4  -2  -1  205.18   10.77
   4   2   1  209.90   10.18
   4   2   1  229.97   11.37
  -5  -2  -1  487.37   22.21
  -5  -2  -1  483.62   20.88
   5   2   1  516.35   23.14
   5   2   1  499.57   21.48
  -6  -2  -1   51.35    5.48
   6   2   1   54.71    7.63
  -7  -2  -1   56.92    6.89
   7   2   1   63.28    9.46
  -8  -2  -1    3.42    3.97
   8   2   1   -7.15    6.37
  -9  -2  -1   18.55    5.75
   8  -3  -1   29.22    9.83
   8  -3  -1   34.23    9.39
   7  -3  -1    1.53    6.47
   7  -3  -1    6.80    6.55
  -7   3   1   -2.06    4.27
   6  -3  -1    3.31    5.03
   6  -3  -1   13.35    5.26
  -6   3   1   12.09    3.83
   5  -3  -1  790.66   33.14
   5  -3  -1  781.26   32.26
  -5   3   1  682.97   32.29
  -5   3   1  763.85   30.64
   4  -3  -1  291.26   13.60
   4  -3  -1  283.65   14.20
   4  -3  -1  275.39   12.99
  -4   3   1  262.75   13.26
  -4   3   1  274.54   12.46
  -4   3   1  246.73   13.79
   3  -3  -1  231.23   10.38
   3  -3  -1  227.78   10.94
   3  -3  -1  222.38   11.29
  -3   3   1  212.05    9.90
  -3   3   1  217.48   10.70
  -3   3   1  221.94   11.33
   2  -3  -1   38.22    3.23
   2  -3  -1   39.83    3.55
  -2   3   1   37.55    2.89
  -2   3   1   43.22    4.01
  -2   3   1   40.98    3.44
   1  -3  -1   19.04    2.16
  -1   3   1   20.89    2.18
  -1   3   1   20.88    2.07
  -1   3   1   18.54    2.35
  -1   3   1   17.07    2.13
   0   3   1 8171.32  298.94
  -1  -3  -1 2608.12   95.90
  -1  -3  -1 2586.65   95.70
  -1  -3  -1 2602.81   95.78
   1   3   1 2628.78   95.97
   1   3   1 2562.90   95.86
  -2  -3  -1 1358.69   50.23
  -2  -3  -1 1290.83   50.31
  -2  -3  -1 1369.63   50.66
  -2  -3  -1 1341.66   50.28
   2   3   1 1350.00   50.90
   2   3   1 1342.46   50.27
  -3  -3  -1 3586.45  134.94
  -3  -3  -1 3759.77  136.22
  -3  -3  -1 3538.71  135.60
   3   3   1 3712.45  135.09
   3   3   1 3555.68  135.46
   3   3   1 3845.00  136.83
  -4  -3  -1   54.09    5.15
  -4  -3  -1   51.05    3.49
  -4  -3  -1   56.71    4.17
   4   3   1   50.83    3.83
   4   3   1   49.98    4.79
   4   3   1   62.56    5.42
  -5  -3  -1 2970.54  116.35
  -5  -3  -1 3037.32  115.43
   5   3   1 3092.66  115.55
   5   3   1 3223.67  117.82
  -6  -3  -1 1380.09   54.12
   6   3   1 1389.47   56.95
  -7  -3  -1   -0.33    3.46
   7   3   1   10.26    5.09
  -8  -3  -1   52.57    8.21
   8   3   1   46.89   11.26
  -9  -3  -1  138.15   11.34
   7  -4  -1  596.39   29.99
   7  -4  -1  619.22   31.34
  -7   4   1  648.74   27.30
   6  -4  -1  236.35   15.59
   6  -4  -1  256.56   16.14
  -6   4   1  246.32   12.92
   5  -4  -1  348.70   18.18
   5  -4  -1  332.40   17.76
   4  -4  -1 1111.45   42.78
  -4   4   1 1045.63   43.09
  -4   4   1 1061.53   41.00
  -4   4   1 1000.92   42.23
   3  -4  -1   10.97    2.59
  -3   4   1    7.67    2.71
  -3   4   1    7.95    2.27
   2  -4  -1   12.59    2.28
   2  -4  -1    7.77    1.25
  -2   4   1   11.31    2.83
  -2   4   1    9.94    1.65
  -2   4   1   11.18    3.03
  -2   4   1    9.63    2.24
   1  -4  -1  150.45    7.43
  -1   4   1  155.05    7.05
  -1   4   1  146.99    7.18
  -1   4   1  147.40    7.70
   0  -4  -1  722.68   27.13
   0  -4  -1  705.28   27.21
   0   4   1  678.18   27.68
  -1  -4  -1  701.00   26.36
  -1  -4  -1  698.90   26.41
   1   4   1  636.90   28.32
   1   4   1  681.67   26.33
  -2  -4  -1 1698.51   62.68
  -2  -4  -1 1631.15   62.26
  -2  -4  -1 1677.83   62.36
   2   4   1 1632.88   62.80
   2   4   1 1681.23   62.41
  -3  -4  -1  659.87   26.67
  -3  -4  -1  666.31   26.27
  -3  -4  -1  680.10   27.08
   3   4   1  675.35   26.41
   3   4   1  692.11   27.69
  -4  -4  -1   85.29    5.00
  -4  -4  -1   77.05    5.48
  -4  -4  -1   91.89    6.43
   4   4   1   88.36    6.84
   4   4   1   78.95    5.97
   4   4   1   90.52    5.16
  -5  -4  -1  124.44    7.67
  -5  -4  -1  123.33    6.75
  -5  -4  -1  130.07    8.87
   5   4   1  143.53    9.60
   5   4   1  126.94    7.10
   5   4   1  122.87    8.14
  -6  -4  -1   18.82    3.65
   6   4   1   21.47    5.03
  -7  -4  -1   18.06    4.51
   7   4   1   16.07    6.14
  -8  -4  -1  144.48   10.54
   8   4   1  143.87   13.77
  -9  -4  -1  114.19   11.18
   9   4   1  113.69   15.28
  -7   5   1  135.10   15.10
   6  -5  -1  198.94   15.10
  -6   5   1  231.01   12.95
  -6   5   1  242.69   15.75
   5  -5  -1  561.56   26.23
  -5   5   1  580.59   26.72
   4  -5  -1   95.59    8.10
  -4   5   1   90.87    8.24
   3  -5  -1   29.93    4.94
  -3   5   1   24.47    5.80
  -3   5   1   32.28    4.95
  -3   5   1   30.02    4.92
   2  -5  -1    4.13    1.32
   2  -5  -1    1.52    2.15
  -2   5   1    4.59    2.39
  -2   5   1    2.85    1.49
  -2   5   1    5.37    1.98
  -2   5   1    5.34    1.98
   1  -5  -1  652.71   25.40
   1  -5  -1  638.98   25.88
  -1   5   1  668.14   25.58
  -1   5   1  631.08   25.75
   0  -5  -1 2860.20  105.30
   0  -5  -1 2835.54  105.57
   0   5   1 2802.49  105.47
   0   5   1 2847.43  105.39
  -1  -5  -1  130.91    6.50
  -1  -5  -1  126.21    6.76
   1   5   1  120.95    6.52
   1   5   1  130.85    6.69
  -2  -5  -1  248.07   11.05
  -2  -5  -1  250.07   11.24
   2   5   1  255.77   11.20
   2   5   1  245.11   11.41
  -3  -5  -1  345.42   15.31
  -3  -5  -1  364.91   14.95
  -3  -5  -1  348.89   14.86
  -3  -5  -1  350.41   15.02
   3   5   1  347.42   14.97
   3   5   1  348.04   15.86
  -4  -5  -1   83.67    6.02
  -4  -5  -1   80.72    6.67
  -4  -5  -1   89.71    5.64
   4   5   1   95.14    5.83
   4   5   1  101.72    7.18
  -5  -5  -1    2.17    2.01
  -5  -5  -1    2.01    2.28
   5   5   1    0.28    3.19
   5   5   1   -1.06    2.14
  -6  -5  -1  387.88   21.51
  -6  -5  -1  447.98   17.58
   6   5   1  376.50   26.49
   6   5   1  415.47   17.68
  -7  -5  -1  880.28   34.26
   7   5   1  739.01   36.63
  -8  -5  -1   67.46    8.93
   8   5   1   64.32   12.50
  -9  -5  -1  468.37   26.05
   9   5   1  366.05   28.65
  -7   6   1  140.64   16.40
   6  -6  -1   68.22   11.86
  -6   6   1   87.93   11.90
   5  -6  -1   30.57    5.84
  -5   6   1   31.61    8.51
   4  -6  -1  459.59   22.11
  -4   6   1  482.99   22.21
  -4   6   1  450.18   24.22
   3  -6  -1 1433.15   54.09
   3  -6  -1 1350.63   51.77
  -3   6   1 1397.90   53.93
  -3   6   1 1415.05   54.75
  -3   6   1 1239.14   54.43
  -3   6   1 1352.27   51.99
   2  -6  -1  761.44   30.99
   2  -6  -1  761.93   29.79
  -2   6   1  717.95   30.66
  -2   6   1  765.11   30.08
  -2   6   1  745.60   30.82
  -2   6   1  800.00   31.88
   1  -6  -1  908.58   34.24
  -1   6   1  853.56   34.55
  -1   6   1  849.00   34.41
  -1   6   1  892.43   34.32
   0  -6  -1 1663.82   62.03
   0  -6  -1 1640.15   62.45
   0   6   1 1609.59   62.07
   0   6   1 1635.65   62.24
  -1  -6  -1  220.45   10.32
  -1  -6  -1  224.70   10.63
   1   6   1  221.22   10.46
   1   6   1  221.14   10.57
  -2  -6  -1  120.41    6.86
  -2  -6  -1  132.88    7.33
   2   6   1  124.92    7.15
   2   6   1  122.72    7.04
  -3  -6  -1  213.14   10.14
  -3  -6  -1  223.66   10.71
   3   6   1  198.56   10.14
   3   6   1  202.92   10.90
  -4  -6  -1    6.14    2.87
  -4  -6  -1    1.61    2.03
  -4  -6  -1    6.68    2.31
  -4  -6  -1   10.83    2.80
   4   6   1    4.74    2.23
   4   6   1    3.16    2.87
  -5  -6  -1   12.33    3.68
  -5  -6  -1   14.69    3.24
  -5  -6  -1   17.29    2.98
   5   6   1   13.85    2.92
  -6  -6  -1  222.41   14.76
  -6  -6  -1  226.79   11.35
   6   6   1  211.36   14.38
   6   6   1  204.36   11.59
  -7  -6  -1  243.58   11.87
  -7  -6  -1  220.54   13.03
   7   6   1  220.22   12.77
  -8  -6  -1  165.19   11.68
   8   6   1  119.39   14.75
   6  -7  -1  239.67   16.91
  -6   7   1  249.00   17.03
   5  -7  -1  214.71   14.98
  -5   7   1  222.87   14.37
  -4   7   1   -1.66    3.88
   3  -7  -1  353.19   17.28
   3  -7  -1  352.41   14.99
  -3   7   1  371.66   16.97
  -3   7   1  319.60   15.46
  -3   7   1  328.16   18.06
   2  -7  -1  356.69   16.42
   2  -7  -1  359.44   15.41
  -2   7   1  358.32   17.57
  -2   7   1  332.26   16.07
  -2   7   1  352.16   15.68
  -2   7   1  341.49   16.30
   1  -7  -1  353.35   15.29
  -1   7   1  337.60   15.41
  -1   7   1  350.62   15.88
   0  -7  -1   80.68    6.51
   0  -7  -1   84.40    5.68
   0   7   1   86.26    6.02
   0   7   1   77.99    5.87
  -1  -7  -1  231.20   11.28
  -1  -7  -1  222.55   10.82
   1   7   1  208.59   10.82
   1   7   1  223.45   10.99
  -2  -7  -1  201.70   10.52
  -2  -7  -1  190.02    9.80
   2   7   1  192.98   10.10
   2   7   1  196.08   10.12
  -3  -7  -1    3.55    2.15
   3   7   1    7.42    2.75
  -4  -7  -1 1369.95   51.60
  -4  -7  -1 1305.66   51.15
  -4  -7  -1 1322.66   52.22
   4   7   1 1254.31   51.45
   4   7   1 1378.54   53.42
  -5  -7  -1  848.04   34.01
  -5  -7  -1  865.84   33.70
   5   7   1  752.65   33.38
   5   7   1  851.80   36.23
  -6  -7  -1  401.82   18.76
  -6  -7  -1  432.42   18.42
   6   7   1  355.55   20.85
  -7  -7  -1  349.30   17.52
  -7  -7  -1  371.74   16.63
   7   7   1  297.53   20.02
  -8  -7  -1  190.50   12.92
  -8  -7  -1  182.49   13.20
   8   7   1  202.67   17.59
   5  -8  -1  916.49   40.97
  -5   8   1  974.24   40.78
   4  -8  -1   36.40    8.94
  -4   8   1   51.58    8.23
   3  -8  -1  644.15   25.96
   3  -8  -1  650.31   28.01
  -3   8   1  589.63   26.40
  -3   8   1  639.99   27.81
   2  -8  -1  139.28    9.51
   2  -8  -1  131.50    8.06
  -2   8   1  132.01    8.81
  -2   8   1  136.03   11.24
  -2   8   1  147.27    8.88
   1  -8  -1   39.32    4.92
  -1   8   1   41.88    5.53
  -1   8   1   46.62    5.86
   0  -8  -1  116.36    7.45
   0  -8  -1  124.48    8.67
   0   8   1  109.36    7.60
   0   8   1  123.82    8.12
  -1  -8  -1  508.69   22.02
  -1  -8  -1  500.22   21.42
   1   8   1  459.27   21.40
   1   8   1  527.39   21.92
  -2  -8  -1   87.82    7.65
  -2  -8  -1   76.61    6.41
   2   8   1   92.45    7.59
   2   8   1   97.56    6.87
  -3  -8  -1   17.45    3.18
  -3  -8  -1   22.08    6.60
  -4  -8  -1  376.39   22.84
  -4  -8  -1  337.28   16.17
   4   8   1  320.66   17.51
  -5  -8  -1  259.26   13.48
  -6  -8  -1   62.28   12.50
  -6  -8  -1   56.47    7.71
   6   8   1   61.46   10.29
  -7  -8  -1   11.17    4.72
  -7  -8  -1    7.51    5.06
   7   8   1    5.84    6.87
  -8  -8  -1   -0.75    5.78
  -8  -8  -1   -8.68    5.66
   8   8   1   -5.71    9.02
   5  -9  -1  462.63   25.61
  -5   9   1  501.56   24.49
   4  -9  -1    9.70    6.22
  -4   9   1    2.64    4.74
   3  -9  -1   14.95    3.17
   3  -9  -1   23.82    5.19
   2  -9  -1   23.72    5.51
  -2   9   1   16.25    3.82
   1  -9  -1  193.11   10.76
  -1   9   1  191.78   11.25
   0  -9  -1  181.74   10.27
   0  -9  -1  176.47   11.66
   0   9   1  178.67   10.53
  -1  -9  -1  429.59   19.00
  -1  -9  -1  390.15   19.67
   1   9   1  436.71   19.47
  -2  -9  -1  835.08   35.04
  -2  -9  -1  798.52   36.77
   2   9   1  904.04   35.36
  -3  -9  -1  253.81   14.13
   3   9   1  268.84   14.62
  -4  -9  -1  130.28    9.25
   4   9   1  119.84   10.63
  -5  -9  -1  856.71   34.49
   5   9   1  790.55   36.71
  -6  -9  -1  221.05   13.54
   6   9   1  228.48   16.60
  -7  -9  -1   21.54    5.53
   7   9   1   17.74    8.00
  -8  -9  -1   61.94   12.95
  -8  -9  -1   58.04   11.99
   4 -10  -1  143.87   15.59
  -4  10   1  189.85   13.30
   3 -10  -1   -1.81    5.35
   3 -10  -1    7.06    3.71
  -3  10   1    1.51    4.91
   2 -10  -1  312.47   15.57
   1 -10  -1  327.30   15.92
  -1  10   1  308.05   16.28
   0 -10  -1  289.67   14.80
   0  10   1  297.63   15.24
  -1 -10  -1 1001.34   41.59
   1  10   1 1048.69   42.00
  -2 -10  -1  643.00   27.86
   2  10   1  647.88   28.20
  -3 -10  -1   15.13    3.79
   3  10   1   19.63    4.89
  -4 -10  -1  351.80   17.30
   4  10   1  332.90   19.14
  -5 -10  -1   -1.61    4.26
   5  10   1    4.70    6.29
  -6 -10  -1   15.27    5.41
   6  10   1   11.02    8.08
  -7 -10  -1   25.81    6.08
  -7 -10  -1   11.34    6.43
   7  10   1   18.34    9.47
   3 -11  -1   46.37    8.43
   3 -11  -1   55.77   11.18
   2 -11  -1   20.38    4.29
  -2  11   1   33.93    9.65
   1 -11  -1  290.43   15.53
  -1  11   1  284.60   15.82
   0 -11  -1    0.70    3.87
   0  11   1    0.69    6.53
  -1 -11  -1    3.58    3.94
  -2 -11  -1  124.07    9.98
   2  11   1  121.28   11.70
  -3 -11  -1   14.62    4.26
   3  11   1   11.85    5.70
  -4 -11  -1   52.81    9.02
   4  11   1   69.79   11.48
  -5 -11  -1   23.02    5.82
   5  11   1   19.73    7.64
  -6 -11  -1  702.42   29.85
   6  11   1  570.08   32.06
   1 -12  -1  370.70   19.74
  -1  12   1  418.56   20.32
   0 -12  -1  144.11   12.25
   0  12   1  161.86   12.45
  -1 -12  -1   11.17    5.06
   1  12   1    3.85    5.58
  -2 -12  -1   -5.06    4.74
   2  12   1    1.51    5.76
  -3 -12  -1   64.12   10.35
   3  12   1   90.85   11.86
  -4 -12  -1   51.35   10.47
   4  12   1   38.00    8.30
   1  13   1    4.46    6.96
  -2 -13  -1   -6.44    5.80
   2  13   1   -0.70    6.97
   3  13   1  415.91   23.05
   3  12  -2  209.61   16.55
   2  12  -2   65.50   12.69
  -2 -12   2   76.69   10.86
   0  12  -2  123.81   12.78
   0 -12   2   80.16   11.47
  -5 -11   2   48.23   11.35
   4  11  -2  178.20   16.23
  -4 -11   2  218.18   14.28
   3  11  -2   76.72   11.84
  -3 -11   2   90.79   10.42
   2  11  -2    8.18    6.16
  -2 -11   2    4.25    4.57
   1  11  -2  269.35   16.46
  -1 -11   2  260.32   15.36
   0  11  -2  438.30   21.95
   0 -11   2  400.61   20.84
  -1  11  -2  418.72   21.97
   1 -11   2  409.93   20.34
   2 -11   2   33.47    6.77
   2 -11   2   26.16    4.84
   6  10  -2   82.61   16.35
  -6 -10   2   99.45   12.26
   5  10  -2  179.63   16.27
  -5 -10   2  179.08   13.23
   4  10  -2   73.46   11.67
  -4 -10   2  103.14    9.93
   3  10  -2  299.78   17.64
  -3 -10   2  315.44   16.70
   2  10  -2   42.53    8.86
  -2 -10   2   47.99    7.66
   1  10  -2  106.29    9.94
  -1 -10   2  110.19    9.33
   0  10  -2   96.00   10.03
   0 -10   2   90.36    8.65
   1 -10   2   -3.16    3.49
  -2  10  -2   52.71   10.09
   2 -10   2   65.66    7.55
  -3  10  -2  120.97   12.84
   3 -10   2  128.39   12.01
   3 -10   2  115.36    9.72
  -7  -9   2  141.10   14.08
   6   9  -2   -1.47    7.70
  -6  -9   2    9.38    5.14
   5   9  -2  290.76   19.03
  -5  -9   2  291.53   16.12
   4   9  -2  505.94   25.25
  -4  -9   2  513.05   23.45
   3   9  -2 1747.98   69.58
  -3  -9   2 1725.31   68.00
   2   9  -2  236.96   13.98
  -2  -9   2  236.01   12.96
   1   9  -2  154.60   10.95
  -1  -9   2  169.51   10.30
   0   9  -2  120.81    9.78
   0  -9   2  115.76    8.49
  -1   9  -2   68.61    8.07
   1  -9   2   56.96    6.85
  -2   9  -2  158.15   11.59
   2  -9   2  146.43    9.61
   2  -9   2  151.39   10.84
  -3   9  -2   -3.00    4.43
   3  -9   2   -2.74    4.59
   3  -9   2   -4.65    3.25
  -4   9  -2  248.65   15.83
   4  -9   2  215.35   15.77
   7   8  -2    8.44    8.24
  -7  -8   2   11.90    5.60
   6   8  -2   82.37   13.17
  -6  -8   2  107.51    9.79
   5   8  -2   11.38    5.66
  -5  -8   2    0.64    3.74
   4   8  -2    0.54    4.58
  -4  -8   2    4.18    3.43
  -3  -8   2  178.85   10.53
   2   8  -2  170.59   11.15
   1   8  -2  148.24    9.90
  -1  -8   2  147.86    9.00
   0   8  -2   12.61    3.49
   0  -8   2   14.27    2.69
  -1   8  -2  190.65   11.88
   1  -8   2  193.94   10.66
   1  -8   2  202.82   11.19
  -2   8  -2   33.62    6.64
   2  -8   2   25.16    5.07
   2  -8   2   34.77    6.32
  -3   8  -2   13.17    3.97
   3  -8   2   11.23    4.32
   3  -8   2    9.56    2.89
  -4   8  -2  737.23   33.38
   4  -8   2  730.70   32.92
   4  -8   2  734.20   30.28
  -5   8  -2  479.35   24.98
   5  -8   2  467.06   24.44
   8   7  -2  434.09   30.89
  -8  -7   2  504.15   29.91
  -8  -7   2  542.16   23.62
   7   7  -2  111.65   14.48
  -7  -7   2  159.81   11.46
   6   7  -2 1296.95   59.58
  -6  -7   2 1558.04   56.64
   5   7  -2  131.50   11.66
  -5  -7   2  129.53   10.79
   4   7  -2  356.72   24.89
  -4  -7   2  380.64   17.25
   3   7  -2   60.88    6.98
  -3  -7   2   69.22    5.99
   2   7  -2  485.91   21.52
  -2  -7   2  470.68   20.27
  -2  -7   2  436.06   21.21
   1   7  -2   71.79    6.43
   1   7  -2   63.00    5.69
  -1  -7   2   71.05    5.60
  -1  -7   2   58.39    7.41
   0   7  -2  383.95   17.70
   0   7  -2  363.63   16.68
   0  -7   2  360.25   18.13
   0  -7   2  372.41   16.68
  -1   7  -2 1115.84   44.64
  -1   7  -2 1185.18   46.37
  -1   7  -2 1084.10   45.05
   1  -7   2 1116.19   47.04
   1  -7   2 1157.63   44.89
   1  -7   2 1191.36   45.30
  -2   7  -2  441.84   20.62
  -2   7  -2  394.99   18.71
   2  -7   2  456.87   20.21
   2  -7   2  453.51   19.19
  -3   7  -2    3.86    2.50
  -3   7  -2    1.10    3.19
   3  -7   2    3.50    3.45
   3  -7   2   -1.47    2.19
  -4   7  -2   32.67    7.51
   4  -7   2   37.10    7.81
  -5   7  -2  172.06   13.50
   5  -7   2  162.30   12.82
  -6   7  -2   88.21   12.73
   6  -7   2   68.43   11.64
   8   6  -2  277.95   21.71
  -8  -6   2  396.58   18.16
   7   6  -2   49.73   11.34
  -7  -6   2   66.92    8.32
  -7  -6   2   44.24    8.37
   6   6  -2   26.85    6.51
   5   6  -2  324.47   16.40
   5   6  -2  315.69   17.99
  -5  -6   2  332.10   15.42
   4   6  -2  427.25   19.11
   4   6  -2  444.13   21.33
  -4  -6   2  448.02   19.30
   3   6  -2  699.96   29.06
   3   6  -2  653.53   27.34
  -3  -6   2  659.00   28.53
  -3  -6   2  674.54   27.60
   2   6  -2  159.36    9.61
   2   6  -2  162.08    8.66
  -2  -6   2  166.77    8.67
  -2  -6   2  162.29   10.00
   1   6  -2  431.63   18.53
   1   6  -2  445.47   19.54
  -1  -6   2  435.08   18.64
  -1  -6   2  428.92   19.66
   0   6  -2   12.11    2.38
   0   6  -2   12.74    2.36
   0   6  -2   18.79    3.86
   0  -6   2   17.74    3.03
   0  -6   2   12.26    3.15
  -1   6  -2  168.28    9.51
  -1   6  -2  181.42    9.21
  -1   6  -2  184.07   10.26
   1  -6   2  177.81    9.11
   1  -6   2  180.90   11.21
   1  -6   2  183.11    9.56
  -2   6  -2 1271.47   50.33
  -2   6  -2 1352.74   52.55
  -2   6  -2 1204.64   51.37
   2  -6   2 1372.85   51.84
   2  -6   2 1364.99   50.76
  -3   6  -2   97.72    8.03
  -3   6  -2   81.64    6.02
   3  -6   2   83.38    5.81
   3  -6   2   98.55    7.74
  -4   6  -2   12.61    3.90
   4  -6   2   10.56    3.82
  -5   6  -2  179.48   13.37
   5  -6   2  177.41   13.20
  -6   6  -2  112.52   13.58
   6  -6   2  127.75   13.45
  -8  -5   2  263.97   14.94
   6   5  -2   20.17    3.77
  -6  -5   2   16.55    6.39
   5   5  -2  515.19   24.39
   5   5  -2  466.98   21.87
   5   5  -2  525.55   21.47
  -5  -5   2  517.22   21.45
   4   5  -2  491.89   22.20
   4   5  -2  473.75   19.98
  -4  -5   2  448.31   21.09
  -4  -5   2  486.15   20.25
   3   5  -2  146.45    8.18
   3   5  -2  156.61    9.31
  -3  -5   2  159.50    8.24
  -3  -5   2  151.19    9.04
   2   5  -2  911.29   35.21
   2   5  -2  906.09   36.14
  -2  -5   2  875.08   35.96
  -2  -5   2  893.43   35.23
   1   5  -2 2008.31   77.16
   1   5  -2 2086.25   76.39
  -1  -5   2 1973.47   76.32
  -1  -5   2 2039.88   77.30
   0   5  -2 3283.64  123.60
   0   5  -2 3357.52  123.58
   0   5  -2 3370.37  124.70
   0  -5   2 3288.38  123.65
   0  -5   2 3328.76  124.89
  -1   5  -2  712.49   29.73
  -1   5  -2  726.17   28.55
  -1   5  -2  703.27   29.10
   1  -5   2  735.48   28.72
   1  -5   2  736.79   29.12
   1  -5   2  723.92   30.44
  -2   5  -2  360.41   15.58
  -2   5  -2  364.91   16.77
  -2   5  -2  372.52   17.37
   2  -5   2  387.02   15.88
   2  -5   2  377.52   16.83
  -3   5  -2   75.17    7.63
  -3   5  -2   98.28    7.82
  -3   5  -2   99.26    5.75
  -3   5  -2   81.56    8.54
   3  -5   2   93.80    5.53
   3  -5   2  107.75    7.34
  -4   5  -2  289.38   16.00
  -5   5  -2   92.96   10.04
   5  -5   2   87.70    9.89
  -6   5  -2  228.92   16.03
   6  -5   2  201.01   15.35
  -7   5  -2   -5.51    7.62
   7  -5   2    3.95    7.94
   8   4  -2   18.11    8.16
  -8  -4   2    6.88    4.54
   7   4  -2   11.51    6.05
  -7  -4   2   11.26    3.75
   6   4  -2  201.32   10.64
   6   4  -2  210.52   14.11
  -6  -4   2  215.03   10.51
   5   4  -2    4.97    2.23
   5   4  -2    7.05    3.42
   5   4  -2    0.89    3.63
  -5  -4   2    6.21    2.62
  -5  -4   2    1.54    2.26
   4   4  -2 2241.91   83.83
   4   4  -2 2208.87   81.39
  -4  -4   2 2116.69   82.63
  -4  -4   2 2129.22   81.52
  -4  -4   2 2138.23   81.38
   3   4  -2  668.05   25.95
   3   4  -2  655.73   27.23
  -3  -4   2  637.40   25.94
  -3  -4   2  633.68   26.74
   2   4  -2   26.43    3.04
   2   4  -2   21.50    3.19
  -2  -4   2   22.93    3.86
  -2  -4   2   22.44    2.87
   1   4  -2  137.87    6.89
   1   4  -2  137.46    7.45
  -1  -4   2  137.37    7.70
  -1  -4   2  129.60    6.77
   0   4  -2   28.12    2.99
   0   4  -2   34.69    3.24
   0   4  -2   33.35    3.52
   0  -4   2   36.42    3.95
   0  -4   2   34.20    2.95
  -1   4  -2   42.29    3.82
  -1   4  -2   42.61    3.51
  -1   4  -2   39.05    3.83
   1  -4   2   42.72    3.62
   1  -4   2   40.58    3.27
   1  -4   2   42.82    4.68
  -2   4  -2  493.35   21.60
  -2   4  -2  463.86   20.33
  -2   4  -2  472.55   20.96
  -2   4  -2  485.96   19.27
   2  -4   2  481.14   20.32
   2  -4   2  485.34   19.38
  -3   4  -2  266.05   13.90
  -3   4  -2  255.96   13.43
  -3   4  -2  227.74   12.38
   3  -4   2  264.74   12.90
  -4   4  -2    4.81    3.49
   4  -4   2   10.25    3.42
  -5   4  -2  489.72   24.02
   5  -4   2  485.48   22.88
  -6   4  -2 1230.70   52.72
   6  -4   2 1246.83   51.32
  -7   4  -2  676.19   33.49
   7  -4   2  673.45   32.08
   8   3  -2   -0.98    7.14
  -8  -3   2   14.86    4.32
   7   3  -2  380.44   22.99
  -7  -3   2  478.67   20.20
   6   3  -2    8.10    5.01
   5   3  -2  241.67   12.35
   5   3  -2  233.75   10.44
   5   3  -2  239.27   13.53
  -5  -3   2  207.13   11.90
  -5  -3   2  225.17   10.52
  -5  -3   2  223.28   11.25
   4   3  -2 3094.12  112.04
   4   3  -2 3062.31  112.88
   4   3  -2 3206.19  114.75
  -4  -3   2 2949.04  111.99
  -4  -3   2 2795.07  113.15
  -4  -3   2 3001.55  112.51
   3   3  -2 2704.09  100.83
   3   3  -2 2835.91  102.61
  -3  -3   2 2616.68  100.84
  -3  -3   2 2703.10  101.85
   2   3  -2   18.03    2.46
   2   3  -2   20.61    2.82
  -2  -3   2   22.68    3.07
  -2  -3   2   16.40    2.33
  -1  -3   2    4.32    1.62
  -1  -3   2    3.56    0.99
   0   3  -2 1411.26   53.96
   0   3  -2 1384.08   53.63
   0   3  -2 1401.74   53.25
   0  -3   2 1415.75   54.21
   0  -3   2 1466.38   53.37
  -1   3  -2  550.94   22.99
  -1   3  -2  578.68   22.56
  -1   3  -2  525.55   22.39
   1  -3   2  577.60   22.53
   1  -3   2  566.07   22.05
   1  -3   2  569.76   23.38
  -2   3  -2  856.15   34.09
  -2   3  -2  870.07   34.80
  -2   3  -2  863.92   34.96
  -2   3  -2  883.50   32.89
   2  -3   2  847.49   33.91
   2  -3   2  860.42   32.98
  -3   3  -2  668.26   28.06
  -3   3  -2  614.31   26.95
  -3   3  -2  642.15   28.20
   3  -3   2  709.60   27.45
  -4   3  -2  723.83   32.43
  -4   3  -2  775.89   34.15
  -4   3  -2  825.82   34.18
   4  -3   2  857.28   33.17
   5  -3   2   68.63    7.68
   6  -3   2  756.52   33.20
   7  -3   2   10.81    6.60
   8  -3   2    2.78    8.61
  -8  -2   2    7.10    4.38
   7   2  -2  121.67   12.47
  -7  -2   2  134.90    8.96
   6   2  -2  304.77   24.90
  -6  -2   2  382.47   16.69
   5   2  -2    1.35    3.12
   5   2  -2    4.05    2.74
   5   2  -2    6.56    3.21
  -5  -2   2    7.04    2.78
  -5  -2   2    3.84    2.01
   4   2  -2    1.09    1.45
   4   2  -2    0.95    2.16
   4   2  -2    2.54    2.28
  -4  -2   2    2.00    2.17
  -4  -2   2    0.32    1.40
  -4  -2   2    1.36    1.54
   3   2  -2  220.34   10.73
   3   2  -2  206.22    9.70
  -3  -2   2  211.49   10.17
  -3  -2   2  204.61    9.42
  -3  -2   2  210.59    9.26
   2   2  -2   75.09    4.72
   2   2  -2   76.66    4.16
  -2  -2   2   69.86    4.06
  -2  -2   2   78.47    4.73
   1   2  -2  929.13   35.72
   1   2  -2  948.25   35.85
   1   2  -2  963.63   36.42
  -1  -2   2  945.26   35.95
  -1  -2   2  989.01   36.48
  -1  -2   2  911.12   35.70
   0   2  -2  369.30   15.22
   0   2  -2  379.65   15.79
   0   2  -2  376.51   15.18
   0  -2   2  393.61   15.94
   0  -2   2  397.47   15.33
  -1   2  -2  484.79   20.13
  -1   2  -2  485.28   19.15
  -1   2  -2  515.45   19.85
   1  -2   2  503.05   19.29
   1  -2   2  483.54   20.38
   1  -2   2  497.14   19.70
  -2   2  -2 2091.83   78.15
  -2   2  -2 2011.32   76.03
  -2   2  -2 2075.89   77.30
   2  -2   2 2052.69   76.69
   2  -2   2 2055.09   77.22
  -3   2  -2  618.17   25.90
  -3   2  -2  633.53   26.99
   3  -2   2  654.99   26.06
  -4   2  -2 1202.86   49.92
  -4   2  -2 1261.07   51.43
   4  -2   2 1317.32   50.27
   4  -2   2 1343.53   51.54
   5  -2   2   36.46    5.85
   5  -2   2   35.94    7.01
   6  -2   2   10.20    4.47
   6  -2   2    9.97    4.22
   7  -2   2   70.40   10.54
   7  -2   2   62.02   11.16
   8  -2   2   83.48   14.29
   8  -2   2   56.81   13.95
   8   1  -2  109.66   12.22
  -8  -1   2   87.11    9.54
   7   1  -2  570.57   30.16
   7   1  -2  691.96   28.66
  -7  -1   2  634.47   27.12
   6   1  -2  491.63   21.44
   6   1  -2  447.60   23.76
   5   1  -2   32.67    5.34
   5   1  -2   22.49    4.42
  -5  -1   2   32.60    3.84
  -5  -1   2   26.31    5.57
  -5  -1   2   28.72    5.71
   4   1  -2    6.53    2.48
   4   1  -2    7.95    2.13
   4   1  -2    9.81    2.51
  -4  -1   2    7.66    1.92
   3   1  -2 3870.30  148.69
   3   1  -2 4069.13  148.72
   3   1  -2 4259.15  150.00
   3   1  -2 4003.51  147.92
  -3  -1   2 4055.74  148.56
  -3  -1   2 3771.37  148.42
  -3  -1   2 4145.63  149.37
   2   1  -2  317.34   13.32
   2   1  -2  345.67   14.07
   2   1  -2  343.67   13.46
  -2  -1   2  322.49   13.34
  -2  -1   2  332.50   13.72
  -2  -1   2  310.53   13.13
   1   1  -2  227.04    9.34
  -1  -1   2  220.70    9.28
  -1  -1   2  231.51    9.62
   0   1  -2  650.68   25.59
   0   1  -2  652.21   25.26
   0   1  -2  668.07   25.22
   0  -1   2  677.80   25.34
   0  -1   2  669.94   25.69
  -1   1  -2 8137.96  287.78
  -1   1  -2 7869.51  288.14
   1  -1   2 7556.06  288.68
   1  -1   2 7911.47  287.84
   2  -1   2   21.88    2.36
  -3   1  -2  197.04   10.30
  -3   1  -2  184.97    9.33
   3  -1   2  193.09   10.00
   3  -1   2  191.06    9.26
  -4   1  -2  347.93   17.57
  -4   1  -2  362.26   16.45
   4  -1   2  379.30   17.70
   4  -1   2  386.67   16.13
   4  -1   2  378.68   16.49
  -5   1  -2  563.50   27.38
  -5   1  -2  641.45   25.44
  -5   1  -2  625.14   26.46
   5  -1   2  641.87   26.45
   5  -1   2  630.78   27.94
  -6   1  -2  740.07   30.89
   6  -1   2  742.89   34.71
   6  -1   2  799.88   32.41
  -7   1  -2   31.42    5.94
   7  -1   2   31.00    5.65
   7  -1   2   22.37    6.12
   8  -1   2   11.21    7.02
   8  -1   2   10.26    7.31
   8   0  -2  200.61   15.29
  -8   0   2  205.25   12.88
   7   0  -2   64.37   11.50
  -7   0   2   83.92    7.72
   6   0  -2    6.62    4.10
   6   0  -2   11.29    4.69
  -6   0   2    7.08    2.99
   5   0  -2    3.44    3.48
   5   0  -2    7.43    3.00
   5   0  -2    3.76    3.20
  -5   0   2    0.35    3.01
  -5   0   2    7.56    2.97
  -5   0   2    0.60    2.07
   4   0  -2  221.07   11.08
   4   0  -2  247.53   12.43
   4   0  -2  238.22   11.14
  -4   0   2  222.10   11.51
  -4   0   2  220.01   10.56
  -4   0   2  232.32   11.06
   3   0  -2    1.02    1.53
   3   0  -2   -0.06    1.33
   3   0  -2    0.49    1.56
  -3   0   2    2.51    1.63
  -3   0   2    0.88    1.15
  -3   0   2    1.63    1.57
   2   0  -2  122.69    6.00
   2   0  -2  135.72    6.59
   2   0  -2  130.44    6.10
   2   0  -2  124.71    5.60
  -2   0   2  121.24    6.02
  -2   0   2  125.80    5.69
  -2   0   2  133.29    6.40
  -2   0   2  125.50    5.89
   1   0  -2   84.01    4.69
   1   0  -2   95.04    4.48
   1   0  -2   93.45    4.27
   1   0  -2   91.83    4.29
  -1   0   2   94.06    4.41
  -1   0   2   91.74    4.35
  -1   0   2   89.14    4.33
  -1   0   2   88.36    4.26
   0   0  -2  539.53   20.81
   0   0  -2  535.41   20.70
   0   0  -2  560.06   20.82
   0   0   2  542.51   20.84
   0   0   2  545.62   20.74
   0   0   2  555.56   20.85
  -1   0  -2  222.15    9.25
  -1   0  -2  214.49    8.79
  -1   0  -2  215.76    8.65
  -1   0  -2  215.73    9.24
   1   0   2  201.55    8.58
   1   0   2  203.38    8.69
  -2   0  -2  521.44   20.73
  -2   0  -2  504.61   19.92
   2   0   2  509.06   20.61
   2   0   2  484.35   19.81
  -3   0  -2   -0.35    1.47
  -3   0  -2    0.06    1.69
  -3   0  -2    1.72    1.24
   3   0   2    0.60    1.44
   3   0   2    1.23    1.54
   3   0   2    0.80    1.18
  -4   0  -2   85.78    7.04
  -4   0  -2   98.90    6.39
  -4   0  -2   97.67    5.61
   4   0   2  110.50    7.28
   4   0   2   98.34    6.17
   4   0   2  102.88    6.30
  -5   0  -2  434.33   19.16
  -5   0  -2  407.88   20.41
  -5   0  -2  419.71   18.49
   5   0   2  444.22   19.11
   5   0   2  448.33   19.27
   5   0   2  436.35   20.62
  -6   0  -2   61.94    5.94
   6   0   2   56.21    7.24
   6   0   2   68.06    9.15
  -7   0  -2  123.87    8.53
   7   0   2  128.30   10.63
   7   0   2   95.71   11.56
  -8   0  -2  298.43   15.41
   8   0   2  237.96   18.87
   8   0   2  327.74   17.43
   8  -1  -2  169.95   15.26
   8  -1  -2  142.72   16.98
  -8   1   2  176.32   12.33
   7  -1  -2  124.25   13.36
   7  -1  -2  162.45   12.48
  -7   1   2  156.88   10.10
   6  -1  -2    9.43    4.84
  -6   1   2    4.17    2.86
   5  -1  -2  110.86    7.88
   5  -1  -2  102.99    7.84
   5  -1  -2  103.28    9.13
  -5   1   2  109.67    6.82
  -5   1   2   93.84    7.72
  -5   1   2  101.26    8.20
   4  -1  -2   99.29    7.12
   4  -1  -2   77.43    5.88
   4  -1  -2   93.10    6.24
  -4   1   2   75.37    6.49
  -4   1   2   85.33    6.15
  -4   1   2   77.49    5.26
   3  -1  -2 2161.50   80.88
   3  -1  -2 2116.00   80.62
   3  -1  -2 2264.39   81.63
  -3   1   2 2039.17   80.27
  -3   1   2 2137.52   80.69
  -3   1   2 2201.06   81.21
   2  -1  -2 8867.11  319.97
  -2   1   2 8576.76  319.69
   1  -1  -2 8726.40  304.56
   1  -1  -2 8689.73  304.50
   1  -1  -2 8156.21  304.51
  -1   1   2 7931.34  304.37
  -1   1   2 7581.47  304.52
  -1   1   2 8875.05  304.55
   0  -1  -2  147.25    5.97
   0  -1  -2  150.04    6.25
   0  -1  -2  139.13    6.00
   0   1   2  143.54    6.06
   0   1   2  141.25    5.93
  -1  -1  -2  736.15   27.38
  -1  -1  -2  688.85   27.09
  -1  -1  -2  725.30   27.08
  -1  -1  -2  725.83   27.22
   1   1   2  724.01   27.37
   1   1   2  721.60   27.10
  -2  -1  -2  177.16    7.32
  -2  -1  -2  176.26    8.17
  -2  -1  -2  170.17    7.13
  -2  -1  -2  164.55    7.47
   2   1   2  173.95    8.15
  -3  -1  -2  441.49   18.50
  -3  -1  -2  415.26   17.39
   3   1   2  421.64   17.43
   3   1   2  444.64   18.66
  -4  -1  -2  303.57   13.78
  -4  -1  -2  330.03   15.32
   4   1   2  329.78   15.44
   4   1   2  308.85   14.05
  -5  -1  -2 1817.57   69.99
  -5  -1  -2 1774.09   71.79
  -5  -1  -2 1885.37   70.14
   5   1   2 1865.47   72.45
   5   1   2 1868.74   70.36
  -6  -1  -2  925.60   37.94
  -6  -1  -2  947.56   37.86
   6   1   2  892.38   40.34
   6   1   2  996.76   38.31
  -7  -1  -2    3.73    3.42
   7   1   2    9.37    5.09
  -8  -1  -2    7.58    4.37
   8   1   2   12.42    5.72
   8   1   2   16.90    6.44
   9   1   2    8.15   15.24
   9   1   2   17.49    7.73
   8  -2  -2   77.44   14.58
   8  -2  -2   91.42   15.69
  -8   2   2   85.55   10.86
   6  -2  -2   91.37    9.17
   6  -2  -2   94.55   14.72
  -6   2   2   77.11    7.24
   5  -2  -2  775.49   32.44
   5  -2  -2  771.55   31.37
  -5   2   2  672.82   31.30
  -5   2   2  744.75   30.12
   4  -2  -2  433.47   18.69
   4  -2  -2  421.01   18.23
   4  -2  -2  424.18   19.34
  -4   2   2  417.68   17.76
  -4   2   2  397.30   18.11
  -4   2   2  415.28   18.84
   3  -2  -2   80.25    5.55
   3  -2  -2   73.40    5.21
   3  -2  -2   69.23    4.81
  -3   2   2   71.74    5.03
  -3   2   2   70.12    4.53
  -3   2   2   77.38    5.43
   2  -2  -2  186.02    8.60
   2  -2  -2  184.49    8.52
   2  -2  -2  180.38    8.28
  -2   2   2  173.50    8.03
  -2   2   2  181.65    8.41
  -2   2   2  191.11    8.59
   1  -2  -2    4.64    1.06
   1  -2  -2    3.26    1.04
   1  -2  -2    2.93    0.81
  -1   2   2    3.47    0.87
  -1   2   2    2.58    1.00
   0  -2  -2  180.93    7.64
   0  -2  -2  180.32    7.61
   0   2   2  183.87    7.67
   0   2   2  178.10    7.68
  -1  -2  -2 2391.32   87.61
  -1  -2  -2 2379.64   87.43
  -1  -2  -2 2402.68   87.73
   1   2   2 2351.23   87.65
   1   2   2 2352.65   87.48
  -2  -2  -2    5.58    1.22
  -2  -2  -2    6.59    1.21
  -2  -2  -2    6.73    1.90
   2   2   2    6.22    1.48
   2   2   2    5.83    1.34
  -3  -2  -2   13.34    2.98
  -3  -2  -2   12.56    2.42
   3   2   2   18.80    3.06
   3   2   2   16.08    2.81
   3   2   2   15.23    2.13
  -4  -2  -2   35.93    3.55
  -4  -2  -2   36.05    4.61
   4   2   2   43.70    4.68
   4   2   2   39.02    4.19
  -5  -2  -2 1469.80   59.15
  -5  -2  -2 1478.64   57.75
   5   2   2 1504.28   57.86
   5   2   2 1555.36   60.06
  -6  -2  -2 1171.30   46.35
   6   2   2 1178.47   49.16
  -7  -2  -2  197.78   11.25
   7   2   2  165.47   13.38
  -8  -2  -2   66.99    8.67
   8   2   2   60.29   11.27
  -9  -2  -2   70.75   10.14
   9   2   2   62.09   14.17
   8  -3  -2  124.35   18.16
   8  -3  -2  149.93   16.50
   7  -3  -2  400.88   22.75
   7  -3  -2  422.26   24.08
  -7   3   2  449.45   20.41
   6  -3  -2   36.72    8.53
   6  -3  -2   35.03    7.56
  -6   3   2   46.42    6.66
   5  -3  -2  108.40    9.01
   5  -3  -2  113.23    9.57
  -5   3   2  105.28    7.43
  -5   3   2  108.20    9.37
   4  -3  -2 2269.12   83.56
   4  -3  -2 2177.63   82.30
   4  -3  -2 2228.24   82.96
  -4   3   2 2177.34   81.77
  -4   3   2 2035.71   82.36
  -4   3   2 2135.48   83.16
   3  -3  -2   20.35    3.57
   3  -3  -2   23.17    3.93
   3  -3  -2   16.47    3.07
  -3   3   2   25.62    3.92
  -3   3   2   20.65    3.74
  -3   3   2   20.84    2.95
   2  -3  -2   55.36    3.87
   2  -3  -2   49.45    4.06
   2  -3  -2   53.21    4.10
  -2   3   2   49.69    4.08
  -2   3   2   54.56    3.96
  -2   3   2   51.65    3.63
   1  -3  -2  195.84    7.94
   1  -3  -2  179.54    8.19
  -1   3   2  180.86    8.15
  -1   3   2  182.04    8.00
  -1   3   2  180.45    7.99
  -1   3   2  181.36    8.08
   0  -3  -2 9687.86  359.93
   0   3   2 9999.00  360.15
  -1  -3  -2  789.06   30.07
  -1  -3  -2  801.58   30.16
   1   3   2  789.47   30.21
   1   3   2  786.52   30.12
  -2  -3  -2 4095.12  147.92
  -2  -3  -2 3785.24  148.19
  -2  -3  -2 4068.12  147.65
   2   3   2 4128.12  148.24
   2   3   2 3985.59  147.68
  -3  -3  -2 1386.28   51.93
  -3  -3  -2 1351.64   52.53
  -3  -3  -2 1363.17   52.96
   3   3   2 1472.47   53.65
   3   3   2 1355.87   52.01
  -4  -3  -2  601.80   25.67
  -4  -3  -2  599.22   24.96
  -4  -3  -2  631.19   23.93
   4   3   2  622.40   24.08
   4   3   2  597.85   24.82
   4   3   2  639.86   26.38
  -5  -3  -2   60.56    6.76
  -5  -3  -2   73.42    5.64
   5   3   2   77.60    6.36
   5   3   2   79.87    7.29
  -6  -3  -2  795.17   32.98
   6   3   2  818.95   35.72
  -7  -3  -2   25.09    4.50
   7   3   2   23.75    5.96
  -8  -3  -2  301.82   15.74
   8   3   2  251.28   18.74
  -9  -3  -2   42.83    9.93
   9   3   2   49.37   14.40
   7  -4  -2  641.09   31.58
   7  -4  -2  648.67   32.62
  -7   4   2  696.59   29.00
   6  -4  -2  126.34   12.45
   6  -4  -2  162.51   13.40
  -6   4   2  169.06   10.06
   5  -4  -2    5.58    4.15
   5  -4  -2   10.62    4.40
  -5   4   2   10.69    2.99
  -5   4   2   10.81    5.40
   4  -4  -2  136.76    9.33
   4  -4  -2  153.73    9.05
   4  -4  -2  149.08    9.68
  -4   4   2  144.32    9.64
  -4   4   2  139.54    8.16
  -4   4   2  151.30   10.80
   3  -4  -2    2.81    2.38
   3  -4  -2    0.01    2.48
   3  -4  -2   -2.58    2.19
  -3   4   2    1.90    2.32
  -3   4   2   -2.33    1.76
  -3   4   2    0.88    2.14
   2  -4  -2  733.83   28.16
   2  -4  -2  711.74   28.55
   2  -4  -2  737.58   27.55
  -2   4   2  689.70   28.35
  -2   4   2  730.87   27.73
  -2   4   2  707.89   28.45
  -2   4   2  690.17   29.49
  -2   4   2  718.23   27.98
   1  -4  -2   33.62    3.16
   1  -4  -2   31.94    2.86
   1  -4  -2   35.42    3.18
  -1   4   2   38.05    3.28
  -1   4   2   33.06    3.04
  -1   4   2   38.92    3.10
  -1   4   2   35.04    3.13
   0  -4  -2   11.00    2.05
   0  -4  -2    9.91    2.08
  -1  -4  -2 2811.49  104.76
  -1  -4  -2 2846.64  104.41
  -1  -4  -2 2950.77  105.01
   1   4   2 2725.26  104.45
   1   4   2 2844.80  104.81
   1   4   2 2822.31  105.12
  -2  -4  -2  659.69   25.68
  -2  -4  -2  667.41   25.73
  -2  -4  -2  643.30   25.61
   2   4   2  666.08   26.04
   2   4   2  660.19   25.79
  -3  -4  -2 1474.95   56.12
  -3  -4  -2 1428.18   56.19
  -3  -4  -2 1501.40   56.51
  -3  -4  -2 1481.71   55.81
   3   4   2 1534.09   57.18
   3   4   2 1478.47   55.94
  -4  -4  -2  484.14   20.89
  -4  -4  -2  497.41   20.06
  -4  -4  -2  480.41   21.35
   4   4   2  526.12   22.38
   4   4   2  515.56   20.32
  -5  -4  -2  544.03   23.57
  -5  -4  -2  567.49   22.48
  -5  -4  -2  541.98   24.48
   5   4   2  597.97   25.74
   5   4   2  570.38   22.74
  -6  -4  -2  104.72    7.66
   6   4   2   92.24    9.50
  -7  -4  -2  240.81   12.92
   7   4   2  229.45   15.53
  -8  -4  -2   24.34    5.01
   8   4   2   18.45    7.17
  -9  -4  -2  132.31   12.52
   7  -5  -2  195.52   16.48
  -7   5   2  193.50   13.96
   6  -5  -2   85.76   11.44
  -6   5   2   98.01    9.33
   5  -5  -2   54.35    8.76
  -5   5   2   58.96    7.92
   4  -5  -2    8.22    3.78
   4  -5  -2   11.09    3.78
  -4   5   2    8.10    3.79
  -4   5   2   13.10    3.11
   3  -5  -2 1754.01   65.57
  -3   5   2 1691.18   65.60
  -3   5   2 1691.16   65.39
  -3   5   2 1717.12   64.33
  -3   5   2 1619.29   65.03
   2  -5  -2  596.51   23.28
   2  -5  -2  595.87   24.37
  -2   5   2  578.11   24.20
  -2   5   2  601.59   24.53
  -2   5   2  588.68   23.49
  -2   5   2  578.69   24.06
   1  -5  -2  206.11    9.29
  -1   5   2  208.31    9.56
  -1   5   2  203.89    9.78
  -1   5   2  202.51    9.60
   0  -5  -2  527.24   20.41
   0  -5  -2  511.87   20.24
   0   5   2  473.65   20.51
   0   5   2  512.89   20.52
  -1  -5  -2 4226.98  153.23
  -1  -5  -2 4044.23  153.18
  -1  -5  -2 4204.70  153.57
   1   5   2 4123.81  153.35
   1   5   2 4064.63  153.11
   1   5   2 4285.67  153.82
  -2  -5  -2  578.98   25.36
  -2  -5  -2  622.18   24.49
  -2  -5  -2  649.54   24.77
   2   5   2  635.26   24.90
   2   5   2  612.86   24.83
   2   5   2  635.33   24.73
  -3  -5  -2  175.77    8.83
  -3  -5  -2  180.17    8.93
  -3  -5  -2  174.97    9.08
  -3  -5  -2  187.67    8.77
   3   5   2  187.93    9.00
   3   5   2  190.89    9.62
  -4  -5  -2  469.35   20.37
  -4  -5  -2  489.45   19.95
  -4  -5  -2  492.14   21.03
  -4  -5  -2  479.02   20.63
   4   5   2  515.37   21.95
   4   5   2  478.56   20.06
  -5  -5  -2    6.04    2.12
  -5  -5  -2    2.76    3.08
  -5  -5  -2    2.81    2.65
   5   5   2    6.87    3.31
   5   5   2    4.09    2.42
  -6  -5  -2  115.33    7.07
  -6  -5  -2   98.46   10.52
   6   5   2  123.53   10.39
   6   5   2  101.32    7.42
  -7  -5  -2  444.00   19.94
   7   5   2  382.29   22.03
  -8  -5  -2  120.14   10.38
   8   5   2  145.26   14.29
  -9  -5  -2   -8.57    6.15
   9   5   2   -8.83    8.33
  -7   6   2   -0.77    6.83
  -7   6   2    0.84    8.39
   6  -6  -2   53.19   11.71
  -6   6   2   63.41    9.58
  -6   6   2   72.44   12.16
   5  -6  -2    4.23    5.34
  -5   6   2   11.70    5.18
   4  -6  -2    6.22    4.18
  -4   6   2    5.22    4.47
  -4   6   2   11.80    3.88
   3  -6  -2  380.38   17.70
  -3   6   2  359.59   17.77
  -3   6   2  373.59   16.00
  -3   6   2  345.13   17.84
  -3   6   2  374.51   17.15
   2  -6  -2  683.95   26.25
   2  -6  -2  668.29   27.40
  -2   6   2  662.34   27.62
  -2   6   2  663.38   26.55
  -2   6   2  644.24   27.10
  -2   6   2  635.86   26.78
   1  -6  -2  130.04    7.09
  -1   6   2  133.83    7.46
  -1   6   2  134.51    7.05
  -1   6   2  137.48    7.90
   0  -6  -2  136.56    7.26
   0  -6  -2  126.54    7.13
   0   6   2  139.25    7.56
   0   6   2  136.24    6.97
  -1  -6  -2   13.02    3.72
  -1  -6  -2   10.59    1.93
   1   6   2   10.43    2.70
   1   6   2   15.92    3.20
  -2  -6  -2   24.90    3.29
  -2  -6  -2   20.08    3.18
   2   6   2   17.81    3.44
   2   6   2   19.45    3.14
  -3  -6  -2  334.11   14.28
  -3  -6  -2  327.12   14.44
  -3  -6  -2  309.70   14.00
  -3  -6  -2  332.96   14.33
   3   6   2  302.86   14.27
   3   6   2  325.51   14.96
  -4  -6  -2  434.31   18.12
  -4  -6  -2  408.26   18.71
  -4  -6  -2  431.11   18.63
  -4  -6  -2  421.65   18.43
   4   6   2  418.94   18.34
   4   6   2  448.34   19.94
  -5  -6  -2   11.46    3.09
  -5  -6  -2    9.06    3.63
   5   6   2    8.89    2.80
   5   6   2    8.21    3.69
  -6  -6  -2    0.09    2.93
  -6  -6  -2    1.77    3.26
  -7  -6  -2  839.29   34.03
   7   6   2  744.31   36.11
  -8  -6  -2  651.67   26.45
   8   6   2  469.67   28.95
   6  -7  -2    6.00    7.58
  -6   7   2    4.54    6.82
   5  -7  -2   65.61   10.85
  -5   7   2   95.67   10.50
   4  -7  -2   90.73    9.53
  -4   7   2   95.90    8.83
   3  -7  -2 1437.28   55.66
   3  -7  -2 1417.84   53.46
  -3   7   2 1419.08   54.98
  -3   7   2 1362.07   55.83
  -3   7   2 1359.86   53.90
   2  -7  -2 1820.20   66.77
   2  -7  -2 1817.35   67.93
  -2   7   2 1847.99   68.48
  -2   7   2 1706.98   66.89
  -2   7   2 1602.51   67.33
   1  -7  -2  673.46   26.50
  -1   7   2  614.89   26.66
  -1   7   2  661.38   26.75
  -1   7   2  671.91   27.46
   0  -7  -2    6.51    2.01
   0  -7  -2   13.93    4.08
   0   7   2   11.13    2.38
   0   7   2    9.73    2.20
  -1  -7  -2  496.02   20.30
  -1  -7  -2  492.68   20.34
   1   7   2  451.81   20.36
   1   7   2  484.12   20.08
  -2  -7  -2  374.63   16.01
  -2  -7  -2  364.29   15.89
   2   7   2  350.99   16.10
   2   7   2  353.38   15.96
  -3  -7  -2   42.00    4.43
  -3  -7  -2   45.39    4.65
  -3  -7  -2   45.75    5.33
   3   7   2   43.80    5.23
   3   7   2   36.88    5.02
  -4  -7  -2  297.44   13.68
  -4  -7  -2  302.34   14.00
  -4  -7  -2  267.11   13.29
  -4  -7  -2  301.11   14.25
   4   7   2  304.20   15.14
   4   7   2  265.07   13.68
  -5  -7  -2 1492.75   55.79
  -5  -7  -2 1477.44   56.53
   5   7   2 1329.49   55.67
   5   7   2 1455.12   58.25
  -6  -7  -2  280.19   14.09
  -6  -7  -2  286.22   13.78
   6   7   2  239.28   15.57
   6   7   2  279.38   16.47
  -7  -7  -2   13.20    4.06
  -7  -7  -2   21.06    5.13
   7   7   2   19.94    6.72
  -8  -7  -2   88.92   10.64
   5  -8  -2  314.85   19.54
  -5   8   2  353.10   18.64
   4  -8  -2   33.55    6.38
   3  -8  -2   -0.96    4.19
   3  -8  -2   -3.46    2.42
  -3   8   2   -4.02    3.68
  -3   8   2   -0.04    3.45
  -3   8   2   -0.50    5.33
   2  -8  -2   80.91    6.29
   2  -8  -2   72.05    7.58
  -2   8   2   93.04    6.75
  -2   8   2   66.58    6.96
  -2   8   2   84.00    9.17
   1  -8  -2   11.17    2.53
  -1   8   2   11.03    2.82
  -1   8   2    7.54    4.09
  -1   8   2    7.97    2.96
   0  -8  -2 1037.37   41.25
   0  -8  -2 1041.63   40.72
   0   8   2  979.65   40.93
   0   8   2 1069.58   40.78
  -1  -8  -2    9.16    2.34
  -1  -8  -2   10.85    3.00
   1   8   2    6.92    2.51
   1   8   2    4.69    2.76
  -2  -8  -2  596.02   24.45
  -2  -8  -2  593.79   24.59
   2   8   2  602.50   24.70
   2   8   2  534.38   24.42
  -3  -8  -2  112.55    8.23
  -3  -8  -2  107.66    7.32
   3   8   2   93.47    8.12
  -4  -8  -2   13.25    3.15
  -4  -8  -2   10.62    3.97
  -4  -8  -2    9.13    3.34
   4   8   2   12.41    3.95
  -5  -8  -2  467.43   21.38
  -5  -8  -2  471.78   20.93
   5   8   2  475.38   23.19
  -6  -8  -2   52.37   10.08
  -6  -8  -2   70.39    8.09
   6   8   2   79.31   10.40
  -7  -8  -2   76.28    8.59
  -7  -8  -2   56.63    9.25
   7   8   2   54.96   12.29
  -8  -8  -2   66.62   10.85
   8   8   2   81.24   15.31
   5  -9  -2   89.63   13.51
  -5   9   2  101.13   12.11
   4  -9  -2   -1.41    5.94
  -4   9   2    5.61    5.02
   3  -9  -2    7.07    4.86
   3  -9  -2   -0.56    2.95
  -3   9   2    1.80    3.92
   2  -9  -2   11.61    4.72
   2  -9  -2   13.81    3.15
  -2   9   2   19.31    5.95
  -2   9   2   14.36    3.76
   1  -9  -2  474.55   20.68
  -1   9   2  451.29   22.05
  -1   9   2  478.92   20.77
   0  -9  -2  198.39   10.92
   0  -9  -2  186.37   11.89
   0   9   2  219.61   11.06
  -1  -9  -2  418.89   19.79
  -1  -9  -2  455.75   19.85
   1   9   2  451.04   19.70
  -2  -9  -2 1930.32   72.75
  -2  -9  -2 1773.09   72.32
   2   9   2 1960.81   72.92
  -3  -9  -2 1514.99   60.56
   3   9   2 1590.41   61.35
  -4  -9  -2   88.20    7.90
   4   9   2  112.81    9.87
  -5  -9  -2  274.56   14.41
  -5  -9  -2  260.21   14.15
  -6  -9  -2    4.18    4.67
  -6  -9  -2   13.92    4.64
   6   9   2    9.59    6.24
  -7  -9  -2   27.30    5.51
  -7  -9  -2   15.83    5.75
   7   9   2   44.68   13.34
  -8  -9  -2  138.31   13.96
  -8  -9  -2  196.49   14.47
   8   9   2  163.64   20.60
   4 -10  -2   10.26    7.01
  -4  10   2    9.82    5.60
   3 -10  -2    1.56    5.76
   3 -10  -2   -3.39    3.72
  -3  10   2   -1.75    4.69
  -2  10   2   25.16    4.86
   1 -10  -2  448.70   20.11
  -1  10   2  433.57   22.07
  -1  10   2  430.71   20.20
   0 -10  -2  265.91   13.69
   0 -10  -2  243.37   15.39
   0  10   2  275.48   13.70
  -1 -10  -2    1.68    4.41
  -1 -10  -2   -3.38    3.03
   1  10   2   -3.85    3.54
  -2 -10  -2    3.46    4.59
   2  10   2   -0.97    3.77
  -3 -10  -2  103.88    8.35
   3  10   2   89.17    9.21
  -4 -10  -2  312.32   16.01
   4  10   2  316.84   17.91
  -5 -10  -2  106.68    9.84
   5  10   2  134.77   12.72
  -6 -10  -2   58.95    9.68
  -6 -10  -2   49.54    9.56
   6  10   2   67.54   12.33
  -7 -10  -2   96.86   11.88
  -7 -10  -2  106.03   12.11
   3 -11  -2  150.40   10.50
   3 -11  -2  123.61   13.52
  -3  11   2  102.05   12.51
   2 -11  -2  324.49   16.29
  -2  11   2  301.19   16.66
   1 -11  -2  120.59    9.92
  -1  11   2  126.47   10.32
   0 -11  -2  659.98   28.33
   0  11   2  640.59   28.14
  -1 -11  -2  117.98    9.55
   1  11   2  128.21   10.15
  -2 -11  -2    0.02    3.75
   2  11   2    2.76    4.61
  -3 -11  -2  108.43    9.59
   3  11   2  113.37   13.39
  -4 -11  -2   39.61    8.37
   4  11   2   46.11   10.71
  -5 -11  -2   75.43   10.07
   5  11   2  103.39   13.44
  -6 -11  -2  777.02   33.33
   6  11   2  713.44   35.59
   2 -12  -2  133.54   11.83
  -2  12   2  124.82   14.31
   1 -12  -2    6.11    4.85
  -1  12   2    3.64    5.50
   0 -12  -2   12.02    4.83
   0  12   2   12.88    5.60
  -1 -12  -2   -3.50    4.42
   1  12   2    0.01    5.67
  -2 -12  -2   88.37    9.83
   2  12   2   82.10   10.46
   3  12   2   16.67    6.32
  -4 -12  -2   18.38    5.38
  -5 -12  -2   49.15   10.89
   5  12   2   37.57    9.00
   0 -13  -2   -8.36    5.65
  -1 -13  -2  113.02   11.75
   1  13   2  105.77   12.29
  -2 -13  -2  254.72   15.91
   2  13   2  245.87   16.74
   3  13   2   50.83   13.03
   4  13   2  742.19   35.25
   4  11  -3   20.21    8.19
  -4 -11   3   19.49    6.27
   3  11  -3   -2.12    6.92
   2  11  -3    4.57    6.56
  -2 -11   3   -3.86    4.80
   1  11  -3    1.54    6.17
  -1 -11   3    9.02    4.86
   0  11  -3  739.70   33.44
   0 -11   3  707.83   32.04
  -1  11  -3   19.84    6.86
   1 -11   3   14.04    5.01
   5  10  -3    1.20    8.09
  -5 -10   3    0.33    5.53
  -4 -10   3   -0.01    5.03
   3  10  -3  697.41   31.98
  -3 -10   3  670.91   30.56
   2  10  -3  406.62   21.12
  -2 -10   3  378.01   19.80
   1  10  -3   63.03    9.35
  -1 -10   3   67.55    8.51
   0  10  -3  254.08   15.90
   0 -10   3  246.68   14.34
  -1  10  -3 1014.55   43.02
   1 -10   3  969.83   41.14
   2 -10   3    1.99    4.04
   2 -10   3   -7.35    5.66
  -3  10  -3    6.47    6.30
   3 -10   3   10.03    5.98
   6   9  -3  104.38   15.83
  -6  -9   3  169.00   13.29
   5   9  -3   78.00   12.89
  -5  -9   3   84.31   10.34
   4   9  -3  167.59   13.92
  -4  -9   3  175.88   11.89
   3   9  -3  359.89   19.15
  -3  -9   3  349.07   17.94
   2   9  -3  217.10   13.77
  -2  -9   3  201.96   12.41
   1   9  -3  114.64    9.69
  -1  -9   3  100.77    8.76
   0   9  -3  176.54   11.90
   0  -9   3  154.80   10.49
  -1   9  -3  101.99    9.46
   1  -9   3   92.58    8.19
  -2   9  -3    6.58    4.74
   2  -9   3    2.92    4.39
   2  -9   3    3.18    3.35
  -3   9  -3   21.24    5.37
   3  -9   3   17.79    4.01
  -4   9  -3   76.94   10.78
   4  -9   3   66.80   11.23
   7   8  -3    6.74    9.21
  -7  -8   3    9.53    6.22
  -6  -8   3  120.69   11.27
   5   8  -3  457.21   24.76
  -5  -8   3  470.24   22.00
   4   8  -3  355.23   19.63
  -4  -8   3  352.71   17.64
   3   8  -3  171.40   11.74
  -3  -8   3  153.50   10.32
   2   8  -3  762.43   32.88
  -2  -8   3  745.10   31.78
   1   8  -3   58.55    7.94
  -1  -8   3   54.84    6.42
   0   8  -3   31.51    6.79
   0  -8   3   39.69    5.81
  -1   8  -3   93.94    8.67
   1  -8   3   93.44    9.06
  -2   8  -3  834.41   36.20
   2  -8   3  828.91   35.17
  -3   8  -3  134.01   10.52
   3  -8   3  127.01    8.83
   3  -8   3  123.11   10.34
  -4   8  -3  296.79   18.43
   4  -8   3  311.26   15.06
   4  -8   3  311.93   17.54
  -5   8  -3  427.41   23.37
   5  -8   3  387.12   22.27
   7   7  -3  295.71   21.35
  -7  -7   3  347.42   17.61
  -6  -7   3  173.16   11.68
   5   7  -3  619.53   29.82
  -5  -7   3  626.84   27.04
   4   7  -3  101.46    9.58
  -4  -7   3   91.68    8.86
   3   7  -3  141.31   12.19
  -3  -7   3  133.19    8.94
   2   7  -3   40.03    6.30
  -2  -7   3   40.28    5.28
   1   7  -3    3.88    2.83
  -1  -7   3    0.05    2.28
   0   7  -3   22.01    5.50
   0  -7   3   26.81    4.39
  -1   7  -3   67.15    6.83
   1  -7   3   54.50    6.23
   1  -7   3   55.57    5.47
  -2   7  -3  847.78   35.01
  -2   7  -3  869.04   38.67
   2  -7   3  906.03   35.19
   2  -7   3  830.26   41.22
  -3   7  -3    6.66    2.83
  -3   7  -3   13.71    3.76
   3  -7   3   11.28    3.89
   3  -7   3   10.17    2.67
  -4   7  -3   -0.70    4.34
   4  -7   3   -4.91    4.55
  -5   7  -3    6.37    5.33
   5  -7   3    4.79    5.85
   8   6  -3  282.29   25.27
  -8  -6   3  346.28   17.14
   7   6  -3   53.97   12.56
  -7  -6   3   69.38    9.21
   6   6  -3    3.21    5.56
  -6  -6   3    1.71    4.48
   5   6  -3  507.74   26.23
  -5  -6   3  591.29   24.09
   4   6  -3  109.94   10.09
  -4  -6   3  103.08    7.55
   3   6  -3    1.79    2.94
  -3  -6   3   -0.81    2.26
   2   6  -3  581.88   24.96
   2   6  -3  560.50   23.73
  -2  -6   3  579.26   24.00
  -2  -6   3  534.42   24.80
   1   6  -3  943.19   38.21
   1   6  -3  910.44   37.06
  -1  -6   3  955.30   37.42
  -1  -6   3  926.13   38.54
   0   6  -3 1953.76   73.48
   0   6  -3 1959.23   74.78
   0   6  -3 1858.15   73.43
   0  -6   3 1915.40   75.20
   0  -6   3 1972.53   73.73
  -1   6  -3  688.98   29.69
  -1   6  -3  738.19   30.95
  -1   6  -3  721.53   29.29
   1  -6   3  743.89   29.54
   1  -6   3  742.90   29.99
   1  -6   3  708.61   31.61
  -2   6  -3 1476.00   59.30
  -2   6  -3 1586.96   61.78
   2  -6   3 1569.96   59.85
   2  -6   3 1593.02   60.79
  -3   6  -3  256.15   12.62
   3  -6   3  268.93   15.80
   3  -6   3  284.65   12.85
  -4   6  -3    6.07    3.85
   4  -6   3    6.14    4.08
  -5   6  -3    4.94    4.64
   5  -6   3   -2.41    5.03
  -6   6  -3  178.57   14.58
   6  -6   3  174.34   14.29
   8   5  -3  204.28   18.81
  -8  -5   3  275.70   14.65
   7   5  -3  324.64   21.93
  -7  -5   3  420.51   18.68
  -7  -5   3  410.59   18.20
   6   5  -3    4.45    5.32
   6   5  -3   13.87    4.39
  -6  -5   3    6.01    3.71
   5   5  -3   33.21    8.24
   5   5  -3   20.24    3.59
  -5  -5   3   34.41    5.27
   4   5  -3  390.25   17.57
   4   5  -3  411.55   19.82
  -4  -5   3  400.25   17.72
   3   5  -3  639.12   26.77
   3   5  -3  611.52   25.24
  -3  -5   3  593.16   26.25
  -3  -5   3  607.35   25.33
   2   5  -3   52.41    5.37
   2   5  -3   61.47    4.88
  -2  -5   3   56.96    6.20
  -2  -5   3   52.45    4.74
   1   5  -3  740.27   29.36
   1   5  -3  728.01   30.24
  -1  -5   3  739.32   29.47
  -1  -5   3  715.76   30.39
   0   5  -3  373.87   16.20
   0   5  -3  361.52   16.15
   0   5  -3  378.57   17.28
   0  -5   3  385.65   16.36
   0  -5   3  366.22   17.50
  -1   5  -3  121.36    7.69
  -1   5  -3  137.85    8.22
  -1   5  -3  142.36    7.47
   1  -5   3  126.97    9.33
   1  -5   3  126.96    7.27
   1  -5   3  129.35    7.62
  -2   5  -3   80.12    6.79
  -2   5  -3   87.97    6.68
  -2   5  -3   85.05    5.82
   2  -5   3   85.69    6.36
   2  -5   3   86.43    5.54
  -3   5  -3   44.49    6.18
  -3   5  -3   49.00    4.35
   3  -5   3   46.09    4.24
  -4   5  -3  125.15    9.73
   4  -5   3  126.73    9.33
  -5   5  -3   52.80    9.37
   5  -5   3   65.70    8.23
  -6   5  -3  123.71   13.76
   6  -5   3  160.43   12.43
   7  -5   3  299.52   20.73
   8   4  -3  230.84   19.57
  -8  -4   3  243.16   14.28
   7   4  -3   16.43    6.39
  -7  -4   3   25.02    4.20
   6   4  -3   70.28    7.08
   6   4  -3   79.31    9.64
  -6  -4   3   73.82    6.76
  -6  -4   3   87.31    6.86
   5   4  -3  174.91   12.28
   5   4  -3  188.12    9.77
  -5  -4   3  176.92    9.41
  -5  -4   3  184.54    9.74
   4   4  -3    4.10    2.99
   4   4  -3    5.91    2.16
  -4  -4   3    9.94    3.11
   3   4  -3 2344.98   89.89
   3   4  -3 2520.21   91.65
  -3  -4   3 2322.08   90.86
  -3  -4   3 2402.40   90.10
   2   4  -3  156.82    7.99
   2   4  -3  161.93    8.85
  -2  -4   3  150.61    8.86
  -2  -4   3  154.99    8.09
   1   4  -3  267.17   11.82
   1   4  -3  261.57   11.77
   1   4  -3  269.14   12.71
   1   4  -3  263.10   11.92
  -1  -4   3  266.55   12.03
  -1  -4   3  273.45   12.97
   0   4  -3  253.97   12.15
   0   4  -3  246.27   11.29
   0   4  -3  252.86   11.34
   0  -4   3  248.16   11.36
   0  -4   3  246.16   12.44
  -1   4  -3  124.34    7.26
  -1   4  -3  122.25    6.75
  -1   4  -3  125.41    7.58
   1  -4   3  126.10    7.12
   1  -4   3  134.14    6.78
   1  -4   3  127.67    8.40
  -2   4  -3  108.78    7.13
  -2   4  -3  114.66    6.19
  -2   4  -3  113.50    7.64
   2  -4   3  112.07    7.03
   2  -4   3  114.95    6.28
  -3   4  -3  727.40   31.66
  -3   4  -3  767.24   29.86
  -3   4  -3  784.31   32.71
  -3   4  -3  741.43   32.97
   3  -4   3  782.89   30.19
   3  -4   3  799.56   31.83
  -4   4  -3  991.96   41.63
   4  -4   3  978.45   40.16
  -5   4  -3  558.87   26.74
   5  -4   3  548.95   25.06
  -6   4  -3  660.62   31.97
   6  -4   3  683.25   30.57
  -7   4  -3  232.13   18.12
   7  -4   3  250.57   16.76
   8   3  -3    2.37    7.51
  -8  -3   3    8.26    4.96
   7   3  -3  113.94   13.45
  -7  -3   3  156.67    9.87
   6   3  -3  565.22   27.76
  -6  -3   3  590.62   24.71
   5   3  -3  208.27   12.75
   5   3  -3  182.36   11.25
   5   3  -3  211.10    9.91
  -5  -3   3  197.53   10.13
  -5  -3   3  194.50    9.90
   4   3  -3  831.26   34.66
   4   3  -3  902.60   34.18
   4   3  -3  913.59   36.55
  -4  -3   3  836.63   34.13
  -4  -3   3  881.14   35.49
  -4  -3   3  875.96   34.23
   3   3  -3 2116.00   79.05
   3   3  -3 2070.20   77.59
  -3  -3   3 2066.80   77.74
  -3  -3   3 2017.34   78.49
   2   3  -3  332.62   14.10
   2   3  -3  332.54   14.84
  -2  -3   3  318.91   14.12
  -2  -3   3  343.61   14.95
   1   3  -3 1436.41   55.94
   1   3  -3 1470.98   56.83
   1   3  -3 1509.54   56.18
  -1  -3   3 1482.23   56.25
  -1  -3   3 1528.46   57.10
   0   3  -3   22.67    2.80
   0   3  -3   22.10    2.60
   0   3  -3   25.23    2.74
   0   3  -3   24.66    3.09
   0  -3   3   24.08    3.42
   0  -3   3   27.55    2.71
  -1   3  -3  984.26   37.60
  -1   3  -3  972.50   38.80
  -1   3  -3  984.39   38.20
   1  -3   3  966.54   38.10
   1  -3   3 1003.57   37.84
   1  -3   3  979.75   39.23
  -2   3  -3  801.93   32.74
  -2   3  -3  801.83   33.37
  -2   3  -3  818.25   31.62
   2  -3   3  848.65   31.89
   2  -3   3  830.22   32.72
  -3   3  -3    1.46    2.29
  -3   3  -3    3.11    1.29
  -3   3  -3    1.26    2.14
  -3   3  -3    3.56    2.58
   3  -3   3    2.93    1.99
  -4   3  -3   90.43    8.33
  -4   3  -3  117.35    9.16
  -4   3  -3  100.58    9.26
   4  -3   3  119.41    7.85
  -5   3  -3  315.07   23.83
  -6   3  -3   10.17    5.45
   6  -3   3   12.97    5.29
  -7   3  -3  118.59   14.03
   7  -3   3  117.38   13.35
  -8   3  -3   -1.77   14.34
   8  -3   3    4.06    8.61
   8   2  -3    8.45    6.98
   8   2  -3    8.67    8.07
   7   2  -3   41.75    9.37
   7   2  -3   45.79   11.13
  -7  -2   3   59.02    6.95
   6   2  -3  226.46   16.00
   6   2  -3  258.97   13.43
  -6  -2   3  237.54   12.26
   5   2  -3    8.70    3.03
   5   2  -3    7.80    3.55
   5   2  -3    6.26    3.81
  -5  -2   3   11.80    2.71
  -5  -2   3   12.83    3.45
  -5  -2   3    9.56    3.45
   4   2  -3   59.04    6.02
   4   2  -3   56.04    4.21
   4   2  -3   54.71    5.30
   4   2  -3   61.67    4.78
  -4  -2   3   53.06    4.11
  -4  -2   3   51.99    4.19
  -4  -2   3   46.34    4.99
  -4  -2   3   46.00    5.08
   3   2  -3  707.83   27.32
   3   2  -3  715.86   28.44
   3   2  -3  677.48   26.88
  -3  -2   3  645.61   26.94
  -3  -2   3  700.33   27.89
  -3  -2   3  675.42   26.99
   2   2  -3  912.08   35.38
   2   2  -3  914.48   35.38
   2   2  -3  970.71   36.31
  -2  -2   3  892.69   35.45
  -2  -2   3  923.76   35.35
  -2  -2   3  919.09   35.96
   1   2  -3   83.91    4.73
   1   2  -3   90.88    4.98
   1   2  -3   89.25    5.24
  -1  -2   3   90.51    4.88
  -1  -2   3   99.17    5.61
   0   2  -3  226.86   10.57
   0   2  -3  236.65   10.64
   0   2  -3  225.56   10.13
   0  -2   3  240.41   11.62
   0  -2   3  233.83   10.15
  -1   2  -3 3131.38  118.40
  -1   2  -3 3097.73  117.76
   1  -2   3 3261.00  117.89
   1  -2   3 3229.22  117.54
   1  -2   3 3166.39  118.70
  -2   2  -3 1168.15   46.44
  -2   2  -3 1212.28   47.36
  -2   2  -3 1206.43   45.50
  -2   2  -3 1233.58   47.55
   2  -2   3 1210.68   46.49
   2  -2   3 1220.52   45.70
  -3   2  -3 1036.24   42.10
  -3   2  -3 1055.81   41.99
  -3   2  -3 1014.33   40.86
   3  -2   3 1046.89   40.76
  -4   2  -3  749.52   32.83
  -4   2  -3  785.99   34.46
  -4   2  -3  834.71   34.44
   4  -2   3  852.48   33.18
   5  -2   3  474.99   21.79
   6  -2   3  240.13   14.42
   7  -2   3  141.33   13.20
   8  -2   3   22.12    8.37
   8   1  -3  853.49   44.42
   8   1  -3 1056.88   42.85
  -8  -1   3 1046.14   41.12
   7   1  -3  400.63   19.60
   7   1  -3  335.04   21.28
  -7  -1   3  378.34   18.07
   6   1  -3  678.02   28.97
  -6  -1   3  657.89   27.95
   5   1  -3  239.36   14.13
   5   1  -3  251.95   12.46
   5   1  -3  243.32   13.04
  -5  -1   3  225.52   12.59
  -5  -1   3  237.18   12.23
  -5  -1   3  245.54   11.73
   4   1  -3   84.81    6.14
   4   1  -3   96.90    7.15
   4   1  -3   84.90    4.87
   4   1  -3   89.66    5.98
  -4  -1   3   83.34    5.12
  -4  -1   3   82.58    6.34
  -4  -1   3   83.51    5.47
  -4  -1   3   70.06    6.01
   3   1  -3  418.01   17.12
   3   1  -3  399.48   16.94
   3   1  -3  429.57   18.07
  -3  -1   3  410.04   16.60
  -3  -1   3  402.36   17.34
  -3  -1   3  403.13   17.00
  -3  -1   3  393.81   16.67
   2   1  -3  849.81   32.17
   2   1  -3  798.59   31.89
   2   1  -3  827.75   31.63
  -2  -1   3  806.30   31.48
  -2  -1   3  854.45   32.09
  -2  -1   3  778.70   31.43
   1   1  -3  492.75   19.50
   1   1  -3  508.80   19.85
   1   1  -3  473.37   19.38
  -1  -1   3  497.96   19.63
  -1  -1   3  482.00   19.45
  -1  -1   3  517.48   19.95
   0   1  -3  176.96    8.27
   0   1  -3  175.03    7.92
   0   1  -3  183.24    8.02
   0  -1   3  181.80    8.01
   0  -1   3  185.73    8.41
  -1   1  -3 1601.85   60.26
  -1   1  -3 1587.31   60.61
  -1   1  -3 1650.91   59.90
   1  -1   3 1604.80   60.15
   1  -1   3 1616.66   59.97
   1  -1   3 1566.65   60.75
  -2   1  -3 5248.74  193.44
  -2   1  -3 5151.24  193.30
  -2   1  -3 5311.55  191.71
  -2   1  -3 5244.08  192.57
   2  -1   3 5260.24  191.84
   2  -1   3 5122.09  192.43
  -3   1  -3  497.96   20.72
  -3   1  -3  500.78   21.78
   3  -1   3  479.48   20.34
  -4   1  -3   39.10    5.19
  -4   1  -3   57.02    6.23
   4  -1   3   44.40    5.67
   4  -1   3   49.27    4.91
  -5   1  -3  260.24   14.21
   5  -1   3  307.13   14.66
   5  -1   3  303.06   15.83
   6  -1   3   -0.22    6.41
   6  -1   3    0.41    4.03
  -7   1  -3   53.00    6.75
   7  -1   3   46.31   10.26
   7  -1   3   56.01   10.58
   8  -1   3  132.91   15.63
   8   0  -3  136.04   13.90
   8   0  -3  124.08   16.75
  -8   0   3  125.09   11.04
   7   0  -3   41.88    9.87
   7   0  -3   41.41   10.62
  -7   0   3   60.26    7.21
   6   0  -3   14.41    6.29
  -6   0   3   23.65    5.11
   5   0  -3  106.44    7.56
   5   0  -3  104.89    9.19
  -5   0   3  106.55    8.03
  -5   0   3  100.66    6.77
   4   0  -3   75.81    5.49
   4   0  -3   56.52    5.28
   4   0  -3   76.44    6.63
  -4   0   3   59.42    5.43
  -4   0   3   69.97    5.92
  -4   0   3   69.10    4.98
   3   0  -3    3.13    1.63
   3   0  -3    2.48    1.21
   3   0  -3    4.45    1.84
   3   0  -3    3.51    1.67
  -3   0   3    4.09    1.88
  -3   0   3    4.06    1.43
  -3   0   3    3.29    1.25
   2   0  -3 3832.60  138.67
   2   0  -3 3772.18  138.18
   2   0  -3 3960.55  139.05
   2   0  -3 3613.24  138.71
  -2   0   3 3753.79  138.54
  -2   0   3 3678.03  138.23
  -2   0   3 3646.80  138.49
  -2   0   3 3760.50  138.32
   1   0  -3 4037.43  150.41
   1   0  -3 4122.89  150.78
   1   0  -3 4186.12  150.86
  -1   0   3 3915.99  150.67
  -1   0   3 4206.92  150.91
  -1   0   3 4125.19  150.79
   0   0  -3  237.51    9.89
   0   0  -3  230.86    9.84
   0   0  -3  233.50    9.74
   0   0   3  232.94    9.95
   0   0   3  242.13    9.96
   0   0   3  235.14    9.78
  -1   0  -3 1734.01   63.16
  -1   0  -3 1706.75   63.67
  -1   0  -3 1709.47   63.22
   1   0   3 1691.09   63.17
   1   0   3 1640.68   63.63
  -2   0  -3 3221.03  116.70
  -2   0  -3 3255.99  116.03
   2   0   3 3058.89  116.37
   2   0   3 3055.97  116.61
  -3   0  -3  284.78   12.80
  -3   0  -3  302.65   13.91
   3   0   3  265.95   12.33
   3   0   3  294.52   13.59
  -4   0  -3   47.77    6.03
  -4   0  -3   56.70    5.43
   4   0   3   66.93    5.81
   4   0   3   55.78    4.81
  -5   0  -3  719.62   29.84
  -5   0  -3  665.11   31.16
   5   0   3  755.81   29.93
   5   0   3  739.25   31.68
   6   0   3   87.83    8.16
  -7   0  -3  406.12   18.85
   7   0   3  407.95   20.41
  -8   0  -3  148.19   10.68
   8   0   3  106.00   13.90
   8   0   3  122.46   13.38
   8  -1  -3  205.50   16.42
   8  -1  -3  146.58   18.07
  -8   1   3  195.54   13.51
   7  -1  -3  485.07   23.37
   7  -1  -3  438.69   24.80
  -7   1   3  474.65   21.74
   6  -1  -3   12.27    4.63
  -6   1   3   13.02    3.66
   5  -1  -3  348.60   17.48
   5  -1  -3  329.66   16.35
  -5   1   3  327.61   15.30
   4  -1  -3 2115.74   83.18
   4  -1  -3 2290.52   83.62
   4  -1  -3 2328.72   84.58
  -4   1   3 2192.04   82.86
  -4   1   3 2141.89   83.17
  -4   1   3 2135.18   83.54
   3  -1  -3 1103.02   44.48
   3  -1  -3 1228.33   45.58
   3  -1  -3 1193.75   44.93
  -3   1   3 1158.84   44.89
  -3   1   3 1155.69   44.73
  -3   1   3 1127.51   44.37
   2  -1  -3  179.29    8.41
   2  -1  -3  199.54    8.81
   2  -1  -3  176.31    8.25
   2  -1  -3  181.97    8.03
  -2   1   3  173.17    8.09
  -2   1   3  183.82    8.46
  -2   1   3  177.47    8.01
  -2   1   3  186.52    8.33
   1  -1  -3  671.65   24.48
   1  -1  -3  630.11   24.47
   1  -1  -3  645.66   24.71
   1  -1  -3  637.80   24.66
  -1   1   3  619.13   24.51
  -1   1   3  612.94   24.61
  -1   1   3  649.28   24.72
  -1   1   3  645.63   24.31
   0  -1  -3  413.49   16.37
   0  -1  -3  436.98   16.80
   0   1   3  444.75   16.57
   0   1   3  391.60   16.75
   0   1   3  430.14   16.82
  -1  -1  -3  980.72   37.82
  -1  -1  -3 1014.21   37.82
  -1  -1  -3 1014.69   37.87
   1   1   3  990.02   37.87
  -2  -1  -3  242.61   10.05
  -2  -1  -3  238.69   10.82
  -2  -1  -3  225.99    9.89
  -2  -1  -3  230.88    9.91
  -2  -1  -3  240.94   10.02
   2   1   3  242.97   10.76
  -3  -1  -3   30.44    3.93
  -3  -1  -3   25.54    2.87
   3   1   3   29.91    3.57
  -4  -1  -3  165.41    9.91
  -4  -1  -3  167.00    8.38
   4   1   3  173.05    8.69
   4   1   3  167.10    8.58
   4   1   3  180.25    9.96
  -5  -1  -3  180.13    9.36
  -5  -1  -3  176.56   11.23
  -5  -1  -3  166.46    9.76
   5   1   3  187.30   11.22
   5   1   3  180.27    9.90
   5   1   3  174.87    9.49
  -6  -1  -3  563.11   23.51
   6   1   3  535.38   26.59
  -7  -1  -3  235.29   12.36
   7   1   3  211.31   15.85
   7   1   3  193.06   14.75
  -8  -1  -3    4.53    4.43
   8   1   3    0.49    6.54
   8   1   3   -1.27    5.82
  -9  -1  -3   17.43    5.69
   9   1   3   -1.78    8.15
   8  -2  -3   20.07    8.92
   8  -2  -3   29.58    8.60
  -8   2   3   19.08    5.77
   7  -2  -3   13.74    6.51
   7  -2  -3    8.33    6.62
  -7   2   3   10.34    4.39
  -6   2   3   15.36    3.72
   5  -2  -3    1.19    3.63
  -5   2   3    0.93    3.11
  -5   2   3    6.15    2.66
   4  -2  -3  610.97   24.72
   4  -2  -3  567.73   24.09
   4  -2  -3  590.44   25.17
  -4   2   3  577.72   23.69
  -4   2   3  544.32   24.26
  -4   2   3  562.41   24.17
   3  -2  -3  209.49   10.08
   3  -2  -3  215.78   10.36
   3  -2  -3  187.48    9.61
  -3   2   3  198.45    9.99
  -3   2   3  207.15    9.91
  -3   2   3  197.81    9.42
   2  -2  -3  210.85    9.72
   2  -2  -3  215.32    9.50
   2  -2  -3  212.19    9.32
   2  -2  -3  226.30   10.00
   2  -2  -3  226.40   10.09
  -2   2   3  209.70    9.62
  -2   2   3  229.09   10.11
  -2   2   3  225.11    9.77
   1  -2  -3   41.96    2.78
   1  -2  -3   46.62    3.00
   1  -2  -3   44.00    3.08
   1  -2  -3   38.66    3.00
  -1   2   3   38.57    2.89
  -1   2   3   37.42    2.95
   0  -2  -3    4.67    0.99
   0  -2  -3    4.79    1.20
   0   2   3    5.29    1.02
   0   2   3    3.03    0.86
  -1  -2  -3 1339.68   49.55
  -1  -2  -3 1322.02   49.67
   1   2   3 1315.66   49.54
  -2  -2  -3 4820.92  176.11
  -2  -2  -3 4759.80  176.51
  -2  -2  -3 4778.24  176.02
   2   2   3 4807.38  176.67
  -3  -2  -3 4337.10  161.70
  -3  -2  -3 4305.36  162.36
  -3  -2  -3 4508.31  163.28
  -3  -2  -3 4404.73  162.27
   3   2   3 4442.25  163.45
  -4  -2  -3 1588.46   61.83
  -4  -2  -3 1606.54   62.98
   4   2   3 1685.31   63.53
  -5  -2  -3  157.51   10.71
  -5  -2  -3  159.71    8.95
   5   2   3  171.26    9.57
   5   2   3  186.54   11.09
  -6  -2  -3 2362.76   87.73
   6   2   3 2242.08   90.33
  -7  -2  -3  180.98   10.45
   7   2   3  148.23   13.13
  -8  -2  -3    4.81    4.82
   8   2   3    2.36    6.45
  -9  -2  -3   74.57   10.52
   9   2   3   67.90   14.97
   8  -3  -3   12.98   11.24
   8  -3  -3   35.12   10.24
  -8   3   3   30.08    8.22
   7  -3  -3  386.45   23.82
   7  -3  -3  426.90   22.40
  -7   3   3  437.86   20.21
   6  -3  -3 1062.12   43.87
  -6   3   3 1037.55   42.16
   5  -3  -3  394.74   18.68
  -5   3   3  366.74   16.61
  -5   3   3  322.02   17.60
   4  -3  -3  217.10   11.48
   4  -3  -3  234.83   12.39
   4  -3  -3  232.41   12.04
  -4   3   3  199.82   11.51
  -4   3   3  233.85   12.08
  -4   3   3  228.11   10.85
   3  -3  -3 1391.39   51.92
   3  -3  -3 1269.92   51.15
   3  -3  -3 1424.41   52.06
  -3   3   3 1352.24   51.63
  -3   3   3 1317.85   51.06
  -3   3   3 1272.28   51.49
   2  -3  -3   50.42    4.18
   2  -3  -3   54.32    4.12
   2  -3  -3   52.18    3.74
   2  -3  -3   57.86    4.23
   2  -3  -3   51.83    3.43
  -2   3   3   50.80    3.99
  -2   3   3   55.15    3.96
  -2   3   3   54.31    4.02
   1  -3  -3   10.69    1.81
   1  -3  -3   10.01    2.05
   1  -3  -3   11.14    2.48
  -1   3   3    7.24    1.40
  -1   3   3   11.99    2.30
   0  -3  -3  969.00   36.54
   0  -3  -3  921.91   36.42
   0   3   3  998.50   36.72
   0   3   3  958.44   36.56
  -1  -3  -3  379.56   15.32
  -1  -3  -3  381.53   15.35
   1   3   3  386.39   15.51
   1   3   3  377.85   15.31
  -2  -3  -3    9.22    1.94
  -2  -3  -3   11.16    2.28
  -2  -3  -3    9.51    2.14
   2   3   3   12.40    1.93
   2   3   3    8.49    2.53
   2   3   3    9.76    2.14
  -3  -3  -3  200.49    9.91
  -3  -3  -3  209.64    9.55
  -3  -3  -3  206.02    9.08
  -3  -3  -3  203.27    9.46
   3   3   3  204.74   10.15
  -4  -3  -3    5.25    2.45
  -4  -3  -3    4.86    1.95
  -4  -3  -3    8.35    1.67
   4   3   3   10.06    2.03
  -5  -3  -3   44.57    4.73
  -5  -3  -3   42.69    6.40
   5   3   3   46.50    6.18
  -6  -3  -3   18.78    3.57
   6   3   3   28.84    7.12
  -7  -3  -3   16.22    3.97
  -8  -3  -3    9.76    4.80
   8   3   3   11.63    6.58
  -9  -3  -3   -2.29    5.70
   9   3   3    4.94    8.54
   7  -4  -3  133.96   14.79
   7  -4  -3  136.42   15.85
  -7   4   3  170.26   11.77
   6  -4  -3  132.42   11.91
   6  -4  -3  123.51   12.59
  -6   4   3  122.92    9.47
   5  -4  -3    1.69    4.34
   5  -4  -3    6.47    4.52
  -5   4   3   -2.12    4.42
  -5   4   3    3.65    3.24
   4  -4  -3   85.06    7.24
   4  -4  -3   70.64    6.93
   4  -4  -3   77.44    7.43
  -4   4   3   78.07    7.15
  -4   4   3   66.51    6.14
   3  -4  -3   16.87    4.08
   3  -4  -3   13.21    2.80
   3  -4  -3   15.76    2.95
  -3   4   3   13.51    2.61
  -3   4   3   17.62    4.12
  -3   4   3   17.41    4.30
   2  -4  -3   39.26    4.13
   2  -4  -3   41.26    3.98
   2  -4  -3   37.33    3.14
  -2   4   3   35.04    3.82
  -2   4   3   32.92    3.71
  -2   4   3   32.26    4.23
  -2   4   3   33.22    3.72
   1  -4  -3  975.50   37.53
   1  -4  -3 1013.19   37.44
   1  -4  -3  998.75   37.69
  -1   4   3  942.39   37.48
  -1   4   3  977.12   37.54
  -1   4   3  964.56   37.51
   0  -4  -3 2205.42   83.70
   0  -4  -3 2287.15   83.87
   0   4   3 2286.95   84.04
   0   4   3 2230.80   83.82
  -1  -4  -3 1797.80   65.49
  -1  -4  -3 1721.95   65.30
   1   4   3 1697.11   65.34
   1   4   3 1769.24   65.62
  -2  -4  -3 1639.21   61.73
  -2  -4  -3 1606.97   61.98
  -2  -4  -3 1671.82   62.03
   2   4   3 1726.46   62.22
   2   4   3 1632.66   62.16
   2   4   3 1632.02   62.17
  -3  -4  -3 1421.60   55.93
  -3  -4  -3 1503.93   56.18
  -3  -4  -3 1444.50   55.79
  -3  -4  -3 1472.89   55.56
   3   4   3 1543.85   56.80
   3   4   3 1448.43   55.72
  -4  -4  -3 1915.39   70.66
  -4  -4  -3 1866.22   71.56
  -4  -4  -3 1855.37   71.93
  -4  -4  -3 1808.49   71.27
   4   4   3 1907.06   70.89
   4   4   3 1954.17   72.83
  -5  -4  -3   10.55    2.22
  -5  -4  -3    9.75    2.70
   5   4   3   10.83    3.39
   5   4   3    9.50    2.29
  -6  -4  -3    8.81    3.24
   6   4   3   15.68    4.57
  -7  -4  -3  360.84   17.17
   7   4   3  319.98   19.42
  -8  -4  -3  399.96   18.64
   8   4   3  303.43   21.49
  -9  -4  -3   18.73    5.82
   9   4   3   18.02    8.63
   7  -5  -3  177.83   17.11
  -7   5   3  221.77   14.73
   6  -5  -3   91.55   12.52
   6  -5  -3  102.91   11.73
  -6   5   3  103.15    9.88
   5  -5  -3   51.63    9.33
   5  -5  -3   75.86    8.97
  -5   5   3   61.78    7.50
   4  -5  -3    4.75    3.62
  -4   5   3   -2.65    3.74
  -4   5   3    4.78    2.95
   3  -5  -3  210.24   10.72
   3  -5  -3  207.34   10.94
  -3   5   3  193.28   10.75
  -3   5   3  188.56   10.61
  -3   5   3  199.30   10.31
   2  -5  -3  857.65   33.02
   2  -5  -3  841.46   33.30
   2  -5  -3  873.02   32.41
  -2   5   3  823.74   32.70
  -2   5   3  797.12   33.04
  -2   5   3  813.62   32.54
  -2   5   3  830.72   32.78
   1  -5  -3  243.98   10.97
   1  -5  -3  243.50   11.03
   1  -5  -3  246.12   10.84
  -1   5   3  248.65   11.15
  -1   5   3  230.57   10.82
   0  -5  -3  464.42   19.39
   0  -5  -3  504.69   19.64
   0   5   3  468.02   19.40
   0   5   3  487.67   19.78
  -1  -5  -3 3750.73  137.88
  -1  -5  -3 3813.35  138.08
   1   5   3 3739.10  138.25
   1   5   3 3615.20  137.86
  -2  -5  -3  172.18    8.33
  -2  -5  -3  174.12    8.43
   2   5   3  181.68    8.37
   2   5   3  175.56    8.55
   2   5   3  171.20    8.56
  -3  -5  -3   36.22    3.83
  -3  -5  -3   33.94    3.57
  -3  -5  -3   37.93    4.11
   3   5   3   39.09    4.21
   3   5   3   32.61    3.87
  -4  -5  -3  295.25   12.70
  -4  -5  -3  275.33   13.23
  -4  -5  -3  279.03   13.07
  -4  -5  -3  282.42   13.59
   4   5   3  275.70   12.82
   4   5   3  294.09   14.37
  -5  -5  -3   64.28    6.62
  -5  -5  -3   66.18    5.33
  -5  -5  -3   64.51    6.14
  -5  -5  -3   74.28    7.12
   5   5   3   82.25    6.06
  -6  -5  -3   61.74    5.53
   6   5   3   63.24    8.37
   6   5   3   51.33    6.25
  -7  -5  -3   10.03    4.41
   7   5   3    7.96    5.40
  -8  -5  -3  110.12   10.23
   8   5   3   91.41   13.47
  -9  -5  -3   31.88    6.75
   9   5   3   21.11    9.45
   6  -6  -3    3.81    7.27
  -6   6   3    8.49    6.03
   5  -6  -3   32.13    6.16
  -5   6   3   23.82    4.72
  -5   6   3   36.81    8.77
   4  -6  -3  113.79    9.55
  -4   6   3  127.00    9.17
  -4   6   3   93.32    9.60
  -4   6   3  123.09    8.35
   3  -6  -3  581.48   25.71
   3  -6  -3  634.45   24.70
   3  -6  -3  628.83   26.57
  -3   6   3  615.50   25.19
  -3   6   3  635.80   25.70
  -3   6   3  613.09   26.36
  -3   6   3  610.03   25.92
   2  -6  -3 1215.70   47.16
   2  -6  -3 1240.22   46.18
  -2   6   3 1145.05   46.81
  -2   6   3 1226.62   46.97
  -2   6   3 1209.48   46.52
  -2   6   3 1199.11   46.40
  -2   6   3 1190.74   46.46
   1  -6  -3 1267.61   47.72
  -1   6   3 1230.10   47.95
  -1   6   3 1236.96   47.76
   0  -6  -3 2675.02   95.41
   0  -6  -3 2493.41   95.00
   0   6   3 2542.11   95.55
   0   6   3 2485.97   95.10
  -1  -6  -3 1083.54   42.46
  -1  -6  -3 1148.58   42.85
   1   6   3 1077.00   42.50
   1   6   3 1122.03   43.06
  -2  -6  -3  319.64   13.99
  -2  -6  -3  331.12   14.28
   2   6   3  329.23   14.20
   2   6   3  318.84   14.04
   2   6   3  324.06   14.54
  -3  -6  -3  295.20   13.85
  -3  -6  -3  328.04   14.10
  -3  -6  -3  317.21   14.01
   3   6   3  308.69   14.29
   3   6   3  333.01   14.71
  -4  -6  -3    7.13    2.81
  -4  -6  -3    8.39    2.25
  -4  -6  -3    6.61    2.55
  -4  -6  -3    5.75    2.75
   4   6   3    3.19    2.28
  -5  -6  -3 1027.80   40.98
  -5  -6  -3 1020.20   39.85
  -5  -6  -3  987.49   41.07
   5   6   3  970.44   40.08
   5   6   3 1085.09   42.75
  -6  -6  -3  524.10   22.13
  -6  -6  -3  529.66   23.55
   6   6   3  507.58   22.48
   6   6   3  538.08   25.90
  -7  -6  -3  671.04   26.41
  -7  -6  -3  645.51   28.29
   7   6   3  586.77   30.16
  -8  -6  -3  391.40   19.26
   8   6   3  338.22   22.07
   9   6   3  181.67   18.95
   6  -7  -3   83.78   13.72
  -6   7   3   83.72   12.69
   5  -7  -3  441.19   22.88
   4  -7  -3  727.19   32.05
  -4   7   3  755.77   31.12
  -4   7   3  675.95   31.58
  -4   7   3  745.54   30.38
   3  -7  -3  418.48   19.76
   3  -7  -3  415.92   17.53
  -3   7   3  433.72   18.54
  -3   7   3  394.72   19.43
  -3   7   3  398.27   18.35
  -3   7   3  421.22   18.57
   2  -7  -3 1317.01   50.31
   2  -7  -3 1359.91   49.35
  -2   7   3 1268.02   49.63
  -2   7   3 1135.23   49.54
  -2   7   3 1328.94   50.32
  -2   7   3 1251.67   49.35
   1  -7  -3  401.51   17.01
  -1   7   3  409.75   17.48
  -1   7   3  368.51   17.40
   0  -7  -3  169.46    8.57
   0   7   3  153.29    8.91
  -1  -7  -3  745.25   29.60
   1   7   3  733.81   29.27
   1   7   3  738.40   29.96
   1   7   3  726.62   28.79
  -2  -7  -3  180.93    9.36
  -2  -7  -3  196.94    9.65
  -2  -7  -3  188.80    9.42
   2   7   3  188.23   10.06
   2   7   3  179.28    9.42
   2   7   3  194.08    9.60
  -3  -7  -3    0.13    2.44
  -3  -7  -3    2.74    2.08
  -3  -7  -3    5.86    2.53
   3   7   3    3.62    2.50
   3   7   3    2.59    2.51
  -4  -7  -3  289.40   14.09
  -4  -7  -3  297.58   14.16
  -4  -7  -3  296.14   13.84
  -4  -7  -3  273.95   13.69
   4   7   3  304.78   15.11
   4   7   3  298.16   14.16
  -5  -7  -3  395.09   16.88
  -5  -7  -3  378.95   17.65
  -5  -7  -3  326.08   17.47
   5   7   3  357.93   17.15
   5   7   3  401.17   19.25
  -6  -7  -3  145.18    9.20
  -6  -7  -3  154.05   10.53
   6   7   3  117.77   11.91
  -7  -7  -3   16.08    4.65
  -7  -7  -3    9.34    4.05
  -8  -7  -3    7.97    4.90
  -8  -7  -3    8.60    6.07
   8   7   3   15.72    8.06
   5  -8  -3   12.49    6.98
  -5   8   3   20.21    5.77
   4  -8  -3  115.76   11.67
  -4   8   3  144.04   10.22
   3  -8  -3   88.37    6.70
   3  -8  -3   79.71    8.88
  -3   8   3   86.92    9.20
  -3   8   3   83.02    9.95
  -3   8   3   86.50    7.73
   2  -8  -3   -3.37    3.53
   2  -8  -3   -2.80    2.31
  -2   8   3   -4.63    3.20
  -2   8   3    1.46    3.91
   1  -8  -3  134.46    8.05
  -1   8   3  117.88    8.79
  -1   8   3  136.47    7.90
  -1   8   3  142.80    9.15
   0  -8  -3    3.44    2.68
   0  -8  -3    8.58    2.52
   0   8   3    7.35    2.89
  -1  -8  -3  194.76   10.11
  -1  -8  -3  193.74   10.14
   1   8   3  177.82   10.63
   1   8   3  197.77    9.50
  -2  -8  -3 1349.80   50.46
  -2  -8  -3 1287.56   49.83
   2   8   3 1286.12   50.00
   2   8   3 1360.07   50.21
   2   8   3 1165.43   50.33
  -3  -8  -3 1946.37   71.24
  -3  -8  -3 1733.64   70.37
  -3  -8  -3 1832.39   70.70
   3   8   3 1916.24   71.62
  -4  -8  -3  446.68   19.87
  -4  -8  -3  448.99   19.56
  -4  -8  -3  420.26   19.65
   4   8   3  452.34   20.85
  -5  -8  -3  349.47   16.55
   5   8   3  357.21   18.62
  -6  -8  -3  335.71   18.06
  -6  -8  -3  379.67   18.03
   6   8   3  336.14   19.73
  -7  -8  -3   67.85    9.14
  -7  -8  -3   83.28    9.65
   7   8   3   99.68   13.39
  -8  -8  -3   -0.37    6.17
  -8  -8  -3    1.51    5.51
   8   8   3   11.72    8.90
  -5   9   3    4.88    6.29
   4  -9  -3  120.37   12.70
  -4   9   3  123.57   11.58
   3  -9  -3   43.09    6.56
   3  -9  -3   55.39    8.99
  -3   9   3   57.43   11.56
  -3   9   3   61.28    7.80
   2  -9  -3   15.86    3.32
  -2   9   3   11.97    3.64
   1  -9  -3  655.44   27.84
  -1   9   3  670.43   27.69
  -1   9   3  688.05   28.88
   0  -9  -3  682.92   28.94
   0  -9  -3  678.35   28.56
   0   9   3  707.35   28.14
  -1  -9  -3  150.08    9.03
  -1  -9  -3  138.27    9.11
   1   9   3  150.99    8.38
  -2  -9  -3  140.61    9.05
  -2  -9  -3  139.91    8.73
   2   9   3  135.36    8.84
  -3  -9  -3  316.82   15.36
   3   9   3  295.42   15.33
  -4  -9  -3   88.45    8.63
  -4  -9  -3   82.89    7.51
  -4  -9  -3   84.79    8.02
   4   9   3  101.46    9.11
  -5  -9  -3  150.67   10.22
  -5  -9  -3  149.40    9.72
   5   9   3  134.57   11.31
  -6  -9  -3   -0.89    4.17
  -6  -9  -3   -6.80    4.80
   6   9   3    7.50    6.04
  -7  -9  -3   44.26    9.49
  -7  -9  -3   27.30    5.68
   7   9   3   26.05    7.97
  -8  -9  -3   -6.35    6.86
  -8  -9  -3   -2.38    6.27
   4 -10  -3   71.23   12.48
  -4  10   3   56.16   10.71
   3 -10  -3    2.72    3.75
  -3  10   3    4.94    4.76
   2 -10  -3    1.56    3.55
  -2  10   3    3.53    4.21
   1 -10  -3   12.28    3.55
  -1  10   3    6.55    3.80
  -1  10   3    9.46    5.69
   0 -10  -3  743.34   31.80
   0  10   3  789.78   31.56
  -1 -10  -3  114.31    9.59
  -1 -10  -3  106.25    8.53
   1  10   3  133.56    8.26
  -2 -10  -3  170.51   10.55
  -2 -10  -3  177.61   11.76
   2  10   3  176.61   10.72
  -3 -10  -3  386.67   18.30
  -3 -10  -3  365.10   18.83
   3  10   3  403.10   18.90
  -4 -10  -3  145.79   10.40
   4  10   3  171.25   12.11
  -5 -10  -3   31.00    5.23
  -5 -10  -3   29.10    5.35
  -6 -10  -3   68.23    9.82
   6  10   3   66.09   11.63
  -7 -10  -3  563.04   25.74
  -7 -10  -3  589.09   25.53
   7  10   3  463.58   27.95
   3 -11  -3  386.16   18.77
   2 -11  -3  261.54   14.46
  -2  11   3  260.91   14.67
   1 -11  -3  195.28   12.43
  -1  11   3  223.81   12.36
   0 -11  -3  698.85   30.09
   0  11   3  705.39   29.56
  -1 -11  -3  167.84   11.36
  -1 -11  -3  174.12   13.19
   1  11   3  193.55   11.25
  -2 -11  -3   74.99   10.73
  -2 -11  -3   97.36    8.64
   2  11   3   80.73    9.07
  -3 -11  -3    4.15    3.87
   3  11   3    4.27    5.06
  -4 -11  -3   19.13    4.58
   4  11   3   29.79    9.42
  -5 -11  -3    2.85    4.68
   5  11   3   19.52    6.69
  -6 -11  -3   -3.95    5.54
   6  11   3   -9.04    7.58
  -7 -11  -3  158.38   13.67
  -7 -11  -3  150.62   14.45
   2 -12  -3  113.06   11.30
   1 -12  -3   41.24    9.30
  -1  12   3   47.36    9.96
   0  12   3   20.70    5.33
  -1 -12  -3   19.42    4.72
   1  12   3   20.12    5.25
  -2 -12  -3   -4.67    4.35
   2  12   3    8.08    5.59
  -3 -12  -3    2.29    4.38
   4  12   3  256.45   17.33
  -5 -12  -3  353.98   18.87
   5  12   3  328.56   20.72
  -6 -12  -3  320.45   17.94
   6  12   3  251.57   20.40
   0 -13  -3   51.07   10.81
  -1 -13  -3   79.06   10.82
  -2 -13  -3  165.80   12.99
   2  13   3  179.50   14.11
  -3 -13  -3   15.11    5.41
   3  13   3    9.35    7.61
  -4 -13  -3  105.29   11.82
   4  13   3   96.09   15.37
   3  11  -4   35.60    8.07
   2  11  -4   66.22   12.47
  -2 -11   4   47.23   10.76
   1  11  -4   40.49   11.53
  -1 -11   4   54.32   10.40
   0  11  -4  161.72   14.40
   0 -11   4  167.92   13.05
   4  10  -4   69.80   13.03
  -4 -10   4   84.02   10.92
   3  10  -4  129.48   12.59
  -3 -10   4  125.34   11.48
   2  10  -4 1128.01   47.56
  -2 -10   4 1084.96   46.15
   1  10  -4   26.43    6.38
   0  10  -4  431.77   22.10
   0 -10   4  401.64   20.58
  -1  10  -4   36.85   10.67
   1 -10   4   49.91    8.35
  -2  10  -4   47.69   11.36
   2 -10   4   47.75    8.93
   6   9  -4   35.05   14.27
  -6  -9   4   25.47    6.89
   5   9  -4  286.13   20.74
  -5  -9   4  343.44   17.80
   4   9  -4  175.08   14.81
  -4  -9   4  190.80   13.03
   3   9  -4   30.55    8.95
  -3  -9   4   15.63    4.53
   2   9  -4  247.59   15.39
  -2  -9   4  236.16   14.04
   1   9  -4    5.64    4.59
  -1  -9   4   10.38    3.88
   0   9  -4  165.05   12.64
   0  -9   4  179.42   11.44
  -1   9  -4   26.09    5.38
   1  -9   4   18.64    4.17
  -2   9  -4  254.26   16.37
   2  -9   4  248.58   14.17
   2  -9   4  273.33   16.14
  -3   9  -4   84.84   10.97
   3  -9   4   86.88    9.02
   3  -9   4   79.92   11.32
  -6  -8   4  167.27   13.26
   5   8  -4  634.57   31.41
  -5  -8   4  632.61   28.38
   4   8  -4  539.00   27.14
  -4  -8   4  555.83   25.01
   3   8  -4  338.92   18.09
  -3  -8   4  323.69   16.76
   2   8  -4   26.30    5.43
  -2  -8   4   25.09    6.23
   1   8  -4   36.30    7.17
  -1  -8   4   50.06    6.53
   0   8  -4  324.28   17.09
   0   8  -4  310.21   15.86
   0  -8   4  305.59   15.61
  -1   8  -4  202.77   12.84
   1  -8   4  184.12   11.18
  -2   8  -4  447.08   22.39
   2  -8   4  436.78   20.36
   2  -8   4  436.76   21.54
  -3   8  -4  372.14   20.11
   3  -8   4  371.28   17.83
   3  -8   4  372.26   19.59
  -4   8  -4   -4.64    4.86
   4  -8   4   -0.64    3.76
   4  -8   4    0.11    5.21
  -7  -7   4  150.67   13.59
   6   7  -4   21.27    7.12
  -6  -7   4   12.25    4.79
   5   7  -4   14.41    6.02
   4   7  -4   99.95   10.51
  -4  -7   4  123.85    8.88
   3   7  -4   48.40    7.24
  -3  -7   4   53.80    6.49
   2   7  -4   41.62    7.25
  -2  -7   4   43.74    5.86
   1   7  -4   88.05    7.14
   0   7  -4   33.47    5.20
   0  -7   4   43.89    5.25
  -1   7  -4    1.87    3.23
   1  -7   4    9.20    2.55
  -2   7  -4  763.04   33.67
   2  -7   4  753.32   31.80
   2  -7   4  783.03   32.92
  -3   7  -4 1112.04   46.80
   3  -7   4 1108.74   45.79
   3  -7   4 1111.21   44.41
  -4   7  -4  147.37   12.35
   4  -7   4  151.67    9.44
   4  -7   4  167.03   12.17
  -5   7  -4    7.87    5.68
   5  -7   4    8.10    5.36
   7   6  -4  608.16   34.19
  -7  -6   4  764.11   30.45
   6   6  -4   24.12    6.95
  -6  -6   4   27.30    5.29
   5   6  -4    4.92    4.95
  -5  -6   4    1.60    3.47
   4   6  -4   90.83    8.89
  -4  -6   4   88.71    8.32
   3   6  -4  906.10   38.13
  -3  -6   4  884.48   36.47
   2   6  -4  315.93   16.04
  -2  -6   4  321.26   15.31
   1   6  -4 1283.78   50.50
   1   6  -4 1289.35   49.13
   1   6  -4 1193.90   48.83
  -1  -6   4 1261.32   49.51
   0   6  -4  816.56   34.10
   0   6  -4  830.37   33.46
   0   6  -4  820.15   33.01
   0   6  -4  769.57   32.77
   0  -6   4  794.03   32.88
  -1   6  -4   65.33    7.79
  -1   6  -4   68.97    7.12
  -1   6  -4   81.56    6.66
   1  -6   4   75.44    5.93
  -2   6  -4   11.52    2.86
   2  -6   4   12.82    2.55
   2  -6   4    8.15    3.05
  -3   6  -4   41.34    5.26
   3  -6   4   38.55    6.28
   3  -6   4   37.65    5.11
  -4   6  -4   10.96    3.02
  -4   6  -4   10.61    4.37
   4  -6   4   14.30    2.88
  -5   6  -4   53.42    9.39
   5  -6   4   51.98    9.77
   6  -6   4   -3.60    6.37
   8   5  -4   -6.49   15.52
  -8  -5   4   13.71    5.92
   7   5  -4    1.05    6.83
  -7  -5   4   16.53    4.48
   6   5  -4   13.77    6.25
  -6  -5   4   19.59    4.16
   5   5  -4  690.77   32.87
  -5  -5   4  767.27   30.57
   4   5  -4  160.70   11.08
  -4  -5   4  149.19    9.21
   3   5  -4  293.65   14.22
   3   5  -4  314.07   15.81
  -3  -5   4  314.30   14.66
   2   5  -4  187.03   10.85
   2   5  -4  198.46   10.02
  -2  -5   4  195.06   10.17
  -2  -5   4  190.64   11.29
   1   5  -4   67.91    5.74
   1   5  -4   72.67    5.25
   1   5  -4   75.51    6.28
   1   5  -4   66.21    5.33
  -1  -5   4   76.04    5.51
  -1  -5   4   64.36    6.76
   0   5  -4  456.46   19.36
   0   5  -4  468.15   19.65
   0   5  -4  417.67   19.18
   0   5  -4  460.51   20.43
   0  -5   4  453.50   19.48
   0  -5   4  442.74   20.90
  -1   5  -4  198.85   10.90
  -1   5  -4  204.92   10.44
  -1   5  -4  206.27   11.63
   1  -5   4  207.36   12.57
   1  -5   4  215.21   10.62
  -2   5  -4   16.61    4.61
  -2   5  -4   12.64    2.57
   2  -5   4   11.10    2.38
   2  -5   4   15.28    3.28
  -3   5  -4   54.70    5.30
  -3   5  -4   45.75    7.74
   3  -5   4   67.02    5.03
   3  -5   4   57.16    7.22
  -4   5  -4  339.92   18.17
   4  -5   4  339.89   17.31
  -5   5  -4  101.06   10.05
   5  -5   4   66.00    9.51
  -6   5  -4  127.41   12.67
   6  -5   4   93.28   11.76
   8   4  -4    2.56    8.69
  -8  -4   4   20.95    5.81
   7   4  -4   29.56    7.62
  -7  -4   4   27.72    4.71
  -7  -4   4   42.03    7.68
   6   4  -4  811.14   39.57
   6   4  -4  895.99   36.00
  -6  -4   4  926.38   36.55
  -6  -4   4  955.85   36.39
   5   4  -4    6.64    3.13
   5   4  -4    5.06    4.43
  -5  -4   4    2.33    2.89
   4   4  -4  220.63   11.08
   4   4  -4  224.91   13.18
  -4  -4   4  225.01   11.33
   3   4  -4 2301.23   84.92
   3   4  -4 2180.43   84.92
   3   4  -4 2341.28   86.68
  -3  -4   4 2272.67   85.29
  -3  -4   4 2169.98   86.05
   2   4  -4 2549.64   96.53
   2   4  -4 2626.74   97.71
  -2  -4   4 2489.34   97.55
  -2  -4   4 2620.28   96.87
   1   4  -4  580.48   23.91
   1   4  -4  583.28   24.81
   1   4  -4  580.52   23.83
   1   4  -4  599.07   23.96
  -1  -4   4  600.16   24.21
  -1  -4   4  562.48   24.98
   0   4  -4  634.36   26.60
   0   4  -4  625.75   25.67
   0   4  -4  638.46   25.79
   0   4  -4  621.78   25.49
   0  -4   4  644.31   25.82
   0  -4   4  615.25   26.90
  -1   4  -4  476.19   21.06
  -1   4  -4  456.26   20.39
  -1   4  -4  488.96   19.90
   1  -4   4  480.15   20.02
   1  -4   4  475.21   21.80
  -2   4  -4   48.46    5.55
  -2   4  -4   65.28    5.76
  -2   4  -4   59.36    4.77
   2  -4   4   62.51    5.28
   2  -4   4   58.55    4.67
  -3   4  -4    5.78    1.99
  -3   4  -4    9.21    2.97
   3  -4   4    5.05    1.81
   4  -4   4   30.02    7.70
  -5   4  -4  182.93   13.28
   5  -4   4  184.18   12.24
  -6   4  -4    4.20    5.60
   6  -4   4    7.74    5.47
  -7   4  -4  149.62   16.26
   7  -4   4  194.02   15.16
   8   3  -4   77.27   16.07
  -8  -3   4   72.81   10.21
   7   3  -4   13.01    6.75
   7   3  -4    3.01    5.77
  -7  -3   4    6.39    4.20
   6   3  -4  347.00   15.84
   6   3  -4  292.62   19.22
  -6  -3   4  362.14   15.91
  -6  -3   4  377.34   16.51
   5   3  -4 2087.03   81.64
   5   3  -4 2173.15   79.27
   5   3  -4 2124.09   78.33
  -5  -3   4 2084.45   78.45
  -5  -3   4 1867.44   78.24
  -5  -3   4 2083.66   78.60
   4   3  -4   66.16    5.47
   4   3  -4   74.99    7.19
   4   3  -4   76.66    5.91
  -4  -3   4   76.07    5.65
  -4  -3   4   81.21    6.71
   3   3  -4    4.29    1.92
   3   3  -4    5.01    2.31
  -3  -3   4    1.69    2.26
  -3  -3   4    3.26    1.86
  -3  -3   4    8.10    2.65
   2   3  -4   52.21    4.76
   2   3  -4   49.35    3.81
   2   3  -4   37.96    4.08
  -2  -3   4   46.66    4.49
  -2  -3   4   48.17    4.03
  -2  -3   4   44.48    5.00
   1   3  -4   46.46    3.77
   1   3  -4   45.15    3.94
   1   3  -4   51.74    4.52
  -1  -3   4   49.82    3.96
  -1  -3   4   50.94    5.00
   0   3  -4 1180.54   45.56
   0   3  -4 1151.73   45.42
   0   3  -4 1183.04   46.28
   0   3  -4 1180.81   45.29
   0  -3   4 1201.21   46.60
   0  -3   4 1186.51   45.54
  -1   3  -4    5.84    1.86
   1  -3   4    6.57    2.25
   1  -3   4    9.09    1.90
  -2   3  -4  465.55   20.26
  -2   3  -4  436.14   18.37
  -2   3  -4  440.84   19.49
   2  -3   4  450.39   19.33
   2  -3   4  450.72   18.70
  -3   3  -4  492.68   23.79
  -3   3  -4  530.36   21.06
  -3   3  -4  543.51   23.76
  -3   3  -4  506.67   22.78
   3  -3   4  533.84   22.64
   3  -3   4  537.94   21.43
  -4   3  -4  730.19   32.15
   4  -3   4  732.68   30.88
  -5   3  -4 1011.06   43.84
   5  -3   4 1036.96   42.24
  -6   3  -4  186.39   14.50
   6  -3   4  201.40   13.14
  -7   3  -4  112.43   13.85
   7  -3   4  114.72   12.38
   8   2  -4  160.64   14.91
  -8  -2   4  162.15   12.18
   7   2  -4  152.98   12.27
   7   2  -4  116.06   15.10
  -7  -2   4  160.26   10.73
   6   2  -4  707.13   33.52
   6   2  -4  694.37   33.23
  -6  -2   4  772.95   30.37
   5   2  -4 1368.60   51.81
   5   2  -4 1430.81   53.29
   5   2  -4 1402.25   55.43
  -5  -2   4 1341.14   52.02
  -5  -2   4 1400.69   52.63
  -5  -2   4 1183.11   52.25
   4   2  -4  170.69    9.37
   4   2  -4  175.10    9.27
   4   2  -4  172.01    8.55
   4   2  -4  183.69   10.78
  -4  -2   4  171.65    8.74
  -4  -2   4  168.35    8.69
  -4  -2   4  179.14    9.82
  -4  -2   4  144.25    9.11
   3   2  -4    3.24    2.17
  -3  -2   4    2.07    1.71
  -3  -2   4    5.69    2.14
  -3  -2   4    4.52    2.08
   2   2  -4 1778.76   67.04
   2   2  -4 1747.61   66.38
   2   2  -4 1786.09   66.44
  -2  -2   4 1796.64   67.12
  -2  -2   4 1741.51   66.36
  -2  -2   4 1715.36   66.47
   1   2  -4   28.45    3.18
   1   2  -4   24.59    3.15
   1   2  -4   20.94    2.74
  -1  -2   4   26.69    3.63
  -1  -2   4   26.67    2.79
  -1  -2   4   22.60    3.17
   0   2  -4  250.69   10.93
   0   2  -4  236.12   11.42
   0   2  -4  249.88   11.07
   0   2  -4  237.04   10.84
   0  -2   4  239.06   11.60
   0  -2   4  247.81   10.94
  -1   2  -4 2367.74   88.33
  -1   2  -4 2361.69   88.81
  -1   2  -4 2368.55   89.44
   1  -2   4 2384.70   88.56
   1  -2   4 2364.88   89.81
  -2   2  -4 3051.39  116.06
  -2   2  -4 3070.45  115.35
  -2   2  -4 3122.71  114.36
   2  -2   4 3154.58  114.64
   2  -2   4 3024.30  115.13
  -3   2  -4  129.82    6.67
  -3   2  -4  128.56    9.13
  -3   2  -4  122.22    7.96
  -3   2  -4  136.70    8.86
   3  -2   4  128.69    6.70
   3  -2   4  135.46    7.73
  -4   2  -4   10.76    3.68
  -4   2  -4   11.26    3.34
  -4   2  -4   13.35    3.49
   4  -2   4    7.11    2.66
   5  -2   4  238.18   13.07
  -6   2  -4   11.62    5.03
   6  -2   4   13.84    4.31
  -7   2  -4  259.23   17.98
   7  -2   4  249.90   15.72
  -8   2  -4    4.39    8.21
   8  -2   4   18.84    7.60
   8   1  -4  319.09   22.39
   8   1  -4  359.19   20.79
  -8  -1   4  364.63   18.68
   7   1  -4   14.17    6.56
  -7  -1   4    9.70    4.08
   6   1  -4   -0.23    4.98
   6   1  -4   11.80    5.49
  -6  -1   4    7.17    3.50
   5   1  -4   74.42    6.90
   5   1  -4   80.41    8.53
  -5  -1   4   56.89    7.93
  -5  -1   4   71.56    5.82
  -5  -1   4   61.74    7.55
   4   1  -4  255.51   11.58
   4   1  -4  292.63   14.04
   4   1  -4  268.74   12.53
   4   1  -4  257.42   12.65
  -4  -1   4  240.68   12.45
  -4  -1   4  259.75   11.96
  -4  -1   4  262.88   11.83
  -4  -1   4  246.12   12.51
   3   1  -4  733.11   28.25
   3   1  -4  657.28   27.76
   3   1  -4  699.10   27.58
   3   1  -4  739.64   29.07
  -3  -1   4  686.71   27.85
  -3  -1   4  683.24   27.56
  -3  -1   4  720.90   28.43
  -3  -1   4  690.62   27.75
   2   1  -4   76.78    4.65
   2   1  -4   73.79    4.66
   2   1  -4   77.02    5.09
  -2  -1   4   70.97    4.66
  -2  -1   4   73.41    5.04
  -2  -1   4   75.26    4.82
   1   1  -4   87.07    5.22
   1   1  -4   86.76    5.06
   1   1  -4   82.97    4.77
  -1  -1   4   88.41    5.59
  -1  -1   4   88.29    5.06
  -1  -1   4   89.74    5.03
   0   1  -4  464.30   18.59
   0   1  -4  458.12   18.57
   0   1  -4  453.69   18.90
   0  -1   4  459.40   18.68
  -1   1  -4  925.81   36.05
  -1   1  -4  910.67   36.50
  -1   1  -4  944.38   35.82
  -1   1  -4  953.28   36.21
   1  -1   4  916.03   36.76
   1  -1   4  949.56   36.01
  -2   1  -4 1218.14   47.47
  -2   1  -4 1206.98   45.90
  -2   1  -4 1203.29   47.35
  -2   1  -4 1216.52   46.60
   2  -1   4 1192.35   46.41
   2  -1   4 1221.12   46.05
  -3   1  -4  422.72   19.53
  -3   1  -4  423.20   18.47
  -3   1  -4  424.76   19.42
   3  -1   4  422.32   18.14
   3  -1   4  429.87   17.30
  -4   1  -4  255.57   13.92
  -4   1  -4  237.10   13.83
  -4   1  -4  251.80   12.90
   4  -1   4  266.26   12.55
   5  -1   4   50.31    5.94
   6  -1   4  277.51   14.71
   7  -1   4  316.44   17.20
   8  -1   4  421.68   22.24
   8   0  -4  153.57   15.35
  -8   0   4  136.88   12.21
   7   0  -4  273.88   16.16
   7   0  -4  233.37   17.33
  -7   0   4  261.64   14.44
   6   0  -4   27.56    4.98
  -6   0   4   28.04    6.18
   5   0  -4   16.04    4.47
  -5   0   4   17.81    3.44
  -5   0   4   14.78    3.53
   4   0  -4  777.34   29.74
   4   0  -4  818.09   32.42
   4   0  -4  721.43   30.78
   4   0  -4  801.97   31.25
  -4   0   4  772.45   30.06
  -4   0   4  753.53   30.49
  -4   0   4  734.69   30.79
  -4   0   4  730.59   30.99
   3   0  -4 1245.74   45.96
   3   0  -4 1287.25   46.71
   3   0  -4 1163.08   45.00
   3   0  -4 1131.89   45.44
  -3   0   4 1150.51   45.62
  -3   0   4 1165.33   45.18
  -3   0   4 1162.37   45.65
  -3   0   4 1166.23   45.29
   2   0  -4 2567.61   90.22
   2   0  -4 2455.82   89.91
   2   0  -4 2235.27   89.28
   2   0  -4 2422.84   89.58
  -2   0   4 2457.76   89.82
  -2   0   4 2419.85   90.93
  -2   0   4 2373.32   89.72
  -2   0   4 2321.81   89.30
   1   0  -4 4870.31  182.55
   1   0  -4 5044.65  182.55
   1   0  -4 5013.84  182.64
  -1   0   4 5024.83  182.83
  -1   0   4 4892.73  182.60
  -1   0   4 4917.05  182.66
   0   0  -4  330.32   15.14
   0   0  -4  342.54   14.14
   0   0  -4  344.42   14.03
   0   0   4  348.21   14.31
   0   0   4  340.90   14.27
  -1   0  -4  244.60   10.89
  -1   0  -4  246.65   11.33
  -1   0  -4  246.12   10.60
   1   0   4  240.76   10.60
   1   0   4  242.88   11.08
  -2   0  -4 2544.83  100.86
  -2   0  -4 2653.72  100.46
  -2   0  -4 2827.80  101.55
  -2   0  -4 2764.21  101.39
   2   0   4 2677.50  100.44
   2   0   4 2733.76  100.29
  -3   0  -4  246.34   10.64
  -3   0  -4  258.60   12.85
  -3   0  -4  241.81   11.53
   3   0   4  242.04   10.66
   3   0   4  243.49   11.17
  -4   0  -4    8.16    3.07
  -4   0  -4    4.78    2.73
   4   0   4    6.79    2.61
   4   0   4    6.67    2.02
  -5   0  -4  719.26   31.53
   5   0   4  792.66   33.53
   5   0   4  784.89   31.43
   6   0   4 1080.01   46.13
   6   0   4 1094.74   43.84
   7   0   4  165.87   11.67
   7   0   4  131.40   12.63
   8   0   4   23.68    6.97
   8  -1  -4   -1.78    8.69
   7  -1  -4   48.58   11.13
  -7   1   4   39.34    7.98
   6  -1  -4    8.90    4.71
   5  -1  -4   31.20    5.98
   5  -1  -4   23.70    4.82
  -5   1   4   20.33    3.57
  -5   1   4   29.57    6.37
   4  -1  -4   31.04    4.63
   4  -1  -4   23.14    4.08
   4  -1  -4   25.60    4.56
  -4   1   4   19.61    4.93
  -4   1   4   29.62    4.69
  -4   1   4   23.22    3.99
   3  -1  -4  207.92   10.10
   3  -1  -4  172.20    8.53
   3  -1  -4  189.23    9.53
   3  -1  -4  176.28    9.10
  -3   1   4  194.07    9.33
  -3   1   4  184.23    9.46
  -3   1   4  182.56    8.91
  -3   1   4  191.88    8.87
   2  -1  -4    0.27    1.42
   2  -1  -4   -0.41    1.47
  -2   1   4    2.01    1.22
  -2   1   4    2.39    1.39
  -2   1   4    0.13    1.26
   1  -1  -4  346.44   13.95
   1  -1  -4  318.93   13.89
  -1   1   4  343.25   13.57
  -1   1   4  325.34   13.79
  -1   1   4  330.64   13.97
  -1   1   4  337.92   13.73
   0  -1  -4    2.15    0.85
   0  -1  -4    1.74    1.72
   0  -1  -4    2.19    0.89
   0   1   4    0.91    0.99
   0   1   4    1.65    0.96
   0   1   4    2.45    0.93
   0   1   4    1.43    0.90
  -1  -1  -4  716.82   27.16
  -1  -1  -4  665.55   26.61
   1   1   4  692.83   27.03
  -2  -1  -4  340.33   14.24
  -2  -1  -4  329.56   15.40
   2   1   4  340.72   14.09
  -3  -1  -4 1150.49   44.76
  -3  -1  -4 1189.32   46.53
  -3  -1  -4 1199.62   44.96
   3   1   4 1191.79   46.45
  -4  -1  -4  809.64   34.24
  -4  -1  -4  820.59   32.86
   4   1   4  839.46   34.29
  -5  -1  -4   19.07    4.21
  -5  -1  -4   14.34    4.08
   5   1   4   23.81    4.15
   5   1   4   17.19    3.88
  -6  -1  -4  106.93    7.85
   6   1   4  118.45    8.25
  -7  -1  -4  736.73   29.16
   7   1   4  670.94   30.86
   7   1   4  616.64   31.68
  -8  -1  -4  192.08   13.04
   8  -2  -4  133.13   17.57
   8  -2  -4  112.73   16.02
   7  -2  -4  296.61   17.91
   7  -2  -4  250.60   18.98
  -7   2   4  306.55   15.78
   6  -2  -4  334.20   18.01
  -6   2   4  331.57   16.28
   5  -2  -4  130.70    9.96
   5  -2  -4  118.15    9.37
  -5   2   4   98.02    8.69
   4  -2  -4  646.44   26.21
   4  -2  -4  569.59   25.05
   4  -2  -4  622.10   25.66
  -4   2   4  593.09   25.24
  -4   2   4  576.11   25.24
  -4   2   4  594.33   24.63
   3  -2  -4 4989.35  183.82
   3  -2  -4 5358.61  185.29
   3  -2  -4 5346.65  185.25
   3  -2  -4 4622.42  184.34
   3  -2  -4 4835.37  183.92
  -3   2   4 4870.82  184.34
  -3   2   4 4805.62  184.64
  -3   2   4 5112.00  184.64
   2  -2  -4  980.67   38.20
   2  -2  -4 1020.28   38.55
   2  -2  -4 1037.55   38.36
   2  -2  -4  920.15   38.83
  -2   2   4 1006.66   38.49
  -2   2   4 1011.12   37.89
  -2   2   4  972.38   38.18
   1  -2  -4  569.78   22.04
   1  -2  -4  537.93   21.72
  -1   2   4  542.88   21.87
  -1   2   4  561.89   21.96
   0  -2  -4   17.54    2.44
   0  -2  -4   20.39    2.23
   0  -2  -4   19.79    2.04
   0   2   4   17.29    2.32
  -1  -2  -4  203.90    8.87
  -1  -2  -4  202.00    9.03
   1   2   4  200.12    8.77
  -2  -2  -4  708.34   27.72
  -2  -2  -4  739.97   28.22
  -2  -2  -4  702.89   27.62
   2   2   4  711.15   27.63
   2   2   4  702.04   28.07
  -3  -2  -4 3259.59  118.04
  -3  -2  -4 3112.42  116.25
  -3  -2  -4 3007.38  115.24
  -3  -2  -4 3103.62  115.19
  -3  -2  -4 3052.93  114.91
   3   2   4 3097.13  116.38
  -4  -2  -4 1195.38   44.92
  -4  -2  -4 1170.42   47.16
  -4  -2  -4 1183.01   45.89
  -4  -2  -4 1175.72   45.73
   4   2   4 1205.30   47.41
  -5  -2  -4  747.89   30.96
  -5  -2  -4  750.73   32.78
   5   2   4  803.97   33.24
  -6  -2  -4  198.03   10.85
   6   2   4  190.09   13.11
  -7  -2  -4  199.77   11.32
   7   2   4  172.80   13.84
  -8  -2  -4  105.53   10.38
  -9  -2  -4  124.24   12.40
   7  -3  -4  261.20   18.92
   7  -3  -4  295.33   18.22
  -7   3   4  277.65   15.40
   6  -3  -4  698.94   31.36
  -6   3   4  692.46   29.46
   5  -3  -4  257.50   14.69
   5  -3  -4  283.65   15.46
  -5   3   4  268.92   13.34
   4  -3  -4   25.62    4.17
   4  -3  -4   38.52    8.19
   4  -3  -4   39.88    6.13
  -4   3   4   33.98    5.23
  -4   3   4   35.84    4.75
   3  -3  -4   36.55    4.62
   3  -3  -4   38.20    3.61
   3  -3  -4   45.34    4.85
   3  -3  -4   35.61    3.76
  -3   3   4   37.11    4.15
  -3   3   4   42.20    4.29
  -3   3   4   38.05    4.84
   2  -3  -4  192.13    8.94
   2  -3  -4  176.08    8.74
   2  -3  -4  175.47    8.16
   2  -3  -4  161.46    8.40
  -2   3   4  173.63    8.76
  -2   3   4  173.86    8.57
  -2   3   4  174.71    8.07
   1  -3  -4  695.49   26.91
   1  -3  -4  669.29   26.64
   1  -3  -4  697.32   26.76
   1  -3  -4  663.14   26.61
  -1   3   4  654.43   26.68
  -1   3   4  706.16   26.80
   0  -3  -4  165.50    7.83
   0  -3  -4  172.13    7.90
   0   3   4  168.33    7.83
  -1  -3  -4   69.15    4.12
  -1  -3  -4   66.03    4.19
   1   3   4   63.81    4.03
  -2  -3  -4   27.38    2.94
  -2  -3  -4   31.92    2.84
  -2  -3  -4   33.55    3.17
   2   3   4   30.69    3.15
   2   3   4   27.44    2.86
  -3  -3  -4  841.87   32.87
  -3  -3  -4  849.82   33.06
  -3  -3  -4  840.50   33.46
  -3  -3  -4  849.61   32.62
   3   3   4  839.30   33.68
  -4  -3  -4 1961.51   74.75
  -4  -3  -4 1918.65   75.61
  -4  -3  -4 1982.22   74.93
  -4  -3  -4 2026.39   74.02
   4   3   4 1998.83   76.20
  -5  -3  -4  308.91   14.91
  -5  -3  -4  308.92   14.83
  -5  -3  -4  323.95   16.20
   5   3   4  327.21   16.55
  -6  -3  -4   59.25    6.46
   6   3   4   60.93    8.19
  -7  -3  -4   57.91    7.26
   7   3   4   42.21    9.72
  -8  -3  -4  199.04   12.80
   8   3   4  176.51   15.62
  -9  -3  -4   -5.82    5.99
   9   3   4    0.48    8.71
   7  -4  -4   18.23    7.95
   7  -4  -4    8.28    7.95
  -7   4   4   -3.24    5.72
   6  -4  -4  589.90   30.75
   6  -4  -4  625.12   29.09
  -6   4   4  652.45   27.51
   5  -4  -4  169.96   11.69
   5  -4  -4  174.40   12.20
  -5   4   4  162.78   10.35
   4  -4  -4  478.37   21.11
   4  -4  -4  471.18   21.18
  -4   4   4  425.90   20.36
  -4   4   4  464.07   20.07
   3  -4  -4   89.78    5.13
   3  -4  -4   76.17    5.41
   3  -4  -4   86.19    6.50
   3  -4  -4   80.96    6.28
   3  -4  -4   81.78    6.56
  -3   4   4   75.04    6.09
  -3   4   4   88.53    6.69
  -3   4   4   77.21    6.10
   2  -4  -4 2615.05   97.84
   2  -4  -4 2683.41   98.40
   2  -4  -4 2582.02   98.01
   2  -4  -4 2654.28   97.49
  -2   4   4 2570.80   98.15
  -2   4   4 2619.49   98.06
   1  -4  -4 1959.10   74.23
   1  -4  -4 1963.58   74.09
   1  -4  -4 2059.00   74.38
  -1   4   4 1932.58   74.27
  -1   4   4 1981.74   74.23
   0  -4  -4  451.57   18.16
   0  -4  -4  430.05   18.06
   0   4   4  434.78   18.14
   0   4   4  462.86   18.45
  -1  -4  -4 2653.57   97.70
  -1  -4  -4 2645.00   97.64
   1   4   4 2589.85   97.61
   1   4   4 2611.03   97.87
  -2  -4  -4 2042.59   77.09
  -2  -4  -4 2090.79   77.21
   2   4   4 2043.66   77.31
   2   4   4 2065.41   77.29
  -3  -4  -4  310.81   14.21
  -3  -4  -4  308.64   14.04
  -3  -4  -4  335.65   13.98
   3   4   4  326.69   14.08
   3   4   4  339.32   14.66
  -4  -4  -4   52.28    5.09
  -4  -4  -4   51.34    4.46
  -4  -4  -4   54.38    4.84
  -4  -4  -4   46.38    5.38
   4   4   4   57.22    5.72
   4   4   4   56.94    4.93
  -5  -4  -4  172.80    9.69
  -5  -4  -4  152.73   10.33
  -5  -4  -4  174.55    8.75
  -5  -4  -4  170.76    9.74
   5   4   4  176.75   11.08
   5   4   4  169.86    8.88
  -6  -4  -4   36.13    7.66
   6   4   4   39.60    7.83
  -7  -4  -4   48.54    7.51
   7   4   4   38.96    9.67
  -8  -4  -4   44.95    8.77
   8   4   4   40.76   11.99
  -9  -4  -4    4.69    6.31
   9   4   4    8.61    8.48
   7  -5  -4    5.37    8.44
   7  -5  -4   -5.53    8.69
  -7   5   4   -3.28    6.51
   6  -5  -4   10.66    6.81
   6  -5  -4    1.15    6.30
  -6   5   4   13.20    5.18
   5  -5  -4   98.51   10.39
   5  -5  -4  108.74   10.55
  -5   5   4  112.24    9.15
   4  -5  -4  191.84   11.83
  -4   5   4  206.35   11.22
  -4   5   4  188.79   11.53
   3  -5  -4  216.46   11.61
   3  -5  -4  244.50   12.28
   3  -5  -4  233.99   11.02
   3  -5  -4  232.89   10.56
  -3   5   4  231.39   11.59
  -3   5   4  224.71   11.55
  -3   5   4  216.47   11.75
   2  -5  -4  629.90   25.42
   2  -5  -4  616.52   25.21
   2  -5  -4  630.88   24.53
  -2   5   4  593.43   25.14
  -2   5   4  590.68   24.91
   1  -5  -4 1077.49   40.60
   1  -5  -4 1007.39   40.41
   1  -5  -4 1085.65   40.47
  -1   5   4 1017.91   40.48
  -1   5   4 1030.61   40.39
  -1   5   4 1060.05   40.69
   0  -5  -4  499.63   20.71
   0  -5  -4  524.70   20.93
   0   5   4  503.63   20.82
   0   5   4  521.57   21.22
  -1  -5  -4  263.26   11.89
  -1  -5  -4  270.90   11.98
   1   5   4  274.12   12.26
   1   5   4  262.59   11.84
  -2  -5  -4   55.19    4.08
  -2  -5  -4   53.74    4.38
   2   5   4   51.85    4.38
   2   5   4   48.64    4.10
  -3  -5  -4  415.03   17.44
  -3  -5  -4  422.07   17.53
  -3  -5  -4  392.64   17.43
   3   5   4  407.47   17.66
   3   5   4  435.57   18.03
  -4  -5  -4  307.87   13.79
  -4  -5  -4  294.60   13.97
  -4  -5  -4  307.47   14.27
  -4  -5  -4  304.38   14.54
   4   5   4  320.60   15.21
   4   5   4  319.73   14.06
  -5  -5  -4  215.42   10.30
  -5  -5  -4  196.85   11.03
  -5  -5  -4  190.47   11.82
   5   5   4  204.23   10.50
   5   5   4  220.10   12.33
  -6  -5  -4   54.78    7.07
  -6  -5  -4   57.54    5.84
   6   5   4   74.30    6.64
   6   5   4   54.83    8.40
  -7  -5  -4  444.43   20.96
   7   5   4  428.67   23.21
  -8  -5  -4 1077.24   41.77
   8   5   4  879.16   44.17
  -9  -5  -4  652.28   33.15
   9   5   4  527.09   31.21
   6  -6  -4   23.60    7.86
  -6   6   4   33.01    6.24
   5  -6  -4  183.83   13.41
  -5   6   4  196.56   13.15
  -5   6   4  207.07   12.41
   4  -6  -4  842.92   35.40
  -4   6   4  769.79   34.58
  -4   6   4  847.58   34.60
  -4   6   4  874.26   34.41
   3  -6  -4   18.10    3.86
   3  -6  -4   17.08    4.19
  -3   6   4   12.99    3.45
  -3   6   4   18.67    3.31
  -3   6   4   26.97    5.47
   2  -6  -4 1585.80   60.32
   2  -6  -4 1607.34   60.67
   2  -6  -4 1620.10   59.75
  -2   6   4 1561.29   60.13
  -2   6   4 1555.05   60.11
  -2   6   4 1490.45   60.21
   1  -6  -4 1434.84   53.23
  -1   6   4 1366.89   53.29
  -1   6   4 1367.09   53.51
   0  -6  -4  691.62   28.03
   0  -6  -4  726.68   28.23
   0   6   4  690.72   28.48
   0   6   4  707.63   28.13
  -1  -6  -4   25.89    3.55
  -1  -6  -4   27.48    3.80
   1   6   4   26.52    3.90
   1   6   4   27.51    3.52
  -2  -6  -4  681.63   27.79
  -2  -6  -4  737.51   28.08
   2   6   4  658.93   28.17
   2   6   4  708.44   28.05
  -3  -6  -4  242.08   11.42
  -3  -6  -4  244.95   11.52
  -3  -6  -4  234.39   11.17
   3   6   4  229.55   11.71
   3   6   4  264.88   12.01
  -4  -6  -4   23.75    4.39
  -4  -6  -4   28.51    5.27
  -4  -6  -4   20.58    4.91
  -4  -6  -4   34.02    4.64
   4   6   4   22.86    5.04
   4   6   4   32.78    5.59
  -5  -6  -4  207.80   10.26
  -5  -6  -4  180.09   11.49
  -5  -6  -4  196.76   11.04
   5   6   4  176.69   10.61
   5   6   4  211.15   12.38
  -6  -6  -4 1167.15   45.85
  -6  -6  -4 1160.54   44.17
   6   6   4 1119.70   47.42
   6   6   4 1060.09   44.38
  -7  -6  -4   91.34    7.97
  -7  -6  -4  105.83    9.17
   7   6   4   98.04   11.73
  -8  -6  -4   -4.13    5.37
   8   6   4    5.17    7.38
  -6   7   4   19.28    7.06
  -6   7   4   10.79    6.86
   5  -7  -4  141.10   13.09
  -5   7   4  151.91   11.71
  -5   7   4  137.93   11.81
   4  -7  -4  473.52   22.63
  -4   7   4  476.26   21.30
  -4   7   4  447.66   21.86
  -4   7   4  460.79   21.23
   3  -7  -4    2.15    2.46
   3  -7  -4   10.69    4.22
  -3   7   4    3.40    3.46
  -3   7   4    6.92    3.52
  -3   7   4    5.62    3.85
   2  -7  -4  135.74    8.09
   2  -7  -4  137.49    8.88
  -2   7   4  137.43    8.47
  -2   7   4  122.44    8.44
   1  -7  -4  261.79   12.12
  -1   7   4  240.93   12.50
  -1   7   4  258.69   12.28
   0  -7  -4  500.90   20.38
   0  -7  -4  471.86   20.13
   0   7   4  472.76   20.14
   0   7   4  464.06   20.63
  -1  -7  -4   22.00    4.34
  -1  -7  -4   14.13    2.62
   1   7   4   14.13    2.70
  -2  -7  -4   28.95    4.51
  -2  -7  -4   28.50    4.21
   2   7   4   30.42    4.30
   2   7   4   22.65    4.88
  -3  -7  -4  959.46   39.21
  -3  -7  -4 1043.12   39.62
  -3  -7  -4 1022.69   38.98
   3   7   4  936.62   39.75
   3   7   4 1045.58   39.87
  -4  -7  -4   -0.82    3.75
  -4  -7  -4   -1.15    2.88
  -4  -7  -4    1.91    2.83
  -4  -7  -4    5.53    2.58
   4   7   4    3.79    3.30
   4   7   4    6.34    2.69
  -5  -7  -4   27.61    7.15
  -5  -7  -4   49.23    6.31
  -5  -7  -4   33.74    5.75
   5   7   4   40.71    6.92
  -6  -7  -4  580.86   24.41
  -6  -7  -4  593.80   25.97
   6   7   4  551.58   29.75
  -7  -7  -4  250.56   13.48
  -7  -7  -4  265.74   14.84
   7   7   4  241.48   17.25
  -8  -7  -4    1.83    6.01
   8   7   4    0.85    7.88
   5  -8  -4   35.64    8.01
   4  -8  -4  462.26   23.72
  -4   8   4  492.89   22.03
  -4   8   4  486.11   22.23
   3  -8  -4  480.66   19.70
   3  -8  -4  474.45   21.84
  -3   8   4  459.72   21.24
  -3   8   4  453.15   20.04
  -3   8   4  396.78   20.79
   2  -8  -4   48.50    6.93
   2  -8  -4   56.43    5.74
  -2   8   4   41.58    6.46
  -2   8   4   35.39    7.20
   1  -8  -4  166.48    9.06
  -1   8   4  147.92   10.00
   0  -8  -4  181.24    9.66
   0  -8  -4  170.72    9.54
   0   8   4  154.54    9.75
   0   8   4  182.67    9.65
  -1  -8  -4    8.78    2.54
  -1  -8  -4    7.20    2.87
  -2  -8  -4  813.43   32.61
  -2  -8  -4  774.31   32.18
   2   8   4  795.32   34.59
   2   8   4  830.52   32.62
  -3  -8  -4 1512.45   62.92
  -3  -8  -4 1651.27   62.80
  -3  -8  -4 1708.40   63.56
   3   8   4 1719.73   63.70
  -4  -8  -4 1296.03   49.53
  -4  -8  -4 1178.54   49.05
  -4  -8  -4 1276.93   49.79
   4   8   4 1286.22   50.43
  -5  -8  -4    9.99    3.83
  -5  -8  -4    1.53    4.25
  -5  -8  -4    0.89    3.28
   5   8   4    8.80    4.48
  -6  -8  -4   29.55    4.99
   6   8   4   21.24    7.27
  -7  -8  -4   76.25    9.88
  -7  -8  -4   53.31    8.34
   7   8   4   56.69   12.84
  -8  -8  -4   12.29    6.14
  -8  -8  -4   16.32    6.86
   5  -9  -4   -8.68    8.08
   4  -9  -4    1.40    6.79
  -4   9   4   -1.01    5.00
   3  -9  -4    3.48    3.31
   3  -9  -4    8.17    5.40
  -3   9   4    3.72    4.83
   2  -9  -4   51.68    6.45
   2  -9  -4   49.15    8.01
   1  -9  -4  139.96    9.06
   0  -9  -4  805.21   32.90
   0   9   4  801.19   32.61
  -1  -9  -4   45.88    6.03
   1   9   4   50.22    6.23
  -2  -9  -4   41.59    5.98
  -2  -9  -4   32.93    5.76
   2   9   4   42.26    6.00
   2   9   4   35.74    5.50
  -3  -9  -4   84.71    7.96
   3   9   4   81.99    7.37
  -4  -9  -4  582.03   26.53
  -4  -9  -4  647.69   27.07
   4   9   4  660.91   27.78
  -5  -9  -4  155.98    9.84
  -5  -9  -4  150.69   10.48
   5   9   4  141.25   11.69
  -6  -9  -4   97.22   10.04
  -6  -9  -4   73.60    8.97
   6   9   4  116.53   11.94
  -7  -9  -4  150.15   12.68
  -7  -9  -4  119.28   11.40
   7   9   4  173.21   14.75
  -8  -9  -4  281.48   17.48
  -8  -9  -4  291.65   17.64
   8   9   4  245.76   21.30
   4 -10  -4   38.75    8.23
   3 -10  -4  211.61   15.17
   3 -10  -4  236.61   12.71
   2 -10  -4  381.92   17.89
   1 -10  -4  467.23   21.05
   0 -10  -4  715.44   30.08
  -1 -10  -4 1208.52   48.17
  -2 -10  -4  156.63   10.26
  -2 -10  -4  126.11    9.46
   2  10   4  135.70    9.27
  -3 -10  -4  183.87   11.88
  -3 -10  -4  192.02   11.14
   3  10   4  171.35   11.17
  -4 -10  -4   92.93    8.93
  -4 -10  -4   93.93   10.38
  -4 -10  -4   78.92    8.05
   4  10   4  102.86    9.51
  -5 -10  -4   11.12    5.07
  -5 -10  -4    8.78    4.26
   5  10   4   17.85    5.95
  -6 -10  -4   35.48    6.32
  -6 -10  -4   30.36    5.78
   6  10   4   50.04   11.40
  -7 -10  -4    6.31    5.66
  -7 -10  -4   12.44    6.66
   7  10   4   24.71    8.69
   3 -11  -4   41.65    9.18
   2 -11  -4  309.86   16.20
   1 -11  -4  110.22    9.66
   0 -11  -4   -0.52    3.79
  -1 -11  -4   16.67    4.05
  -2 -11  -4  152.74   10.04
  -2 -11  -4  139.65   16.44
   2  11   4  125.82   10.19
  -3 -11  -4  207.21   14.61
  -3 -11  -4  211.93   12.38
   3  11   4  201.77   12.93
  -5 -11  -4  164.12   12.03
  -5 -11  -4  145.17   11.33
   5  11   4  131.84   12.87
  -6 -11  -4   -1.17    6.37
  -6 -11  -4    2.43    5.31
   6  11   4    5.12    7.52
  -7 -11  -4   81.20   14.07
  -7 -11  -4   77.34   12.73
   2 -12  -4  246.46   15.08
   1 -12  -4  167.09   11.95
   0 -12  -4    3.95    4.83
  -1 -12  -4    5.28    4.64
  -2 -12  -4  174.67   12.47
   2  12   4  180.69   13.08
  -3 -12  -4  284.82   15.62
   3  12   4  262.74   15.98
  -4 -12  -4  358.51   19.69
   4  12   4  447.58   28.35
  -5 -12  -4  736.52   31.70
   5  12   4  680.34   32.81
  -6 -12  -4   73.85   13.45
  -6 -12  -4   71.77   12.54
   6  12   4   83.17   15.60
   0 -13  -4   16.14    5.75
  -1 -13  -4    9.82    5.37
  -3 -13  -4   47.46    6.32
   4  13   4   17.64    9.10
  -4 -10   5   -8.95    8.93
   3  10  -5   93.74   12.59
  -3 -10   5   94.16   11.43
   2  10  -5  146.96   13.54
  -2 -10   5  128.06   12.06
   1  10  -5  185.53   14.80
  -1 -10   5  203.82   13.76
   0  10  -5  111.28   12.13
   0  10  -5   83.19   10.74
   0 -10   5   98.56   10.39
  -1  10  -5   39.38   10.25
  -1  10  -5   28.19    6.57
   1 -10   5   22.51    5.10
   5   9  -5  220.83   18.11
  -5  -9   5  252.52   15.81
   4   9  -5  306.34   19.61
  -4  -9   5  296.52   17.82
   3   9  -5  137.18   12.27
  -3  -9   5  124.53   11.32
   2   9  -5  294.49   17.93
  -2  -9   5  291.51   16.42
   1   9  -5  454.33   23.46
  -1  -9   5  468.77   22.55
   0   9  -5  154.24   10.82
   0   9  -5  139.25   12.15
   0  -9   5  135.58   10.79
  -1   9  -5   37.69    9.82
  -1   9  -5   49.66    8.86
  -2   9  -5  173.34   14.29
   2  -9   5  176.51   12.18
  -3   9  -5  311.84   19.43
   3  -9   5  321.53   16.71
   6   8  -5   14.34    8.50
  -6  -8   5   28.26    6.73
   5   8  -5  118.42   14.38
  -5  -8   5  133.26   11.94
   4   8  -5  334.86   19.56
  -4  -8   5  330.24   17.94
   3   8  -5   30.17    8.50
  -3  -8   5   24.92    4.90
   2   8  -5   80.23    9.69
  -2  -8   5   74.19    8.20
   1   8  -5   41.87    7.23
   1   8  -5   62.97    8.35
  -1  -8   5   60.46    7.43
   0   8  -5   87.71    9.65
   0   8  -5   79.70    8.26
   0  -8   5   85.67    8.14
  -1   8  -5   -0.69    4.03
  -1   8  -5   -5.25    3.93
  -2   8  -5   59.80    9.07
   2  -8   5   51.80    7.39
  -3   8  -5  245.81   15.72
   3  -8   5  214.06   15.49
   3  -8   5  246.23   13.25
   4  -8   5   -5.22    4.33
   6   7  -5  122.51   16.14
  -6  -7   5  177.67   13.50
   5   7  -5   18.31    6.77
  -5  -7   5    9.82    5.16
   4   7  -5   11.41    5.35
  -4  -7   5   13.43    4.05
   3   7  -5  420.09   21.07
  -3  -7   5  422.00   20.10
   2   7  -5   -3.80    3.54
  -2  -7   5   -1.06    3.19
   1   7  -5  240.53   13.55
   1   7  -5  221.84   12.43
  -1  -7   5  231.72   12.87
   0   7  -5   62.97    8.12
   0   7  -5   69.47    8.17
   0  -7   5   70.01    6.76
  -1   7  -5 1216.47   50.11
  -1   7  -5 1219.03   48.99
   1  -7   5 1189.23   48.36
  -2   7  -5  121.19   10.47
   2  -7   5  123.86    8.76
  -3   7  -5 1122.97   47.83
   3  -7   5 1146.27   47.09
   3  -7   5 1109.68   45.45
  -4   7  -5  129.05   11.64
   4  -7   5  108.34   11.41
  -5   7  -5   -5.39    5.49
   5  -7   5   10.57    6.35
   7   6  -5  319.95   23.83
  -7  -6   5  439.92   20.77
   6   6  -5  312.38   21.22
  -6  -6   5  387.21   18.64
   5   6  -5  171.24   14.32
  -5  -6   5  174.04   11.48
   4   6  -5   44.20    8.72
  -4  -6   5   55.99    7.44
   3   6  -5   51.85    7.20
  -3  -6   5   55.71    6.45
   1   6  -5    4.43    3.15
   1   6  -5    5.26    3.33
   0   6  -5  184.28   10.32
   0   6  -5  172.32   14.82
   0  -6   5  181.95   10.49
  -1   6  -5  334.68   17.79
   1  -6   5  331.30   15.91
  -2   6  -5   -2.42    2.94
   2  -6   5    3.35    2.53
   2  -6   5    0.33    3.47
  -3   6  -5    5.28    3.37
   3  -6   5    2.12    2.66
   3  -6   5   -3.13    3.55
  -4   6  -5   38.23    8.39
   4  -6   5   44.16    6.16
  -5   6  -5  100.77   11.66
   5  -6   5  113.28   11.26
  -7  -5   5  260.49   15.52
   5   5  -5    2.29    4.93
  -5  -5   5    0.73    3.99
   4   5  -5   15.56    4.35
   3   5  -5  454.18   20.98
  -3  -5   5  441.62   19.76
  -3  -5   5  404.96   19.60
   2   5  -5 3115.61  115.13
   2   5  -5 2969.36  113.45
   2   5  -5 2931.79  113.03
  -2  -5   5 3061.74  113.99
   1   5  -5 1226.72   49.41
   1   5  -5 1267.31   48.29
   1   5  -5 1197.61   48.12
  -1  -5   5 1232.79   48.55
   0   5  -5  664.66   27.68
   0   5  -5  603.15   26.19
   0   5  -5  652.98   26.66
   0   5  -5  598.69   26.32
   0  -5   5  634.92   26.59
  -1   5  -5   50.03    6.20
  -1   5  -5   50.33    5.47
   1  -5   5   45.27    5.12
  -2   5  -5  201.20   12.71
  -2   5  -5  194.25   10.71
   2  -5   5  214.80   10.67
   2  -5   5  203.04   11.49
  -3   5  -5   -2.00    3.11
  -3   5  -5    3.85    2.61
   3  -5   5    1.72    2.27
   3  -5   5   -0.71    3.01
  -4   5  -5  258.22   13.33
  -4   5  -5  291.48   16.54
   4  -5   5  288.14   13.48
   4  -5   5  271.40   15.30
  -5   5  -5  106.88   11.06
   5  -5   5  113.42   10.20
  -6   5  -5    3.72    5.25
   6  -5   5    1.59    5.71
   7   4  -5    1.17    7.22
  -7  -4   5    8.41    4.61
   6   4  -5  391.99   18.39
   6   4  -5  315.77   20.53
  -6  -4   5  367.67   17.31
   5   4  -5  474.06   24.91
   5   4  -5  531.59   22.95
  -5  -4   5  533.08   22.67
   4   4  -5   41.38    7.20
  -4  -4   5   47.36    5.70
  -4  -4   5   52.51    7.38
   3   4  -5  252.41   12.88
   3   4  -5  277.57   14.35
   3   4  -5  282.31   13.03
  -3  -4   5  275.30   13.42
  -3  -4   5  257.19   13.29
   2   4  -5  735.54   31.23
   2   4  -5  821.02   32.71
   2   4  -5  779.47   31.15
  -2  -4   5  810.84   31.87
  -2  -4   5  736.67   32.49
   1   4  -5    1.29    2.02
   1   4  -5    1.78    1.93
   1   4  -5    5.87    2.45
  -1  -4   5    3.47    2.73
  -1  -4   5    1.01    1.93
   0   4  -5  335.65   15.84
   0   4  -5  321.96   14.84
   0   4  -5  317.20   14.89
   0   4  -5  319.56   14.85
   0  -4   5  329.43   15.00
   0  -4   5  321.75   16.26
  -1   4  -5   22.90    4.10
  -1   4  -5   21.33    4.48
  -1   4  -5   20.37    4.34
   1  -4   5   28.24    3.73
   1  -4   5   21.80    6.11
  -2   4  -5    2.92    2.10
  -2   4  -5   -0.25    2.29
  -2   4  -5    5.52    3.08
   2  -4   5   -0.81    1.78
   2  -4   5    0.69    2.46
  -3   4  -5  285.74   15.61
  -3   4  -5  268.04   13.22
   3  -4   5  303.68   14.79
   3  -4   5  304.17   13.61
  -4   4  -5   44.34    6.70
  -4   4  -5   46.08    5.30
   4  -4   5   38.31    4.80
   4  -4   5   53.86    6.56
  -5   4  -5  610.42   28.86
   5  -4   5  587.74   27.17
  -6   4  -5  145.64   13.90
   6  -4   5  156.62   12.77
  -7   4  -5   -3.28   11.68
   7  -4   5   -3.57    7.78
   8   3  -5   19.84    9.97
  -8  -3   5   16.56    6.18
   7   3  -5   19.06    6.43
   7   3  -5   13.69    7.63
  -7  -3   5   18.40    4.88
   6   3  -5  375.18   17.03
   6   3  -5  398.20   18.61
   6   3  -5  321.66   20.47
  -6  -3   5  380.43   17.38
  -6  -3   5  370.30   17.44
   5   3  -5  280.32   14.03
   5   3  -5  308.94   18.10
   5   3  -5  303.48   14.85
  -5  -3   5  299.65   14.47
   4   3  -5  283.17   13.51
   4   3  -5  296.06   14.07
   4   3  -5  291.56   15.63
  -4  -3   5  292.88   13.81
  -4  -3   5  280.91   14.03
   3   3  -5   23.79    4.45
   3   3  -5   23.87    5.09
  -3  -3   5   26.49    5.74
  -3  -3   5   29.11    4.34
  -3  -3   5   26.19    5.35
   2   3  -5  562.50   23.11
   2   3  -5  578.61   24.18
   2   3  -5  544.01   23.20
  -2  -3   5  558.71   23.38
  -2  -3   5  561.22   23.49
  -2  -3   5  571.36   24.40
   1   3  -5  205.70   10.67
   1   3  -5  203.16   10.07
   1   3  -5  203.43   10.01
  -1  -3   5  197.44   11.01
  -1  -3   5  207.29   10.13
   0   3  -5   92.85    6.29
   0   3  -5  101.36    6.07
   0   3  -5   94.22    6.16
   0   3  -5  101.00    6.85
   0  -3   5   97.42    6.13
   0  -3   5   96.65    7.21
  -1   3  -5  173.08    9.63
  -1   3  -5  171.63    8.74
  -1   3  -5  155.68    8.97
  -1   3  -5  175.13    9.22
   1  -3   5  165.64   10.31
   1  -3   5  162.91    8.71
  -2   3  -5 2621.79  100.46
  -2   3  -5 2600.84   99.65
  -2   3  -5 2609.45   98.46
   2  -3   5 2698.31   99.00
   2  -3   5 2634.77   99.43
  -3   3  -5 1737.65   67.62
  -3   3  -5 1637.32   64.70
   3  -3   5 1754.69   65.41
   3  -3   5 1724.16   66.39
  -4   3  -5  726.93   29.13
   4  -3   5  748.63   29.63
  -5   3  -5  414.66   21.56
   5  -3   5  398.83   19.79
  -6   3  -5   68.85   11.01
   6  -3   5   95.34   10.28
  -7   3  -5   55.31   12.76
   7  -3   5   40.80    7.44
   8   2  -5  313.04   23.07
   8   2  -5  345.84   21.33
  -8  -2   5  337.85   18.37
   7   2  -5  709.05   30.90
  -7  -2   5  659.44   29.55
   6   2  -5  134.21   10.38
   6   2  -5  130.46    9.06
   6   2  -5  137.93   12.65
  -6  -2   5  136.12    9.10
  -6  -2   5  130.48    9.25
   5   2  -5 1097.11   46.35
   5   2  -5 1061.96   43.08
   5   2  -5 1139.71   44.46
  -5  -2   5 1107.31   43.53
  -5  -2   5 1121.16   43.63
   4   2  -5   59.92    7.00
   4   2  -5   48.18    5.67
   4   2  -5   47.92    5.19
  -4  -2   5   53.67    5.33
  -4  -2   5   64.16    6.42
   3   2  -5   81.37    5.50
   3   2  -5   73.81    6.32
   3   2  -5   63.04    5.35
  -3  -2   5   66.36    6.33
  -3  -2   5   84.79    6.14
  -3  -2   5   73.25    5.35
   2   2  -5  238.43   11.21
   2   2  -5  241.33   11.65
   2   2  -5  236.70   11.03
  -2  -2   5  228.19   11.77
  -2  -2   5  227.95   11.27
  -2  -2   5  240.24   11.29
   1   2  -5  857.90   33.47
   1   2  -5  855.25   33.92
   1   2  -5  829.09   33.26
  -1  -2   5  859.53   33.73
  -1  -2   5  821.38   33.43
  -1  -2   5  868.39   34.33
   0   2  -5   31.25    3.37
   0   2  -5   37.42    4.01
   0   2  -5   35.63    3.72
   0   2  -5   29.72    3.62
   0  -2   5   26.67    3.28
   0  -2   5   30.69    4.37
  -1   2  -5   27.96    3.72
  -1   2  -5   30.43    3.76
  -1   2  -5   30.08    3.69
  -1   2  -5   25.29    3.43
   1  -2   5   31.60    3.42
   1  -2   5   35.50    4.66
  -2   2  -5  412.67   18.60
  -2   2  -5  430.63   19.36
  -2   2  -5  429.94   17.86
   2  -2   5  425.94   18.39
   2  -2   5  429.20   18.07
  -3   2  -5  691.65   26.76
  -3   2  -5  625.53   27.81
  -3   2  -5  692.40   29.13
  -3   2  -5  654.11   29.29
   3  -2   5  675.73   27.86
   3  -2   5  681.47   27.02
  -4   2  -5  178.98   11.86
  -4   2  -5  173.06    8.68
   4  -2   5  186.06   10.29
  -5   2  -5   42.08    7.76
   5  -2   5   41.77    6.54
   6  -2   5   17.71    4.79
  -7   2  -5   11.55    6.62
   8   1  -5    0.77    9.13
   8   1  -5   -6.93    8.58
  -8  -1   5    8.87    6.20
   7   1  -5  144.99   12.70
   7   1  -5  127.09   14.83
  -7  -1   5  131.66   10.78
   6   1  -5   84.87    9.13
   6   1  -5   94.52   11.12
  -6  -1   5   74.53    7.83
   5   1  -5  505.84   22.37
   5   1  -5  480.70   20.68
   5   1  -5  517.01   24.13
  -5  -1   5  486.97   20.96
  -5  -1   5  491.36   21.45
   4   1  -5    7.48    3.42
   4   1  -5   13.51    3.33
   4   1  -5    9.67    2.46
   4   1  -5   14.41    3.05
  -4  -1   5    6.77    3.03
  -4  -1   5   18.52    4.01
  -4  -1   5   11.72    2.61
   3   1  -5    5.30    2.52
   3   1  -5    8.56    2.10
   3   1  -5    9.91    2.29
  -3  -1   5    6.23    2.10
   2   1  -5    1.62    1.69
   2   1  -5    3.02    1.86
   2   1  -5   -0.96    1.67
  -2  -1   5    1.80    1.61
  -2  -1   5    3.62    1.84
   1   1  -5 1631.41   61.13
   1   1  -5 1652.33   61.37
   1   1  -5 1547.83   60.87
  -1  -1   5 1595.76   61.06
  -1  -1   5 1605.62   61.64
  -1  -1   5 1633.56   61.36
   0   1  -5  922.85   35.95
   0   1  -5  902.21   35.88
   0   1  -5  919.29   36.33
   0  -1   5  929.41   36.65
   0  -1   5  947.68   36.24
  -1   1  -5  142.49    7.54
  -1   1  -5  142.17    7.82
  -1   1  -5  146.73    7.65
  -1   1  -5  142.31    7.49
   1  -1   5  139.04    8.18
   1  -1   5  144.56    7.52
  -2   1  -5  831.58   34.58
  -2   1  -5  887.16   35.82
  -2   1  -5  881.92   34.15
  -2   1  -5  901.12   35.58
   2  -1   5  883.35   34.43
  -3   1  -5 2164.28   85.82
  -3   1  -5 2125.59   84.42
  -3   1  -5 2286.14   85.78
  -3   1  -5 2261.92   83.38
   3  -1   5 2231.81   84.35
   3  -1   5 2298.29   83.73
  -4   1  -5  382.08   19.80
  -4   1  -5  417.43   19.72
  -4   1  -5  407.19   16.59
  -4   1  -5  383.32   18.39
   4  -1   5  396.22   17.88
  -5   1  -5    2.50    5.19
   5  -1   5    2.01    2.98
  -6   1  -5  327.16   19.05
   6  -1   5  311.54   16.74
   7  -1   5   42.28    9.88
   8  -1   5   27.68    7.48
   8   0  -5   85.85   15.91
   8   0  -5   72.98   16.44
  -8   0   5  101.27   15.00
   7   0  -5  194.20   17.36
   7   0  -5  273.14   16.52
  -7   0   5  243.84   14.23
   6   0  -5   38.20    8.06
  -6   0   5   33.89    4.93
   5   0  -5  408.13   19.54
   5   0  -5  431.55   20.94
  -5   0   5  399.94   19.82
   4   0  -5  472.15   20.35
   4   0  -5  437.43   19.01
   4   0  -5  429.63   17.82
   4   0  -5  399.10   18.71
  -4   0   5  381.00   18.62
  -4   0   5  427.13   18.28
  -4   0   5  444.30   18.26
  -4   0   5  402.67   18.58
   3   0  -5  567.60   24.12
   3   0  -5  643.76   25.33
   3   0  -5  624.88   24.80
   3   0  -5  593.40   24.01
  -3   0   5  566.09   24.33
  -3   0   5  573.81   23.82
  -3   0   5  596.02   24.15
  -3   0   5  591.31   24.44
   2   0  -5  695.78   27.44
   2   0  -5  731.41   27.82
   2   0  -5  714.39   27.70
   2   0  -5  652.99   26.94
  -2   0   5  699.99   27.62
  -2   0   5  695.90   27.66
  -2   0   5  641.95   27.31
   1   0  -5   64.99    4.08
   1   0  -5   58.23    4.32
   1   0  -5   52.31    4.08
  -1   0   5   56.27    5.10
  -1   0   5   61.01    4.43
  -1   0   5   58.10    4.31
   0   0  -5 1681.93   63.00
   0   0  -5 1648.87   63.08
   0   0  -5 1653.43   63.04
   0   0   5 1694.61   63.33
   0   0   5 1677.51   63.07
  -1   0  -5  250.57   11.68
  -1   0  -5  251.64   11.31
  -1   0  -5  263.92   11.54
  -1   0  -5  261.58   11.60
   1   0   5  252.52   11.45
   1   0   5  253.23   11.94
  -2   0  -5 1462.20   55.99
  -2   0  -5 1435.91   54.76
  -2   0  -5 1455.28   55.86
  -2   0  -5 1439.93   55.15
   2   0   5 1425.23   54.93
  -3   0  -5   21.75    5.05
  -3   0  -5   28.81    3.61
  -3   0  -5   20.58    4.01
  -3   0  -5   24.91    4.60
   3   0   5   19.46    2.89
   3   0   5   21.69    3.32
  -4   0  -5    8.08    2.16
  -4   0  -5   11.10    3.02
  -4   0  -5    7.57    3.67
  -4   0  -5   10.10    3.27
   4   0   5   15.42    3.61
   5   0   5   32.16    5.38
   7   0   5  561.66   25.94
   8   0   5   77.06   12.22
   8  -1  -5  154.82   18.55
   7  -1  -5   29.94    8.06
   7  -1  -5   23.20    7.25
   6  -1  -5   -3.80    5.53
  -6   1   5    3.52    3.95
   5  -1  -5   61.18    8.27
  -5   1   5   41.07    8.57
  -5   1   5   44.50    6.87
   4  -1  -5  242.47   12.19
   4  -1  -5  252.71   12.93
   4  -1  -5  210.80   11.72
   4  -1  -5  236.04   10.72
  -4   1   5  233.74   11.14
  -4   1   5  232.37   11.10
  -4   1   5  208.19   11.50
  -4   1   5  210.53   12.07
   3  -1  -5 1905.79   70.32
   3  -1  -5 2023.50   70.91
   3  -1  -5 1726.96   69.63
   3  -1  -5 1812.18   69.33
  -3   1   5 1816.77   70.09
  -3   1   5 1803.43   69.68
  -3   1   5 1848.78   69.68
  -3   1   5 1805.16   69.59
   2  -1  -5 1116.07   41.48
   2  -1  -5 1135.08   41.29
   2  -1  -5 1067.94   41.01
   2  -1  -5 1057.38   40.81
  -2   1   5 1014.66   41.05
  -2   1   5 1052.08   40.85
  -2   1   5  976.56   41.65
  -2   1   5 1086.47   41.26
   1  -1  -5 2094.34   77.62
   1  -1  -5 2093.39   77.52
   1  -1  -5 2049.53   76.93
   1  -1  -5 1988.78   76.90
  -1   1   5 2074.18   77.25
  -1   1   5 2109.91   77.81
  -1   1   5 2060.70   77.44
   0  -1  -5  340.88   14.47
   0  -1  -5  349.35   14.38
   0  -1  -5  359.74   15.02
   0   1   5  358.40   15.06
   0   1   5  341.04   14.53
   0   1   5  351.63   14.70
  -1  -1  -5  152.78    7.43
  -1  -1  -5  154.31    7.83
  -1  -1  -5  150.52    7.25
   1   1   5  151.05    7.59
  -2  -1  -5   32.85    4.26
  -2  -1  -5   31.70    3.78
  -2  -1  -5   30.60    3.36
  -2  -1  -5   28.38    2.95
  -2  -1  -5   29.60    3.85
   2   1   5   28.63    3.05
  -3  -1  -5  824.70   34.13
  -3  -1  -5  817.59   33.06
  -3  -1  -5  873.44   32.84
  -3  -1  -5  884.17   34.48
   3   1   5  783.64   32.68
  -4  -1  -5 1481.33   55.46
  -4  -1  -5 1477.23   55.40
  -4  -1  -5 1454.08   57.89
  -4  -1  -5 1407.54   56.31
   4   1   5 1416.12   55.95
   4   1   5 1530.45   57.98
  -5  -1  -5   65.76    7.40
   5   1   5   67.35    7.47
  -6  -1  -5  301.53   14.94
   6   1   5  309.95   17.59
   6   1   5  325.46   15.61
  -7  -1  -5 1230.24   48.33
   7   1   5 1299.84   49.12
   7   1   5 1094.03   51.27
   8   1   5  154.95   15.78
   8   1   5  200.12   14.04
   7  -2  -5  142.05   15.91
   7  -2  -5  153.38   14.92
   6  -2  -5 1158.44   46.61
   6  -2  -5 1051.58   50.54
  -6   2   5 1133.33   44.83
   5  -2  -5  859.11   35.33
   5  -2  -5  842.06   34.57
  -5   2   5  739.03   33.48
  -5   2   5  817.61   33.25
   4  -2  -5    5.21    2.04
   4  -2  -5    3.19    2.18
   4  -2  -5    5.44    3.17
  -4   2   5    1.86    2.57
  -4   2   5   -0.53    2.37
   3  -2  -5  560.90   22.98
   3  -2  -5  604.81   24.18
   3  -2  -5  537.84   23.40
   3  -2  -5  612.97   24.26
  -3   2   5  551.91   23.74
  -3   2   5  560.06   23.21
  -3   2   5  564.94   23.43
   2  -2  -5  578.38   22.09
   2  -2  -5  550.16   22.39
   2  -2  -5  530.20   22.00
   2  -2  -5  545.72   22.02
  -2   2   5  532.34   21.42
  -2   2   5  527.84   21.97
  -2   2   5  521.56   22.18
   1  -2  -5   13.71    2.97
   1  -2  -5   16.02    3.21
   1  -2  -5   16.15    2.46
  -1   2   5   13.95    2.89
   0  -2  -5  647.69   25.16
   0  -2  -5  641.27   25.64
   0  -2  -5  635.18   25.06
   0   2   5  626.92   25.19
   0   2   5  654.39   25.22
  -1  -2  -5  167.96    8.51
  -1  -2  -5  172.37    7.99
  -1  -2  -5  167.04    7.88
   1   2   5  163.96    7.78
  -2  -2  -5  190.62    9.21
  -2  -2  -5  176.12    8.72
  -2  -2  -5  176.19    9.10
  -2  -2  -5  186.53    9.26
   2   2   5  187.67    8.51
  -3  -2  -5   71.96    4.82
  -3  -2  -5   69.77    5.82
  -3  -2  -5   66.38    4.65
  -3  -2  -5   60.90    5.41
  -3  -2  -5   68.70    4.97
   3   2   5   71.11    5.49
  -4  -2  -5 1127.80   42.86
  -4  -2  -5 1107.57   44.89
  -4  -2  -5 1081.94   43.25
  -4  -2  -5 1100.05   43.46
  -4  -2  -5 1132.56   43.15
   4   2   5 1149.47   45.07
  -5  -2  -5  282.65   13.33
  -5  -2  -5  263.70   14.93
  -5  -2  -5  268.83   13.56
   5   2   5  279.57   15.01
  -6  -2  -5    7.57    3.33
  -7  -2  -5   12.01    4.18
   7   2   5   13.99    5.36
  -8  -2  -5   52.44    9.53
   8   2   5   35.89    7.64
   7  -3  -5   13.97    7.85
   7  -3  -5    4.56    7.56
   6  -3  -5  527.00   26.14
   6  -3  -5  531.26   29.97
  -6   3   5  573.95   24.65
   5  -3  -5  324.50   17.17
   5  -3  -5  363.06   18.09
  -5   3   5  335.54   16.03
  -5   3   5  296.90   16.12
   4  -3  -5  127.69    8.77
   4  -3  -5  126.38    9.17
  -4   3   5  116.82    8.01
  -4   3   5  126.81    8.05
   3  -3  -5  252.26   12.29
   3  -3  -5  255.94   12.06
   3  -3  -5  249.30   11.16
   3  -3  -5  231.39   11.86
   3  -3  -5  237.60   11.30
  -3   3   5  244.20   11.33
  -3   3   5  217.66   11.90
  -3   3   5  252.12   11.74
   2  -3  -5   85.76    5.77
   2  -3  -5   79.68    5.37
   2  -3  -5   83.90    5.76
   2  -3  -5   71.25    5.08
  -2   3   5   77.87    5.64
  -2   3   5   80.63    5.52
   1  -3  -5  252.38   11.58
   1  -3  -5  258.75   11.43
   1  -3  -5  254.28   11.26
   1  -3  -5  249.63   11.38
  -1   3   5  246.74   11.34
  -1   3   5  245.08   11.28
   0  -3  -5  214.35    9.41
   0  -3  -5  213.50    9.85
   0  -3  -5  209.44    9.67
   0  -3  -5  211.60   10.06
   0   3   5  205.76    9.64
  -1  -3  -5 2720.75  102.32
  -1  -3  -5 2839.29  102.99
  -1  -3  -5 2770.51  102.68
   1   3   5 2688.61  102.34
  -2  -3  -5 2221.66   83.27
  -2  -3  -5 2265.36   83.08
  -2  -3  -5 2176.45   83.02
  -2  -3  -5 2247.10   83.59
   2   3   5 2201.35   83.13
  -3  -3  -5 2789.42  104.36
  -3  -3  -5 2820.37  104.02
  -3  -3  -5 2773.44  103.66
  -3  -3  -5 2700.10  103.57
   3   3   5 2821.18  104.59
  -4  -3  -5 1216.57   47.56
  -4  -3  -5 1217.14   48.54
  -4  -3  -5 1249.49   47.38
  -4  -3  -5 1216.27   47.35
  -4  -3  -5 1208.01   46.80
   4   3   5 1237.62   48.81
  -5  -3  -5 1802.07   66.29
  -5  -3  -5 1687.02   67.23
  -5  -3  -5 1803.46   66.83
  -5  -3  -5 1650.95   68.64
  -5  -3  -5 1785.62   67.63
   5   3   5 1801.20   69.44
  -6  -3  -5  600.81   28.31
   6   3   5  664.60   30.19
  -7  -3  -5    0.81    3.93
   7   3   5   -1.39    5.32
  -8  -3  -5   74.91    9.61
   8   3   5   60.87   12.85
   7  -4  -5  207.08   17.31
   7  -4  -5  228.88   18.98
  -7   4   5  214.33   14.77
   6  -4  -5  196.80   16.67
   6  -4  -5  237.97   15.47
  -6   4   5  235.83   13.82
   5  -4  -5  423.08   20.91
   5  -4  -5  440.39   21.08
  -5   4   5  406.89   19.61
   4  -4  -5   78.09    7.59
   4  -4  -5   68.98    8.82
  -4   4   5   72.54    9.35
   3  -4  -5   56.68    5.38
   3  -4  -5   35.59    5.63
   3  -4  -5   57.78    4.57
   3  -4  -5   50.40    5.62
   3  -4  -5   36.03    4.77
  -3   4   5   49.13    4.88
  -3   4   5   45.28    5.41
   2  -4  -5  266.61   12.46
   2  -4  -5  285.16   12.87
   2  -4  -5  278.41   12.18
   2  -4  -5  275.02   12.71
  -2   4   5  255.07   12.49
  -2   4   5  263.17   12.61
   1  -4  -5 1013.68   39.18
   1  -4  -5 1007.31   38.83
   1  -4  -5 1038.55   38.94
   1  -4  -5  956.58   38.71
  -1   4   5  993.51   38.93
  -1   4   5  991.63   38.74
   0  -4  -5  671.02   26.36
   0  -4  -5  645.25   26.12
   0   4   5  658.00   26.27
  -1  -4  -5   65.77    4.78
  -1  -4  -5   63.43    4.44
   1   4   5   62.56    4.34
  -2  -4  -5   52.21    4.36
  -2  -4  -5   47.64    4.00
   2   4   5   49.55    3.93
   2   4   5   49.79    4.37
  -3  -4  -5   59.99    4.50
  -3  -4  -5   53.97    4.80
  -3  -4  -5   51.81    4.95
   3   4   5   63.93    4.99
  -4  -4  -5  340.33   16.05
  -4  -4  -5  316.82   15.24
  -4  -4  -5  342.99   15.53
  -4  -4  -5  349.94   14.86
   4   4   5  362.32   16.42
  -5  -4  -5    5.97    2.53
  -5  -4  -5    5.23    3.02
  -5  -4  -5    2.76    3.75
  -5  -4  -5    5.89    4.16
  -5  -4  -5    6.37    3.20
   5   4   5    7.62    3.25
  -6  -4  -5   13.06    6.32
   6   4   5   13.96    4.57
  -7  -4  -5   65.75    8.11
   7   4   5   56.50   10.26
  -8  -4  -5  104.40   10.47
   8   4   5   73.71   13.08
  -9  -4  -5  161.66   16.28
   7  -5  -5   53.64   11.17
   6  -5  -5   12.14    7.06
   6  -5  -5   15.28    6.91
  -6   5   5   16.12    5.65
   5  -5  -5   54.16    9.47
   5  -5  -5   39.88    9.31
  -5   5   5   37.81    8.00
   4  -5  -5   54.16    7.37
  -4   5   5   48.66    6.80
   3  -5  -5  314.55   14.62
   3  -5  -5  325.90   15.84
   3  -5  -5  319.95   14.07
   3  -5  -5  319.67   14.88
  -3   5   5  319.60   15.16
   2  -5  -5  357.63   15.12
   2  -5  -5  339.21   15.55
   2  -5  -5  335.35   15.45
   2  -5  -5  360.06   15.88
  -2   5   5  342.39   15.48
  -2   5   5  335.58   15.65
   1  -5  -5 1602.61   60.28
   1  -5  -5 1669.79   60.55
   1  -5  -5 1523.66   60.28
  -1   5   5 1585.89   60.53
  -1   5   5 1544.54   60.17
   0  -5  -5 1245.27   46.17
   0  -5  -5 1192.21   46.02
   0   5   5 1190.47   46.14
   0   5   5 1157.53   46.27
  -1  -5  -5   91.94    5.89
  -1  -5  -5   98.73    5.89
   1   5   5  106.76    6.46
   1   5   5   95.33    5.90
  -2  -5  -5 1737.76   67.69
  -2  -5  -5 1840.09   67.91
   2   5   5 1793.72   68.17
   2   5   5 1793.05   67.87
  -3  -5  -5  406.13   18.42
  -3  -5  -5  440.36   18.39
  -3  -5  -5  444.09   18.53
   3   5   5  443.42   18.71
   3   5   5  432.14   18.83
   3   5   5  451.74   18.71
  -4  -5  -5  153.92    9.39
  -4  -5  -5  171.90    9.15
  -4  -5  -5  173.94    9.89
  -4  -5  -5  181.64    9.60
   4   5   5  180.54    9.61
   4   5   5  189.92   10.26
  -5  -5  -5   18.30    3.84
  -5  -5  -5   16.53    4.14
  -5  -5  -5   23.80    4.83
   5   5   5   25.17    5.38
   5   5   5   28.24    6.43
  -6  -5  -5 1976.84   76.04
  -6  -5  -5 1951.13   74.10
   6   5   5 1944.37   77.85
  -7  -5  -5  126.61    9.86
   7   5   5  125.16   12.43
  -8  -5  -5  505.49   23.18
   8   5   5  423.59   25.59
   6  -6  -5    5.67    7.43
  -6   6   5    2.36    5.95
   5  -6  -5  117.69   11.69
  -5   6   5   97.53   10.18
   4  -6  -5  651.33   27.83
  -4   6   5  559.05   26.17
  -4   6   5  638.11   26.82
   3  -6  -5  306.84   13.93
   3  -6  -5  318.63   15.79
   3  -6  -5  298.05   14.54
  -3   6   5  311.76   15.07
   2  -6  -5  362.97   15.57
   2  -6  -5  342.04   16.07
   2  -6  -5  364.98   16.44
  -2   6   5  330.38   15.94
  -2   6   5  345.54   16.00
   1  -6  -5  976.75   36.91
   1  -6  -5  928.70   36.94
  -1   6   5  899.44   37.15
  -1   6   5  935.58   37.08
   0  -6  -5 1066.77   39.99
   0  -6  -5  992.12   39.71
   0   6   5 1013.40   39.90
   0   6   5 1000.29   40.23
  -1  -6  -5   43.25    4.48
  -1  -6  -5   43.06    4.38
   1   6   5   47.64    4.46
   1   6   5   37.03    4.71
  -2  -6  -5  363.76   15.30
  -2  -6  -5  332.79   15.08
   2   6   5  342.44   15.16
   2   6   5  329.12   15.50
  -3  -6  -5    0.78    2.05
  -3  -6  -5    3.12    2.22
   3   6   5    0.93    2.25
   3   6   5    5.91    2.46
   3   6   5    0.69    2.27
  -4  -6  -5   60.06    5.55
  -4  -6  -5   71.73    6.32
  -4  -6  -5   55.59    5.86
  -4  -6  -5   56.01    5.87
   4   6   5   46.83    6.01
   4   6   5   64.37    6.45
  -5  -6  -5    4.62    3.81
  -5  -6  -5    1.15    3.25
  -5  -6  -5   -0.73    2.77
   5   6   5    0.19    3.19
  -6  -6  -5  189.01   11.91
  -6  -6  -5  191.14   10.89
   6   6   5  187.64   11.36
   6   6   5  202.94   13.61
  -7  -6  -5  147.84   11.15
  -7  -6  -5  132.46    9.57
   7   6   5  142.83   13.19
  -8  -6  -5    9.90    5.98
   8   6   5    8.77    7.60
   6  -7  -5    6.50    9.95
  -6   7   5    8.52    7.26
  -6   7   5    0.85    9.89
  -5   7   5   56.42   10.07
  -5   7   5   51.82   10.04
   4  -7  -5  576.66   27.03
  -4   7   5  611.48   26.07
  -4   7   5  567.63   27.73
  -4   7   5  597.08   25.52
   3  -7  -5  122.14    7.82
   3  -7  -5  112.23   11.22
  -3   7   5  121.64    8.88
   2  -7  -5   21.75    4.94
  -2   7   5   23.65    5.56
  -2   7   5   26.16    6.20
  -2   7   5   28.34    6.04
   1  -7  -5   30.19    5.62
   1  -7  -5   19.20    4.44
  -1   7   5   25.13    5.12
   0  -7  -5  731.81   30.31
   0  -7  -5  783.68   30.55
   0   7   5  763.65   30.58
   0   7   5  733.74   30.94
  -1  -7  -5   13.54    2.96
  -1  -7  -5   13.62    2.60
   1   7   5   11.55    2.63
   1   7   5    9.02    2.81
  -2  -7  -5    5.84    2.82
   2   7   5    3.86    2.67
   2   7   5    2.77    2.45
  -3  -7  -5 1203.62   50.21
  -3  -7  -5 1357.28   50.68
   3   7   5 1359.50   50.91
   3   7   5 1175.26   50.68
   3   7   5 1399.03   50.59
  -4  -7  -5 1925.09   72.90
  -4  -7  -5 1902.84   72.09
  -4  -7  -5 1954.61   72.47
   4   7   5 1712.65   72.45
   4   7   5 1975.13   73.30
  -5  -7  -5  115.14    9.55
  -5  -7  -5  120.75    8.46
  -5  -7  -5  120.85   11.29
   5   7   5  147.18   10.17
  -6  -7  -5  347.14   16.42
  -6  -7  -5  349.37   17.53
   6   7   5  333.16   18.76
  -7  -7  -5  533.95   24.91
  -7  -7  -5  536.97   22.86
   7   7   5  488.29   26.33
  -8  -7  -5   96.12   11.78
   8   7   5  119.16   15.32
   5  -8  -5  140.04   15.24
  -5   8   5  183.50   13.59
   4  -8  -5  261.90   16.61
  -4   8   5  277.22   15.38
   3  -8  -5  487.78   22.77
   3  -8  -5  470.74   20.74
  -3   8   5  485.68   21.94
   2  -8  -5   14.49    3.84
   2  -8  -5   16.51    3.22
  -2   8   5   17.16    4.38
   1  -8  -5   83.88    6.40
  -1   8   5   52.99    7.91
  -1   8   5   67.20    6.81
   0  -8  -5    6.07    2.76
   0  -8  -5    9.27    4.74
   0   8   5    5.78    3.08
  -1  -8  -5  506.90   21.81
   1   8   5  501.86   21.69
  -2  -8  -5   17.19    3.18
  -2  -8  -5   14.51    3.60
   2   8   5   18.18    3.37
  -3  -8  -5  436.35   19.29
  -3  -8  -5  408.26   18.19
   3   8   5  444.58   19.47
   3   8   5  440.43   18.94
  -4  -8  -5  531.42   23.83
  -4  -8  -5  590.45   24.51
   4   8   5  588.00   25.18
  -5  -8  -5    6.31    3.52
  -5  -8  -5    5.30    4.17
   5   8   5   12.45    4.57
  -6  -8  -5   71.15    9.00
  -6  -8  -5   69.17    9.49
   6   8   5   71.48   18.01
  -7  -8  -5   32.53    7.98
  -7  -8  -5   13.50    6.17
   7   8   5   19.14    6.97
  -8  -8  -5   57.12   10.87
   8   8   5   39.74    9.51
   4  -9  -5  221.51   16.40
   4  -9  -5  208.57   12.04
  -4   9   5  253.79   15.11
   3  -9  -5   13.03    5.76
   3  -9  -5   15.24    3.80
  -2   9   5    2.85    4.11
   1  -9  -5   87.61    7.61
   0  -9  -5    6.53    3.20
   0   9   5    1.47    3.37
  -1  -9  -5 1311.96   56.08
   1   9   5 1435.51   53.83
   2   9   5  495.61   21.79
  -3  -9  -5  560.39   24.28
   3   9   5  551.72   25.13
  -4  -9  -5  682.08   27.81
  -4  -9  -5  585.99   26.90
   4   9   5  676.66   28.15
  -5  -9  -5  143.79   10.34
  -5  -9  -5  121.37    9.39
  -5  -9  -5  114.36   13.09
   5   9   5  142.03   11.48
  -6  -9  -5  121.97   11.68
  -6  -9  -5  158.48   10.62
   6   9   5  160.64   13.65
  -7  -9  -5  106.31   12.43
  -7  -9  -5  100.00   10.65
   7   9   5  135.85   14.37
  -8  -9  -5  320.07   17.89
   8   9   5  265.59   21.31
   4 -10  -5   -2.68    8.15
   3 -10  -5   87.01   12.03
   3 -10  -5   93.45    8.74
   2 -10  -5 1048.02   42.22
   1 -10  -5  400.19   18.84
   0 -10  -5  295.48   15.00
  -1 -10  -5    1.59    3.42
   1  10   5    2.31    5.36
   2  10   5   12.02    4.15
  -3 -10  -5  463.61   21.23
  -3 -10  -5  435.33   20.55
   3  10   5  478.37   20.83
   3  10   5  474.96   21.28
  -4 -10  -5   -2.77    3.68
  -4 -10  -5    0.76    4.94
   4  10   5    5.31    4.59
  -5 -10  -5   45.99    7.65
  -5 -10  -5   34.38    5.81
   5  10   5   27.42    6.28
  -6 -10  -5   73.37    9.25
  -6 -10  -5   77.90   10.50
  -7 -10  -5    0.50    6.70
  -7 -10  -5   -0.71    5.43
   7  10   5   16.57    8.57
   3 -11  -5   19.77    5.31
   2 -11  -5  156.43   11.11
   1 -11  -5  401.79   19.18
   0 -11  -5   58.07    8.30
  -1 -11  -5   -5.77    3.96
   1  11   5    7.76    4.61
  -2 -11  -5    7.57    4.23
   2  11   5   15.18    4.87
  -3 -11  -5    7.25    4.33
   3  11   5    8.71    4.67
  -4 -11  -5   27.32    5.66
  -4 -11  -5   31.38    7.79
   4  11   5   37.89    9.23
  -5 -11  -5  939.68   37.24
  -5 -11  -5  869.46   36.36
   5  11   5  774.44   39.54
  -6 -11  -5  406.74   20.68
  -6 -11  -5  374.83   19.88
   6  11   5  357.61   21.83
  -7 -11  -5   89.02   12.07
  -7 -11  -5   70.07   13.65
   1 -12  -5  411.46   20.38
   0 -12  -5   -6.54    4.55
  -3 -12  -5   32.79    5.43
  -4 -12  -5   16.28    6.09
  -4 -12  -5    7.94    5.12
   4  12   5   11.51    6.47
  -5 -12  -5  125.18   12.22
   5  12   5  140.36   14.24
  -6 -12  -5  134.82   13.01
  -6 -12  -5  138.73   14.44
   0 -13  -5   96.26   11.76
  -2 -13  -5   85.67   10.92
  -3 -13  -5  395.56   20.47
  -4 -13  -5  249.20   15.94
  -1 -10   6  266.70   18.69
   4   9  -6  311.45   21.87
  -4  -9   6  317.40   18.97
   3   9  -6  421.25   23.11
  -3  -9   6  442.01   22.31
   2   9  -6  108.34   12.89
  -2  -9   6  105.44   10.66
   1   9  -6  107.50   11.93
  -1  -9   6  104.71   10.56
   0   9  -6   38.45    9.75
   0   9  -6   47.39    9.72
  -1   9  -6   60.25   10.40
  -1   9  -6   49.90   11.36
   1  -9   6   62.07    9.10
  -2   9  -6   32.06    7.60
  -2   9  -6   21.07    6.32
  -5  -8   6  111.85   12.75
   4   8  -6   18.41    6.87
  -4  -8   6   23.33    5.78
   3   8  -6   46.04    9.48
  -3  -8   6   43.89    9.35
   2   8  -6  104.45   11.19
  -2  -8   6  117.85    9.87
   1   8  -6   60.94    7.97
   1   8  -6   47.74    8.85
  -1  -8   6   41.19    7.91
   0   8  -6  213.98   14.70
   0   8  -6  228.36   13.54
   0  -8   6  218.84   13.24
  -1   8  -6  122.11   11.61
  -1   8  -6  123.41   10.89
   1  -8   6  129.85   10.01
  -2   8  -6   22.47    5.43
  -2   8  -6   21.27    5.74
   2  -8   6   36.58    7.34
  -3   8  -6  534.40   27.18
   3  -8   6  524.63   24.57
   5   7  -6   75.91   13.52
   4   7  -6   18.53    6.23
  -4  -7   6   18.76    5.05
  -3  -7   6   17.73    4.57
   2   7  -6  256.73   13.08
   2   7  -6  238.16   14.81
  -2  -7   6  230.17   13.86
   1   7  -6   36.54    7.19
   1   7  -6   31.55    6.71
   0   7  -6  861.34   37.52
   0   7  -6  876.18   36.32
   0  -7   6  851.00   36.38
  -1   7  -6  380.50   20.11
  -1   7  -6  386.98   19.11
   1  -7   6  384.67   18.63
  -2   7  -6  224.44   14.69
   2  -7   6  230.79   12.89
  -3   7  -6   11.43    4.61
   3  -7   6    4.14    3.48
   4  -7   6   39.17    8.36
   4  -7   6   34.14    6.87
   6   6  -6   13.95    7.98
  -6  -6   6   15.34    5.46
   5   6  -6   -2.71    6.27
  -5  -6   6   -2.55    4.70
   4   6  -6   92.35   10.52
  -4  -6   6   78.97    8.99
   3   6  -6    9.90    3.98
   3   6  -6   10.68    4.28
   2   6  -6  240.70   12.32
   2   6  -6  215.24   13.61
  -2  -6   6  232.36   13.09
   1   6  -6   76.33    7.70
   1   6  -6   58.95    6.56
  -1  -6   6   56.49    6.79
   0   6  -6   42.75    6.90
   0  -6   6   33.05    5.71
  -1   6  -6 1405.62   57.23
  -1   6  -6 1428.38   56.16
   1  -6   6 1382.00   55.57
  -2   6  -6  233.91   14.25
   2  -6   6  223.30   12.63
  -3   6  -6    8.52    3.92
   3  -6   6    6.65    3.31
  -4   6  -6   33.24    9.11
   4  -6   6   19.94    5.73
  -5   6  -6   50.33   10.87
   5  -6   6   60.95   10.80
   7   5  -6    2.18    9.52
  -7  -5   6   -0.35    5.82
   6   5  -6  103.79   14.06
  -6  -5   6  105.35   10.46
   5   5  -6  319.74   19.58
   5   5  -6  344.98   17.16
  -5  -5   6  331.38   17.19
   4   5  -6  157.66   11.65
   4   5  -6  125.40   11.19
  -4  -5   6  144.05   10.13
   3   5  -6  911.41   39.16
   3   5  -6  949.59   37.62
  -3  -5   6  912.44   38.03
   2   5  -6 1487.71   57.76
   1   5  -6  923.85   36.77
   1   5  -6  895.85   38.04
  -1  -5   6  892.78   37.23
   0   5  -6  317.67   16.80
   0   5  -6  322.03   15.63
   0  -5   6  320.64   15.47
  -1   5  -6   11.45    3.03
   1  -5   6    7.76    2.58
  -2   5  -6    8.51    3.31
   2  -5   6    9.94    2.69
  -3   5  -6   15.17    4.02
   3  -5   6    9.57    4.08
   3  -5   6    8.82    2.85
  -4   5  -6   14.06    4.14
   4  -5   6    6.68    4.48
   4  -5   6   12.68    3.20
  -5   5  -6   69.82   10.06
   5  -5   6   81.89    9.68
  -6   5  -6   61.94   12.35
   6  -5   6   44.72   11.47
   7   4  -6   74.71   15.63
   7   4  -6  113.48   12.52
  -7  -4   6   93.26   10.66
  -7  -4   6   96.26   12.22
   6   4  -6   45.58    9.03
  -6  -4   6   30.57    5.44
   5   4  -6  109.47   11.53
   5   4  -6   90.08    9.16
  -5  -4   6  106.48    8.61
   4   4  -6  377.30   17.34
   4   4  -6  380.57   19.48
  -4  -4   6  346.66   18.82
   3   4  -6   78.39    7.60
   3   4  -6   77.51    6.85
  -3  -4   6   72.91    6.85
   2   4  -6  134.66    8.09
   2   4  -6  130.86    9.21
  -2  -4   6  126.80    8.43
   1   4  -6  269.34   13.34
   1   4  -6  278.41   14.35
   1   4  -6  264.16   13.60
  -1  -4   6  275.74   13.64
  -1  -4   6  295.83   17.81
   0   4  -6    8.51    2.80
   0   4  -6    5.47    2.71
   0   4  -6    9.96    2.82
   0   4  -6    6.16    2.82
   0  -4   6    5.06    3.96
   0  -4   6    7.24    2.27
  -1   4  -6  823.25   33.26
  -1   4  -6  742.60   32.23
  -1   4  -6  826.68   34.18
   1  -4   6  810.21   32.92
  -2   4  -6  632.33   27.85
  -2   4  -6  570.75   25.61
   2  -4   6  655.17   26.38
  -3   4  -6  435.33   21.25
  -3   4  -6  400.55   18.66
   3  -4   6  436.07   20.18
   3  -4   6  443.08   19.31
  -4   4  -6  652.93   29.64
  -4   4  -6  587.90   26.03
   4  -4   6  653.89   28.42
   4  -4   6  640.93   26.73
  -5   4  -6  407.28   22.04
   5  -4   6  435.83   21.36
  -6   4  -6  243.04   16.82
   6  -4   6  250.95   15.90
   7   3  -6  161.66   13.78
   7   3  -6  152.10   16.53
  -7  -3   6  162.29   12.16
   6   3  -6  107.34   13.45
   6   3  -6  107.63   10.50
  -6  -3   6  114.49    9.94
  -6  -3   6  117.15    9.32
   5   3  -6  993.70   39.94
   5   3  -6  936.49   41.87
  -5  -3   6  977.75   39.43
   4   3  -6  734.59   30.62
   4   3  -6  754.44   32.73
  -4  -3   6  699.64   30.26
   3   3  -6  331.77   16.47
   3   3  -6  387.80   16.86
   3   3  -6  378.68   17.98
  -3  -3   6  380.40   17.13
  -3  -3   6  345.49   16.88
   2   3  -6  321.13   15.28
   2   3  -6  335.49   15.21
   2   3  -6  348.18   16.32
  -2  -3   6  327.65   16.55
  -2  -3   6  345.45   15.77
  -2  -3   6  325.16   15.63
   1   3  -6 1761.84   65.87
   1   3  -6 1627.97   65.54
   1   3  -6 1723.03   66.53
  -1  -3   6 1713.39   67.11
  -1  -3   6 1750.73   66.20
   0   3  -6   83.82    6.12
   0   3  -6   77.49    6.06
   0   3  -6   80.55    6.31
   0   3  -6   87.53    6.70
   0  -3   6   84.47    6.06
   0  -3   6   69.87    7.19
  -1   3  -6  230.15   12.36
  -1   3  -6  256.57   12.47
  -1   3  -6  242.97   12.05
  -1   3  -6  241.15   12.98
   1  -3   6  232.80   13.83
   1  -3   6  262.93   12.31
  -2   3  -6   73.63    6.90
  -2   3  -6   66.22    5.86
   2  -3   6   66.25    8.14
   2  -3   6   75.29    5.70
  -3   3  -6  490.34   23.10
  -3   3  -6  468.15   20.56
   3  -3   6  504.48   22.12
   3  -3   6  499.93   21.25
  -4   3  -6   10.06    2.79
   4  -3   6   12.09    3.61
  -5   3  -6  101.38   10.30
   5  -3   6   92.90    8.73
  -6   3  -6   21.68    6.10
   6  -3   6   33.55    8.83
  -7   3  -6   69.04   13.33
   7  -3   6   74.10   11.94
   7   2  -6  453.78   22.19
   7   2  -6  345.98   23.97
  -7  -2   6  436.85   20.44
   6   2  -6  117.30   13.15
   6   2  -6  133.93   11.33
  -6  -2   6  140.49    9.78
  -6  -2   6  141.16    9.98
   5   2  -6   27.12    6.38
   5   2  -6   14.92    3.64
  -5  -2   6   16.95    3.85
   4   2  -6   11.69    3.85
   4   2  -6    0.13    2.95
   4   2  -6    3.31    3.34
  -4  -2   6    5.92    2.88
   3   2  -6   64.43    5.81
   3   2  -6   58.20    5.82
   3   2  -6   55.09    6.51
  -3  -2   6   55.27    5.67
  -3  -2   6   47.55    6.41
  -3  -2   6   63.98    6.67
   2   2  -6 1012.19   39.04
   2   2  -6  959.99   38.84
   2   2  -6 1018.12   39.59
  -2  -2   6  962.54   39.03
  -2  -2   6  992.44   39.32
  -2  -2   6  969.42   39.78
   1   2  -6   16.62    3.30
   1   2  -6   22.39    4.06
   1   2  -6   17.11    3.82
  -1  -2   6   17.21    4.51
  -1  -2   6   19.89    4.75
  -1  -2   6   14.14    2.50
   0   2  -6  945.26   38.01
   0   2  -6  955.21   38.43
   0   2  -6  960.91   37.80
   0   2  -6  985.84   37.98
   0  -2   6  968.60   38.17
   0  -2   6  927.06   38.84
  -1   2  -6  465.17   19.76
  -1   2  -6  466.95   20.58
  -1   2  -6  444.31   19.88
  -1   2  -6  468.81   20.02
   1  -2   6  471.59   19.97
   1  -2   6  451.69   21.15
  -2   2  -6   41.91    5.08
  -2   2  -6   37.51    4.93
  -2   2  -6   38.72    4.64
   2  -2   6   41.60    4.41
  -3   2  -6 1132.12   45.55
  -3   2  -6 1210.58   50.47
  -3   2  -6 1189.91   48.02
   3  -2   6 1174.77   46.08
   3  -2   6 1186.38   46.79
  -4   2  -6  525.61   27.54
  -4   2  -6  486.05   21.18
   4  -2   6  519.61   23.30
   4  -2   6  517.84   21.61
  -5   2  -6   65.05    9.53
   5  -2   6   84.12    7.82
  -6   2  -6   80.97   11.66
   6  -2   6   96.74    9.64
  -7   2  -6   20.81    7.00
   7  -2   6   21.16    6.05
   7   1  -6  445.01   22.57
   7   1  -6  386.01   24.77
  -7  -1   6  443.56   20.70
   6   1  -6  472.57   21.75
   6   1  -6  396.27   23.13
  -6  -1   6  455.35   20.37
   5   1  -6    0.01    3.95
   5   1  -6    5.53    4.84
   5   1  -6    1.84    3.32
  -5  -1   6    0.94    5.51
  -5  -1   6    7.47    3.30
   4   1  -6    9.71    3.46
   4   1  -6   14.15    3.90
  -4  -1   6   14.66    2.83
  -4  -1   6   13.69    2.93
  -4  -1   6    8.12    3.47
   3   1  -6  185.40   10.70
   3   1  -6  190.63    9.89
   3   1  -6  180.38    9.72
  -3  -1   6  173.56   10.21
  -3  -1   6  184.44   10.26
  -3  -1   6  190.57   10.12
   2   1  -6  118.58    7.24
   2   1  -6  134.77    7.75
   2   1  -6  112.36    7.31
  -2  -1   6  127.09    7.49
  -2  -1   6  123.03    7.65
  -2  -1   6  115.22    7.82
   1   1  -6 1491.24   57.96
   1   1  -6 1577.13   58.33
   1   1  -6 1490.10   57.80
  -1  -1   6 1515.31   58.54
  -1  -1   6 1455.63   57.90
  -1  -1   6 1555.41   58.40
   0   1  -6 3782.78  141.12
   0   1  -6 3817.34  141.51
   0   1  -6 3710.05  141.04
   0  -1   6 3787.95  141.95
   0  -1   6 3880.16  141.54
  -1   1  -6  996.59   39.80
  -1   1  -6 1014.08   39.39
  -1   1  -6  978.98   39.13
  -1   1  -6  982.25   39.40
   1  -1   6 1004.97   40.41
   1  -1   6 1027.24   39.60
  -2   1  -6    6.87    2.24
  -2   1  -6    4.39    2.04
  -2   1  -6    3.33    2.14
  -2   1  -6    7.10    2.05
   2  -1   6    5.89    1.85
  -3   1  -6  545.03   22.25
  -3   1  -6  535.99   24.61
  -3   1  -6  542.10   24.10
  -3   1  -6  514.75   23.19
   3  -1   6  537.57   22.35
  -4   1  -6    7.53    3.59
  -4   1  -6   -0.74    2.27
   4  -1   6    2.60    2.53
   4  -1   6    1.41    2.00
  -5   1  -6  233.74   14.65
  -6   1  -6  118.66   12.05
   6  -1   6  117.10    9.69
  -7   1  -6  169.90   16.33
   7  -1   6  212.68   13.89
   8  -1   6   23.90    7.32
   7   0  -6   19.26    8.23
  -7   0   6   10.18    5.10
  -6   0   6   18.23    4.16
   5   0  -6  158.44    9.57
   5   0  -6  179.95   12.72
   5   0  -6  160.43   10.91
  -5   0   6  166.25    9.54
  -5   0   6  168.17    9.70
   4   0  -6  167.90    9.23
   4   0  -6  169.36    9.93
   4   0  -6  174.38   11.13
  -4   0   6  157.76    9.05
  -4   0   6  161.28    9.34
  -4   0   6  171.04    9.92
   3   0  -6  140.04    8.54
   3   0  -6  163.99    9.19
   3   0  -6  174.91    9.93
   3   0  -6  165.93    8.74
  -3   0   6  168.73    8.58
  -3   0   6  140.39    8.90
  -3   0   6  167.35    8.89
  -3   0   6  151.50    8.93
   2   0  -6   31.91    4.23
   2   0  -6   31.49    3.96
   2   0  -6   28.91    4.29
  -2   0   6   33.97    4.11
  -2   0   6   29.99    4.54
  -2   0   6   28.78    4.47
   1   0  -6  310.94   14.29
   1   0  -6  310.10   14.10
   1   0  -6  329.71   14.22
  -1   0   6  332.24   14.46
  -1   0   6  328.77   14.60
  -1   0   6  324.92   14.59
   0   0  -6  646.09   25.86
   0   0  -6  630.24   25.91
   0   0  -6  647.15   25.74
   0   0   6  634.29   26.05
   0   0   6  638.88   25.90
   0   0   6  638.38   26.17
  -1   0  -6  585.57   24.34
  -1   0  -6  602.63   24.29
  -1   0  -6  591.70   24.53
  -1   0  -6  603.91   24.48
   1   0   6  589.73   24.90
   1   0   6  601.97   24.56
  -2   0  -6  328.08   14.53
  -2   0  -6  308.32   14.58
  -2   0  -6  328.35   15.20
  -2   0  -6  328.50   14.50
  -2   0  -6  328.39   15.50
   2   0   6  318.16   14.43
  -3   0  -6   67.80    5.51
  -3   0  -6   67.59    6.44
  -3   0  -6   58.07    6.99
  -3   0  -6   69.36    6.17
   3   0   6   63.12    4.83
  -4   0  -6  179.49   11.31
  -4   0  -6  161.43   10.15
  -4   0  -6  168.32   11.52
  -4   0  -6  165.39    9.00
   4   0   6  167.79    9.56
  -5   0  -6  325.67   19.86
   5   0   6  336.96   16.01
  -6   0  -6  222.57   15.46
   6   0   6  234.51   13.00
  -7   0  -6  876.07   40.61
   7   0   6  884.13   37.43
  -8   0  -6  568.52   31.44
   8   0   6  625.40   28.54
   7  -1  -6   95.04   14.25
   7  -1  -6   88.45   13.54
  -7   1   6  118.56   10.29
   6  -1  -6  504.41   23.76
   6  -1  -6  467.48   25.15
  -6   1   6  497.62   22.26
   5  -1  -6  692.79   30.16
   5  -1  -6  705.15   31.45
  -5   1   6  691.47   29.05
   4  -1  -6 1228.89   48.66
   4  -1  -6 1363.06   50.96
   4  -1  -6 1283.32   50.15
  -4   1   6 1250.40   49.15
  -4   1   6 1279.49   49.17
  -4   1   6 1161.82   49.16
   3  -1  -6  769.65   30.97
   3  -1  -6  730.06   31.03
   3  -1  -6  816.96   31.94
   3  -1  -6  857.39   32.21
  -3   1   6  783.88   31.12
  -3   1   6  793.03   31.36
  -3   1   6  775.19   31.18
  -3   1   6  699.66   31.27
   2  -1  -6 3035.49  115.02
   2  -1  -6 3175.17  115.42
   2  -1  -6 2920.06  114.52
   2  -1  -6 3359.67  115.28
  -2   1   6 3119.40  114.90
  -2   1   6 2805.90  114.85
  -2   1   6 3103.88  114.81
  -2   1   6 3141.22  115.45
   1  -1  -6   32.72    3.67
   1  -1  -6   30.21    3.94
   1  -1  -6   32.23    3.45
  -1   1   6   33.89    3.77
   0  -1  -6   45.27    3.78
   0  -1  -6   49.11    3.74
   0  -1  -6   53.22    4.56
   0   1   6   42.15    4.47
   0   1   6   53.98    4.32
   0   1   6   53.29    4.19
  -1  -1  -6  282.34   12.51
  -1  -1  -6  282.48   12.87
  -1  -1  -6  275.24   12.27
   1   1   6  272.07   12.69
   1   1   6  279.50   12.71
  -2  -1  -6    5.49    2.11
  -2  -1  -6    5.13    1.66
  -2  -1  -6    6.11    2.25
  -2  -1  -6    7.72    2.51
  -2  -1  -6    7.06    1.99
   2   1   6    8.41    1.82
  -3  -1  -6  100.12    7.37
  -3  -1  -6   91.78    6.44
  -3  -1  -6  110.63    6.94
  -3  -1  -6   93.82    7.78
  -4  -1  -6  997.02   37.91
  -4  -1  -6  958.03   40.14
  -4  -1  -6  978.97   37.87
  -4  -1  -6  920.65   38.53
  -4  -1  -6  982.54   40.25
   4   1   6  959.15   38.28
  -5  -1  -6  589.29   26.65
   5   1   6  642.37   26.13
   7   1   6    0.73    4.47
   8   1   6  132.69   12.23
   7  -2  -6   47.29    8.55
   7  -2  -6   74.54   14.85
  -7   2   6   53.38    9.68
   6  -2  -6  123.73   12.61
   6  -2  -6   91.30   11.11
  -6   2   6  113.12    9.59
   5  -2  -6   20.69    5.23
   5  -2  -6   21.28    4.83
  -5   2   6   24.48    4.14
   4  -2  -6  409.69   18.31
   4  -2  -6  479.93   20.61
   4  -2  -6  452.40   20.06
   4  -2  -6  420.92   18.31
  -4   2   6  423.99   19.07
  -4   2   6  391.37   18.54
   3  -2  -6  179.35    9.62
   3  -2  -6  157.06    9.24
   3  -2  -6  188.45   10.06
   3  -2  -6  162.69    9.04
  -3   2   6  141.47    9.41
  -3   2   6  170.56    9.24
  -3   2   6  180.23    8.82
   2  -2  -6   14.30    3.62
   2  -2  -6   14.03    2.63
   2  -2  -6   19.04    4.06
  -2   2   6   19.58    3.89
  -2   2   6   13.26    2.34
  -2   2   6   20.58    3.95
   1  -2  -6  127.39    7.04
   1  -2  -6  136.00    7.74
   1  -2  -6  136.69    7.21
  -1   2   6  128.85    7.16
  -1   2   6  135.04    7.22
  -1   2   6  134.75    7.42
   0  -2  -6   30.30    3.16
   0  -2  -6   29.15    4.27
   0  -2  -6   31.67    3.60
   0   2   6   29.86    3.40
   0   2   6   29.36    3.48
   0   2   6   31.39    3.49
  -1  -2  -6  471.48   18.91
  -1  -2  -6  488.08   19.34
  -1  -2  -6  454.33   18.88
  -1  -2  -6  463.90   19.71
  -1  -2  -6  449.59   18.90
   1   2   6  467.36   19.24
   1   2   6  470.90   18.99
  -2  -2  -6  974.25   38.57
  -2  -2  -6  983.86   38.66
  -2  -2  -6  995.54   38.83
  -3  -2  -6  151.51    9.24
  -3  -2  -6  154.04    9.37
  -3  -2  -6  154.30    8.80
  -3  -2  -6  149.74    8.23
  -4  -2  -6  616.15   24.63
  -4  -2  -6  591.81   24.10
  -4  -2  -6  558.34   25.84
  -5  -2  -6  599.46   24.87
  -5  -2  -6  593.69   24.43
   5   2   6  607.67   27.38
   6   2   6  153.50   11.98
  -7  -2  -6   68.51    8.30
   7   2   6   67.34   10.98
  -8  -2  -6  211.18   13.79
   8   2   6  169.01   16.93
   7  -3  -6   62.28   14.72
  -7   3   6   64.18   10.80
   6  -3  -6   84.47   13.37
   6  -3  -6  101.33   11.95
  -6   3   6  108.95    9.75
   5  -3  -6 1225.50   47.81
   5  -3  -6 1175.73   47.41
  -5   3   6 1190.07   46.24
  -5   3   6 1015.92   45.53
   4  -3  -6  365.73   16.48
   4  -3  -6  387.60   16.52
   4  -3  -6  394.00   18.14
  -4   3   6  350.70   16.69
   3  -3  -6   32.84    5.31
   3  -3  -6   34.29    4.95
   3  -3  -6   24.92    5.41
   3  -3  -6   25.01    4.56
   3  -3  -6   39.14    5.36
  -3   3   6   27.28    4.00
  -3   3   6   31.17    6.02
  -3   3   6   35.93    5.33
   2  -3  -6  305.55   13.78
   2  -3  -6  291.69   13.66
   2  -3  -6  300.52   13.78
   2  -3  -6  292.43   13.47
  -2   3   6  299.14   13.64
  -2   3   6  285.37   13.68
   1  -3  -6 2437.03   86.79
   1  -3  -6 2262.16   86.76
   1  -3  -6 2209.27   86.21
   1  -3  -6 2384.37   86.89
  -1   3   6 2342.03   86.66
  -1   3   6 2192.45   86.32
   0  -3  -6   38.06    3.63
   0  -3  -6   33.74    4.47
   0  -3  -6   39.88    3.85
   0  -3  -6   45.92    4.33
   0   3   6   44.09    3.83
   0   3   6   42.22    3.99
  -1  -3  -6    1.30    1.87
  -1  -3  -6   -0.55    1.44
  -1  -3  -6    0.69    2.09
   1   3   6    2.43    1.69
  -2  -3  -6 4109.39  154.28
  -2  -3  -6 4046.81  154.15
  -2  -3  -6 4168.09  154.69
  -2  -3  -6 4219.24  154.95
  -2  -3  -6 4354.47  154.48
   2   3   6 4111.99  154.29
  -3  -3  -6  760.65   29.95
  -3  -3  -6  699.60   29.22
  -3  -3  -6  740.47   30.08
  -3  -3  -6  742.14   29.48
  -4  -3  -6  138.85    9.61
  -4  -3  -6  160.75    8.94
  -4  -3  -6  160.64    9.52
  -4  -3  -6  159.43    8.52
  -4  -3  -6  152.83    8.79
   4   3   6  165.10    9.67
  -5  -3  -6  119.28    8.76
  -5  -3  -6  132.32    7.50
  -5  -3  -6  121.99    8.44
  -5  -3  -6  118.05   10.01
  -5  -3  -6  105.13    8.59
   5   3   6  138.45    9.67
  -7  -3  -6  245.80   13.89
   7   3   6  225.38   15.88
  -8  -3  -6    9.92    5.55
   8   3   6   -3.82    7.06
   7  -4  -6  150.48   18.63
   6  -4  -6    5.76    6.93
   6  -4  -6    1.76    6.89
  -6   4   6   -3.60    5.23
  -5   4   6    6.70    4.15
  -5   4   6   12.83    4.52
   4  -4  -6   13.55    3.29
   4  -4  -6    3.42    4.08
   4  -4  -6    9.21    2.60
   4  -4  -6    6.91    3.75
  -4   4   6    2.28    3.34
   3  -4  -6  463.38   20.29
   3  -4  -6  439.94   19.05
   3  -4  -6  434.67   19.31
  -3   4   6  447.42   19.75
   2  -4  -6  398.85   17.40
   2  -4  -6  371.90   17.00
   2  -4  -6  376.87   17.10
   2  -4  -6  393.73   16.76
  -2   4   6  387.06   17.06
  -2   4   6  379.91   17.19
   1  -4  -6  168.77    8.91
   1  -4  -6  184.98    8.96
   1  -4  -6  160.49    9.36
   1  -4  -6  175.39    8.90
  -1   4   6  171.33    8.93
  -1   4   6  154.28    8.66
   0  -4  -6  650.79   25.90
   0  -4  -6  628.72   25.58
   0  -4  -6  631.18   26.13
   0   4   6  628.19   25.74
  -1  -4  -6   10.90    2.28
  -1  -4  -6    5.78    1.68
  -1  -4  -6    9.68    2.46
   1   4   6    8.57    2.04
  -2  -4  -6  548.73   23.34
  -2  -4  -6  541.53   22.67
  -2  -4  -6  575.48   22.97
   2   4   6  543.53   22.57
  -3  -4  -6  633.09   26.05
  -3  -4  -6  636.52   25.40
  -3  -4  -6  625.70   25.50
  -3  -4  -6  590.73   25.23
   3   4   6  638.07   25.50
   3   4   6  605.62   25.55
  -4  -4  -6   89.77    6.79
  -4  -4  -6  105.32    7.58
  -4  -4  -6   74.91    6.49
  -4  -4  -6   95.06    6.14
  -4  -4  -6   85.41    7.23
   4   4   6   88.54    7.39
  -5  -4  -6  263.80   12.11
  -5  -4  -6  253.36   13.27
  -5  -4  -6  259.13   13.17
  -5  -4  -6  229.33   14.05
   5   4   6  248.30   14.30
  -6  -4  -6    8.86    4.03
  -6  -4  -6    6.96    3.24
  -6  -4  -6   11.39    4.48
   6   4   6    2.34    4.77
   7   4   6   24.92    6.66
  -8  -4  -6  202.59   13.92
   8   4   6  176.10   17.00
   6  -5  -6   22.53    7.49
   6  -5  -6   15.01    8.01
  -6   5   6    9.18    5.90
   5  -5  -6    7.35    5.62
  -5   5   6   -4.31    4.68
   4  -5  -6  478.48   23.03
   4  -5  -6  513.68   22.47
   4  -5  -6  492.89   20.71
  -4   5   6  489.76   22.22
   3  -5  -6  742.80   32.07
   3  -5  -6  820.59   31.78
   3  -5  -6  803.55   33.20
  -3   5   6  808.53   33.47
   2  -5  -6  265.89   14.03
   2  -5  -6  281.46   13.54
   2  -5  -6  278.44   12.71
   2  -5  -6  247.54   12.87
  -2   5   6  266.13   13.07
   1  -5  -6 1722.29   66.93
   1  -5  -6 1753.26   66.49
   1  -5  -6 1820.94   66.61
   1  -5  -6 1720.88   66.42
  -1   5   6 1698.87   66.32
  -1   5   6 1757.14   66.74
   0  -5  -6 2714.66  100.62
   0  -5  -6 2677.02  101.16
   0  -5  -6 2665.24  100.40
   0   5   6 2666.53  100.62
  -1  -5  -6  238.09   11.33
  -1  -5  -6  232.65   11.35
   1   5   6  238.69   11.23
  -2  -5  -6  195.18    9.68
  -2  -5  -6  181.00    9.69
   2   5   6  192.74    9.57
  -3  -5  -6 1083.57   42.78
  -3  -5  -6 1124.10   43.34
  -3  -5  -6 1049.52   43.14
   3   5   6 1148.69   43.36
   3   5   6 1132.82   43.51
  -4  -5  -6   21.27    4.26
  -4  -5  -6   14.00    3.49
  -4  -5  -6   14.89    3.30
   4   5   6   19.09    5.20
  -5  -5  -6   35.40    5.95
  -5  -5  -6   36.45    7.57
  -5  -5  -6   28.96    5.38
   5   5   6   37.01    6.89
  -6  -5  -6   50.29    9.14
   6   5   6   35.51    8.46
  -7  -5  -6   66.93    9.28
   7   5   6   65.18   10.99
  -8  -5  -6    8.43    5.93
   8   5   6   -6.96    7.67
   6  -6  -6   -0.74    7.70
  -6   6   6    2.91    6.66
   5  -6  -6   15.61    6.47
  -5   6   6   -4.19    5.21
   4  -6  -6  100.08   10.71
   4  -6  -6  111.42    7.59
  -4   6   6  117.92    9.67
   3  -6  -6  577.15   25.38
   3  -6  -6  616.41   24.84
  -3   6   6  598.28   25.60
   2  -6  -6   14.14    3.64
   2  -6  -6    8.24    3.34
   2  -6  -6    9.95    2.51
  -2   6   6   13.25    3.28
  -2   6   6    7.30    3.14
   1  -6  -6    7.26    3.00
   1  -6  -6    7.23    2.22
  -1   6   6    2.02    2.93
   0  -6  -6  338.53   15.46
   0  -6  -6  348.58   15.45
   0   6   6  352.52   15.55
   0   6   6  321.72   15.74
  -1  -6  -6  331.67   14.64
  -1  -6  -6  307.69   14.42
   1   6   6  323.13   14.56
   1   6   6  308.19   14.87
  -2  -6  -6  913.68   36.20
  -2  -6  -6  939.13   36.27
   2   6   6  910.14   36.18
   2   6   6  881.05   36.58
  -3  -6  -6   72.75    6.19
  -3  -6  -6   62.33    5.87
   3   6   6   81.48    6.00
   3   6   6   58.05    6.42
  -4  -6  -6  685.14   28.85
  -4  -6  -6  736.09   29.05
   4   6   6  677.95   29.25
   4   6   6  725.74   29.69
  -5  -6  -6  201.39   12.77
  -5  -6  -6  230.76   11.70
   5   6   6  234.77   13.10
   5   6   6  215.53   11.96
  -6  -6  -6 1711.62   68.03
  -6  -6  -6 1747.79   66.56
   6   6   6 1734.28   69.52
  -7  -6  -6  465.65   22.27
  -7  -6  -6  466.52   20.37
   7   6   6  415.18   23.68
  -8  -6  -6  266.54   16.09
   8   6   6  210.90   18.83
   5  -7  -6  306.29   19.64
  -5   7   6  358.23   18.49
   4  -7  -6  167.56   12.80
   4  -7  -6  148.39    9.72
  -4   7   6  169.80   11.55
   3  -7  -6  734.48   32.47
   3  -7  -6  820.38   31.95
   3  -7  -6  803.08   33.59
  -3   7   6  782.26   32.80
   2  -7  -6  475.47   20.82
   2  -7  -6  491.12   21.81
   1  -7  -6   44.95    5.22
  -1   7   6   31.43    6.80
  -1   7   6   47.21    6.01
   0  -7  -6  123.95    7.61
   0  -7  -6  122.91    9.27
   0   7   6  104.30    7.72
   0   7   6  113.99    8.60
  -1  -7  -6  422.49   17.81
  -1  -7  -6  370.05   17.28
   1   7   6  404.64   17.71
   1   7   6  379.51   18.06
  -2  -7  -6    6.01    3.16
  -2  -7  -6    7.09    2.41
   2   7   6    7.51    2.70
   2   7   6    4.88    2.78
  -3  -7  -6  382.32   17.19
   3   7   6  372.93   17.35
  -4  -7  -6 1439.53   55.17
  -4  -7  -6 1391.50   54.52
   4   7   6 1415.36   55.48
  -5  -7  -6  553.44   22.80
  -5  -7  -6  461.89   22.86
  -5  -7  -6  533.95   23.47
   5   7   6  530.41   24.01
  -6  -7  -6    3.58    4.61
  -6  -7  -6    7.79    4.00
   6   7   6   14.70    5.32
  -7  -7  -6    2.41    5.77
   7   7   6   -0.82    6.37
  -8  -7  -6   16.86    6.73
   8   7   6   19.84    8.43
   5  -8  -6  136.60   14.60
  -5   8   6  133.98   13.28
   4  -8  -6   13.55    3.95
   4  -8  -6   20.74    6.57
  -4   8   6   11.13    5.78
   3  -8  -6   36.47    8.73
   3  -8  -6   37.77    6.59
  -3   8   6   43.47    7.94
   2  -8  -6   30.80    4.26
  -2   8   6   30.25    4.77
   1  -8  -6  107.59    7.76
   0  -8  -6   21.15    5.14
   0   8   6   26.66    5.88
  -1  -8  -6 1221.89   48.43
   1   8   6 1238.75   48.49
  -2  -8  -6    5.44    2.79
   2   8   6    4.56    3.09
  -3  -8  -6   -2.93    2.83
   3   8   6   -0.47    3.18
  -4  -8  -6  161.22   13.05
   4   8   6  223.31   11.50
  -5  -8  -6  508.37   24.16
  -5  -8  -6  557.96   24.71
  -5  -8  -6  565.10   25.41
   5   8   6  578.92   25.33
  -6  -8  -6   73.40    9.65
   6   8   6   89.81   10.93
  -7  -8  -6   44.01   10.36
  -7  -8  -6   24.74    5.48
  -8  -8  -6   98.94   11.63
   4  -9  -6   70.29   14.44
   4  -9  -6   69.04   12.86
  -4   9   6   46.03   11.10
   3  -9  -6    6.14    5.85
   3  -9  -6   17.54    4.95
  -3   9   6   15.75    5.63
   2  -9  -6  176.57   12.17
  -2   9   6  207.43   12.15
   1  -9  -6  308.01   16.67
  -1   9   6  333.49   16.39
   0  -9  -6  265.08   14.32
   0   9   6  276.81   14.11
  -1  -9  -6 1456.08   57.13
  -2  -9  -6 1206.34   47.98
  -3  -9  -6   44.16    6.47
   3   9   6   44.39    7.18
  -4  -9  -6   10.21    4.05
  -4  -9  -6   15.86    3.96
   4   9   6   17.15    4.47
  -5  -9  -6   14.19    4.53
  -5  -9  -6    6.31    4.92
  -6  -9  -6    0.28    4.45
   6   9   6    0.02   11.33
  -7  -9  -6   24.68    5.41
  -7  -9  -6   24.80    6.78
   7   9   6   26.86    7.71
   3 -10  -6    5.95    4.45
   3 -10  -6    6.41    7.26
  -3  10   6   13.35    6.30
   2 -10  -6    3.62    4.06
  -2  10   6   -4.57    5.16
   1 -10  -6  333.55   16.39
  -1  10   6  320.26   16.81
   0 -10  -6   44.97    7.09
   0  10   6   39.48    7.63
  -1 -10  -6   59.85    7.42
   1  10   6   56.97    7.87
  -2 -10  -6  119.26    9.01
   2  10   6  109.47    9.39
  -3 -10  -6   39.88    6.99
   3  10   6   26.55    5.06
  -4 -10  -6  154.27   10.57
   4  10   6  160.27   11.04
  -5 -10  -6  113.11   10.42
  -5 -10  -6  105.47    9.56
   5  10   6  113.80   11.69
  -6 -10  -6  232.98   14.44
  -6 -10  -6  240.49   15.66
   6  10   6  249.56   16.26
  -7 -10  -6   88.23   13.30
  -7 -10  -6  108.24   11.11
   7  10   6   84.87   14.88
   2 -11  -6  248.76   14.95
  -2  11   6  284.90   16.78
   1 -11  -6  581.64   25.91
   0 -11  -6  451.46   22.03
   0  11   6  502.79   22.56
  -1 -11  -6   75.40    8.35
   1  11   6   49.21    9.08
  -2 -11  -6  248.30   14.19
   2  11   6  258.96   14.68
  -3 -11  -6  100.69    9.28
   3  11   6  102.93   10.13
  -4 -11  -6   54.65    8.59
   4  11   6   58.23    9.82
  -5 -11  -6   23.76    6.20
  -5 -11  -6   26.94    5.85
  -6 -11  -6  185.43   13.57
  -6 -11  -6  214.44   14.82
   6  11   6  201.22   16.41
   1 -12  -6   12.59    5.28
  -1  12   6   20.34    6.90
   0 -12  -6  118.23   11.03
  -1 -12  -6  428.00   21.69
   1  12   6  481.89   22.29
  -2 -12  -6   65.08    9.41
   2  12   6   56.51   10.74
  -3 -12  -6   -2.29    4.99
  -4 -12  -6  178.57   12.79
  -5 -12  -6   94.37   11.14
  -1 -13  -6  333.44   18.28
  -2 -13  -6   40.97   10.16
  -3 -13  -6  633.37   28.59
  -4 -13  -6  337.40   19.64
   2   9  -7   10.76   10.53
  -2  -9   7   27.30    7.12
   1   9  -7   90.35   13.62
   1   9  -7   95.21   12.45
  -1  -9   7  122.29   11.80
   0  -9   7    3.12    4.75
   4   8  -7   59.60   12.51
  -4  -8   7   89.05   11.97
   3   8  -7   88.32   11.72
   2   8  -7  184.76   15.18
   2   8  -7  206.74   13.16
  -2  -8   7  195.16   13.62
   1   8  -7   -3.86    5.21
   1   8  -7   -0.55    5.55
   0   8  -7  146.24   12.46
   0   8  -7  147.95   12.60
   0  -8   7  176.84   11.74
  -1   8  -7  245.68   15.19
  -1   8  -7  216.97   15.91
   1  -8   7  216.00   14.16
  -2   8  -7  283.25   17.04
  -2   8  -7  267.62   17.64
   2  -8   7  260.50   15.91
   5   7  -7   30.08    9.07
  -5  -7   7   50.36   11.66
   4   7  -7  217.96   16.49
  -4  -7   7  211.98   14.61
   3   7  -7   14.13    5.58
  -3  -7   7   11.92    4.95
   2   7  -7   96.70    9.08
  -2  -7   7   79.60    9.15
   1   7  -7   34.90    8.35
  -1  -7   7   42.58    7.54
   0   7  -7   14.67    4.63
   0  -7   7   14.17    3.96
  -1   7  -7  292.19   17.10
  -1   7  -7  294.74   16.25
   1  -7   7  275.25   15.66
  -2   7  -7   34.33    6.43
  -2   7  -7   31.75    5.88
   2  -7   7   48.60    7.50
  -3   7  -7   35.19    9.80
   3  -7   7   41.96    8.23
   6   6  -7   47.46   10.50
  -6  -6   7   57.10   11.85
   5   6  -7  296.42   20.67
  -5  -6   7  318.29   17.76
   4   6  -7   77.77   11.42
   4   6  -7   66.00    9.38
  -4  -6   7   83.58   10.03
   3   6  -7   13.50    4.66
   3   6  -7    7.01    4.68
   2   6  -7  535.03   23.61
   2   6  -7  514.59   25.01
  -2  -6   7  525.80   24.20
   1   6  -7 1014.12   43.21
   1   6  -7 1048.82   42.04
  -1  -6   7 1005.99   42.35
   0   6  -7  672.65   30.72
   0   6  -7  695.88   29.69
   0  -6   7  659.91   29.54
  -1   6  -7  165.33   11.96
  -1   6  -7  161.42   11.18
   1  -6   7  161.20   10.59
  -2   6  -7  255.47   14.95
  -2   6  -7  252.57   15.75
   2  -6   7  257.89   14.10
  -3   6  -7   36.13    8.32
   3  -6   7   42.02    7.10
  -4   6  -7    5.66    4.67
   4  -6   7   -6.37    4.19
   6   5  -7  100.56   16.15
   6   5  -7  129.23   12.22
  -6  -5   7  120.09   12.44
   5   5  -7   41.57   11.64
   5   5  -7   31.54    6.13
  -5  -5   7   52.18    9.06
   4   5  -7  149.48   10.65
   4   5  -7  134.93   12.11
  -4  -5   7  146.11   10.71
  -3  -5   7   23.93    4.35
   2   5  -7   92.91    9.28
   2   5  -7  107.35    8.34
  -2  -5   7  101.70    8.19
   1   5  -7  347.53   17.43
   1   5  -7  360.59   18.19
  -1  -5   7  356.57   17.26
   0   5  -7    3.42    3.18
   0   5  -7    2.21    3.32
   0  -5   7    2.21    2.68
  -1   5  -7    1.05    3.29
  -1   5  -7    6.12    3.56
   1  -5   7    7.31    2.79
  -2   5  -7    2.64    3.49
   2  -5   7    2.89    2.93
  -3   5  -7    7.22    3.97
  -4   5  -7   75.02   10.19
   4  -5   7   72.99    9.05
  -5   5  -7  108.49   11.92
   5  -5   7  107.76   11.98
   6   4  -7   12.74    7.67
   6   4  -7   -4.84    6.15
  -6  -4   7   -0.13    5.39
   5   4  -7  231.90   17.03
   5   4  -7  273.54   15.04
  -5  -4   7  256.31   14.55
   4   4  -7  984.74   39.72
   4   4  -7  990.13   41.85
  -4  -4   7  928.85   39.83
   3   4  -7 1148.37   52.29
   3   4  -7 1257.13   49.41
  -3  -4   7 1175.64   48.13
   2   4  -7    7.89    3.14
  -2  -4   7    3.30    2.98
   1   4  -7 1149.08   47.59
   1   4  -7 1196.27   46.88
   0   4  -7   -1.35    2.97
   0   4  -7   -3.60    2.95
   0  -4   7    3.53    2.45
   1  -4   7  155.66    9.55
  -2   4  -7    1.67    2.85
  -2   4  -7   -2.00    2.89
   2  -4   7    2.57    2.53
  -3   4  -7 1016.22   43.17
   3  -4   7  998.88   40.96
  -4   4  -7  256.20   16.34
   4  -4   7  270.56   15.62
   4  -4   7  275.88   13.96
  -5   4  -7  196.50   14.59
   5  -4   7  196.71   14.12
  -6   4  -7  125.16   12.75
   6  -4   7   98.39   12.34
   7   3  -7  370.16   25.70
   7   3  -7  440.34   23.02
  -7  -3   7  445.39   20.93
  -7  -3   7  455.57   28.62
   6   3  -7  433.17   26.83
   6   3  -7  553.48   24.98
  -6  -3   7  541.91   24.22
   5   3  -7   25.72    6.21
   5   3  -7   16.03    5.07
  -5  -3   7   33.25    7.97
   4   3  -7  368.18   19.58
   4   3  -7  374.16   17.82
  -4  -3   7  352.47   19.60
   3   3  -7   70.86    6.58
   3   3  -7   59.66    7.45
  -3  -3   7   59.65    6.66
   2   3  -7  313.87   14.93
   2   3  -7  314.19   15.77
  -2  -3   7  300.73   15.24
   1   3  -7  111.25    8.31
   1   3  -7  114.41    7.57
  -1  -3   7  109.26    9.87
  -1  -3   7  113.92    7.90
   0   3  -7   57.36    6.69
   0   3  -7   60.40    5.71
   0  -3   7   57.06    7.89
   0  -3   7   60.57    5.79
  -1   3  -7  334.50   17.03
  -1   3  -7  340.74   16.23
   1  -3   7  343.27   16.19
  -2   3  -7    0.99    3.41
  -2   3  -7   -0.60    2.91
  -2   3  -7   -0.04    2.69
   2  -3   7    3.06    2.35
  -3   3  -7  332.99   17.53
  -3   3  -7  306.25   15.34
   3  -3   7  340.32   15.96
  -4   3  -7  578.85   27.42
  -4   3  -7  521.55   24.17
   4  -3   7  613.04   26.42
   4  -3   7  598.85   24.89
  -5   3  -7    2.53    4.49
   5  -3   7    1.36    3.41
   5  -3   7    1.95    4.98
  -6   3  -7   39.60   10.50
   6  -3   7   22.50    6.06
   7   2  -7   10.63    8.85
   7   2  -7   -1.00    7.80
  -7  -2   7   13.54    5.78
   6   2  -7  258.16   15.78
   6   2  -7  227.40   17.71
  -6  -2   7  256.92   16.06
  -6  -2   7  262.78   13.74
   5   2  -7   15.23    5.49
   5   2  -7   18.97    4.79
  -5  -2   7    8.38    4.34
   4   2  -7   64.58    8.79
   4   2  -7   68.73    7.17
  -4  -2   7   61.48    7.36
   3   2  -7   -2.69    3.09
   3   2  -7   -1.16    3.19
  -3  -2   7    3.77    2.82
   2   2  -7   35.33    5.21
   2   2  -7   26.64    4.86
   1   2  -7  231.65   11.97
   1   2  -7  216.36   11.46
   1   2  -7  219.61   11.24
  -1  -2   7  223.96   12.02
  -1  -2   7  230.88   12.56
  -1  -2   7  218.24   11.71
   0   2  -7 3481.50  128.98
   0   2  -7 3333.96  128.03
   0   2  -7 3502.92  128.34
   0   2  -7 3308.82  128.39
   0  -2   7 3396.01  129.55
   0  -2   7 3503.90  128.74
  -1   2  -7  799.84   35.15
  -1   2  -7  902.76   35.51
  -1   2  -7  854.15   35.06
  -1   2  -7  909.36   36.37
   1  -2   7  897.17   35.54
   1  -2   7  857.81   36.83
  -2   2  -7  754.00   32.55
  -2   2  -7  770.48   31.84
  -2   2  -7  750.49   31.11
   2  -2   7  777.93   31.63
  -3   2  -7  648.23   27.31
  -3   2  -7  670.88   29.55
   3  -2   7  671.37   27.78
  -4   2  -7  703.10   31.89
  -4   2  -7  692.43   29.09
   4  -2   7  716.51   29.53
   4  -2   7  736.65   30.68
  -5   2  -7    3.59    3.36
  -5   2  -7   11.66    4.67
   5  -2   7    7.14    4.33
  -6   2  -7  191.98   15.33
   6  -2   7  183.41   13.26
  -7   2  -7    3.91    7.48
   7  -2   7    7.12    6.37
   7   1  -7   48.57   12.72
  -7  -1   7   46.09    9.59
   6   1  -7  252.08   15.78
   6   1  -7  253.93   17.77
  -6  -1   7  256.98   13.92
  -6  -1   7  260.47   14.06
   5   1  -7    2.96    4.33
   5   1  -7   -2.47    5.28
  -5  -1   7   -3.33    3.58
  -5  -1   7    2.35    3.83
   4   1  -7  222.11   12.90
   4   1  -7  236.69   14.06
  -4  -1   7  235.43   12.32
   3   1  -7  221.38   12.20
   3   1  -7  222.66   11.43
   3   1  -7  207.44   11.25
  -3  -1   7  224.93   11.77
  -3  -1   7  194.97   11.98
   2   1  -7  291.29   13.79
   2   1  -7  294.60   13.83
   2   1  -7  262.46   13.43
  -2  -1   7  284.86   14.03
  -2  -1   7  288.72   14.16
  -2  -1   7  268.21   13.85
   1   1  -7   60.11    5.62
   1   1  -7   58.07    5.72
   1   1  -7   64.25    5.08
  -1  -1   7   55.49    5.61
  -1  -1   7   59.03    5.89
  -1  -1   7   54.58    6.24
   0   1  -7  381.79   17.50
   0   1  -7  373.08   17.25
   0   1  -7  403.17   17.23
   0  -1   7  393.28   17.57
   0  -1   7  369.61   17.86
  -1   1  -7 1191.08   47.70
  -1   1  -7 1225.18   48.27
  -1   1  -7 1267.24   47.81
  -1   1  -7 1194.06   47.45
   1  -1   7 1186.49   48.68
   1  -1   7 1226.92   47.90
  -2   1  -7  225.25   11.45
  -2   1  -7  214.89   11.65
  -2   1  -7  211.23   11.31
  -2   1  -7  214.97   12.06
   2  -1   7  221.83   11.22
  -3   1  -7  682.95   31.38
  -3   1  -7  677.46   28.84
  -3   1  -7  674.84   28.07
  -3   1  -7  691.58   29.85
   3  -1   7  683.21   28.30
  -4   1  -7   15.45    3.26
  -4   1  -7   18.04    4.80
   4  -1   7   23.04    4.49
  -5   1  -7   60.03    6.99
  -5   1  -7   57.69    9.37
   5  -1   7   54.23    7.58
  -6   1  -7   -1.97    5.74
  -7   1  -7    1.82    7.09
   7  -1   7   16.67    6.27
   7   0  -7  111.86   15.87
   7   0  -7  127.51   14.32
  -7   0   7  144.37   11.57
   6   0  -7   46.66    9.68
   6   0  -7   32.58    7.33
  -6   0   7   43.99    7.76
   5   0  -7   78.38   12.74
   5   0  -7   78.40    7.95
   5   0  -7   63.14    8.47
  -5   0   7   71.50    7.55
   4   0  -7  143.12   10.59
   4   0  -7  134.00    8.78
   4   0  -7  133.63    9.37
  -4   0   7  109.34    9.11
  -4   0   7  129.32    8.65
  -4   0   7  133.58    8.43
   3   0  -7  115.81    8.17
   3   0  -7  112.40    7.90
   3   0  -7  129.65    8.76
  -3   0   7  119.22    8.39
  -3   0   7  121.38    7.92
   2   0  -7  882.60   34.58
   2   0  -7  890.57   34.44
   2   0  -7  826.91   34.22
  -2   0   7  846.15   34.55
  -2   0   7  874.59   34.75
  -2   0   7  801.01   34.28
   1   0  -7  216.54   11.28
   1   0  -7  220.18   10.85
   1   0  -7  233.82   11.03
  -1   0   7  215.78   11.19
  -1   0   7  228.54   11.39
  -1   0   7  214.58   11.35
   0   0  -7 1104.24   42.01
   0   0  -7 1028.70   41.83
   0   0  -7 1035.70   41.54
   0   0   7 1092.66   42.39
   0   0   7 1056.89   42.00
   0   0   7 1082.13   42.42
  -1   0  -7 1170.35   47.47
  -1   0  -7 1236.67   47.80
  -1   0  -7 1244.40   47.51
  -1   0  -7 1240.23   47.91
   1   0   7 1242.33   47.98
   1   0   7 1187.26   48.24
  -2   0  -7  365.19   17.33
  -2   0  -7  328.87   15.69
  -2   0  -7  351.90   15.70
  -2   0  -7  348.52   16.42
  -2   0  -7  341.41   15.94
   2   0   7  347.55   15.94
  -3   0  -7   34.66    4.75
  -3   0  -7   31.94    7.01
  -3   0  -7   26.99    5.64
  -3   0  -7   37.65    5.67
  -3   0  -7   29.13    5.45
   3   0   7   27.49    4.21
  -4   0  -7  653.95   29.06
  -4   0  -7  636.85   26.71
   4   0   7  644.82   26.74
  -5   0  -7  506.97   22.07
  -5   0  -7  517.36   22.07
  -5   0  -7  535.35   25.50
  -6   0  -7  108.97   11.64
   6   0   7   94.42    9.44
  -7   0  -7   46.19   12.59
   7   0   7   27.78    6.10
   7  -1  -7   19.23    8.82
  -7   1   7    4.11    5.91
   6  -1  -7    2.48    5.94
   6  -1  -7    7.55    6.47
  -6   1   7    2.71    4.73
   5  -1  -7 1244.85   50.34
   5  -1  -7 1167.38   47.05
   5  -1  -7 1175.86   49.05
  -5   1   7 1237.40   48.17
   4  -1  -7  246.44   12.88
   4  -1  -7  281.89   14.94
   4  -1  -7  262.23   13.65
  -4   1   7  258.13   13.13
  -4   1   7  243.82   13.66
  -4   1   7  242.65   13.20
   3  -1  -7   28.95    5.15
   3  -1  -7   38.78    6.24
   3  -1  -7   31.05    5.63
   3  -1  -7   31.78    5.27
  -3   1   7   38.79    5.45
  -3   1   7   36.87    4.99
  -3   1   7   25.09    5.05
   2  -1  -7  279.03   12.92
   2  -1  -7  272.39   12.92
   2  -1  -7  254.04   12.95
  -2   1   7  276.72   13.17
  -2   1   7  267.71   12.81
  -2   1   7  262.10   13.04
   1  -1  -7  210.47   10.43
   1  -1  -7  211.02    9.98
   1  -1  -7  208.68   10.70
  -1   1   7  198.71   10.37
  -1   1   7  200.16   10.41
  -1   1   7  209.36   10.75
   0  -1  -7  252.63   12.66
   0  -1  -7  266.78   12.24
   0  -1  -7  274.73   12.22
   0   1   7  271.59   12.67
   0   1   7  267.34   12.55
   0   1   7  275.06   12.92
  -1  -1  -7  137.40    7.72
  -1  -1  -7  134.82    7.89
  -1  -1  -7  148.84    8.28
   1   1   7  150.02    8.17
   1   1   7  137.91    8.06
  -2  -1  -7   30.07    3.81
  -2  -1  -7   30.68    4.43
  -2  -1  -7   29.05    4.79
  -2  -1  -7   23.37    4.52
  -2  -1  -7   30.78    5.85
   2   1   7   27.49    4.06
  -3  -1  -7    0.48    2.50
  -3  -1  -7    3.82    3.52
  -3  -1  -7    2.01    2.08
  -3  -1  -7    2.19    2.89
  -3  -1  -7   -1.75    2.58
   3   1   7    1.23    1.81
  -4  -1  -7   -0.95    2.60
  -4  -1  -7   -2.74    3.51
  -4  -1  -7    1.83    3.49
  -4  -1  -7   -2.12    2.20
  -4  -1  -7   -4.03    4.22
  -5  -1  -7  465.04   24.99
  -5  -1  -7  453.33   20.38
  -5  -1  -7  469.49   20.19
   5   1   7  483.83   21.03
  -6  -1  -7  323.34   19.50
   6   1   7  327.79   16.68
  -7  -1  -7   -4.35    6.74
   7   1   7   -0.41    4.95
  -8  -1  -7    7.17    8.66
   8   1   7    5.06    6.53
   7  -2  -7    8.12    9.01
   7  -2  -7   11.96    8.51
  -7   2   7   12.79    6.84
   6  -2  -7   49.89   10.43
   6  -2  -7   73.81   12.30
  -6   2   7   62.07    9.11
   5  -2  -7  963.07   41.26
   5  -2  -7 1050.33   43.80
   5  -2  -7 1077.00   44.31
   5  -2  -7 1079.63   41.79
  -5   2   7 1093.17   42.81
   4  -2  -7 1156.46   47.73
   4  -2  -7 1360.90   49.98
   4  -2  -7 1232.42   49.35
  -4   2   7 1156.80   47.98
  -4   2   7 1229.45   48.61
   3  -2  -7   62.65    6.08
   3  -2  -7   64.77    7.00
   3  -2  -7   61.60    6.37
  -3   2   7   56.24    5.65
  -3   2   7   58.60    6.30
   2  -2  -7   26.29    4.84
   2  -2  -7   29.98    4.77
   2  -2  -7   28.21    4.99
   2  -2  -7   27.12    4.56
  -2   2   7   23.07    4.46
  -2   2   7   17.79    4.50
  -2   2   7   29.01    4.79
  -2   2   7   29.33    4.46
   1  -2  -7  166.66    8.86
   1  -2  -7  155.95    8.42
   1  -2  -7  170.58    8.21
   1  -2  -7  160.54    9.26
  -1   2   7  171.93    8.92
  -1   2   7  164.03    9.20
   0  -2  -7   44.24    4.51
   0  -2  -7   49.99    4.26
   0  -2  -7   49.24    5.40
   0   2   7   53.34    4.55
   0   2   7   42.14    4.69
   0   2   7   50.71    4.53
  -1  -2  -7  160.80    8.22
  -1  -2  -7  169.86    8.40
  -1  -2  -7  155.89    9.27
   1   2   7  171.65    8.94
   1   2   7  164.82    9.05
  -2  -2  -7 1004.95   41.25
  -2  -2  -7 1064.23   41.82
  -2  -2  -7 1082.48   42.23
  -2  -2  -7 1125.31   42.44
  -2  -2  -7 1055.95   41.66
  -3  -2  -7  733.46   30.75
  -3  -2  -7  726.99   29.59
  -3  -2  -7  718.87   30.36
  -3  -2  -7  724.29   29.86
  -4  -2  -7  833.87   35.72
  -4  -2  -7  896.79   35.69
  -4  -2  -7  895.30   35.79
  -4  -2  -7  913.68   35.57
  -4  -2  -7  871.25   37.34
  -4  -2  -7  917.90   37.46
  -5  -2  -7  827.86   34.13
  -5  -2  -7  861.26   33.82
  -5  -2  -7  835.56   36.54
   7  -3  -7  371.94   24.74
   6  -3  -7  137.49   14.24
  -6   3   7  129.22   11.63
   5  -3  -7   13.88    5.54
   5  -3  -7   14.70    5.34
  -5   3   7   12.14    4.47
   4  -3  -7 1102.48   41.39
   4  -3  -7 1036.97   39.92
   4  -3  -7  943.90   39.67
   4  -3  -7 1005.72   41.40
  -4   3   7 1017.98   40.63
  -4   3   7  921.92   39.57
   3  -3  -7    2.28    3.05
   3  -3  -7   -3.11    2.44
   3  -3  -7    0.82    3.28
   3  -3  -7   -3.71    3.31
  -3   3   7    4.07    2.52
  -3   3   7    2.10    3.28
   2  -3  -7   72.74    5.64
   2  -3  -7   69.92    6.33
   2  -3  -7   70.49    6.48
   2  -3  -7   64.87    5.97
  -2   3   7   61.69    5.93
   1  -3  -7   32.06    4.40
   1  -3  -7   43.04    4.50
   1  -3  -7   36.27    5.62
   1  -3  -7   41.53    4.84
  -1   3   7   39.16    4.73
   0  -3  -7   90.89    5.89
   0  -3  -7   93.04    6.21
   0  -3  -7   93.85    6.31
   0  -3  -7   79.80    6.59
   0   3   7   94.06    6.15
   0   3   7   83.57    5.99
  -1  -3  -7    3.14    1.74
  -1  -3  -7    5.47    2.04
  -1  -3  -7    9.08    2.40
   1   3   7    7.47    2.14
   1   3   7    6.13    2.18
  -2  -3  -7   47.66    5.97
  -2  -3  -7   43.14    5.24
  -2  -3  -7   47.25    4.85
  -2  -3  -7   47.74    4.78
  -2  -3  -7   46.02    4.61
  -3  -3  -7  311.38   15.58
  -3  -3  -7  334.21   15.58
  -3  -3  -7  349.33   15.14
  -3  -3  -7  316.68   14.66
  -3  -3  -7  320.99   15.56
  -4  -3  -7   29.30    6.62
  -4  -3  -7   30.62    6.95
  -4  -3  -7   33.41    5.25
  -4  -3  -7   45.23    5.08
  -4  -3  -7   40.76    5.73
  -5  -3  -7    6.78    3.87
  -5  -3  -7    1.84    2.79
  -5  -3  -7   -0.74    3.22
  -6  -3  -7   35.73    6.38
  -6  -3  -7   48.25    8.67
   6   3   7   46.67    9.20
  -7  -3  -7   -2.92    4.60
   7   3   7   -7.83    6.30
  -8  -3  -7   25.89    6.35
   8   3   7   14.02    8.45
   6  -4  -7   56.34   13.30
   6  -4  -7   54.28   12.34
  -6   4   7   68.25   10.51
   5  -4  -7  152.34   12.87
   5  -4  -7  202.66   13.32
  -5   4   7  185.65   12.31
   4  -4  -7    6.21    3.81
   4  -4  -7    3.88    3.09
   4  -4  -7    3.92    4.52
  -4   4   7    1.74    3.07
  -4   4   7   -1.21    4.02
   3  -4  -7  234.41   11.50
   3  -4  -7  210.45   11.79
   3  -4  -7  220.08   12.74
   2  -4  -7  111.09    7.64
   2  -4  -7  106.78    7.21
   2  -4  -7   84.75    7.38
  -2   4   7  114.44    7.70
   1  -4  -7 1843.67   72.94
   1  -4  -7 2065.71   73.56
   1  -4  -7 1891.74   73.70
   1  -4  -7 1975.45   73.55
  -1   4   7 1814.11   72.95
  -1   4   7 1967.81   73.50
   0  -4  -7 2646.31   96.81
   0  -4  -7 2514.49   96.89
   0  -4  -7 2467.22   96.02
   0  -4  -7 2636.82   96.13
   0   4   7 2553.88   96.46
  -1  -4  -7 1578.50   58.57
  -1  -4  -7 1462.40   57.73
  -1  -4  -7 1510.32   58.70
   1   4   7 1504.81   57.98
  -2  -4  -7  574.06   23.54
  -2  -4  -7  564.58   23.24
  -2  -4  -7  531.11   23.85
   2   4   7  561.23   23.01
  -3  -4  -7  995.89   38.71
  -3  -4  -7  933.05   38.31
  -3  -4  -7  966.84   38.69
  -3  -4  -7  993.25   38.61
  -3  -4  -7  956.19   39.03
   3   4   7  980.61   38.45
  -4  -4  -7  133.76    7.97
  -4  -4  -7  121.08    8.26
  -4  -4  -7  128.54    9.63
  -4  -4  -7  119.53    8.89
  -4  -4  -7  123.19    8.31
   4   4   7  124.51    8.92
  -5  -4  -7   71.49    8.59
  -5  -4  -7   78.50    7.21
  -5  -4  -7   59.66    8.34
  -5  -4  -7   63.56    6.30
   5   4   7   65.98    8.07
  -6  -4  -7    6.15    4.42
  -6  -4  -7   -2.95    4.95
  -6  -4  -7    9.71    3.85
  -7  -4  -7  462.93   21.02
   7   4   7  393.42   23.31
   8   4   7   28.94    8.55
   6  -5  -7   48.93   11.40
   6  -5  -7   53.51   13.87
   5  -5  -7    5.09    6.13
   5  -5  -7    4.81    6.32
  -5   5   7    1.72    5.25
   4  -5  -7   25.46    5.82
   4  -5  -7   18.30    4.37
   4  -5  -7   21.89    5.22
  -4   5   7   26.88    4.99
   3  -5  -7 1124.40   42.84
   3  -5  -7 1029.32   42.95
   3  -5  -7 1072.79   45.42
  -3   5   7 1104.52   43.52
   2  -5  -7  292.11   14.20
   2  -5  -7  298.97   13.68
   2  -5  -7  264.84   14.13
  -2   5   7  274.11   13.85
   1  -5  -7  468.51   19.87
   1  -5  -7  483.07   20.11
   1  -5  -7  427.02   19.62
   1  -5  -7  438.39   20.39
  -1   5   7  467.71   20.19
   0  -5  -7  346.77   16.45
   0  -5  -7  341.50   15.73
   0  -5  -7  356.55   15.97
   0   5   7  343.58   15.82
  -1  -5  -7   -1.14    1.97
  -1  -5  -7   -2.32    2.87
  -1  -5  -7   -1.69    2.72
   1   5   7    5.26    2.58
  -2  -5  -7  501.36   22.66
  -2  -5  -7  538.04   22.19
  -2  -5  -7  525.80   22.20
   2   5   7  512.48   21.88
  -3  -5  -7  280.94   14.10
  -3  -5  -7  302.72   15.03
  -3  -5  -7  291.74   13.68
  -3  -5  -7  308.05   14.20
   3   5   7  296.84   14.07
  -4  -5  -7   11.92    3.97
  -4  -5  -7    5.32    2.69
   4   5   7    3.68    3.20
  -5  -5  -7   16.18    3.37
  -5  -5  -7   11.06    4.46
   5   5   7   23.97    6.98
  -6  -5  -7   -0.04    5.26
  -6  -5  -7   -4.43    3.85
   6   5   7    1.87    5.73
  -7  -5  -7  324.10   16.18
  -7  -5  -7  349.23   18.17
   7   5   7  307.16   19.39
  -8  -5  -7  159.52   13.29
   8   5   7  139.18   15.99
   5  -6  -7    8.99    7.06
  -5   6   7    4.60    5.73
   4  -6  -7   48.52    9.34
   4  -6  -7   48.76    9.09
  -4   6   7   58.92    8.63
   3  -6  -7  317.07   14.58
   3  -6  -7  276.26   15.17
   3  -6  -7  299.77   15.98
  -3   6   7  316.75   15.57
   2  -6  -7  193.08   11.08
   2  -6  -7  187.91   10.16
   2  -6  -7  162.24   10.85
  -2   6   7  164.97   13.69
   1  -6  -7    3.77    2.38
   1  -6  -7    7.89    3.06
  -1   6   7    1.95    3.12
  -1   6   7    1.08    3.01
   0  -6  -7  529.21   22.20
   0  -6  -7  483.62   22.65
   0  -6  -7  542.26   24.45
   0   6   7  516.67   22.33
  -1  -6  -7 1146.27   43.58
  -1  -6  -7 1019.74   43.06
   1   6   7 1135.23   43.54
  -2  -6  -7   89.28    6.53
  -2  -6  -7   84.20    6.96
   2   6   7   94.44    6.75
  -3  -6  -7  278.48   13.51
   3   6   7  264.28   13.49
  -4  -6  -7 1097.11   43.12
  -4  -6  -7 1049.86   42.75
   4   6   7 1105.16   43.44
  -5  -6  -7 2559.26  106.66
  -5  -6  -7 2941.98  106.50
  -5  -6  -7 2828.27  107.25
   5   6   7 2946.10  108.17
  -6  -6  -7   17.70    4.23
  -6  -6  -7   13.43    4.65
   6   6   7   17.24    5.23
  -7  -6  -7  343.61   18.66
  -7  -6  -7  320.66   16.38
   7   6   7  314.35   19.24
  -8  -6  -7  123.07   13.10
   8   6   7   83.90   15.42
   5  -7  -7  404.06   23.66
  -5   7   7  472.67   22.50
   4  -7  -7  250.01   12.95
   4  -7  -7  242.31   16.09
  -4   7   7  253.96   14.82
   3  -7  -7  185.41   10.56
   3  -7  -7  175.22   12.38
  -3   7   7  181.72   11.56
   2  -7  -7  327.85   15.73
   2  -7  -7  326.32   16.57
  -2   7   7  331.22   16.37
   1  -7  -7   47.43    6.26
   1  -7  -7   53.39    5.79
  -1   7   7   47.23    6.78
   0  -7  -7   49.34    5.41
   0   7   7   37.49    5.89
  -1  -7  -7   70.50    6.41
   1   7   7   72.88    6.58
  -2  -7  -7   -2.38    2.43
   2   7   7    5.88    2.92
  -3  -7  -7   86.65    7.20
   3   7   7   76.05    7.10
  -4  -7  -7   79.61    7.55
  -4  -7  -7   75.10    7.22
   4   7   7   88.30    7.58
  -5  -7  -7  326.87   17.10
  -5  -7  -7  326.35   17.18
  -5  -7  -7  338.74   16.71
   5   7   7  334.66   17.11
  -6  -7  -7  154.76   14.12
  -6  -7  -7  135.94   11.08
   6   7   7  130.81   11.79
  -7  -7  -7  124.15   12.35
  -7  -7  -7  136.95   10.86
   7   7   7  101.95   13.17
  -8  -7  -7   -1.10    6.84
  -8  -7  -7   -3.90    7.65
   8   7   7   -4.94    8.38
   5  -8  -7  205.46   20.48
   4  -8  -7   34.89    7.62
   4  -8  -7   33.19    5.18
  -4   8   7   35.90    6.74
   3  -8  -7  177.48   13.93
   3  -8  -7  130.53   11.60
  -3   8   7  146.43   11.62
   2  -8  -7   27.46    5.47
   2  -8  -7   18.17    4.91
  -2   8   7   29.14    5.13
   1  -8  -7    4.19    3.54
  -1   8   7    8.71    4.10
   0  -8  -7  107.17    9.66
   0   8   7   94.67    8.14
  -1  -8  -7  470.39   23.40
  -3  -8  -7   78.69    7.85
   3   8   7   67.24    7.33
  -4  -8  -7  357.17   17.08
  -5  -8  -7  300.91   15.61
  -5  -8  -7  290.64   15.21
  -5  -8  -7  262.76   15.48
   5   8   7  313.50   16.12
  -6  -8  -7  632.59   28.60
  -6  -8  -7  636.17   27.52
   6   8   7  623.72   29.33
  -7  -8  -7   19.48    5.46
  -8  -8  -7  144.70   14.04
   8   8   7   90.73   16.47
   4  -9  -7  128.23   11.72
   4  -9  -7  186.31   15.61
  -4   9   7  154.30   13.94
   3  -9  -7   20.68    4.51
   3  -9  -7   23.16    6.26
  -3   9   7   30.72    6.77
   2  -9  -7    5.16    4.09
  -2   9   7   20.00    5.48
   1  -9  -7  187.29   11.50
  -1   9   7  188.51   12.31
   0  -9  -7  133.97    9.02
   0   9   7  122.77    9.78
  -1  -9  -7  250.81   13.47
   1   9   7  256.40   13.77
  -2  -9  -7  322.21   15.80
   2   9   7  322.03   15.99
  -3  -9  -7   21.86    3.99
   3   9   7   28.45    4.68
  -4  -9  -7  333.39   16.87
  -5  -9  -7   18.24    5.25
  -5  -9  -7    9.90    6.00
   5   9   7   15.63    5.17
  -6  -9  -7   18.45    5.99
  -6  -9  -7   14.93    5.05
   6   9   7   10.27    7.13
  -7  -9  -7    4.00    6.39
  -7  -9  -7   -0.90    5.43
   7   9   7   -0.24    7.61
   3 -10  -7   -1.52    7.14
  -3  10   7   -3.57    6.50
   2 -10  -7    0.13    4.37
  -2  10   7    0.91    5.84
   1 -10  -7  291.82   15.52
  -1  10   7  297.72   16.32
   0 -10  -7  805.11   34.62
   0  10   7  856.43   35.06
  -1 -10  -7  288.71   15.61
   1  10   7  306.67   15.76
  -2 -10  -7  233.55   13.51
   2  10   7  242.98   13.90
  -3 -10  -7  129.28    9.84
   3  10   7  119.96   10.67
  -4 -10  -7   10.19    4.35
  -5 -10  -7    7.06    5.62
  -5 -10  -7    2.84    4.75
  -6 -10  -7  382.28   21.21
  -6 -10  -7  375.55   20.14
   6  10   7  472.63   29.86
  -7 -10  -7  254.71   16.32
  -7 -10  -7  280.17   18.25
   7  10   7  257.24   19.00
   2 -11  -7   44.82    9.62
  -2  11   7   57.87   11.94
   1 -11  -7   80.49    9.37
  -1  11   7   54.36   10.79
   0 -11  -7    3.23    4.75
   0  11   7    7.06    5.45
   1  11   7   38.25    6.31
   2  11   7   37.97    6.19
  -3 -11  -7    2.87    4.58
  -4 -11  -7   40.34    8.70
  -5 -11  -7   10.42    5.25
  -5 -11  -7    4.79    6.12
   5  11   7   21.63    9.46
  -6 -11  -7  186.04   14.19
  -6 -11  -7  193.47   15.22
   6  11   7  181.35   20.23
   1 -12  -7    9.07    5.87
   0 -12  -7   -8.01    5.40
  -1 -12  -7   48.88    9.59
  -2 -12  -7    4.46    5.19
   2  12   7    5.98    6.26
  -3 -12  -7  320.01   17.38
   3  12   7  322.17   18.37
  -4 -12  -7  857.40   36.77
  -5 -12  -7  463.22   23.08
  -5 -12  -7  421.57   22.11
  -1 -13  -7    3.09    5.97
  -2 -13  -7   19.95    6.71
   2  13   7   21.20    7.42
   3  13   7   17.05    7.47
   2   8  -8   14.33    6.56
   2   8  -8   -4.76    6.93
  -2  -8   8   -3.37    5.38
   1   8  -8   49.79   12.02
   1   8  -8   63.23   12.18
  -1  -8   8   75.23   10.19
   0   8  -8   10.17    5.90
   0   8  -8   -4.68    5.71
   0  -8   8    3.63    4.99
  -1   8  -8   54.90   11.79
   1  -8   8   50.10    9.79
   4   7  -8    4.90    7.44
  -4  -7   8    1.71    6.07
   3   7  -8  173.19   14.40
   3   7  -8  211.74   13.66
  -3  -7   8  180.24   13.81
   2   7  -8   13.93    5.51
  -2  -7   8    9.80    4.93
   1   7  -8   83.57   11.11
   1   7  -8   83.67   11.16
   0   7  -8  220.06   15.42
   0   7  -8  241.10   14.82
   0  -7   8  222.22   13.99
  -1   7  -8  279.03   16.52
  -1   7  -8  248.06   17.20
   1  -7   8  263.85   15.54
  -2   7  -8  474.57   23.42
  -2   7  -8  445.67   24.28
   2  -7   8  440.67   22.54
   5   6  -8   24.20    7.35
   5   6  -8   21.65    8.85
  -5  -6   8   29.92    6.90
   4   6  -8   95.00   13.08
   4   6  -8  102.19   11.47
  -4  -6   8  113.48   11.55
   3   6  -8   46.55    9.67
   3   6  -8   41.25    9.32
   2   6  -8  186.19   14.15
   2   6  -8  228.50   13.34
  -2  -6   8  188.21   12.96
   1   6  -8  739.12   33.51
   1   6  -8  765.52   32.48
  -1  -6   8  715.83   32.50
   0   6  -8  396.16   19.39
   0   6  -8  360.75   20.10
   0  -6   8  385.66   19.32
  -1   6  -8    6.06    4.66
  -1   6  -8    8.54    4.88
  -2   6  -8   -2.28    4.96
  -2   6  -8   -3.80    4.71
   2  -6   8    0.10    3.86
  -3   6  -8   16.42    5.70
  -3   6  -8   15.07    5.24
   3  -6   8   12.29    4.50
   4  -6   8   89.51   10.83
   5   5  -8    5.49    7.82
  -5  -5   8    4.07    5.91
   4   5  -8  281.89   18.12
   4   5  -8  288.94   15.92
  -4  -5   8  283.85   16.55
   3   5  -8  224.96   14.45
   3   5  -8  217.89   13.46
  -3  -5   8  204.94   13.33
   2   5  -8    9.60    4.22
  -2  -5   8    1.43    3.74
   1   5  -8  284.57   15.77
   1   5  -8  271.01   14.78
  -1  -5   8  255.07   14.58
   0   5  -8  707.59   29.77
   0   5  -8  650.67   30.42
   0  -5   8  665.89   29.68
  -1   5  -8   69.00    8.92
  -1   5  -8   82.53    8.34
   1  -5   8   69.76    7.59
  -2   5  -8   37.05    7.78
  -2   5  -8   39.63    8.27
   2  -5   8   45.70    6.90
  -3   5  -8  106.50   10.73
  -3   5  -8  136.83   11.66
   3  -5   8  118.14    9.71
  -4   5  -8   19.58    5.48
   4  -5   8   15.58    4.39
   6   4  -8  110.87   12.95
   6   4  -8  114.14   16.40
  -6  -4   8   96.67   13.55
   5   4  -8  267.67   19.74
   5   4  -8  338.02   17.99
  -5  -4   8  337.89   18.02
   4   4  -8 1547.42   63.83
   4   4  -8 1581.52   61.89
  -4  -4   8 1550.61   62.30
   3   4  -8  336.60   17.30
   3   4  -8  339.67   18.22
  -3  -4   8  336.27   17.60
   2   4  -8   18.68    5.09
  -2  -4   8   26.07    4.32
   1   4  -8   69.89    7.41
   1   4  -8   80.18    8.10
  -1  -4   8   67.85    7.29
   0   4  -8  148.52   10.83
   0   4  -8  156.51   10.00
   0  -4   8  142.96    9.75
  -1   4  -8   17.32    4.19
  -1   4  -8   12.70    3.83
  -2   4  -8    3.03    3.86
  -2   4  -8    3.61    3.66
   2  -4   8   -2.57    3.01
  -3   4  -8  163.31   11.45
  -3   4  -8  145.76   11.81
   3  -4   8  156.03   10.56
  -4   4  -8  320.58   19.31
   4  -4   8  346.28   16.76
  -5   4  -8   -1.15    5.50
   5  -4   8    2.76    4.55
   6   3  -8  136.87   17.19
   6   3  -8  168.96   13.88
  -6  -3   8  200.20   13.88
   5   3  -8    8.90    6.41
   5   3  -8   -0.43    5.82
  -5  -3   8    5.75    5.12
   4   3  -8    6.24    4.62
  -4  -3   8    9.71    4.20
   3   3  -8  158.45   10.07
   3   3  -8  151.60   10.99
  -3  -3   8  134.75   10.12
   2   3  -8  104.57    8.08
  -2  -3   8   87.04    8.00
   1   3  -8  310.44   16.43
   1   3  -8  319.89   16.38
  -1  -3   8  323.73   15.99
   0   3  -8   -2.38    3.16
   0   3  -8   -1.39    3.10
  -1   3  -8 2076.42   80.35
  -2   3  -8  484.20   22.36
  -2   3  -8  484.16   23.35
  -3   3  -8  391.67   19.38
  -3   3  -8  388.24   20.22
   3  -3   8  384.64   20.01
  -4   3  -8  723.33   33.53
   4  -3   8  740.05   31.44
  -5   3  -8  222.33   15.46
   5  -3   8  220.59   12.40
  -6   3  -8   12.57    5.96
   6  -3   8   -0.51    6.86
   6   2  -8  556.86   26.74
   6   2  -8  496.64   28.64
  -6  -2   8  570.66   25.68
  -6  -2   8  565.03   24.94
   5   2  -8  164.71   12.57
   5   2  -8  164.13   14.13
  -5  -2   8  192.53   12.25
   4   2  -8   53.28    7.77
   4   2  -8   55.77    9.17
  -4  -2   8   45.03    7.59
   3   2  -8  645.98   27.79
   3   2  -8  654.09   28.65
  -3  -2   8  621.78   28.02
   2   2  -8  312.02   15.66
   1   2  -8   62.44    6.67
   1   2  -8   66.93    6.32
  -1  -2   8   56.22    7.76
  -1  -2   8   60.85    6.33
   0   2  -8   21.69    5.05
   0   2  -8   27.62    5.63
   0  -2   8   20.25    3.45
   0  -2   8   27.73    6.91
  -1   2  -8  356.79   17.11
  -1   2  -8  366.62   17.96
   1  -2   8  352.10   17.31
  -2   2  -8  131.56    9.46
  -2   2  -8  115.86   12.58
   2  -2   8  135.01    8.83
  -3   2  -8   -3.87    3.50
  -3   2  -8    5.17    3.22
   3  -2   8   -1.78    2.96
  -4   2  -8  241.77   15.27
   4  -2   8  248.54   13.12
  -5   2  -8   10.07    5.16
   5  -2   8   -1.19    3.43
  -6   2  -8  235.67   17.45
   6  -2   8  286.04   16.59
   6   1  -8   -0.64    6.73
   6   1  -8   17.92    7.88
  -6  -1   8    6.99    5.29
   5   1  -8   34.90    8.24
  -5  -1   8   37.29    7.84
   4   1  -8   58.63   10.90
   4   1  -8   52.57    7.55
   3   1  -8  196.56   11.16
   3   1  -8  190.54   11.94
  -3  -1   8  185.80   11.13
   2   1  -8  503.87   22.00
   2   1  -8  505.69   22.16
  -2  -1   8  469.14   22.41
  -2  -1   8  496.05   22.27
   1   1  -8   84.83    7.24
   1   1  -8   94.37    6.77
  -1  -1   8  101.05    8.71
  -1  -1   8   91.73    7.50
   0   1  -8  712.65   29.49
   0   1  -8  721.28   29.94
   0  -1   8  700.51   30.57
   0  -1   8  712.16   29.98
  -1   1  -8   16.64    4.36
  -1   1  -8   12.13    3.04
   1  -1   8    7.56    3.75
  -2   1  -8  926.56   38.24
  -2   1  -8  929.67   39.03
   2  -1   8  969.18   38.63
  -3   1  -8   57.86    7.29
  -3   1  -8   41.22    8.04
   3  -1   8   64.42    6.07
  -4   1  -8  153.98   11.40
  -4   1  -8  122.56    9.74
  -4   1  -8  144.09   10.32
   4  -1   8  144.47    9.24
  -5   1  -8  475.90   21.56
  -5   1  -8  492.58   24.50
  -6   1  -8  248.25   17.46
   6  -1   8  254.41   15.60
  -7   1  -8   55.71   14.52
   7  -1   8   33.85    7.54
   6   0  -8   43.00   10.94
  -6   0   8   44.33    9.17
  -6   0   8   28.17    6.62
   5   0  -8  432.46   21.82
   5   0  -8  457.04   23.68
  -5   0   8  469.03   21.10
   4   0  -8  236.09   14.13
   4   0  -8  202.20   12.60
  -4   0   8  199.03   12.09
   3   0  -8  394.64   18.31
   3   0  -8  395.36   18.62
  -3   0   8  336.21   17.81
  -3   0   8  389.57   17.99
   2   0  -8 1160.56   45.98
   2   0  -8 1192.19   45.86
  -2   0   8 1162.09   46.37
  -2   0   8 1107.50   45.99
   1   0  -8 2189.43   83.45
   1   0  -8 2244.63   83.35
   1   0  -8 2179.01   87.73
  -1   0   8 2134.83   83.88
  -1   0   8 2216.27   84.21
   0   0  -8  193.60   10.29
   0   0  -8  196.12   10.07
   0   0  -8  171.41   10.64
   0   0   8  202.28   10.76
   0   0   8  182.97   10.94
   0   0   8  183.63   10.64
  -1   0  -8  122.21    8.45
  -1   0  -8  110.35    7.52
  -1   0  -8  118.24    7.98
   1   0   8  119.47    8.76
   1   0   8  118.78    7.95
  -2   0  -8    2.19    3.54
  -2   0  -8    3.19    4.27
  -2   0  -8    4.01    2.75
   2   0   8    3.74    2.46
  -3   0  -8   55.65    9.07
  -3   0  -8   46.58    5.97
  -3   0  -8   53.19    7.16
   3   0   8   49.16    5.63
  -4   0  -8  181.71   11.48
  -4   0  -8  199.47   13.37
   4   0   8  195.94   10.67
  -5   0  -8  357.69   19.82
  -5   0  -8  355.42   16.59
  -5   0  -8  342.01   17.16
  -6   0  -8  112.43   12.84
  -7   0  -8  138.89   15.33
   7   0   8  108.98   12.97
   6  -1  -8  106.54   14.06
   6  -1  -8   88.64   11.69
  -6   1   8   87.09   10.59
   5  -1  -8   24.46    9.17
   5  -1  -8   17.87    5.49
  -5   1   8   21.72    4.74
   4  -1  -8  165.12   12.28
   4  -1  -8  149.23   10.40
  -4   1   8  148.81   10.28
  -4   1   8  152.74    9.94
  -4   1   8  139.39   10.40
   3  -1  -8  209.58   12.24
   3  -1  -8  194.24   11.76
  -3   1   8  195.68   11.38
  -3   1   8  202.19   11.31
   2  -1  -8   10.08    2.96
   2  -1  -8   10.28    2.90
  -2   1   8   11.20    2.90
   1  -1  -8  121.39    8.75
   1  -1  -8  146.35    8.11
   1  -1  -8  139.32    8.48
  -1   1   8  128.32    8.55
  -1   1   8  149.67    8.97
  -1   1   8  143.36    8.68
   0  -1  -8    3.38    2.06
   0  -1  -8    4.81    2.68
   0  -1  -8    7.75    2.23
   0   1   8    0.70    2.70
   0   1   8    5.74    2.70
   0   1   8    4.09    2.26
  -1  -1  -8   60.05    5.65
  -1  -1  -8   54.93    6.04
  -1  -1  -8   56.49    5.40
   1   1   8   60.10    5.96
   1   1   8   65.58    5.75
  -2  -1  -8   10.39    3.04
  -2  -1  -8   17.53    4.20
  -2  -1  -8   10.46    3.09
  -2  -1  -8    6.72    2.68
  -2  -1  -8   12.98    3.91
   2   1   8   11.60    2.73
  -3  -1  -8  167.17    9.24
  -3  -1  -8  158.40   11.22
  -3  -1  -8  166.08   10.28
  -3  -1  -8  136.29    9.53
  -3  -1  -8  145.03    9.60
   3   1   8  151.50    9.08
  -4  -1  -8   74.89    8.45
  -4  -1  -8   71.34    6.99
  -4  -1  -8   67.49    7.60
  -5  -1  -8 1065.39   44.26
  -5  -1  -8  968.01   41.23
  -5  -1  -8 1063.42   41.42
  -6  -1  -8 1638.28   67.20
  -6  -1  -8 1633.42   63.05
  -7  -1  -8  136.36   15.28
   7   1   8  128.22   12.45
   6  -2  -8  225.62   16.81
  -6   2   8  192.44   14.00
   5  -2  -8  733.00   32.42
   5  -2  -8  658.55   31.44
   5  -2  -8  729.24   29.82
  -5   2   8  717.46   30.70
   4  -2  -8 1411.03   51.37
   4  -2  -8 1237.55   50.82
  -4   2   8 1317.38   50.15
  -4   2   8 1077.69   49.21
   3  -2  -8  205.92   11.51
   3  -2  -8  203.72   11.77
  -3   2   8  189.66   10.75
  -3   2   8  193.39   11.12
   2  -2  -8  108.78    8.10
   2  -2  -8  111.74    8.41
   2  -2  -8  112.47    8.13
   2  -2  -8  131.52    8.31
  -2   2   8  131.36    8.02
  -2   2   8  121.66    8.25
  -2   2   8  119.35    7.99
   1  -2  -8   31.01    4.91
   1  -2  -8   38.40    4.36
  -1   2   8   36.90    5.45
  -1   2   8   33.98    5.15
   0  -2  -8  416.61   17.15
   0  -2  -8  388.21   18.46
   0  -2  -8  418.02   17.94
   0   2   8  412.74   18.63
   0   2   8  391.79   18.05
   0   2   8  420.87   17.77
  -1  -2  -8   27.61    5.80
  -1  -2  -8   31.05    4.11
  -1  -2  -8   29.54    4.31
   1   2   8   37.46    5.53
   1   2   8   24.84    4.30
  -2  -2  -8  198.88   10.49
  -2  -2  -8  219.74   11.99
  -2  -2  -8  203.33   11.16
  -2  -2  -8  206.70   10.98
  -2  -2  -8  216.79   11.84
  -3  -2  -8 1614.39   60.68
  -3  -2  -8 1505.52   60.73
  -3  -2  -8 1625.76   61.11
  -3  -2  -8 1571.50   61.15
  -3  -2  -8 1532.83   61.85
  -3  -2  -8 1584.00   61.51
  -4  -2  -8  172.59   12.54
  -4  -2  -8  169.77   11.23
  -4  -2  -8  191.64   10.61
  -4  -2  -8  192.89   10.71
  -4  -2  -8  193.37   12.29
  -4  -2  -8  190.50   11.32
  -5  -2  -8    2.36    3.95
  -5  -2  -8   -0.05    3.22
  -5  -2  -8    6.83    5.23
  -6  -2  -8   16.69    5.13
  -6  -2  -8   31.46    7.14
  -6  -2  -8   21.70    6.49
  -7  -2  -8   13.39    7.94
  -8  -2  -8  557.99   31.34
   6  -3  -8    2.08    8.12
   6  -3  -8    4.77    7.11
  -6   3   8   -1.46    5.93
   5  -3  -8   -5.88    4.01
   5  -3  -8   -5.55    5.50
   5  -3  -8   -0.52    5.78
  -5   3   8   -2.65    5.01
   4  -3  -8   14.57    5.04
   4  -3  -8    5.15    3.65
  -4   3   8   19.54    4.50
  -4   3   8   10.04    3.79
   3  -3  -8   -2.02    3.00
   3  -3  -8   -5.19    5.31
   3  -3  -8    1.00    3.64
   3  -3  -8    6.50    3.57
  -3   3   8    1.13    3.96
  -3   3   8    3.27    3.09
   2  -3  -8  456.11   19.72
   2  -3  -8  451.58   20.04
   2  -3  -8  411.50   19.65
  -2   3   8  436.91   19.56
   1  -3  -8   38.19    4.78
   1  -3  -8   26.61    5.19
   1  -3  -8   36.95    6.23
   1  -3  -8   29.53    4.83
  -1   3   8   21.51    5.26
  -1   3   8   31.91    5.33
   0  -3  -8  510.57   21.60
   0  -3  -8  465.63   21.60
   0  -3  -8  510.75   20.99
   0   3   8  475.48   20.87
  -1  -3  -8 1195.09   48.59
  -1  -3  -8 1259.32   48.76
  -1  -3  -8 1256.03   49.88
  -1  -3  -8 1343.55   49.96
   1   3   8 1293.81   48.98
   1   3   8 1233.08   49.09
  -2  -3  -8  282.61   13.64
  -2  -3  -8  282.46   13.49
  -2  -3  -8  268.10   12.80
  -2  -3  -8  267.52   14.06
  -2  -3  -8  261.31   12.36
   2   3   8  265.54   12.61
  -3  -3  -8  376.86   17.38
  -3  -3  -8  365.61   17.00
  -3  -3  -8  372.82   17.62
  -3  -3  -8  349.63   17.63
   3   3   8  365.71   16.39
  -4  -3  -8  160.46    9.71
  -4  -3  -8  159.12   11.06
  -4  -3  -8  141.46   11.07
  -4  -3  -8  155.70   11.23
  -5  -3  -8   29.48    6.68
  -5  -3  -8   29.91    8.83
  -5  -3  -8   21.33    4.98
  -6  -3  -8  165.37   10.29
   6  -4  -8  206.69   16.23
   5  -4  -8    7.41    6.57
  -5   4   8   15.75    5.67
   4  -4  -8  453.93   22.25
   4  -4  -8  466.85   21.60
   4  -4  -8  475.51   20.96
  -4   4   8  469.96   21.84
   3  -4  -8  597.16   26.98
   3  -4  -8  629.85   26.30
  -3   4   8  619.51   26.66
   2  -4  -8  643.36   27.37
   2  -4  -8  642.67   28.83
   2  -4  -8  649.52   27.24
  -2   4   8  646.66   27.36
   1  -4  -8   -1.70    3.41
   1  -4  -8    2.94    2.74
   1  -4  -8    3.95    2.45
   1  -4  -8   12.12    4.34
  -1   4   8    6.45    2.86
  -1   4   8    5.24    3.24
   0  -4  -8 1332.73   49.57
   0  -4  -8 1322.44   48.59
   0  -4  -8 1166.75   49.07
   0  -4  -8 1204.06   48.42
   0   4   8 1258.32   48.90
   0   4   8 1206.29   48.47
  -1  -4  -8 1729.00   63.28
  -1  -4  -8 1567.53   62.12
  -1  -4  -8 1581.33   63.16
   1   4   8 1628.81   62.47
  -2  -4  -8   30.48    5.14
  -2  -4  -8   39.23    6.71
  -2  -4  -8   45.25    5.67
   2   4   8   32.85    4.80
  -3  -4  -8  171.27    9.45
  -3  -4  -8  137.05    9.29
  -3  -4  -8  162.27    9.65
  -3  -4  -8  135.12   10.41
  -3  -4  -8  143.01    9.36
   3   4   8  163.86    9.08
  -4  -4  -8   60.90    7.95
  -4  -4  -8   77.21    6.95
  -4  -4  -8   57.49    6.74
  -4  -4  -8   75.67    8.27
  -5  -4  -8   39.04    7.21
  -6  -4  -8   60.40    8.80
  -6  -4  -8   49.63    7.44
  -7  -4  -8   76.57   10.72
   7   4   8   67.13   12.78
  -8  -4  -8  297.09   18.42
   5  -5  -8  261.69   17.75
  -5   5   8  308.51   16.94
   4  -5  -8   18.75    5.50
  -4   5   8   25.37    5.17
   3  -5  -8  134.38    9.41
   3  -5  -8  143.09   10.40
  -3   5   8  141.06    9.98
   2  -5  -8  327.39   16.36
   2  -5  -8  334.86   15.87
  -2   5   8  324.61   16.23
   1  -5  -8    1.90    2.61
   1  -5  -8    3.44    2.94
  -1   5   8   -1.53    3.34
   0  -5  -8   23.41    4.73
   0   5   8   28.88    5.17
   0   5   8   27.19    5.27
  -1  -5  -8  571.61   23.94
  -1  -5  -8  512.18   23.29
   1   5   8  572.80   23.65
  -2  -5  -8  108.85    8.08
  -2  -5  -8  113.33    7.85
   2   5   8  116.20    7.67
  -3  -5  -8  123.73    8.26
   3   5   8  117.57    7.96
  -4  -5  -8   72.84    8.27
  -4  -5  -8   73.86    7.07
  -5  -5  -8  395.40   18.25
  -5  -5  -8  390.28   18.67
  -5  -5  -8  378.18   19.52
   5   5   8  388.35   19.58
  -6  -5  -8  238.08   14.62
  -6  -5  -8  250.00   13.60
   6   5   8  253.74   22.82
  -7  -5  -8  883.33   37.07
  -7  -5  -8  955.77   39.43
   7   5   8  885.81   40.65
  -8  -5  -8  411.49   21.37
   8   5   8  352.16   23.89
   5  -6  -8  515.41   28.20
  -5   6   8  628.61   27.30
   4  -6  -8   77.10    7.83
   4  -6  -8   70.43   10.79
  -4   6   8   66.81    9.78
   3  -6  -8  724.94   29.51
   3  -6  -8  672.55   30.71
  -3   6   8  716.18   30.32
   2  -6  -8  992.73   39.71
  -2   6   8  972.52   40.06
   1  -6  -8  643.39   27.49
   1  -6  -8  659.50   27.53
   0  -6  -8    0.35    2.62
   0   6   8    2.74    3.27
  -1  -6  -8   73.13    6.50
   1   6   8   80.68    6.87
  -2  -6  -8  843.84   34.25
   2   6   8  821.09   33.96
  -3  -6  -8    2.63    2.81
   3   6   8   -1.37    3.05
  -4  -6  -8   52.56    6.79
  -4  -6  -8   58.98    7.87
  -5  -6  -8  157.89   10.54
  -5  -6  -8  127.67   11.75
  -5  -6  -8  132.28   11.72
   5   6   8  156.79   10.87
  -6  -6  -8    1.20    5.11
  -6  -6  -8   -1.98    5.87
   6   6   8    0.08    6.23
  -7  -6  -8   29.98    5.85
  -7  -6  -8   27.76    6.51
   7   6   8   30.93    7.32
   8   6   8   33.30    9.18
   5  -7  -8  179.56   16.15
   4  -7  -8   63.85   10.80
   4  -7  -8   47.07   11.75
   3  -7  -8    4.16    5.13
  -3   7   8   13.90    5.16
   2  -7  -8   13.93    4.49
  -2   7   8   12.74    4.62
   1  -7  -8  141.80    9.56
   1  -7  -8  118.02   12.12
  -1   7   8  133.41    9.77
   0  -7  -8  168.03   11.64
   0   7   8  165.40   10.69
  -1  -7  -8   35.05    7.52
  -3  -7  -8  220.37   15.54
   3   7   8  217.37   12.40
  -4  -7  -8  212.54   12.21
  -5  -7  -8 1435.04   61.79
  -5  -7  -8 1668.56   62.24
  -5  -7  -8 1573.07   62.70
   5   7   8 1676.02   63.02
  -6  -7  -8  383.47   18.29
  -6  -7  -8  373.40   19.11
   6   7   8  340.96   20.55
  -7  -7  -8    1.35    5.55
  -7  -7  -8   -3.09    6.42
   7   7   8    6.77    7.35
   4  -8  -8  549.59   23.18
   4  -8  -8  455.18   25.64
  -4   8   8  535.69   25.10
   3  -8  -8   -4.83    4.10
   3  -8  -8   -7.43    5.69
  -3   8   8   -0.71    5.52
   2  -8  -8   -2.74    4.61
  -2   8   8    0.26    4.96
   1  -8  -8   74.02    7.89
  -1   8   8   83.98    8.73
   0  -8  -8  296.19   15.68
   0   8   8  334.78   16.02
  -1  -8  -8  237.96   13.33
   1   8   8  249.44   13.55
  -2  -8  -8  718.54   30.51
   2   8   8  720.53   30.41
  -3  -8  -8 1149.55   45.87
   3   8   8 1132.77   46.07
  -4  -8  -8   31.61    4.87
  -5  -8  -8   20.13    5.23
  -5  -8  -8   18.45    6.53
   5   8   8   16.85    4.95
  -6  -8  -8   35.64    8.81
  -6  -8  -8   23.89    6.08
  -7  -8  -8  257.99   17.18
  -7  -8  -8  294.50   16.09
   7   8   8  231.31   17.74
   3  -9  -8   12.23    6.97
  -3   9   8   -1.86    6.62
   2  -9  -8   13.37    4.21
   2  -9  -8   20.29    5.58
  -2   9   8    4.25    5.75
   1  -9  -8   79.88    8.34
  -1   9   8   85.71    9.46
   0  -9  -8  254.53   13.86
   0   9   8  259.30   14.37
  -1  -9  -8    7.75    3.75
   1   9   8   16.61    4.70
  -2  -9  -8  111.12    9.02
   2   9   8  110.51    9.10
  -3  -9  -8    5.48    4.00
   3   9   8   -2.30    4.26
  -4  -9  -8    2.03    4.19
  -5  -9  -8  123.25   10.67
  -5  -9  -8  130.12   11.06
   5   9   8  131.68   10.73
  -6  -9  -8  922.49   38.38
  -6  -9  -8  924.87   37.30
   6   9   8  789.69   38.02
  -7  -9  -8  116.07   12.25
   7   9   8  115.56   14.17
   3 -10  -8  448.34   23.33
   3 -10  -8  419.86   20.65
  -3  10   8  441.77   22.86
   2 -10  -8  166.91   12.01
  -2  10   8  164.00   13.57
   1 -10  -8  404.85   20.72
  -1  10   8  465.92   21.83
   0 -10  -8  689.54   30.61
   0  10   8  735.83   31.33
  -1 -10  -8  340.64   17.61
   1  10   8  364.99   18.29
  -2 -10  -8    2.72    4.09
   2  10   8   12.10    4.81
  -3 -10  -8   16.67    4.88
   3  10   8   21.11    5.23
  -4 -10  -8   -0.50    4.78
  -5 -10  -8    9.30    5.76
  -5 -10  -8   11.16    5.34
  -6 -10  -8   17.41    6.06
   6  10   8   28.06    9.10
   2 -11  -8   10.84    5.95
  -2  11   8   17.73    7.43
   1 -11  -8   17.13    5.29
  -1  11   8   19.64    6.81
   0 -11  -8   -5.73    4.99
   0  11   8    2.09    5.76
  -1 -11  -8   69.96    9.74
   1  11   8   81.64   10.93
  -2 -11  -8  193.37   13.26
   2  11   8  203.36   13.69
  -3 -11  -8   -5.85    4.95
   3  11   8    3.93    5.94
  -4 -11  -8   79.10    9.97
  -5 -11  -8  330.65   18.76
  -5 -11  -8  319.73   17.92
  -6 -11  -8   75.99   11.96
  -6 -11  -8  101.31   14.97
   0  12   8   -0.44    7.10
  -1 -12  -8  343.08   18.93
   1  12   8  372.00   19.87
  -2 -12  -8  233.30   15.30
   2  12   8  281.78   16.70
  -3 -12  -8   16.64    5.57
  -4 -12  -8  241.56   15.24
  -5 -12  -8  111.42   15.65
  -5 -12  -8  107.53   12.31
   2   7  -9   18.99    6.91
   2   7  -9    9.09    6.81
  -2  -7   9   22.01    7.19
   1   7  -9  371.50   19.46
   1   7  -9  317.85   20.60
  -1  -7   9  329.09   18.95
   0   7  -9  735.27   34.87
   0   7  -9  777.20   33.91
   0  -7   9  724.86   33.72
  -1   7  -9  216.94   16.15
   1  -7   9  236.82   15.38
   4   6  -9   59.16   12.56
   4   6  -9   70.62   13.29
  -4  -6   9   52.44   12.31
   3   6  -9   48.12   11.24
   3   6  -9   63.24   11.34
   2   6  -9   -4.59    5.75
   2   6  -9   -0.63    5.67
  -2  -6   9   -2.79    4.97
   1   6  -9   27.73    6.63
  -1  -6   9   24.57    5.36
   0   6  -9  296.32   17.89
   0   6  -9  306.80   16.84
   0  -6   9  259.22   16.32
  -1   6  -9   -4.31    5.51
  -1   6  -9   -1.10    5.61
  -2   6  -9  134.51   12.80
  -2   6  -9  132.72   12.33
   2  -6   9  119.22   11.42
   3  -6   9    8.67    5.41
   4   5  -9  509.49   24.88
   4   5  -9  538.97   27.14
  -4  -5   9  503.79   25.57
   3   5  -9  919.87   38.05
   3   5  -9  863.08   39.11
  -3  -5   9  848.30   38.21
   2   5  -9  508.12   23.33
   2   5  -9  467.59   24.29
  -2  -5   9  478.98   23.75
   0   5  -9  396.67   20.24
   0   5  -9  388.90   20.87
   0  -5   9  392.77   20.07
  -1   5  -9   66.88   10.17
  -1   5  -9   79.49   10.48
   1  -5   9   85.47    9.22
  -2   5  -9   22.61    5.43
  -2   5  -9    8.55    5.59
   2  -5   9   14.58    4.45
  -3   5  -9    3.80    5.52
  -3   5  -9    0.25    5.38
   3  -5   9    4.47    4.61
   4  -5   9  393.10   20.03
   5   4  -9    6.62    7.26
   5   4  -9    9.32    8.29
  -5  -4   9    1.45    6.63
   4   4  -9   11.45    5.80
   4   4  -9   -0.85    6.26
  -4  -4   9    6.77    5.37
   3   4  -9  272.95   16.56
   3   4  -9  277.09   15.80
  -3  -4   9  263.23   16.11
   2   4  -9   84.85    9.76
   2   4  -9  110.98    9.64
  -2  -4   9   94.95    9.72
   1   4  -9  158.38   10.55
   1   4  -9  117.20   11.01
  -1  -4   9  146.60   10.48
   0   4  -9   35.30    7.84
   0   4  -9   28.57    4.83
   0  -4   9   39.38    6.99
  -1   4  -9   83.70    9.21
  -1   4  -9   67.11    8.77
   1  -4   9   82.94    8.40
  -2   4  -9   28.91    8.59
  -2   4  -9   24.39    4.94
   2  -4   9   27.86    4.80
  -3   4  -9    0.48    4.69
  -3   4  -9    9.24    5.03
   3  -4   9    0.35    3.88
  -4   4  -9  319.04   18.83
  -4   4  -9  303.78   17.88
   4  -4   9  289.20   16.61
   5   3  -9  346.45   23.56
   5   3  -9  441.84   21.98
  -5  -3   9  425.21   21.68
   4   3  -9  211.01   16.56
   4   3  -9  256.03   14.46
  -4  -3   9  220.73   14.93
   3   3  -9  123.46    9.96
   3   3  -9  105.10   10.36
  -3  -3   9  110.66   10.30
   2   3  -9  173.52   11.38
   2   3  -9  170.69   11.68
  -2  -3   9  161.94   11.28
   1   3  -9    4.31    3.99
   1   3  -9    9.86    3.80
  -1  -3   9   11.69    3.55
   0   3  -9  141.38   10.67
   0   3  -9  147.10   10.41
   0  -3   9  144.80   10.35
  -1   3  -9  996.46   42.40
  -1   3  -9 1019.56   41.58
   1  -3   9  987.47   41.77
  -2   3  -9  614.28   27.80
  -2   3  -9  621.00   29.05
   2  -3   9  629.95   27.84
  -3   3  -9  125.16   10.94
  -3   3  -9  123.12   10.65
   3  -3   9  134.32    9.71
  -4   3  -9  222.91   14.29
  -4   3  -9  199.87   15.02
   4  -3   9  232.88   13.13
  -5   3  -9  113.16   13.31
  -5   3  -9  126.91   12.28
   5  -3   9  128.17   10.92
   6   2  -9   22.92    9.47
   6   2  -9   27.14    8.13
  -6  -2   9   31.13    7.14
   5   2  -9   37.80    6.85
   5   2  -9   24.12    7.59
  -5  -2   9   29.21    6.15
   4   2  -9   28.71    6.41
   4   2  -9   33.06    8.50
  -4  -2   9   41.84    8.59
   3   2  -9  192.08   13.13
   3   2  -9  190.05   12.17
  -3  -2   9  188.49   12.42
  -2  -2   9   12.82    3.94
   1   2  -9   -0.05    3.60
  -1  -2   9   -1.96    3.35
   0   2  -9  194.06   11.57
   0   2  -9  196.40   12.14
   0  -2   9  203.78   12.16
  -1   2  -9  318.83   15.84
   1  -2   9  305.13   16.00
  -2   2  -9  733.85   31.13
  -2   2  -9  693.82   31.84
   2  -2   9  727.72   30.98
  -3   2  -9    0.76    3.94
  -3   2  -9   -4.81    3.50
   3  -2   9    0.64    3.42
  -4   2  -9    6.26    4.54
  -4   2  -9   12.53    4.83
   4  -2   9   12.57    3.94
  -5   2  -9  131.47   12.36
  -5   2  -9  132.57   11.87
   5  -2   9  136.31   10.20
  -6   2  -9   23.93    7.15
   6   1  -9    9.48    7.62
  -6  -1   9    3.99    6.56
  -6  -1   9   10.45    6.29
   5   1  -9    3.16    6.51
  -5  -1   9    2.34    5.25
   4   1  -9   13.91    5.75
  -4  -1   9   10.61    4.49
   3   1  -9  424.32   20.76
   3   1  -9  419.69   19.96
  -3  -1   9  409.82   20.14
   2   1  -9  215.46   12.17
   2   1  -9  199.50   12.13
  -2  -1   9  204.95   12.25
   1   1  -9 1986.40   75.49
   1   1  -9 2044.43   75.84
  -1  -1   9 1832.26   76.48
  -1  -1   9 1953.90   76.10
   0   1  -9  261.26   13.33
   0   1  -9  261.51   13.80
   0  -1   9  215.50   14.42
   0  -1   9  271.56   14.35
  -1   1  -9 1206.31   48.56
  -1   1  -9 1190.29   48.25
  -2   1  -9  565.59   26.17
  -2   1  -9  586.29   25.47
  -3   1  -9   85.38    9.14
  -3   1  -9   91.76    8.07
  -4   1  -9   87.79    8.74
  -4   1  -9   76.51    9.38
  -5   1  -9   76.71   10.87
  -5   1  -9   51.75    9.55
  -6   1  -9   68.25   11.86
   6   0  -9   -2.75    7.32
   6   0  -9    5.90    8.71
  -6   0   9   -3.41    6.24
  -6   0   9    6.37    6.49
   5   0  -9    9.19    5.51
   5   0  -9    3.14    6.52
  -5   0   9   -4.24    5.04
   4   0  -9  315.93   17.27
   4   0  -9  349.32   24.20
  -4   0   9  312.98   16.69
   3   0  -9  159.06   11.56
   3   0  -9  161.64   10.74
  -3   0   9  151.70   10.52
   2   0  -9  177.03   10.64
   2   0  -9  176.00   10.61
  -2   0   9  165.34   10.99
  -2   0   9  163.25   11.30
   1   0  -9  319.12   15.24
  -1   0   9  297.70   16.05
   0   0  -9  124.84    8.46
   0   0  -9  137.48    8.51
   0   0   9  105.32    9.55
   0   0   9  119.22    8.98
  -1   0  -9 1697.53   64.81
  -1   0  -9 1681.17   65.02
   1   0   9 1675.84   65.38
   1   0   9 1601.84   65.68
  -2   0  -9   62.26    7.42
  -2   0  -9   68.90   10.12
  -2   0  -9   56.31    7.74
   2   0   9   79.51    6.76
  -3   0  -9    1.37    3.19
  -3   0  -9   -3.13    3.58
   3   0   9   -4.32    2.88
  -4   0  -9    3.21    4.26
  -4   0  -9    3.50    3.91
   4   0   9    4.88    3.00
  -5   0  -9   31.51    9.11
  -5   0  -9   24.49    5.38
  -6   0  -9  655.83   28.50
   6  -1  -9    7.70    7.48
   6  -1  -9    9.18    9.00
   6  -1  -9    3.18    5.91
  -6   1   9    8.00    6.52
   5  -1  -9   62.78   10.06
   5  -1  -9   72.64   12.54
  -5   1   9   48.50    9.84
   4  -1  -9  613.62   29.17
   4  -1  -9  712.80   30.49
  -4   1   9  682.74   29.31
  -4   1   9  642.21   28.50
   3  -1  -9  359.05   18.77
   3  -1  -9  400.86   19.34
  -3   1   9  356.92   19.79
  -3   1   9  451.01   21.83
   2  -1  -9   58.39    6.60
   2  -1  -9   61.82    6.71
  -2   1   9   49.89    9.28
  -2   1   9   61.35    7.71
   1  -1  -9   89.50    6.56
   1  -1  -9   75.87    7.11
  -1   1   9   69.59    7.86
  -1   1   9   81.33    6.97
   0  -1  -9 1002.34   40.52
   0  -1  -9 1031.21   40.25
   0   1   9 1010.85   41.01
   0   1   9 1009.80   41.35
  -1  -1  -9   89.98    7.27
  -1  -1  -9  102.49    7.08
   1   1   9   86.79    7.81
   1   1   9   78.77    7.34
  -2  -1  -9  196.82   11.60
  -2  -1  -9  202.44   11.09
  -2  -1  -9  200.06   13.10
   2   1   9  194.68   11.40
  -3  -1  -9  746.46   33.99
  -3  -1  -9  784.47   33.21
  -3  -1  -9  787.01   32.32
   3   1   9  772.72   32.61
  -4  -1  -9  288.01   16.82
  -4  -1  -9  289.29   15.19
  -5  -1  -9  413.63   21.72
  -5  -1  -9  414.60   19.88
  -5  -1  -9  386.05   19.11
  -6  -1  -9  333.84   18.24
  -6  -1  -9  328.10   16.79
  -6  -1  -9  306.00   20.02
  -7  -1  -9   37.20    9.09
   6  -2  -9  272.94   20.95
   6  -2  -9  299.20   21.10
   5  -2  -9   32.28    6.53
  -5   2   9   31.16    6.02
   4  -2  -9   15.41    5.43
   4  -2  -9   19.07    4.88
  -4   2   9   32.57    9.29
   3  -2  -9  386.14   17.89
   3  -2  -9  352.52   17.70
  -3   2   9  353.36   16.98
  -3   2   9  315.41   16.75
   2  -2  -9  119.18    8.34
   2  -2  -9  104.51    8.22
  -2   2   9  103.82    7.93
  -2   2   9   97.88    8.29
  -2   2   9   90.48    8.24
   1  -2  -9  222.28   10.96
   1  -2  -9  226.57   11.96
  -1   2   9  229.38   12.47
  -1   2   9  210.14   11.59
   0  -2  -9   -0.38    2.32
   0  -2  -9    3.84    2.88
   0   2   9    1.63    3.08
   0   2   9    4.61    2.66
  -1  -2  -9  800.76   32.31
  -1  -2  -9  796.83   32.50
   1   2   9  806.46   33.71
  -2  -2  -9   52.43    8.31
  -2  -2  -9   49.87    6.19
  -2  -2  -9   56.29    7.49
  -2  -2  -9   50.83    6.00
  -3  -2  -9  234.01   12.99
  -3  -2  -9  244.68   13.44
  -3  -2  -9  246.02   12.61
  -3  -2  -9  245.70   14.47
  -4  -2  -9  106.45    8.52
  -4  -2  -9  105.17   10.06
  -4  -2  -9  106.63    8.24
  -5  -2  -9    5.50    5.38
  -5  -2  -9    7.15    4.19
  -5  -2  -9   -0.04    3.57
  -6  -2  -9   -5.75    4.78
  -6  -2  -9   -5.91    5.19
  -6  -2  -9    5.37    6.45
  -7  -2  -9    9.50    8.43
   5  -3  -9    8.36    6.36
  -5   3   9    6.42    5.84
   4  -3  -9   21.40    5.66
   4  -3  -9   17.47    5.66
  -4   3   9   21.24    5.14
   3  -3  -9  109.98    8.83
   3  -3  -9   83.58   11.70
   3  -3  -9  104.99    9.20
  -3   3   9  100.02    8.78
   2  -3  -9   99.41    8.48
   2  -3  -9  113.56    8.26
  -2   3   9  105.39    9.98
   1  -3  -9  107.92    7.42
  -1   3   9   91.02    7.72
   0  -3  -9  942.32   37.23
   0   3   9  906.41   37.08
  -1  -3  -9 2246.81   86.10
  -1  -3  -9 2445.84   87.61
   1   3   9 2137.29   86.47
  -2  -3  -9 1110.64   44.10
  -2  -3  -9 1055.60   44.51
  -2  -3  -9 1155.21   44.92
  -2  -3  -9 1175.93   45.49
  -3  -3  -9  240.92   14.42
  -3  -3  -9  255.95   13.65
  -3  -3  -9  271.55   13.81
  -4  -3  -9  545.22   23.35
  -4  -3  -9  540.61   24.44
  -4  -3  -9  478.07   24.48
  -5  -3  -9    1.56    5.83
  -5  -3  -9    8.65    3.99
  -6  -3  -9   -1.62    6.26
  -6  -3  -9    1.74    4.62
  -7  -3  -9  106.84   12.00
  -7  -3  -9  127.51   16.01
   5  -4  -9  101.30   12.06
   5  -4  -9   74.72   10.53
  -5   4   9  104.65   11.80
   4  -4  -9   12.57    5.15
   4  -4  -9   17.88    5.80
  -4   4   9   13.31    5.32
   3  -4  -9   -3.09    4.35
  -3   4   9    5.15    4.40
   2  -4  -9  363.14   17.91
   2  -4  -9  348.26   18.03
  -2   4   9  388.71   17.74
   1  -4  -9    1.87    2.90
   1  -4  -9   -0.29    3.26
  -1   4   9   -2.76    3.64
   0  -4  -9   27.29    5.02
   0   4   9   25.26    5.83
   0   4   9   30.80    6.93
  -1  -4  -9  128.57    8.97
  -1  -4  -9  124.46    9.10
   1   4   9  142.85    8.64
  -2  -4  -9  320.86   16.59
  -2  -4  -9  380.10   17.32
   2   4   9  368.85   16.38
  -3  -4  -9   62.77    6.98
  -3  -4  -9   57.59    7.17
  -3  -4  -9   54.33    7.64
   3   4   9   61.62    6.25
  -4  -4  -9   -5.10    4.76
  -4  -4  -9   -4.74    3.31
  -4  -4  -9   -3.60    4.18
  -5  -4  -9    3.68    4.52
  -5  -4  -9    0.55    4.40
  -5  -4  -9    6.07    5.55
  -6  -4  -9    0.71    5.29
  -6  -4  -9    9.55    8.10
  -6  -4  -9    9.51    6.48
  -7  -4  -9   34.85    7.27
   5  -5  -9   -4.39    7.20
   5  -5  -9    2.76    5.03
  -5   5   9    4.09    6.51
   4  -5  -9  109.81    9.61
  -4   5   9  102.44   10.69
   3  -5  -9  207.50   13.64
   3  -5  -9  229.54   14.02
  -3   5   9  243.90   13.62
   2  -5  -9 1347.63   54.84
  -2   5   9 1418.47   54.98
   1  -5  -9  573.07   24.31
   1  -5  -9  511.18   27.29
  -1   5   9  576.93   24.94
   0  -5  -9   78.39    7.09
   0  -5  -9   81.72    7.53
   0   5   9   89.52    7.83
  -1  -5  -9  642.52   27.31
   1   5   9  594.85   26.28
  -2  -5  -9  767.25   32.28
   2   5   9  743.22   31.12
  -3  -5  -9   73.07    9.96
   3   5   9   74.58    7.12
  -4  -5  -9   51.53    8.07
  -4  -5  -9   41.44    8.45
  -5  -5  -9  504.00   22.73
  -5  -5  -9  517.87   24.10
  -5  -5  -9  502.52   22.83
  -5  -5  -9  424.82   25.80
  -6  -5  -9  544.13   25.84
  -6  -5  -9  568.67   24.68
  -7  -5  -9    6.15    5.91
   5  -6  -9    4.39   10.24
   4  -6  -9  543.87   28.03
   4  -6  -9  624.23   26.20
  -4   6   9  620.68   27.48
   3  -6  -9  241.58   13.51
   3  -6  -9  241.78   15.03
  -3   6   9  249.17   14.57
   2  -6  -9  405.82   19.47
   2  -6  -9  425.57   20.10
  -2   6   9  417.45   20.26
   1  -6  -9   85.77    7.82
   1  -6  -9   76.32    7.70
  -1   6   9   81.97    8.49
   0  -6  -9  432.82   21.03
   0   6   9  461.48   20.83
  -1  -6  -9  709.04   30.99
  -2  -6  -9    3.45    3.08
  -3  -6  -9    1.72    3.23
   3   6   9    6.16    3.51
  -4  -6  -9    4.11    3.51
  -5  -6  -9  166.47   11.54
  -5  -6  -9  182.72   11.37
  -5  -6  -9  137.11   12.50
  -6  -6  -9  431.40   20.61
  -6  -6  -9  420.48   21.56
  -7  -6  -9   52.23   12.00
   7   6   9   48.60   13.81
   4  -7  -9   14.44    7.45
  -4   7   9   13.74    6.67
   3  -7  -9  125.50   12.35
   3  -7  -9  147.07   10.46
  -3   7   9  166.01   12.18
   2  -7  -9   21.26    4.42
   2  -7  -9   26.29    5.53
  -2   7   9   29.86    5.83
   1  -7  -9  500.42   22.90
  -1   7   9  525.90   23.61
   0  -7  -9   51.49    6.74
   0   7   9   36.23    7.39
  -1  -7  -9   51.65    6.76
   1   7   9   46.17    7.43
  -2  -7  -9 1045.39   42.19
   2   7   9 1027.07   42.11
  -3  -7  -9 1839.86   70.68
   3   7   9 1783.94   70.57
  -4  -7  -9  232.40   13.10
  -5  -7  -9  240.07   14.85
  -5  -7  -9  276.74   14.68
  -6  -7  -9  309.93   16.58
  -6  -7  -9  304.04   17.59
   6   7   9  284.90   20.06
  -7  -7  -9   46.62   10.58
  -7  -7  -9   51.92   12.48
   7   7   9   44.97   13.42
   3  -8  -9   19.31    6.59
  -3   8   9   29.15    6.94
   2  -8  -9   76.02    9.46
   2  -8  -9   51.60    8.26
  -2   8   9   63.70   10.05
   1  -8  -9   35.95    7.79
   1  -8  -9   27.09    4.65
  -1   8   9   45.29    8.55
   0  -8  -9  149.67   10.19
   0   8   9  143.21   10.85
  -1  -8  -9    1.48    3.63
   1   8   9    2.92    4.18
  -2  -8  -9    9.92    3.78
   2   8   9   17.06    4.18
  -3  -8  -9  455.33   21.49
   3   8   9  465.94   21.75
  -4  -8  -9    3.59    4.11
   4   8   9    0.16    4.55
  -5  -8  -9   80.43    9.56
  -5  -8  -9  101.24   10.43
  -6  -8  -9   69.31   11.25
  -6  -8  -9   61.89   10.08
   6   8   9   50.67   12.17
  -7  -8  -9   -8.15    6.38
   7   8   9    2.52    7.93
   3  -9  -9   13.40    5.31
   3  -9  -9   15.22    7.23
  -3   9   9   14.68    7.39
   2  -9  -9   14.90    4.96
  -2   9   9   26.74    6.59
   1  -9  -9    3.46    4.48
  -1   9   9    3.31    5.56
   0  -9  -9 1003.05   43.06
   0   9   9 1106.79   43.87
  -1  -9  -9  967.47   41.50
   1   9   9 1056.22   42.15
  -2  -9  -9    4.00    3.90
   2   9   9    5.21    4.68
  -3  -9  -9  275.26   15.15
   3   9   9  268.36   15.45
  -4  -9  -9   92.69    9.97
   4   9   9   87.18   10.19
  -5  -9  -9  156.08   12.49
  -5  -9  -9  151.55   12.02
  -6  -9  -9   62.81   12.19
  -6  -9  -9   63.35   11.04
   6   9   9   57.54   13.06
  -7  -9  -9  368.89   20.47
   2 -10  -9  231.58   14.88
  -2  10   9  275.19   17.02
   1 -10  -9    9.19    4.97
  -1  10   9   13.92    6.18
   0 -10  -9   32.70    5.24
   0  10   9   44.51    9.99
  -1 -10  -9   95.32   10.15
   1  10   9  137.16   10.93
  -2 -10  -9   50.69    8.93
   2  10   9   57.28    9.33
  -3 -10  -9  174.14   12.52
   3  10   9  177.47   12.93
  -4 -10  -9    3.52    5.04
   4  10   9   -1.58    5.82
  -5 -10  -9   60.48   11.08
  -6 -10  -9   86.80   13.07
  -6 -10  -9   89.89   12.23
   1 -11  -9   33.84    6.48
  -1  11   9   40.85    7.67
   0 -11  -9    6.58    5.49
   0  11   9    3.47    6.47
  -1 -11  -9  145.87   12.53
   1  11   9  192.18   13.97
  -2 -11  -9  141.09   12.65
   2  11   9  182.95   13.45
  -3 -11  -9   14.72    5.74
   3  11   9   16.29    6.43
  -4 -11  -9  150.56   12.99
  -5 -11  -9  303.03   18.66
  -5 -11  -9  311.55   17.98
   1  12   9    3.56    7.11
  -2 -12  -9   76.94   11.99
   2  12   9   95.39   12.82
  -3 -12  -9   60.41   10.61
   3  12   9   64.77   12.96
  -4 -12  -9    6.40    9.35
   2   6 -10  126.90   13.88
   2   6 -10  153.35   14.16
   1   6 -10   41.88    8.13
  -1  -6  10   36.06    7.25
   0   6 -10  401.98   21.94
   0   6 -10  398.75   22.34
   0  -6  10  385.15   21.34
   1  -6  10  153.51   13.32
   3   5 -10  330.19   19.56
   3   5 -10  328.81   20.19
  -3  -5  10  319.69   19.30
   2   5 -10  254.32   16.86
   2   5 -10  285.84   16.32
  -2  -5  10  238.34   16.44
   1   5 -10    4.56    5.79
   1   5 -10   -5.85    5.63
  -1  -5  10    3.50    5.13
   0   5 -10    9.77    5.48
   0   5 -10    5.09    6.09
   0  -5  10    9.40    4.95
  -1   5 -10   16.60    6.18
   1  -5  10   19.66    5.31
  -2   5 -10  229.69   15.73
  -2   5 -10  227.08   16.28
   2  -5  10  206.95   15.14
   4   4 -10    8.87    7.93
   3   4 -10   26.62    6.89
  -3  -4  10   36.43    6.35
   2   4 -10  373.24   20.36
   2   4 -10  383.34   19.84
  -2  -4  10  354.31   19.75
   1   4 -10   12.09    5.26
  -1  -4  10    4.01    4.49
   0   4 -10   35.82    8.97
   0   4 -10   26.30    5.70
   0  -4  10   27.39    5.32
  -1   4 -10  131.12   12.44
  -1   4 -10  147.85   11.68
   1  -4  10  138.57   11.69
  -2   4 -10  383.19   21.66
  -2   4 -10  400.17   20.50
   2  -4  10  369.10   20.13
  -3   4 -10    1.69    5.98
  -3   4 -10    6.16    5.43
   3  -4  10    3.42    4.81
   4  -4  10  143.21   12.89
   4   3 -10  107.30   11.91
  -4  -3  10  129.51   12.62
   3   3 -10    6.63    5.92
  -3  -3  10   10.02    5.57
   2   3 -10   19.55    5.25
   2   3 -10   15.10    5.25
  -2  -3  10   19.25    5.24
   1   3 -10    7.69    4.75
  -1  -3  10   -1.04    4.39
   0   3 -10   36.92    5.62
   0   3 -10   53.75    8.22
   0  -3  10   42.71    8.26
  -1   3 -10  146.92   12.44
  -1   3 -10  167.69   11.80
   1  -3  10  190.39   12.31
  -2   3 -10  479.04   23.56
  -2   3 -10  497.98   24.85
   2  -3  10  480.92   23.23
  -3   3 -10   19.64    5.19
   3  -3  10   23.56    4.88
  -4   3 -10    1.96    5.48
   4  -3  10    5.41    5.08
   5   2 -10    5.31    8.29
   5   2 -10   -0.51    7.17
   4   2 -10   12.63    6.91
   4   2 -10    3.08    6.32
  -4  -2  10   23.54    5.96
   3   2 -10   87.14   10.92
   3   2 -10   79.13   10.10
  -3  -2  10   96.10   10.23
   2   2 -10   17.39    5.17
   2   2 -10   10.51    4.58
   1   2 -10  721.12   31.02
   1   2 -10  720.21   31.52
  -1  -2  10  699.76   31.54
   0   2 -10  370.46   18.94
   0   2 -10  359.67   18.11
   0  -2  10  374.28   18.89
  -1   2 -10  722.08   32.26
  -1   2 -10  733.15   31.73
   1  -2  10  725.04   31.92
  -2   2 -10  661.64   29.24
  -2   2 -10  657.55   30.05
   2  -2  10  630.88   29.13
  -3   2 -10  594.56   28.68
  -3   2 -10  586.52   27.45
   3  -2  10  617.67   27.41
  -4   2 -10  114.00   11.49
  -4   2 -10  145.26   12.94
   4  -2  10  129.46   10.51
  -5   2 -10    0.50    5.85
  -5   2 -10   -0.32    6.38
   5   1 -10   15.98    8.16
   5   1 -10   16.67    7.06
  -5  -1  10   11.14    6.19
   4   1 -10  639.98   31.14
   4   1 -10  666.49   30.19
  -4  -1  10  669.17   30.08
   3   1 -10  159.48   11.44
   3   1 -10  139.95   12.28
  -3  -1  10  160.17   11.60
   2   1 -10   88.72    9.06
  -2  -1  10   86.70    9.45
   1   1 -10  334.16   17.10
   1   1 -10  325.74   16.60
  -1  -1  10  330.19   17.63
   0   1 -10  301.63   15.29
   0   1 -10  290.39   15.48
   0  -1  10  284.70   15.91
  -1   1 -10    0.12    5.45
  -1   1 -10   -1.92    3.91
   1  -1  10    6.39    3.45
  -2   1 -10   67.27    7.55
  -2   1 -10   47.21    8.54
   2  -1  10   71.70    7.96
  -3   1 -10   12.18    4.72
  -3   1 -10   12.24    4.34
   3  -1  10   15.96    3.95
  -4   1 -10   91.09   11.70
   4  -1  10  107.23    9.40
  -5   1 -10  150.10   12.67
  -5   1 -10  137.24   13.64
  -6   1 -10   11.80    6.95
  -6   1 -10   13.14    7.17
   5   0 -10  253.01   16.20
   5   0 -10  262.52   19.02
  -5   0  10  244.49   16.60
   4   0 -10   10.41    6.40
  -4   0  10   14.90    5.35
   3   0 -10  613.95   28.24
   3   0 -10  660.20   29.31
  -3   0  10  610.36   28.23
   2   0 -10   61.58    7.76
   2   0 -10   57.40    7.84
  -2   0  10   59.61    8.29
   1   0 -10   25.02    6.46
   1   0 -10   12.84    4.18
  -1   0  10   17.36    5.15
  -1   0  10   27.37    6.75
   0   0 -10    9.65    3.37
   0   0 -10    3.74    3.36
   0   0  10   -1.74    4.98
   0   0  10   -1.96    3.42
  -1   0 -10   66.68    7.53
  -1   0 -10   66.35    7.31
   1   0  10   68.88    7.69
  -2   0 -10   64.44    8.52
  -2   0 -10   61.81    7.59
   2   0  10   78.09    7.50
  -3   0 -10  364.12   18.28
  -3   0 -10  362.91   19.09
   3   0  10  358.91   18.16
  -4   0 -10  413.77   20.15
  -4   0 -10  405.09   21.56
   4   0  10  399.78   19.62
  -5   0 -10  214.35   15.05
  -5   0 -10  237.09   14.05
  -5   0 -10  231.58   16.37
  -6   0 -10  463.33   23.76
  -6   0 -10  433.48   22.35
   5  -1 -10   70.47   11.41
   5  -1 -10  100.11   15.08
  -5   1  10   70.74   11.23
   4  -1 -10  329.55   18.60
  -4   1  10  372.70   18.81
   3  -1 -10 1367.37   56.85
   3  -1 -10 1472.79   56.96
  -3   1  10 1411.58   57.08
   2  -1 -10  345.89   16.64
   2  -1 -10  328.12   16.80
  -2   1  10  331.95   17.18
  -2   1  10  320.50   17.17
   1  -1 -10    9.06    3.19
   1  -1 -10    5.11    3.81
  -1   1  10    7.18    4.56
  -1   1  10    6.31    3.59
   0  -1 -10   74.02    6.90
   0  -1 -10   70.08    7.01
   0   1  10   77.65    8.75
   0   1  10   66.28    7.65
  -1  -1 -10   37.63    6.43
   1   1  10   39.77    6.59
  -2  -1 -10   -2.74    5.61
  -2  -1 -10    8.84    3.93
  -2  -1 -10    6.30    3.60
   2   1  10    3.35    3.26
  -3  -1 -10   82.90    8.02
  -3  -1 -10   80.37    8.93
   3   1  10   58.19    7.29
  -4  -1 -10  594.40   26.77
  -4  -1 -10  605.24   27.99
  -5  -1 -10    6.79    5.68
  -5  -1 -10   -3.89    4.38
  -5  -1 -10    3.89    5.04
  -6  -1 -10   34.07    7.11
  -6  -1 -10   26.56    7.55
  -6  -1 -10   47.90   10.86
   5  -2 -10    6.42    6.85
   5  -2 -10    7.73    8.62
  -5   2  10   13.94    6.59
   4  -2 -10   18.57    5.46
  -4   2  10   25.86    5.68
   3  -2 -10    5.57    4.81
   3  -2 -10    3.35    4.94
   2  -2 -10  371.76   18.71
   2  -2 -10  395.90   18.31
  -2   2  10  378.15   19.34
  -2   2  10  387.52   18.41
   1  -2 -10  224.42   12.67
   1  -2 -10  217.42   11.50
  -1   2  10  214.95   12.34
  -1   2  10  230.28   13.14
   0  -2 -10   83.08    7.28
   0  -2 -10   69.17    6.46
   0   2  10   81.29    7.82
   0   2  10   72.17    7.83
  -1  -2 -10    1.05    2.95
   1   2  10   -3.82    3.00
  -2  -2 -10  527.64   25.11
  -2  -2 -10  527.02   23.49
  -3  -2 -10  171.82   11.90
  -3  -2 -10  188.29   12.29
  -3  -2 -10  179.43   13.87
  -3  -2 -10  183.58   11.64
  -4  -2 -10  976.27   40.20
  -4  -2 -10  957.19   42.24
  -4  -2 -10  961.34   39.76
  -5  -2 -10  552.92   24.48
  -5  -2 -10  506.02   26.49
  -5  -2 -10  532.85   24.28
  -6  -2 -10  175.21   16.01
  -6  -2 -10  151.06   12.91
  -6  -2 -10  158.35   13.16
  -7  -2 -10   29.03    9.30
   5  -3 -10  298.28   18.74
   5  -3 -10  356.95   17.89
   4  -3 -10   11.91    4.92
   4  -3 -10    9.67    6.04
   3  -3 -10    7.38    4.24
   3  -3 -10   15.28    4.94
  -3   3  10   10.61    4.64
   2  -3 -10  184.11   12.01
   2  -3 -10  206.39   12.24
  -2   3  10  201.64   12.03
   1  -3 -10  217.43   11.92
  -1   3  10  200.60   12.29
  -1  -3 -10 1816.99   69.44
  -1  -3 -10 1797.17   70.31
  -1  -3 -10 1873.64   71.71
  -2  -3 -10  291.68   14.50
  -2  -3 -10  309.68   15.87
  -2  -3 -10  307.61   14.80
  -2  -3 -10  294.44   16.34
  -3  -3 -10   10.84    3.72
  -3  -3 -10   10.12    3.67
  -3  -3 -10    7.55    5.42
  -4  -3 -10   46.70    8.69
  -4  -3 -10   53.38    7.39
  -5  -3 -10   52.90    8.67
  -5  -3 -10   63.63   10.75
  -6  -3 -10   87.64   13.39
  -6  -3 -10   98.45   10.97
  -7  -3 -10  274.91   20.63
   5  -4 -10   -7.94    5.64
  -5   4  10    2.53    6.94
   4  -4 -10  198.78   14.82
   4  -4 -10  208.46   14.00
  -4   4  10  250.12   14.82
   3  -4 -10   24.47    5.60
   3  -4 -10   31.22    7.57
  -3   4  10   15.56    5.34
   2  -4 -10  198.61   12.51
   2  -4 -10  190.30   12.34
  -2   4  10  203.46   12.43
   1  -4 -10  685.42   29.80
   1  -4 -10  712.96   30.43
  -1   4  10  689.78   29.73
   0  -4 -10   14.63    3.96
   0  -4 -10   20.54    4.44
  -1  -4 -10  593.09   25.92
  -1  -4 -10  571.85   24.59
   1   4  10  553.87   24.75
  -2  -4 -10  329.65   15.60
  -2  -4 -10  338.71   17.01
  -3  -4 -10   16.23    4.03
  -3  -4 -10   11.84    3.86
  -4  -4 -10   29.52    8.62
  -4  -4 -10   20.56    6.12
  -5  -4 -10   92.53   12.91
  -5  -4 -10   93.01    9.97
  -6  -4 -10  569.67   25.15
  -6  -4 -10  524.45   27.49
  -7  -4 -10  223.91   15.63
  -7  -4 -10  231.05   18.78
   4  -5 -10  483.89   26.15
   4  -5 -10  562.20   25.04
  -4   5  10  565.76   25.61
   3  -5 -10  128.42   10.26
   3  -5 -10  101.78   11.14
  -3   5  10  100.26   10.61
   2  -5 -10  427.16   20.15
   2  -5 -10  386.22   19.97
  -2   5  10  434.00   20.55
   1  -5 -10  828.44   35.15
   1  -5 -10  844.13   35.68
  -1   5  10  859.54   35.45
   0  -5 -10  116.31    9.27
   0  -5 -10  110.11    8.72
   0   5  10  115.75    9.31
  -1  -5 -10  127.98    9.43
   1   5  10  114.70   11.07
  -2  -5 -10   93.49    8.47
   2   5  10  124.52   12.95
  -3  -5 -10   13.84    4.03
   3   5  10   16.17    3.99
  -4  -5 -10   76.05    9.54
  -4  -5 -10   89.63    9.03
  -5  -5 -10   -4.25    4.33
  -5  -5 -10    1.37    6.04
  -5  -5 -10    1.79    5.27
  -6  -5 -10  263.90   15.92
  -6  -5 -10  301.06   17.38
  -6  -5 -10  292.81   19.11
  -7  -5 -10  226.82   15.87
  -7  -5 -10  241.96   17.22
  -7  -5 -10  210.41   19.60
   4  -6 -10   62.09   12.58
  -4   6  10   72.53   11.93
   3  -6 -10   72.20    9.35
   3  -6 -10   45.01   10.40
  -3   6  10   59.66   10.46
   2  -6 -10   13.45    5.09
   2  -6 -10    5.43    4.31
  -2   6  10   -3.46    5.47
   1  -6 -10   73.78    8.60
   1  -6 -10   80.35    8.12
  -1   6  10   81.83    9.46
   0  -6 -10   39.88    7.29
   0   6  10   38.60    7.80
  -1  -6 -10   84.25    8.27
   1   6  10   80.52    8.53
  -2  -6 -10   37.14    7.19
   2   6  10   48.79    7.43
  -3  -6 -10  674.12   29.21
   3   6  10  661.66   28.86
  -4  -6 -10  250.96   14.29
  -5  -6 -10  362.36   19.37
  -5  -6 -10  355.29   18.14
  -5  -6 -10  341.67   18.48
  -6  -6 -10  816.92   36.21
  -6  -6 -10  800.80   37.39
  -6  -6 -10  866.06   35.28
  -7  -6 -10  388.93   24.11
  -7  -6 -10  394.55   20.59
  -7  -6 -10  373.59   21.62
   4  -7 -10  414.99   24.66
   4  -7 -10  526.15   22.64
   3  -7 -10  433.41   20.51
   3  -7 -10  380.62   22.10
  -3   7  10  460.93   22.22
   2  -7 -10   -0.32    5.70
   2  -7 -10    6.50    4.46
  -2   7  10    2.39    5.78
   1  -7 -10   14.78    4.45
   1  -7 -10   10.65    4.90
  -1   7  10   11.67    5.16
   0  -7 -10  247.44   14.40
   0   7  10  262.42   14.76
  -1  -7 -10  184.73   11.88
   1   7  10  170.62   12.00
  -2  -7 -10   60.90    8.02
   2   7  10   61.27    8.35
  -3  -7 -10  349.56   17.49
   3   7  10  348.24   17.74
  -4  -7 -10   99.85    9.71
  -5  -7 -10   56.65   12.06
  -5  -7 -10   54.51    9.99
  -5  -7 -10   59.45    9.08
  -6  -7 -10   66.76   10.50
  -6  -7 -10   49.33   11.60
  -7  -7 -10   12.36    7.90
  -7  -7 -10   19.68    7.13
   3  -8 -10   -3.21    5.25
  -3   8  10    6.57    7.29
   2  -8 -10   17.22    6.40
   2  -8 -10   22.90    4.86
  -2   8  10   12.43    6.46
   1  -8 -10   31.36    5.20
   1  -8 -10   22.91    5.84
  -1   8  10   31.50    5.84
   0  -8 -10   25.51    5.06
   0   8  10   20.11    5.63
  -1  -8 -10  153.11   11.21
   1   8  10  141.74   11.62
  -2  -8 -10  198.04   12.98
   2   8  10  217.89   13.08
  -3  -8 -10  520.69   24.20
   3   8  10  530.75   24.58
  -4  -8 -10  249.11   14.71
   4   8  10  237.91   15.00
  -5  -8 -10    7.78    5.98
  -5  -8 -10    8.68    5.34
  -6  -8 -10   -7.73    6.09
  -6  -8 -10   11.46    7.23
   2  -9 -10  238.44   16.60
   2  -9 -10  236.49   15.03
  -2   9  10  280.21   16.78
   1  -9 -10  153.06   12.86
  -1   9  10  202.50   13.87
   0  -9 -10  417.42   21.72
   0   9  10  479.57   22.59
  -1  -9 -10  585.97   28.06
   1   9  10  670.40   28.60
  -2  -9 -10  225.27   14.81
   2   9  10  277.73   14.89
  -3  -9 -10    9.86    4.79
   3   9  10    5.78    5.30
  -4  -9 -10    5.19    5.30
   4   9  10    8.36    5.95
  -5  -9 -10   31.12    6.57
  -6  -9 -10  248.47   16.43
  -6  -9 -10  239.14   17.21
   1 -10 -10   -3.33    5.35
  -1  10  10   -4.27    6.68
   0 -10 -10    0.13    5.28
   0  10  10    2.36    6.36
   1  10  10    4.07    6.09
  -2 -10 -10    2.83    4.95
   2  10  10    5.85    5.66
  -3 -10 -10    9.65    5.28
   3  10  10   12.26    6.12
  -4 -10 -10   52.64   10.99
   4  10  10   46.79   11.35
  -5 -10 -10  320.25   18.44
   0 -11 -10   -0.97    5.87
   0  11  10   -2.16    7.52
  -1 -11 -10    2.43    5.59
   1  11  10   -6.22    6.70
  -2 -11 -10   57.04   10.62
   2  11  10   59.47   11.27
  -3 -11 -10    0.21    5.68
   3  11  10    2.81    6.82
  -4 -11 -10   12.51    6.58
   2   4 -11   24.40    7.00
  -2  -4  11   14.10    6.20
   1   4 -11   25.71    6.94
  -1  -4  11   20.86    6.30
   0   4 -11   21.90    6.30
   0  -4  11   20.64    5.70
  -1   4 -11   38.04    7.18
  -1   4 -11   62.80   11.32
   1  -4  11   65.93   10.62
  -2   4 -11  229.44   17.74
  -2   4 -11  231.29   17.03
   2  -4  11  223.19   15.54
   3   3 -11  124.00   13.91
   3   3 -11  110.58   13.30
  -3  -3  11  133.86   12.80
   2   3 -11   61.54   10.70
   2   3 -11   65.43   11.00
  -2  -3  11   57.55   10.83
   1   3 -11    8.18    5.68
  -1  -3  11    6.22    5.22
   0   3 -11   17.12    5.53
   0  -3  11   18.01    4.92
  -1   3 -11    2.84    5.55
  -1   3 -11   -0.42    5.57
   1  -3  11   10.03    4.94
  -2   3 -11  163.63   12.79
  -2   3 -11  158.51   14.14
   2  -3  11  161.32   13.06
  -3   3 -11  387.06   21.92
  -3   3 -11  425.17   23.54
   3  -3  11  419.76   21.91
   4   2 -11  122.55   13.05
   4   2 -11  127.25   15.75
  -4  -2  11  126.37   13.81
   3   2 -11  151.68   14.00
   3   2 -11  153.76   13.18
  -3  -2  11  169.78   13.36
   2   2 -11  250.97   15.48
   2   2 -11  233.06   15.34
  -2  -2  11  240.44   16.06
   1   2 -11  148.73   12.41
   1   2 -11  153.02   12.03
  -1  -2  11  168.02   12.90
   0   2 -11  638.00   29.01
   0   2 -11  606.95   28.28
   0  -2  11  634.47   29.39
  -1   2 -11  248.58   15.36
  -1   2 -11  265.26   15.97
   1  -2  11  236.69   15.25
  -2   2 -11  462.59   24.29
  -2   2 -11  464.38   22.99
   2  -2  11  473.23   23.25
  -3   2 -11    4.69    5.47
  -3   2 -11    5.76    6.22
  -4   2 -11    9.47    6.19
   4  -2  11    3.26    5.55
   4   1 -11    6.05    7.69
   4   1 -11   -4.92    7.03
  -4  -1  11   -2.93    6.08
   3   1 -11  119.76   10.89
   3   1 -11   85.00   12.34
  -3  -1  11  112.61   11.39
   2   1 -11    4.63    4.77
   2   1 -11   17.75    5.64
  -2  -1  11   10.72    5.02
   1   1 -11   40.46    8.64
  -1  -1  11   54.81    9.04
   0   1 -11  119.77   10.40
   0   1 -11  137.60   10.43
   0  -1  11  111.11   10.52
  -1   1 -11   17.65    5.12
  -1   1 -11   16.36    4.97
   1  -1  11   18.24    4.66
  -2   1 -11  128.09   11.76
  -2   1 -11  108.16   10.52
   2  -1  11  131.30   10.80
  -3   1 -11   96.17   10.71
  -3   1 -11   97.56   11.51
  -4   1 -11   84.50   12.26
  -4   1 -11   80.57   11.10
   4  -1  11   86.10   10.19
  -5   1 -11   20.45    6.70
   4   0 -11   57.08   11.55
   4   0 -11   80.91   14.04
  -4   0  11   73.98   11.70
   3   0 -11  691.30   31.07
   3   0 -11  637.86   30.23
  -3   0  11  682.05   30.59
   2   0 -11  745.39   39.52
   2   0 -11  756.52   33.48
  -2   0  11  804.69   34.17
   1   0 -11  291.02   15.60
   1   0 -11  291.18   16.14
  -1   0  11  287.05   16.18
   0   0 -11  309.29   16.34
   0   0 -11  307.07   16.34
   0   0  11  321.52   16.87
  -1   0 -11  281.07   14.40
  -1   0 -11  212.79   17.08
   1   0  11  245.75   14.76
  -2   0 -11   24.49    5.25
  -2   0 -11   34.18    8.08
   2   0  11   15.08    4.36
  -3   0 -11   19.12    5.44
   3   0  11   18.62    4.72
  -4   0 -11  135.88   13.05
  -4   0 -11  119.57   11.85
  -5   0 -11   58.20   11.12
  -5   0 -11   53.27   12.90
  -5   0 -11   58.72   10.75
   4  -1 -11    5.57    6.23
   4  -1 -11    6.14    7.97
  -4   1  11    4.42    6.21
   3  -1 -11   88.16   10.22
   3  -1 -11   96.70   12.23
  -3   1  11   99.51   10.95
   2  -1 -11  146.43   11.26
   2  -1 -11  144.96   11.13
  -2   1  11  146.17   11.63
   1  -1 -11  130.48   10.40
   1  -1 -11  144.99    9.95
  -1   1  11  127.18   10.76
   0  -1 -11  687.19   29.54
   0  -1 -11  699.50   29.26
   0   1  11  684.36   30.56
   0   1  11  648.25   29.96
  -1  -1 -11   40.66    7.15
   1   1  11   34.95    7.90
  -2  -1 -11   50.22    8.25
  -2  -1 -11   50.80    8.10
   2   1  11   46.42    7.76
  -3  -1 -11   -0.78    4.67
  -3  -1 -11   -3.06    4.23
  -4  -1 -11  567.11   26.60
  -4  -1 -11  592.07   26.86
  -4  -1 -11  564.82   27.95
  -5  -1 -11  443.18   22.67
  -5  -1 -11  456.45   24.44
  -5  -1 -11  454.62   22.89
  -6  -1 -11   75.40   12.90
  -6  -1 -11   86.80   15.10
  -6  -1 -11   92.91   13.09
   4  -2 -11   40.60   10.16
  -4   2  11   22.00    6.14
   3  -2 -11   49.70    9.70
   2  -2 -11  156.44   11.53
   2  -2 -11  162.44   11.99
   1  -2 -11  282.90   14.22
   1  -2 -11  277.55   15.17
  -1   2  11  269.52   15.80
  -1   2  11  274.46   16.03
   0  -2 -11    5.51    4.32
   0  -2 -11   -0.01    3.54
   0   2  11    2.09    4.79
  -1  -2 -11  575.12   27.05
  -1  -2 -11  573.42   24.78
  -1  -2 -11  561.26   25.13
  -2  -2 -11 1075.86   43.05
  -2  -2 -11 1021.01   42.52
  -2  -2 -11 1059.17   44.78
  -3  -2 -11  483.62   22.35
  -3  -2 -11  473.17   22.87
  -3  -2 -11  473.89   22.72
  -4  -2 -11  200.20   12.45
  -4  -2 -11  179.79   12.86
  -4  -2 -11  156.27   13.57
  -5  -2 -11  301.24   17.23
  -5  -2 -11  302.74   18.59
  -5  -2 -11  282.31   16.59
  -6  -2 -11   -4.01    7.35
  -6  -2 -11    7.59    6.43
  -6  -2 -11    8.53    6.48
   4  -3 -11   -7.53    6.44
  -4   3  11   -1.77    6.08
   3  -3 -11  281.21   17.04
   3  -3 -11  332.99   17.15
  -3   3  11  294.00   16.71
   2  -3 -11    8.83    5.33
  -2   3  11   10.81    5.39
   1  -3 -11  278.07   14.71
   1  -3 -11  269.75   15.45
   0  -3 -11  195.24   12.72
   0  -3 -11  193.38   11.89
  -1  -3 -11  161.40   10.42
  -1  -3 -11  149.30   11.08
  -2  -3 -11  197.80   12.60
  -2  -3 -11  191.54   11.57
  -2  -3 -11  201.80   11.30
  -2  -3 -11  167.66   14.52
  -3  -3 -11   62.29    7.87
  -3  -3 -11   45.04   12.19
  -3  -3 -11   42.75    8.48
  -3  -3 -11   56.97    8.52
  -4  -3 -11   42.18   10.49
  -4  -3 -11   64.15    8.91
  -5  -3 -11    8.20    6.21
  -5  -3 -11    9.39    5.25
  -6  -3 -11    0.44    6.34
  -6  -3 -11   10.33    7.49
   4  -4 -11   16.18    5.82
   4  -4 -11   13.32    7.20
  -4   4  11   11.33    6.67
   3  -4 -11    3.58    4.70
   3  -4 -11   -3.71    5.85
  -3   4  11   -0.02    5.94
   2  -4 -11  225.05   14.02
   2  -4 -11  211.23   13.76
  -2   4  11  192.26   13.83
   1  -4 -11 1303.76   53.20
   1  -4 -11 1327.28   54.11
  -1   4  11 1346.98   53.13
   0  -4 -11  882.18   37.82
   0  -4 -11  881.87   36.50
  -1  -4 -11  349.66   18.44
  -1  -4 -11  361.43   17.26
  -2  -4 -11  120.18   10.44
  -2  -4 -11  140.92    9.35
  -3  -4 -11  231.18   13.49
  -3  -4 -11  220.01   12.57
  -3  -4 -11  179.37   18.52
  -4  -4 -11  141.44   11.45
  -4  -4 -11  155.21   12.16
  -5  -4 -11   44.29   12.08
  -5  -4 -11   65.51   10.61
  -6  -4 -11  374.25   20.04
  -6  -4 -11  359.65   22.32
   4  -5 -11   88.49   12.04
   4  -5 -11   76.85   15.62
  -4   5  11   92.74   13.80
   3  -5 -11  151.62   11.77
   3  -5 -11  109.23   12.55
  -3   5  11  144.79   12.61
   2  -5 -11   57.22    9.42
   2  -5 -11   61.51    9.35
   1  -5 -11  113.76   10.38
   1  -5 -11  134.29   10.75
  -1   5  11  135.00   11.02
   0  -5 -11   -2.58    4.10
   0  -5 -11   -3.55    3.83
   0   5  11   -2.29    4.88
  -1  -5 -11   31.42    6.75
  -1  -5 -11   27.70    4.81
   1   5  11   20.12    4.84
  -2  -5 -11  255.21   15.26
   2   5  11  280.98   14.65
  -3  -5 -11  187.71   12.23
   3   5  11  167.52   11.65
  -4  -5 -11   -6.77    4.77
  -4  -5 -11    6.60    5.08
  -5  -5 -11    6.11    5.12
  -5  -5 -11    6.18    6.96
  -6  -5 -11  150.97   12.68
  -6  -5 -11  118.42   15.34
   3  -6 -11  260.14   17.53
   3  -6 -11  298.52   17.03
  -3   6  11  292.41   17.74
   2  -6 -11  187.64   13.75
   2  -6 -11  183.95   13.76
  -2   6  11  205.67   14.21
   1  -6 -11   10.90    4.95
   1  -6 -11    7.13    4.59
  -1   6  11   13.65    5.69
   0  -6 -11  350.37   18.35
   0  -6 -11  339.99   17.52
   0   6  11  353.61   18.43
  -1  -6 -11   38.54    8.00
   1   6  11   26.53    5.64
  -2  -6 -11  204.63   13.53
   2   6  11  223.88   13.07
  -3  -6 -11  461.48   21.95
   3   6  11  430.00   21.24
  -4  -6 -11  851.99   36.67
  -5  -6 -11   11.75    6.66
  -5  -6 -11    2.91    5.22
  -6  -6 -11  132.77   14.41
  -6  -6 -11  107.50   12.36
  -6  -6 -11  119.99   16.21
   3  -7 -11   12.10    5.61
   3  -7 -11   19.49    7.97
  -3   7  11    4.61    8.92
   2  -7 -11    8.45    5.22
   2  -7 -11    3.23    6.50
  -2   7  11   -1.61    6.36
   1  -7 -11  322.59   18.51
   1  -7 -11  377.59   18.98
  -1   7  11  362.08   19.39
   0  -7 -11   52.17    9.03
   0   7  11   35.24    6.52
  -1  -7 -11   23.15    4.93
   1   7  11   27.41    5.94
  -2  -7 -11   35.20    5.52
   2   7  11   50.07    9.13
  -3  -7 -11  125.39   10.92
   3   7  11  107.36   10.91
  -4  -7 -11  714.39   31.60
  -5  -7 -11    4.40    5.52
  -5  -7 -11   10.82    6.45
  -6  -7 -11   53.86   11.78
  -6  -7 -11   66.10   13.23
   2  -8 -11  210.91   14.59
   2  -8 -11  209.32   15.86
  -2   8  11  211.50   15.57
   1  -8 -11   38.74   10.15
   1  -8 -11   37.23    6.05
  -1   8  11   59.08   11.17
   0  -8 -11  109.88   10.49
   0   8  11  102.62   11.92
  -1  -8 -11  843.24   37.55
   1   8  11  924.25   38.19
  -2  -8 -11  649.89   29.95
   2   8  11  697.31   30.26
  -3  -8 -11  113.76   11.74
   3   8  11  147.49   11.78
  -4  -8 -11  370.98   19.54
   4   8  11  373.67   19.93
  -5  -8 -11   91.85   12.51
  -5  -8 -11  137.11   12.95
  -6  -8 -11   14.89    8.12
  -6  -8 -11   11.10    7.05
   1  -9 -11  200.76   14.30
  -1   9  11  212.15   15.11
   0  -9 -11   -1.23    5.28
   0   9  11   20.01    6.55
  -1  -9 -11    5.06    5.02
   1   9  11   -1.27    5.97
   2   9  11   49.90   10.10
  -3  -9 -11   74.70   10.96
   3   9  11   85.44   11.48
  -4  -9 -11   83.43   11.77
   4   9  11   76.26   12.09
  -5  -9 -11    7.17    6.53
   0 -10 -11   46.51   11.10
   0  10  11   66.09   12.73
  -1 -10 -11   14.14    5.74
   1  10  11    2.05    6.71
  -2 -10 -11  132.92   12.48
   2  10  11  146.79   12.79
  -3 -10 -11   94.52   12.03
   3  10  11  110.82   12.88
  -4 -10 -11    8.95    6.44
   4  10  11   23.42    7.15
   1   3 -12    5.51    6.93
   0   3 -12  531.41   28.08
   0   3 -12  600.11   30.81
   0  -3  12  559.71   29.87
  -1   3 -12   15.68    6.78
   1  -3  12   12.45    6.15
   2   2 -12   10.31    7.17
   2   2 -12   13.65    6.48
  -2  -2  12    3.98    6.49
   1   2 -12    7.82    6.76
  -1  -2  12   12.21    6.07
   0   2 -12  419.67   21.84
   0   2 -12  401.14   20.96
   0  -2  12  380.61   21.79
  -1   2 -12  274.86   16.46
  -1   2 -12  243.39   16.88
   1  -2  12  237.57   16.33
  -2   2 -12   40.41    7.13
  -2   2 -12   49.20   11.61
   3  -2  12   31.56    6.65
   3   1 -12   51.95   14.44
  -3  -1  12   79.50   12.04
   2   1 -12  632.82   30.45
   2   1 -12  706.04   31.13
  -2  -1  12  644.97   31.19
   1   1 -12  279.16   17.05
   1   1 -12  287.88   16.94
  -1  -1  12  298.52   17.79
   0   1 -12  194.03   13.23
   0   1 -12  166.45   13.51
   0  -1  12  182.04   13.80
  -1   1 -12  296.38   17.84
  -1   1 -12  314.78   17.33
   1  -1  12  305.25   17.94
  -2   1 -12   46.47   10.65
  -2   1 -12   51.82   10.72
   2  -1  12   44.32   10.24
  -3   1 -12   82.25   11.68
   3  -1  12   67.90   11.58
   3   0 -12  327.18   19.92
   3   0 -12  269.44   17.39
  -3   0  12  289.18   18.49
   2   0 -12  394.12   20.33
   2   0 -12  332.03   19.31
  -2   0  12  338.60   19.67
   1   0 -12   47.66    9.91
   1   0 -12   56.28    9.45
  -1   0  12   48.91   10.01
   0   0 -12   77.85   10.21
   0   0 -12   90.45    9.92
   0   0  12  102.03   10.71
  -1   0 -12   24.20    5.65
  -2   0 -12    2.33    5.41
  -2   0 -12    3.01    5.29
   2   0  12    0.13    5.13
  -3   0 -12  107.47   12.09
  -3   0 -12  127.76   13.14
   3   0  12  128.00   11.92
  -4   0 -12    3.51    6.39
  -4   0 -12    8.81    6.59
   3  -1 -12   -2.77   10.10
   3  -1 -12    0.78    6.27
  -3   1  12    8.54    6.47
   2  -1 -12   -1.96    6.77
  -2   1  12    1.57    5.56
   1  -1 -12  244.56   14.92
   1  -1 -12  257.00   14.68
  -1   1  12  240.58   15.77
   0  -1 -12   26.73    8.02
   0   1  12   19.86    5.14
  -1  -1 -12   73.97   11.09
  -1  -1 -12  105.80    9.62
   1   1  12   87.04   10.39
  -2  -1 -12  344.25   18.94
  -2  -1 -12  382.39   18.66
   2   1  12  334.39   19.15
  -3  -1 -12 1024.60   42.75
  -3  -1 -12  996.02   43.26
  -4  -1 -12  146.55   14.33
  -4  -1 -12  161.42   13.32
  -4  -1 -12  141.65   13.31
  -5  -1 -12  541.91   27.56
  -5  -1 -12  597.43   28.35
  -5  -1 -12  554.04   29.36
   3  -2 -12   -0.86    6.71
   2  -2 -12    3.14    5.90
   2  -2 -12   10.98    8.42
   1  -2 -12   82.22    9.93
   1  -2 -12   88.09    9.66
   0  -2 -12    7.13    5.21
   0  -2 -12    1.14    4.27
  -1  -2 -12    5.47    4.63
  -1  -2 -12    3.11    4.29
  -2  -2 -12  674.28   29.44
  -2  -2 -12  665.60   29.39
  -3  -2 -12  125.70   11.85
  -3  -2 -12  108.71   11.52
  -3  -2 -12  129.32   11.25
  -4  -2 -12   23.06    5.89
  -4  -2 -12    6.73    6.06
  -4  -2 -12   14.75    6.27
  -5  -2 -12   19.79    6.21
   3  -3 -12    8.29    5.74
   2  -3 -12    1.21    5.50
   1  -3 -12  210.12   13.24
   1  -3 -12  210.11   14.07
   0  -3 -12  164.01   12.49
   0  -3 -12  167.35   11.76
  -1  -3 -12    9.94    4.65
  -1  -3 -12   12.44    4.96
  -2  -3 -12  337.48   17.33
  -2  -3 -12  332.69   17.21
  -2  -3 -12  353.57   18.89
  -3  -3 -12  747.10   33.59
  -3  -3 -12  777.94   33.16
  -3  -3 -12  807.46   35.04
  -4  -3 -12  187.28   14.10
  -4  -3 -12  198.99   14.68
  -4  -3 -12  199.45   14.36
  -5  -3 -12   11.22    7.08
   3  -4 -12  114.01   12.90
  -3   4  12  125.06   13.61
   2  -4 -12   84.82   11.77
   2  -4 -12  100.96   11.22
  -2   4  12   95.62   11.75
   1  -4 -12  251.92   15.19
   1  -4 -12  239.97   15.55
   0  -4 -12  997.15   41.49
   0  -4 -12 1011.90   43.16
  -1  -4 -12    4.95    4.82
  -1  -4 -12   19.54    5.16
  -2  -4 -12   45.63    6.80
  -3  -4 -12   24.28    5.49
  -4  -4 -12    5.27    5.80
  -4  -4 -12   -5.63    5.47
  -5  -4 -12  173.03   14.57
  -5  -4 -12  147.06   14.89
   3  -5 -12   20.76    7.73
  -3   5  12   12.39    7.83
   2  -5 -12  325.24   19.17
   2  -5 -12  326.56   18.63
  -2   5  12  372.56   19.45
   1  -5 -12   22.32    6.31
   1  -5 -12   26.23    5.53
  -1   5  12   24.17    6.42
   0  -5 -12  459.42   22.07
   0  -5 -12  454.64   23.09
   0   5  12  468.97   22.63
  -1  -5 -12   21.73    5.10
  -2  -5 -12   91.10   10.93
  -3  -5 -12   45.29    9.80
  -4  -5 -12  597.91   28.34
  -4  -5 -12  589.28   27.80
  -5  -5 -12  231.65   15.98
  -5  -5 -12  223.98   16.86
   2  -6 -12   62.89   11.68
   2  -6 -12   56.27   11.71
   1  -6 -12    2.33    5.52
   1  -6 -12    2.98    5.33
  -1   6  12    0.06    6.59
   0  -6 -12    5.63    5.59
   0  -6 -12    5.57    5.12
   0   6  12   -3.12    5.94
  -1  -6 -12  421.64   21.73
  -1  -6 -12  417.00   20.43
   1   6  12  434.66   21.54
  -2  -6 -12   96.50   10.93
   2   6  12   94.60   10.88
  -3  -6 -12    4.30    5.17
   3   6  12   -5.55    5.68
  -4  -6 -12  224.16   15.14
  -5  -6 -12  217.02   15.63
   2  -7 -12    2.38    7.24
   2  -7 -12    7.38    6.28
  -2   7  12    2.88    7.53
   1  -7 -12   -5.90    6.30
  -1   7  12    0.99    6.84
   0  -7 -12   24.64    5.63
   0  -7 -12   20.51    5.69
   0   7  12   10.61    6.61
  -1  -7 -12  217.18   15.14
   1   7  12  253.97   15.69
  -2  -7 -12  479.14   23.37
   2   7  12  461.93   22.99
  -3  -7 -12  202.44   14.64
   3   7  12  209.91   14.85
  -4  -7 -12  768.91   34.17
  -5  -7 -12  187.05   15.63
  -5  -7 -12  211.90   15.88
   1  -8 -12  179.23   14.88
   1  -8 -12  208.43   14.78
  -1   8  12  204.19   15.75
   0  -8 -12  151.69   12.94
   0   8  12  154.44   14.16
  -1  -8 -12   85.89   10.63
   1   8  12   84.35   12.03
  -2  -8 -12  504.68   24.96
   2   8  12  537.13   25.35
  -3  -8 -12    5.40    5.49
   3   8  12   10.51    6.59
  -4  -8 -12    2.57    6.33
   4   8  12   18.08    7.21
  -5  -8 -12    5.39    6.38
   0  -9 -12   19.23    6.65
   0   9  12   22.66    9.46
  -1  -9 -12    5.54    6.17
   1   9  12   14.00    6.84
  -2  -9 -12   29.68    6.42
  -3  -9 -12   89.42   11.89
   3   9  12  114.15   13.16
  -4  -9 -12    2.68    6.85
   0   1 -13  159.64   14.58
  -1   1 -13  125.14   14.02
   1  -1  13  147.53   21.59
   1   0 -13   21.11    7.09
   1   0 -13   15.53    8.64
  -1   0  13   11.70    6.58
   0   0 -13  129.46   12.53
   0   0 -13  107.56   12.76
  -1   0 -13   14.90    6.39
   1   0  13   16.09    6.18
  -2   0 -13   24.75    7.28
   2   0  13   19.48    6.43
  -2   1  13  103.95   13.62
   1  -1 -13  248.21   16.30
  -1   1  13  264.93   17.37
   0  -1 -13   16.73    6.26
   0   1  13   22.93    6.20
  -1  -1 -13    0.00    5.59
  -1  -1 -13   -0.19    5.71
   1   1  13    5.27    5.84
  -2  -1 -13  367.31   21.13
  -2  -1 -13  405.44   20.67
  -3  -1 -13  106.06   12.89
  -3  -1 -13  112.76   14.03
   1  -2 -13   -6.79    6.36
   0  -2 -13   33.01    6.74
  -1  -2 -13   17.38    6.16
  -2  -2 -13    2.45    5.52
  -2  -2 -13   -2.37    5.49
  -2  -2 -13    4.76    5.47
  -3  -2 -13  703.11   33.13
  -3  -2 -13  735.73   32.10
  -3  -2 -13  700.45   32.73
  -4  -2 -13  105.23   14.08
  -4  -2 -13   85.73   14.14
  -4  -2 -13  123.53   15.04
   2  -3 -13   27.06    6.68
   1  -3 -13  300.74   17.97
   1  -3 -13  286.10   16.99
   0  -3 -13 1124.98   46.35
   0  -3 -13 1013.06   44.60
  -1  -3 -13  275.70   17.74
  -1  -3 -13  297.79   16.92
  -2  -3 -13  177.30   12.88
  -2  -3 -13  161.94   14.15
  -3  -3 -13  218.72   16.38
  -3  -3 -13  208.83   16.04
  -4  -3 -13  130.30   12.23
  -4  -3 -13   99.37   13.36
  -4  -3 -13  113.61   14.05
   2  -4 -13   48.44    8.29
   2  -4 -13   47.09   11.76
   0  -4 -13  134.33   11.51
   0  -4 -13  112.77   12.58
  -1  -4 -13   -7.95    5.40
  -1  -4 -13   12.56    5.73
  -2  -4 -13   38.46    6.52
  -3  -4 -13  219.37   15.74
  -3  -4 -13  219.71   14.23
  -4  -4 -13  156.70   14.82
   1  -5 -13  172.34   14.69
   1  -5 -13  196.15   15.14
  -1   5  13  210.41   15.26
   0  -5 -13   71.76   10.96
   0   5  13   86.97   11.59
  -1  -5 -13  121.14   11.18
  -3  -5 -13    2.79    6.01
  -4  -5 -13  331.94   20.30
   1  -6 -13    4.66    6.78
   1  -6 -13    0.14    6.22
  -1   6  13    6.32    7.84
   0  -6 -13    2.79    5.80
   0   6  13   -0.81    6.87
  -1  -6 -13   -0.29    5.83
  -2  -6 -13    1.50    6.01
  -3  -6 -13   -7.82    6.12
  -4  -6 -13   68.64   12.99
   0  -7 -13   20.89    6.75
   0   7  13   33.16    7.92
  -1  -7 -13  555.64   27.93
   1   7  13  603.95   28.34
  -2  -7 -13  347.93   19.76
   2   7  13  343.35   19.85
  -3  -7 -13  188.19   15.45
   3   7  13  190.32   15.56
  -4  -7 -13    6.53    6.89
   1   8  13  174.21   15.68
  -2  -8 -13  104.84   15.89
   2   8  13   78.52   13.27
   3   8  13   44.16    8.05
  -1  -4 -14  288.19   18.20


 _exptl_absorpt_process_details
)
 SADABS 2016/2: Krause, L., Herbst-Irmer, R., Sheldrick G.M. & Stalke D.,
 J. Appl. Cryst. 48 (2015) 3-10
)
 _exptl_absorpt_correction_type   multi-scan
 _exptl_absorpt_correction_T_max  0.7456
 _exptl_absorpt_correction_T_min  0.6030
 _exptl_special_details
)
 The following wavelength and cell were deduced by SADABS from the
 direction cosines etc. They are given here for emergency use only:
 CELL 0.71103    7.135   10.429   10.803   73.202   82.345   75.927
)

_computing_structure_solution     'SHELXT 2014/4 (Sheldrick, 2014)'
;
_shelx_hkl_checksum              88446
_olex2_submission_special_instructions 'No special instructions were received'
loop_
_space_group_symop_operation_xyz
'x, y, z'
'-x, -y, -z'
loop_
_atom_site_label
_atom_site_type_symbol
_atom_site_fract_x
_atom_site_fract_y
_atom_site_fract_z
_atom_site_U_iso_or_equiv
_atom_site_adp_type
_atom_site_occupancy
_atom_site_site_symmetry_order
_atom_site_calc_flag
_atom_site_refinement_flags_posn
_atom_site_refinement_flags_adp
_atom_site_refinement_flags_occupancy
Ni1 Ni 1.0000 0.5000 1.0000 0.00972(10) Uani 1 2 d S T P
Cl1 Cl 0.88612(7) 0.31020(5) 0.97180(5) 0.01372(12) Uani 1 1 d . . .
S003 S 0.70783(8) 0.64160(5) 1.20131(5) 0.01413(12) Uani 1 1 d . . .
S004 S 0.04440(8) 0.98650(6) 0.27587(5) 0.01670(13) Uani 1 1 d . . .
O4 O 0.7769(2) 0.51875(14) 1.14511(13) 0.0126(3) Uani 1 1 d . . .
O1 O 0.5233(2) 0.87620(16) 0.43015(14) 0.0177(3) Uani 1 1 d . . .
O3 O 0.0937(2) 0.84528(16) 0.37146(14) 0.0212(4) Uani 1 1 d . . .
O2 O 0.2795(2) 0.8086(2) 0.56655(15) 0.0282(4) Uani 1 1 d . . .
H2 H 0.2245 0.8281 0.4993 0.042 Uiso 1 1 calc GR . .
N1 N 0.8172(2) 0.63262(17) 0.85787(16) 0.0112(3) Uani 1 1 d . . .
C5 C 0.6250(3) 0.6404(2) 0.87369(19) 0.0136(4) Uani 1 1 d . . .
H5 H 0.5727 0.5994 0.9549 0.016 Uiso 1 1 calc R . .
C4 C 0.8894(3) 0.6974(2) 0.74115(19) 0.0130(4) Uani 1 1 d . . .
H4 H 1.0210 0.6970 0.7301 0.016 Uiso 1 1 calc R . .
C2 C 0.5794(3) 0.7668(2) 0.65321(19) 0.0122(4) Uani 1 1 d . . .
C6 C 0.5017(3) 0.7063(2) 0.77543(19) 0.0136(4) Uani 1 1 d . . .
H6 H 0.3693 0.7101 0.7905 0.016 Uiso 1 1 calc R . .
C3 C 0.7764(3) 0.7645(2) 0.63682(19) 0.0129(4) Uani 1 1 d . . .
H3 H 0.8315 0.8073 0.5573 0.015 Uiso 1 1 calc R . .
C1 C 0.4583(3) 0.8249(2) 0.5383(2) 0.0142(4) Uani 1 1 d . . .
C10 C -0.1416(3) 0.9762(2) 0.1876(2) 0.0189(5) Uani 1 1 d . . .
H10A H -0.0978 0.9000 0.1500 0.028 Uiso 1 1 calc GR . .
H10B H -0.1733 1.0594 0.1199 0.028 Uiso 1 1 calc GR . .
H10C H -0.2544 0.9634 0.2450 0.028 Uiso 1 1 calc GR . .
C9 C 0.2362(3) 0.9897(3) 0.1516(2) 0.0237(5) Uani 1 1 d . . .
H9A H 0.3542 0.9861 0.1873 0.036 Uiso 1 1 calc GR . .
H9B H 0.2058 1.0727 0.0834 0.036 Uiso 1 1 calc GR . .
H9C H 0.2518 0.9121 0.1173 0.036 Uiso 1 1 calc GR . .
C8 C 0.4834(3) 0.6139(2) 1.2869(2) 0.0212(5) Uani 1 1 d . . .
H8A H 0.3928 0.6191 1.2264 0.032 Uiso 1 1 calc GR . .
H8B H 0.4328 0.6827 1.3329 0.032 Uiso 1 1 calc GR . .
H8C H 0.5038 0.5248 1.3476 0.032 Uiso 1 1 calc GR . .
C7 C 0.8467(3) 0.6067(2) 1.3378(2) 0.0211(5) Uani 1 1 d . . .
H7A H 0.8386 0.5181 1.3943 0.032 Uiso 1 1 calc GR . .
H7B H 0.7968 0.6754 1.3840 0.032 Uiso 1 1 calc GR . .
H7C H 0.9795 0.6077 1.3085 0.032 Uiso 1 1 calc GR . .
loop_
_atom_site_aniso_label
_atom_site_aniso_U_11
_atom_site_aniso_U_22
_atom_site_aniso_U_33
_atom_site_aniso_U_23
_atom_site_aniso_U_13
_atom_site_aniso_U_12
Ni1 0.01092(19) 0.01021(18) 0.00760(17) -0.00138(13) -0.00132(13) -0.00235(14)
Cl1 0.0159(3) 0.0132(2) 0.0128(2) -0.00318(18) -0.00081(18) -0.00503(18)
S003 0.0158(3) 0.0133(2) 0.0131(2) -0.00439(19) -0.00063(19) -0.00187(19)
S004 0.0193(3) 0.0188(3) 0.0143(2) -0.0058(2) -0.0012(2) -0.0066(2)
O4 0.0139(7) 0.0130(7) 0.0113(7) -0.0052(6) 0.0010(5) -0.0022(6)
O1 0.0187(8) 0.0229(8) 0.0098(7) 0.0001(6) -0.0023(6) -0.0058(6)
O3 0.0208(8) 0.0268(9) 0.0138(7) 0.0025(6) -0.0057(6) -0.0082(7)
O2 0.0140(8) 0.0554(12) 0.0118(7) 0.0001(8) -0.0038(6) -0.0106(8)
N1 0.0125(9) 0.0103(8) 0.0109(8) -0.0027(6) -0.0018(6) -0.0023(6)
C5 0.0148(10) 0.0143(10) 0.0110(9) -0.0013(8) -0.0003(8) -0.0045(8)
C4 0.0122(10) 0.0124(9) 0.0136(9) -0.0020(8) -0.0004(8) -0.0033(8)
C2 0.0143(10) 0.0113(9) 0.0109(9) -0.0037(7) -0.0021(7) -0.0009(8)
C6 0.0118(10) 0.0174(10) 0.0118(9) -0.0039(8) -0.0005(7) -0.0036(8)
C3 0.0147(10) 0.0140(10) 0.0095(9) -0.0023(7) 0.0004(7) -0.0041(8)
C1 0.0136(10) 0.0145(10) 0.0143(10) -0.0044(8) -0.0021(8) -0.0012(8)
C10 0.0196(11) 0.0187(11) 0.0174(10) -0.0015(9) -0.0052(8) -0.0043(9)
C9 0.0216(12) 0.0299(13) 0.0170(11) -0.0009(9) -0.0009(9) -0.0073(10)
C8 0.0161(11) 0.0272(12) 0.0225(11) -0.0123(10) 0.0020(9) -0.0035(9)
C7 0.0225(12) 0.0272(12) 0.0173(10) -0.0099(9) -0.0026(9) -0.0070(10)
loop_
_atom_type_symbol
_atom_type_description
_atom_type_scat_dispersion_real
_atom_type_scat_dispersion_imag
_atom_type_scat_source
C C 0.0033 0.0016 'International Tables Vol C Tables 4.2.6.8 and 6.1.1.4'
H H 0.0000 0.0000 'International Tables Vol C Tables 4.2.6.8 and 6.1.1.4'
Cl Cl 0.1484 0.1585 'International Tables Vol C Tables 4.2.6.8 and 6.1.1.4'
N N 0.0061 0.0033 'International Tables Vol C Tables 4.2.6.8 and 6.1.1.4'
Ni Ni 0.3393 1.1124 'International Tables Vol C Tables 4.2.6.8 and 6.1.1.4'
O O 0.0106 0.0060 'International Tables Vol C Tables 4.2.6.8 and 6.1.1.4'
S S 0.1246 0.1234 'International Tables Vol C Tables 4.2.6.8 and 6.1.1.4'
loop_
_geom_angle_atom_site_label_1
_geom_angle_atom_site_label_2
_geom_angle_atom_site_label_3
_geom_angle
_geom_angle_site_symmetry_1
_geom_angle_site_symmetry_3
Cl1 Ni1 Cl1 180.0 2_767 .
O4 Ni1 Cl1 91.74(4) . 2_767
O4 Ni1 Cl1 88.26(4) . .
O4 Ni1 Cl1 91.74(4) 2_767 .
O4 Ni1 Cl1 88.26(4) 2_767 2_767
O4 Ni1 O4 180.0 . 2_767
O4 Ni1 N1 90.81(6) 2_767 2_767
O4 Ni1 N1 90.81(6) . .
O4 Ni1 N1 89.19(6) 2_767 .
O4 Ni1 N1 89.19(6) . 2_767
N1 Ni1 Cl1 88.70(5) 2_767 2_767
N1 Ni1 Cl1 88.70(5) . .
N1 Ni1 Cl1 91.30(5) . 2_767
N1 Ni1 Cl1 91.30(5) 2_767 .
N1 Ni1 N1 180.00(9) . 2_767
O4 S003 C8 103.00(10) . .
O4 S003 C7 106.11(10) . .
C8 S003 C7 98.38(11) . .
O3 S004 C10 104.46(10) . .
O3 S004 C9 105.73(10) . .
C10 S004 C9 99.06(11) . .
S003 O4 Ni1 125.31(8) . .
C1 O2 H2 109.5 . .
C5 N1 Ni1 120.55(13) . .
C5 N1 C4 117.55(17) . .
C4 N1 Ni1 121.24(14) . .
N1 C5 H5 118.4 . .
N1 C5 C6 123.25(19) . .
C6 C5 H5 118.4 . .
N1 C4 H4 118.5 . .
N1 C4 C3 122.92(19) . .
C3 C4 H4 118.5 . .
C6 C2 C1 121.50(19) . .
C3 C2 C6 118.68(18) . .
C3 C2 C1 119.68(18) . .
C5 C6 C2 118.69(19) . .
C5 C6 H6 120.7 . .
C2 C6 H6 120.7 . .
C4 C3 C2 118.77(18) . .
C4 C3 H3 120.6 . .
C2 C3 H3 120.6 . .
O1 C1 O2 124.47(19) . .
O1 C1 C2 122.82(19) . .
O2 C1 C2 112.64(17) . .
S004 C10 H10A 109.5 . .
S004 C10 H10B 109.5 . .
S004 C10 H10C 109.5 . .
H10A C10 H10B 109.5 . .
H10A C10 H10C 109.5 . .
H10B C10 H10C 109.5 . .
S004 C9 H9A 109.5 . .
S004 C9 H9B 109.5 . .
S004 C9 H9C 109.5 . .
H9A C9 H9B 109.5 . .
H9A C9 H9C 109.5 . .
H9B C9 H9C 109.5 . .
S003 C8 H8A 109.5 . .
S003 C8 H8B 109.5 . .
S003 C8 H8C 109.5 . .
H8A C8 H8B 109.5 . .
H8A C8 H8C 109.5 . .
H8B C8 H8C 109.5 . .
S003 C7 H7A 109.5 . .
S003 C7 H7B 109.5 . .
S003 C7 H7C 109.5 . .
H7A C7 H7B 109.5 . .
H7A C7 H7C 109.5 . .
H7B C7 H7C 109.5 . .
loop_
_geom_bond_atom_site_label_1
_geom_bond_atom_site_label_2
_geom_bond_distance
_geom_bond_site_symmetry_2
Ni1 Cl1 2.4231(5) .
Ni1 Cl1 2.4231(5) 2_767
Ni1 O4 2.0926(14) .
Ni1 O4 2.0927(14) 2_767
Ni1 N1 2.0964(17) .
Ni1 N1 2.0965(17) 2_767
S003 O4 1.5193(14) .
S003 C8 1.784(2) .
S003 C7 1.784(2) .
S004 O3 1.5251(16) .
S004 C10 1.774(2) .
S004 C9 1.782(2) .
O1 C1 1.216(2) .
O2 H2 0.8200 .
O2 C1 1.313(3) .
N1 C5 1.345(3) .
N1 C4 1.347(3) .
C5 H5 0.9300 .
C5 C6 1.379(3) .
C4 H4 0.9300 .
C4 C3 1.385(3) .
C2 C6 1.393(3) .
C2 C3 1.389(3) .
C2 C1 1.499(3) .
C6 H6 0.9300 .
C3 H3 0.9300 .
C10 H10A 0.9600 .
C10 H10B 0.9600 .
C10 H10C 0.9600 .
C9 H9A 0.9600 .
C9 H9B 0.9600 .
C9 H9C 0.9600 .
C8 H8A 0.9600 .
C8 H8B 0.9600 .
C8 H8C 0.9600 .
C7 H7A 0.9600 .
C7 H7B 0.9600 .
C7 H7C 0.9600 .
