#------------------------------------------------------------------------------
#$Date: 2019-11-26 04:59:06 +0200 (Tue, 26 Nov 2019) $
#$Revision: 242654 $
#$URL: file:///home/coder/svn-repositories/cod/cif/4/13/27/4132740.cif $
#------------------------------------------------------------------------------
#
# This file is available in the Crystallography Open Database (COD),
# http://www.crystallography.net/
#
# All data on this site have been placed in the public domain by the
# contributors.
#
data_4132740
loop_
_publ_author_name
'Georg, Isabelle'
'Teichmann, Julian'
'Bursch, Markus'
'Tillmann, Jan'
'Endeward, Burkhard'
'Bolte, Michael'
'Lerner, Hans-Wolfram'
'Grimme, Stefan'
'Wagner, Matthias'
_publ_section_title
;
 Exhaustively Trichlorosilylated C<sub>1</sub> and C<sub>2</sub> Building
 Blocks: Beyond the M\"uller-Rochow Direct Process.
;
_journal_issue                   30
_journal_name_full               'Journal of the American Chemical Society'
_journal_page_first              9696
_journal_page_last               9708
_journal_paper_doi               10.1021/jacs.8b05950
_journal_volume                  140
_journal_year                    2018
_chemical_formula_moiety         'C8 H8 Cl6 Si2'
_chemical_formula_sum            'C8 H8 Cl6 Si2'
_chemical_formula_weight         373.02
_space_group_crystal_system      triclinic
_space_group_IT_number           2
_space_group_name_Hall           '-P 1'
_space_group_name_H-M_alt        'P -1'
_atom_sites_solution_hydrogens   geom
_audit_creation_method           SHELXL-2016/6
_cell_angle_alpha                77.516(7)
_cell_angle_beta                 87.755(7)
_cell_angle_gamma                62.147(7)
_cell_formula_units_Z            2
_cell_length_a                   9.1268(8)
_cell_length_b                   9.5234(9)
_cell_length_c                   10.1718(9)
_cell_measurement_reflns_used    10403
_cell_measurement_temperature    173(2)
_cell_measurement_theta_max      27.82
_cell_measurement_theta_min      3.38
_cell_volume                     761.25(13)
_computing_cell_refinement       'X-Area (Stoe & Cie, 2001)'
_computing_data_collection       'X-Area (Stoe & Cie, 2001)'
_computing_data_reduction        'X-Area (Stoe & Cie, 2001)'
_computing_molecular_graphics    'XP in SHELXTL-Plus (Sheldrick, 2008)'
_computing_publication_material  SHELXL
_computing_structure_refinement  'SHELXL (Sheldrick, 2008)'
_computing_structure_solution    'SHELXS (Sheldrick, 2008)'
_diffrn_ambient_temperature      173(2)
_diffrn_measured_fraction_theta_full 0.996
_diffrn_measured_fraction_theta_max 0.995
_diffrn_measurement_device_type  'STOE IPDS II two-circle-diffractometer'
_diffrn_measurement_method       \w
_diffrn_radiation_type           MoK\a
_diffrn_radiation_wavelength     0.71073
_diffrn_reflns_av_R_equivalents  0.0211
_diffrn_reflns_av_unetI/netI     0.0239
_diffrn_reflns_Laue_measured_fraction_full 0.996
_diffrn_reflns_Laue_measured_fraction_max 0.995
_diffrn_reflns_limit_h_max       11
_diffrn_reflns_limit_h_min       -11
_diffrn_reflns_limit_k_max       12
_diffrn_reflns_limit_k_min       -12
_diffrn_reflns_limit_l_max       13
_diffrn_reflns_limit_l_min       -13
_diffrn_reflns_number            10403
_diffrn_reflns_point_group_measured_fraction_full 0.996
_diffrn_reflns_point_group_measured_fraction_max 0.995
_diffrn_reflns_theta_full        25.000
_diffrn_reflns_theta_max         27.538
_diffrn_reflns_theta_min         3.374
_diffrn_source                   'Genix 3D I\mS microfocus X-ray source'
_exptl_absorpt_coefficient_mu    1.257
_exptl_absorpt_correction_T_max  1.000
_exptl_absorpt_correction_T_min  0.750
_exptl_absorpt_correction_type   multi-scan
_exptl_absorpt_process_details   'X-Area (Stoe & Cie, 2001)'
_exptl_crystal_colour            colourless
_exptl_crystal_density_diffrn    1.627
_exptl_crystal_description       block
_exptl_crystal_F_000             372
_exptl_crystal_size_max          0.160
_exptl_crystal_size_mid          0.130
_exptl_crystal_size_min          0.100
_refine_diff_density_max         0.270
_refine_diff_density_min         -0.224
_refine_diff_density_rms         0.051
_refine_ls_extinction_method     none
_refine_ls_goodness_of_fit_ref   1.032
_refine_ls_hydrogen_treatment    constr
_refine_ls_matrix_type           full
_refine_ls_number_parameters     147
_refine_ls_number_reflns         3492
_refine_ls_number_restraints     0
_refine_ls_restrained_S_all      1.032
_refine_ls_R_factor_all          0.0374
_refine_ls_R_factor_gt           0.0276
_refine_ls_shift/su_max          0.000
_refine_ls_shift/su_mean         0.000
_refine_ls_structure_factor_coef Fsqd
_refine_ls_weighting_details
'w=1/[\s^2^(Fo^2^)+(0.0394P)^2^+0.0682P] where P=(Fo^2^+2Fc^2^)/3'
_refine_ls_weighting_scheme      calc
_refine_ls_wR_factor_gt          0.0651
_refine_ls_wR_factor_ref         0.0681
_reflns_Friedel_coverage         0.000
_reflns_number_gt                2939
_reflns_number_total             3492
_reflns_threshold_expression     'I > 2\s(I)'
_cod_data_source_file            ja8b05950_si_002.cif
_cod_data_source_block           wa2549
_cod_database_code               4132740
_shelx_shelxl_version_number     2016/6
_shelx_space_group_comment
; 
The symmetry employed for this shelxl refinement is uniquely defined 
by the following loop, which should always be used as a source of 
symmetry information in preference to the above space-group names. 
They are only intended as comments. 
;
_shelx_estimated_absorpt_t_min   0.824
_shelx_estimated_absorpt_t_max   0.885
_shelx_res_file
; 
TITL wa2549 in P-1 
    wa2549.res 
    created by SHELXL-2016/6 at 10:53:50 on 27-Sep-2017 
CELL .71073  9.1268   9.5234  10.1718  77.516  87.755  62.147 
ZERR 2       0.0008   0.0009   0.0009   0.007   0.007   0.007 
LATT 1 
SFAC C  H  Cl Si 
UNIT 16 16 12 4 
TEMP-100 
REM colourless block 
SIZE .16 .13 .10 
ACTA50 
CONF 
L.S. 8 
BOND$H 
FMAP 2 
PLAN 10 
WGHT    0.039400    0.068200 
FVAR       0.88114 
SI1   4    0.378967    0.352211    0.191544    11.00000    0.03227    0.03276 = 
         0.02393   -0.00368    0.00317   -0.01801 
CL11  3    0.369839    0.573911    0.166544    11.00000    0.07300    0.04362 = 
         0.04285   -0.00747    0.01603   -0.03960 
CL12  3    0.618742    0.192719    0.175979    11.00000    0.03197    0.05261 = 
         0.05509   -0.00252    0.01037   -0.01688 
CL13  3    0.235797    0.370470    0.035182    11.00000    0.05350    0.05652 = 
         0.02651   -0.00370   -0.00675   -0.02750 
SI2   4    0.240824    0.036383    0.297417    11.00000    0.03379    0.03175 = 
         0.03504   -0.01268    0.00459   -0.01934 
CL21  3    0.248740   -0.163539    0.427508    11.00000    0.08325    0.04072 = 
         0.05517   -0.01270    0.01410   -0.04195 
CL22  3    0.024657    0.141563    0.181609    11.00000    0.03890    0.05814 = 
         0.06894   -0.02340   -0.00830   -0.02425 
CL23  3    0.430086   -0.051011    0.177233    11.00000    0.04378    0.04190 = 
         0.05213   -0.02225    0.01534   -0.01873 
C1    1    0.299228    0.299091    0.355888    11.00000    0.02821    0.02906 = 
         0.02350   -0.00426    0.00129   -0.01535 
C2    1    0.247734    0.177118    0.396322    11.00000    0.02763    0.02672 = 
         0.02804   -0.00649    0.00080   -0.01365 
C3    1    0.185109    0.162330    0.523792    11.00000    0.03376    0.03143 = 
         0.02948   -0.00519    0.00404   -0.01904 
AFIX  43 
H3    2    0.150758    0.081009    0.551211    11.00000   -1.20000 
AFIX   0 
C4    1    0.170439    0.260822    0.612840    11.00000    0.02910    0.03116 = 
         0.02522   -0.00434    0.00200   -0.01249 
C5    1    0.224755    0.377187    0.574201    11.00000    0.03811    0.02619 = 
         0.02580   -0.00564   -0.00170   -0.01279 
C6    1    0.286641    0.394383    0.447343    11.00000    0.04142    0.02807 = 
         0.02641   -0.00371   -0.00075   -0.02018 
AFIX  43 
H6    2    0.322123    0.475060    0.421673    11.00000   -1.20000 
AFIX   0 
C7    1    0.099885    0.236974    0.747708    11.00000    0.04185    0.04370 = 
         0.02948   -0.00904    0.01053   -0.01883 
AFIX 137 
H7A   2    0.188380    0.190614    0.819959    11.00000   -1.50000 
H7B   2    0.053046    0.162557    0.750110    11.00000   -1.50000 
H7C   2    0.012446    0.342277    0.760570    11.00000   -1.50000 
AFIX   0 
C8    1    0.215928    0.485439    0.666397    11.00000    0.07293    0.03582 = 
         0.02906   -0.01060    0.00416   -0.02736 
AFIX 137 
H8A   2    0.100913    0.545514    0.689238    11.00000   -1.50000 
H8B   2    0.254241    0.562706    0.620569    11.00000   -1.50000 
H8C   2    0.286904    0.418305    0.749178    11.00000   -1.50000 
AFIX   0 
HKLF 4 
  
  
  
  
REM  wa2549 in P-1 
REM R1 =  0.0276 for    2939 Fo > 4sig(Fo)  and  0.0374 for all    3492 data 
REM    147 parameters refined using      0 restraints 
  
END 
  
WGHT      0.0393      0.0816 
  
REM Highest difference peak  0.270,  deepest hole -0.224,  1-sigma level  0.051 
Q1    1   0.3355  0.3249  0.2852  11.00000  0.05    0.27 
Q2    1   0.2154  0.1754  0.4614  11.00000  0.05    0.27 
Q3    1   0.2507  0.1150  0.3543  11.00000  0.05    0.26 
Q4    1   0.2254  0.3097  0.5971  11.00000  0.05    0.24 
Q5    1   0.2150  0.4207  0.6096  11.00000  0.05    0.24 
Q6    1   0.1951  0.1948  0.5750  11.00000  0.05    0.24 
Q7    1   0.2684  0.2466  0.3719  11.00000  0.05    0.24 
Q8    1   0.6179  0.2637  0.2048  11.00000  0.05    0.23 
Q9    1   0.2839  0.3438  0.3979  11.00000  0.05    0.22 
Q10   1   0.3036  0.3688  0.1161  11.00000  0.05    0.22 
;
_shelx_res_checksum              79324
_shelx_hkl_file
; 
 -10 -10   0    9.45    5.41   0 
 -10  -8  -1    9.96    5.05   0 
 -10  -6  -3  294.74    7.22   0 
 -10  -5  -5   57.37    5.65   0 
  -9  -4  -4  306.29    6.97   0 
  -8  -6   0 1087.36   11.65   0 
  -8  -4  -2   33.51    5.21   0 
  -8  -3  -4   80.12    5.98   0 
  -7 -10   2   59.08    6.90   0 
  -7  -9   2  304.17    9.11   0 
  -7  -3  -2  561.33    8.56   0 
  -7  -2  -4   10.48    4.72   0 
  -6  -2  -2   10.22    4.96   0 
  -5   0 -10   38.41    7.41   0 
  -5   0  -6  283.84    7.74   0 
  -2   0  -1 9449.44   44.80   0 
   2  -1   1  382.46   10.54   0 
   2   1  -1 4787.55   34.34   0 
   3  -6   2    4.78    5.95   0 
   3  -5   2   20.50    5.35   0 
   3  -4   2  281.23    8.80   0 
   3   0   0 1054.31   13.74   0 
   4   3  -6    4.90    6.66   0 
   5   3  -9  171.76    8.22   0 
   5   3  -7   74.81    7.40   0 
   6  -4   0  123.84    7.58   0 
   7  -1  -2  301.82    7.17   0 
   7   2  -6   45.22    5.10   0 
   8   0  -4   54.98    5.33   0 
   9  -1  -5   14.07    6.41   0 
   9   0  -7   26.83    5.65   0 
 -11  -9  -2    2.76    5.50   0 
 -11  -8  -3   37.80    5.87   0 
 -11  -7  -4   40.29    5.75   0 
 -10  -7  -2   10.23    4.91   0 
  -9  -8   0   35.25    5.77   0 
  -8  -8   1   52.40    5.57   0 
  -6  -7   2  101.53    7.25   0 
  -6  -5   1   70.81    6.31   0 
  -6  -1  -5    7.75    4.74   0 
  -5   0  -9  103.64    7.43   0 
  -5   0  -8  853.38   12.26   0 
  -5   0  -7  128.78    6.26   0 
  -4  -3   1  652.30   11.71   0 
  -4  -2   0  101.16    6.63   0 
  -3  -7   3   27.70    9.43   0 
  -1  -9   3    4.75   11.16   0 
  -1   2 -10  152.38   11.50   0 
   0  -8   3   21.44    9.43   0 
   0   2  -4    7.52   10.22   0 
   2  -9   2   55.72    8.68   0 
   3  -7   2  101.39    7.64   0 
   4  -2   1 1156.94   12.23   0 
   5  -5   1  213.30    8.38   0 
   5  -4   1  468.76    9.27   0 
   5  -1   0  299.14    7.38   0 
   5   3 -10  154.43    8.08   0 
   6  -6   0   -5.01    6.35   0 
   6  -5   0  168.44    6.62   0 
   6  -3   0    4.15    4.88   0 
   6   2  -4   67.99    5.19   0 
   7  -5  -1    7.65    5.81   0 
   7  -4  -1   33.24    5.41   0 
   7  -3  -1  131.06    6.15   0 
   8  -1  -3  110.14    5.94   0 
   8   1  -5  311.09    7.36   0 
   8   2  -9   -3.11    6.82   0 
   9  -2  -4    4.04    5.56   0 
   9   0  -6   38.23    5.34   0 
 -11  -7  -5    5.12    5.74   0 
  -9  -5  -3    6.72    4.91   0 
  -8  -9   1  283.60    8.21   0 
  -8  -3  -5  158.78    6.03   0 
  -7  -4  -1  627.15    8.97   0 
  -7  -2  -5  427.89    7.87   0 
  -6  -3  -1 1026.04   10.90   0 
  -6  -1  -6  146.85    7.07   0 
  -3  -8   3    5.40   10.59   0 
  -1   2  -6  424.80   13.32   0 
   0  -5   3   54.66    9.72   0 
   3  -1   1 1550.52   15.58   0 
   4   0   0  254.15    7.46   0 
   4   1  -1  923.85   12.33   0 
   4   3 -11   65.11    9.66   0 
   5  -6   1    5.59    6.55   0 
   5  -3   1   21.09    6.02   0 
   5   2  -3    5.55    5.32   0 
   5   3  -6   54.91    6.75   0 
   6  -2   0   78.95    5.32   0 
   6   1  -2   83.41    6.44   0 
   6   3  -9   15.78    6.29   0 
   6   3  -8   54.88    6.75   0 
   7  -2  -1   34.96    5.53   0 
   7   1  -3    2.18    4.77   0 
   7   2  -5   29.64    5.15   0 
   8  -4  -2   -9.87    5.33   0 
   8  -3  -2    0.62    5.16   0 
   8  -2  -2   12.55    5.00   0 
   8   2  -8   67.79    5.85   0 
   8   2  -7   59.67    6.61   0 
   9  -1  -4   11.62    6.15   0 
   9   0  -5    2.15    5.25   0 
   9   1  -7   60.54    6.15   0 
 -10  -6  -4   69.84    5.99   0 
 -10  -5  -7    6.64    5.10   0 
  -9  -9   0  543.60    8.92   0 
  -9  -7  -1   18.12    4.85   0 
  -8 -10   1   23.15    6.64   0 
  -8  -3  -6    3.24    5.71   0 
  -7  -7   1  111.63    6.93   0 
  -7  -2  -6  477.61    8.72   0 
  -6 -11   2   21.43    7.69   0 
  -6  -8   2   13.33    5.73   0 
  -6  -2  -3   11.62    5.71   0 
  -6  -1 -10  129.70    6.86   0 
  -6  -1  -9   74.54    7.21   0 
  -6  -1  -7   31.90    6.28   0 
  -5  -6   2  242.46    8.22   0 
  -5  -3   0  711.66   10.14   0 
  -3   1 -10   27.04    6.66   0 
  -3   1  -6  352.32    9.23   0 
   1  -6   3    9.58    6.86   0 
   1   1  -1   83.47   12.59   0 
   2   3  -6 1613.63   29.85   0 
   3  -8   2   50.56    8.48   0 
   3  -3   2    2.72    4.91   0 
   3   3 -11   14.78   10.52   0 
   4   3  -5 1052.80   14.73   0 
   5  -7   1    8.38    6.93   0 
   5   3 -11  135.73    9.73   0 
   6   0  -1   43.64    5.09   0 
   6   3 -10  112.70    7.71   0 
   6   3  -7  235.42    7.24   0 
   7  -1  -1  158.86    5.96   0 
   8   1  -4   56.56    5.03   0 
   8   2  -6   10.78    6.42   0 
   9   1  -6   40.38    5.46   0 
 -11  -9  -3  179.43    6.58   0 
 -11  -8  -4  112.17    5.97   0 
 -10 -10  -1    5.85    4.99   0 
 -10  -8  -2   32.60    5.16   0 
 -10  -7  -3   -0.25    4.87   0 
 -10  -6  -5   89.69    6.86   0 
  -9 -10   0   34.84    6.77   0 
  -9  -5  -4    1.77    4.65   0 
  -9  -4  -8   17.51    5.30   0 
  -9  -4  -7   29.34    5.03   0 
  -8  -7   0   13.15    5.28   0 
  -8  -3  -7    4.71    5.87   0 
  -7  -3  -3  190.27    6.12   0 
  -7  -2 -10    9.45    6.74   0 
  -7  -2  -7   24.54    6.25   0 
  -6  -9   2  422.95   10.55   0 
  -6  -1  -8  290.22    7.72   0 
  -3   1  -9   70.95    6.73   0 
  -3   1  -7    2.73    5.86   0 
  -1   2  -9   29.91    9.46   0 
   1  -7   3   20.07    7.53   0 
   3   3  -5   23.37    7.38   0 
   4  -6   2   92.50    6.86   0 
   4  -5   2   57.89    6.76   0 
   4  -4   2  251.19    8.18   0 
   4  -1   1  102.46    7.46   0 
   5  -2   1   16.69    4.65   0 
   5   3  -5  120.28    6.87   0 
   6  -1   0   35.26    5.25   0 
   6   2  -3   80.86    6.37   0 
   6   3  -6   28.37    6.58   0 
   7   2  -4    1.40    4.56   0 
   7   3  -9    8.61    6.57   0 
   7   3  -8   41.49    6.70   0 
   9   0  -4   14.75    4.98   0 
  -9 -11   0  116.00    7.81   0 
  -8  -5  -2    0.99    4.57   0 
  -8  -3  -9    1.18    5.12   0 
  -8  -3  -8    8.91    5.06   0 
  -7  -2  -9    8.24    5.17   0 
  -7  -2  -8  114.93    5.93   0 
  -6 -10   2    2.34    5.95   0 
  -5  -1  -4  898.65   11.07   0 
  -4   0  -5   38.75    6.13   0 
  -3   1  -8    3.32    5.64   0 
  -1   2  -8   -0.75    7.39   0 
  -1   2  -7   26.53    7.53   0 
   1  -2   2  856.42   17.23   0 
   2  -2   2 1193.33   15.83   0 
   5   0   0 2476.34   16.18   0 
   5   1  -1 1415.33   12.63   0 
   6  -4   1  180.51    8.02   0 
   7  -5   0   32.61    5.32   0 
   7  -4   0   51.80    5.46   0 
   7  -3   0   32.98    4.95   0 
   7   3 -10   16.61    6.81   0 
   8  -4  -1   56.04    5.88   0 
   8  -3  -1   12.62    5.26   0 
   9  -1  -3   59.11    5.65   0 
   9   1  -5   50.95    5.16   0 
 -10  -9  -2    3.26    5.10   0 
 -10  -6  -6  158.96    6.28   0 
  -9  -7  -2   31.98    5.73   0 
  -9  -6  -3   62.95    5.35   0 
  -9  -5  -5  142.73    5.99   0 
  -8  -8   0   52.61    6.27   0 
  -8  -4  -4   39.55    5.08   0 
  -7  -8   1   43.97    6.39   0 
  -7  -4  -2    0.80    4.92   0 
  -7  -3  -4    2.35    4.68   0 
  -6  -6   1   23.38    5.14   0 
  -6  -2  -4  277.25    7.18   0 
  -4   0 -11   64.49    7.44   0 
  -2   1 -12    1.20    7.82   0 
  -2   1  -4  510.73   11.20   0 
   0  -9   3   44.91   10.62   0 
   1  -8   3    8.48    8.26   0 
   4  -7   2  170.51    8.25   0 
   4   2  -2  325.78    8.48   0 
   6  -5   1    8.44    5.25   0 
   7  -2   0  278.46    6.93   0 
   7   1  -2   84.27    5.49   0 
   7   3  -6   26.72    6.25   0 
   8   0  -2   50.97    5.17   0 
   8   1  -3  154.86    5.81   0 
   9  -2  -2   26.67    6.29   0 
   9   0  -3   81.92    6.62   0 
   9   2  -7   -0.10    5.28   0 
 -10  -8  -3   40.39    5.07   0 
  -7  -5  -1   65.66    5.36   0 
  -6  -3  -2   41.77    5.26   0 
  -5  -7   2    6.87    5.88   0 
  -5  -2  -2  567.90    8.93   0 
  -4   0  -6  171.58    7.83   0 
  -3  -1  -1   28.93    6.98   0 
  -3   0  -3  359.26    9.03   0 
   2  -6   3    8.13    5.59   0 
   2  -5   3   18.17    7.15   0 
   4   3  -4  406.11    9.92   0 
   5   3  -4 3473.03   21.51   0 
   6  -6   1    0.13    5.52   0 
   6  -2   1    5.80    5.61   0 
   6   1  -1   14.29    4.86   0 
   7   2  -3  203.82    6.13   0 
   8  -1  -1  391.51    7.19   0 
   8   3  -9    2.09    6.91   0 
   8   3  -7   10.89    6.01   0 
   9   1  -4  208.18    6.39   0 
   9   2  -6    9.74    5.02   0 
 -10 -10  -2    2.82    5.03   0 
 -10  -7  -5   18.58    5.31   0 
  -9  -6  -4  234.92    7.22   0 
  -9  -5  -6    8.71    4.73   0 
  -8  -4  -5  576.91    8.46   0 
  -7  -9   1    8.38    5.89   0 
  -7  -3  -5   57.50    6.24   0 
  -6  -5   0    4.08    5.62   0 
  -5 -11   2    2.82    8.56   0 
  -5  -5   1   51.51    6.39   0 
  -5  -1  -5  132.18    5.59   0 
   2  -7   3   28.43    6.68   0 
   6   0   0  788.65    9.58   0 
   6   2  -2  855.76   10.04   0 
   6   3  -4 1197.87   12.70   0 
   7  -1   0  340.16    7.32   0 
   7   3  -5   48.48    5.20   0 
   9   2  -5   21.99    4.89   0 
  10   1  -5   83.78    5.69   0 
 -10  -9  -3   85.61    5.84   0 
 -10  -8  -4   -0.02    4.89   0 
  -9  -8  -2    7.98    5.71   0 
  -9  -5  -8    5.89    4.82   0 
  -9  -5  -7    5.33    5.02   0 
  -8  -9   0   15.19    5.17   0 
  -8  -7  -1  447.24    7.69   0 
  -8  -4  -6    4.72    4.85   0 
  -7 -11   1  107.79    7.33   0 
  -7 -10   1    1.05    6.02   0 
  -6  -4  -1   26.83    5.03   0 
  -6  -2  -5  170.62    6.12   0 
  -5  -8   2  506.14   11.26   0 
  -5  -3  -1  537.87    9.37   0 
  -5  -1 -11   25.72    6.22   0 
  -4  -2  -1  157.74    6.75   0 
  -4   0  -9   17.08    6.30   0 
  -4   0  -8   23.63    6.08   0 
  -4   0  -7  168.90    6.67   0 
  -2   1 -11    4.16    7.71   0 
   1  -4   3  145.26    9.10   0 
   2  -4   3  457.95   11.12   0 
   4  -2   2  419.50    8.18   0 
   5  -6   2    2.70    5.55   0 
   5  -3   2    5.87    4.66   0 
   7  -4   1   23.97    6.41   0 
   7   1  -1  290.51    7.57   0 
   8  -4   0   27.74    5.68   0 
   8  -3   0    4.13    5.24   0 
   8   0  -1  116.56    5.61   0 
   8   1  -2  502.90    7.85   0 
   8   2  -3  193.21    7.11   0 
   9   0  -2    5.84    4.97   0 
   9   1  -3    1.90    4.65   0 
  -9 -11  -1   30.03    6.45   0 
  -9  -7  -3   58.21    4.94   0 
  -9  -6  -5   61.82    6.32   0 
  -8 -11   0  105.55    7.40   0 
  -8  -4  -7   12.15    4.77   0 
  -7  -7   0    2.63    4.46   0 
  -7  -4  -3  730.39    8.95   0 
  -6  -7   1  567.17    9.44   0 
  -6  -2 -11   26.41    6.82   0 
  -6  -2  -6  511.66    9.06   0 
  -5 -10   2   36.51    7.60   0 
  -5  -4   0    6.70    5.19   0 
  -5  -1  -6   85.34    5.39   0 
  -4  -6   2   45.74    7.45   0 
  -4  -4   1   12.89    5.38   0 
  -4  -1  -3   55.16    5.96   0 
  -3  -3   1   25.75    5.90   0 
  -3  -2   0 1074.38   14.65   0 
  -2   1  -5 1182.88   15.82   0 
   0   2 -11   59.58   10.47   0 
   1  -9   3    0.30    8.90   0 
   2  -8   3   14.04    7.45   0 
   2   2  -2  260.40   11.26   0 
   3  -6   3    8.78    5.76   0 
   3   0   1  751.38   11.73   0 
   3   3  -4 1685.99   20.23   0 
   4   1   0  290.00    7.72   0 
   6  -1   1  217.36    6.14   0 
   7  -5   1    2.42    5.27   0 
   7   0   0   74.85    4.93   0 
   7   2  -2   77.94    5.33   0 
   8  -2   0    7.15    5.14   0 
   8   3  -5   84.88    5.48   0 
   9  -2  -1   -0.26    4.96   0 
   9   2  -4   62.22    5.11   0 
   9   3  -8   17.27    5.68   0 
   9   3  -7   85.65    5.99   0 
  10   0  -3   19.51    5.29   0 
  10   1  -4  150.93    5.99   0 
  10   2  -6   45.29    5.43   0 
 -10 -10  -3   58.66    5.65   0 
 -10  -8  -5   24.75    5.01   0 
  -8  -8  -1    3.80    5.61   0 
  -8  -5  -4   75.00    5.08   0 
  -8  -4  -8   14.56    4.81   0 
  -7  -6  -1  849.65   10.24   0 
  -7  -5  -2  162.70    6.04   0 
  -7  -3 -10   19.21    5.13   0 
  -7  -3  -9   20.66    5.97   0 
  -7  -3  -8   89.60    6.59   0 
  -6  -3  -3   17.20    4.73   0 
  -6  -2 -10    5.33    5.68   0 
  -6  -2  -7  328.58    8.22   0 
  -5  -9   2    0.20    5.72   0 
  -5  -1  -9  567.01   10.11   0 
  -5  -1  -8   89.09    6.83   0 
  -5  -1  -7  454.71    8.35   0 
  -2  -7   3  327.85   17.41   0 
  -2   0  -2 3070.69   25.59   0 
   3  -7   3    0.50    6.88   0 
   3  -4   3  214.83    7.98   0 
   3   1   0  150.99    8.28   0 
   5   1   0   27.13    5.14   0 
   5   3  -3  138.18    7.23   0 
   7  -2   1  221.76    6.20   0 
   9  -1  -1  107.86    5.84   0 
   9   1  -2  444.59    8.55   0 
   9   3  -6    4.17    4.78   0 
  10   2  -5    2.07    4.64   0 
 -10  -9  -4   11.97    4.83   0 
  -9  -7  -4   98.65    5.47   0 
  -9  -6  -6    2.89    5.20   0 
  -7  -4  -4   51.29    5.07   0 
  -6  -8   1   14.19    6.11   0 
  -6  -2  -9    4.04    5.03   0 
  -6  -2  -8   53.78    5.46   0 
  -3   0 -12   -0.82    6.38   0 
  -2   1 -10  135.09    8.69   0 
  -1   1  -3  717.60   16.16   0 
   2   3  -5  180.09   13.96   0 
   4  -5   3    1.85    6.96   0 
   4   3  -3 1483.50   15.84   0 
   6  -5   2   57.45    6.02   0 
   6  -3   2   14.23    5.04   0 
   6   1   0  257.12    6.59   0 
   6   3  -3    3.56    4.72   0 
   6   4  -8   95.90    7.23   0 
   6   4  -7  208.32    7.84   0 
   7  -1   1   10.86    6.13   0 
   8   1  -1   59.37    5.17   0 
   8   2  -2    4.56    4.72   0 
   8   3  -4  116.31    5.50   0 
   9   0  -1   83.86    5.53   0 
   9   2  -3   34.69    4.87   0 
   9   3  -5    0.39    4.85   0 
  10   0  -2   15.43    6.35   0 
  10   1  -3    0.19    5.21   0 
 -10  -8  -6  162.64    6.34   0 
  -9 -10  -2   -0.56    5.97   0 
  -9  -8  -3   25.66    4.89   0 
  -9  -6  -7   15.06    4.99   0 
  -8  -5  -5   12.15    4.94   0 
  -6  -6   0  417.43    8.45   0 
  -5  -6   1  769.12   11.50   0 
  -2  -8   3  370.48   19.70   0 
  -2   1  -6   93.80    8.01   0 
   0  -4   3  644.82   20.80   0 
   2   0   1 9999.99   44.78   0 
   3  -8   3    2.05    7.53   0 
   4  -6   3    1.71    5.86   0 
   4  -4   3   54.79    6.45   0 
   4  -1   2 1600.73   14.25   0 
   5   4  -8   12.70    6.62   0 
   5   4  -7    9.45    6.55   0 
   6  -2   2  211.05    7.55   0 
   6   2  -1  534.86    8.38   0 
   6   4  -9  347.71    9.69   0 
   6   4  -6  861.57   12.09   0 
   7   3  -3  590.79    8.54   0 
   7   4  -9    7.18    6.02   0 
   7   4  -7    2.99    6.10   0 
   8  -3   1   34.81    6.97   0 
   8   0   0  447.08    7.56   0 
   9  -2   0   74.73    5.64   0 
  10   2  -4    4.41    4.87   0 
  10   3  -6   24.98    6.44   0 
 -10 -10  -4    4.67    5.52   0 
 -10  -9  -5   12.10    4.97   0 
 -10  -8  -7    5.99    5.29   0 
  -9 -11  -2   25.88    6.50   0 
  -9  -7  -5   46.26    5.31   0 
  -9  -6  -9   -4.95    4.82   0 
  -9  -6  -8    5.25    4.79   0 
  -8  -9  -1   46.44    5.31   0 
  -7  -4  -5    2.35    5.49   0 
  -6 -11   1   69.16    7.88   0 
  -6  -9   1    4.22    6.13   0 
  -6  -5  -1  379.82    7.46   0 
  -6  -3  -4    7.40    4.40   0 
  -5  -2  -4   -2.13    5.76   0 
  -4 -11   2    4.80    8.75   0 
  -4  -1  -4  986.30   11.54   0 
  -3  -5   2 2570.63   24.36   0 
  -2   1  -9  222.67    9.27   0 
   2  -3   3  589.07   11.77   0 
   3  -3   3    8.10    6.09   0 
   4  -7   3   74.60    8.48   0 
   5  -1   2   65.56    5.21   0 
   5   4  -9  287.01   10.87   0 
   6   4 -10   32.26    7.87   0 
   7   1   0   43.57    5.14   0 
   7   2  -1  445.88    7.67   0 
   7   4  -6  474.02    8.83   0 
   8  -2   1   25.95    5.09   0 
   8   3  -3  297.10    6.78   0 
   8   4  -9   -2.34    6.50   0 
   8   4  -8   66.90    6.04   0 
   8   4  -7  123.89    7.10   0 
   9   3  -4  147.81    6.17   0 
 -10  -9  -6   -0.54    5.33   0 
  -9  -8  -4   17.06    4.88   0 
  -8 -10  -1   16.16    6.15   0 
  -8  -6  -4    9.60    4.72   0 
  -7  -7  -1   44.31    4.87   0 
  -7  -5  -3   11.30    4.73   0 
  -5  -3  -2   49.34    5.02   0 
  -4  -7   2   66.11    6.53   0 
  -3  -1  -2  299.41    8.67   0 
  -3   0  -5 2948.10   20.47   0 
  -2   1  -8   80.54    6.69   0 
  -2   1  -7  149.71    7.40   0 
  -1   0  -1 6739.52   50.84   0 
   2  -1   2  264.61    9.77   0 
   2   1   0  344.32   11.86   0 
   3   2  -1 3060.38   23.60   0 
   4  -3   3    0.52    6.13   0 
   5  -5   3   -0.34    6.07   0 
   5   4  -6   40.24    6.51   0 
   6   3  -2  939.07   11.04   0 
   6   4  -5   21.66    6.56   0 
   7  -4   2    2.75    5.09   0 
   7  -3   2   63.45    5.39   0 
   7   4  -5  737.92   11.06   0 
   8  -1   1    2.05    4.43   0 
   8   4  -6    6.91    5.18   0 
   9   1  -1  163.13    6.16   0 
   9   2  -2   40.77    4.97   0 
   9   4  -8   36.78    6.84   0 
  10   0  -1   62.00    6.63   0 
  10   2  -3   30.16    5.35   0 
  10   3  -5   91.54    6.00   0 
 -10 -10  -5    4.58    5.02   0 
  -9  -7  -6  124.09    5.85   0 
  -8 -11  -1    3.96    5.33   0 
  -8  -8  -2    8.00    4.53   0 
  -8  -7  -3    6.16    4.80   0 
  -8  -5 -10   -3.88    5.08   0 
  -8  -5  -8   82.04    5.87   0 
  -7 -11   0    7.82    6.52   0 
  -7 -10   0   12.55    4.92   0 
  -7  -6  -2   27.94    4.73   0 
  -7  -4  -6   14.28    4.88   0 
  -6  -3  -5   14.80    4.62   0 
  -5  -5   0  176.47    7.54   0 
   0  -2   2    2.54   11.68   0 
   0   2 -10   64.49    9.62   0 
   0   2  -5 3046.86   37.09   0 
   5  -6   3   -1.15    6.23   0 
   5  -4   3  570.50    9.48   0 
   5   4 -10   47.64    9.26   0 
   6  -1   2  759.29    9.35   0 
   7  -2   2   30.47    5.01   0 
   8   1   0   28.75    5.04   0 
   8   2  -1   11.14    4.72   0 
   9   0   0   18.15    4.92   0 
   9   3  -3  144.13    5.92   0 
  10   3  -4   18.86    5.03   0 
  -9 -10  -3    6.35    4.96   0 
  -9  -8  -5  103.46    5.51   0 
  -9  -7  -8    2.29    6.04   0 
  -9  -7  -7   49.58    5.40   0 
  -8  -6  -5  868.90    9.32   0 
  -7  -4 -10   26.06    5.18   0 
  -7  -4  -8   92.15    6.28   0 
  -6  -7   0  160.42    6.34   0 
  -6  -3 -11   14.81    6.62   0 
  -6  -3  -6  840.73   10.19   0 
  -5  -7   1    2.69    6.01   0 
  -5  -4  -1  155.43    6.35   0 
  -5  -2 -11    8.57    6.53   0 
  -5  -2  -5    5.26    4.48   0 
  -4 -10   2    3.97    8.11   0 
  -4  -8   2  192.87    9.01   0 
  -4  -5   1   35.42    6.56   0 
  -4  -1 -11   44.36    6.95   0 
  -4  -1  -5  153.01    6.09   0 
  -3   0 -10  126.09    7.31   0 
  -3   0  -6  140.10    7.21   0 
  -1   1 -12   37.49    8.17   0 
   1  -3   3 1684.35   22.79   0 
   3   3  -3  412.16   11.30   0 
   4   4  -8    0.67    8.57   0 
   4   4  -7   19.45    7.49   0 
   5  -3   3  244.58    7.09   0 
   5   1   1 5893.79   24.06   0 
   5   4  -5   25.37    5.82   0 
   6   1   1  101.47    6.43   0 
   7   4  -4   36.10    6.34   0 
   8   0   1    3.74    5.02   0 
   8   3  -2   -0.23    4.55   0 
   9  -2   1    0.37    4.96   0 
   9   4  -5    6.40    5.67   0 
  10   1  -1  189.61    6.30   0 
  10   2  -2  290.07    6.69   0 
  11   2  -3    9.08    6.21   0 
  -9 -11  -3    8.53    5.01   0 
  -9  -9  -4    3.52    4.55   0 
  -7  -8  -1   48.85    4.95   0 
  -7  -5  -4   16.63    4.89   0 
  -6  -3 -10   -2.04    6.13   0 
  -6  -3  -7    9.37    5.66   0 
  -5  -2  -6   74.00    5.88   0 
  -4  -9   2   57.59    7.60   0 
  -4  -1 -10  113.82    6.87   0 
  -3   0  -9   26.57    5.97   0 
  -3   0  -7   39.68    6.05   0 
   3  -2   3   31.79    6.29   0 
   4   1   1    5.61    5.30   0 
   4   3  -2  129.10    7.79   0 
   5   0   2  161.21    7.21   0 
   5   2   0  201.69    6.55   0 
   6  -5   3   11.55    6.59   0 
   6  -4   3   25.98    6.34   0 
   6   2   0  167.91    6.05   0 
   6   4  -4    7.96    4.82   0 
   7  -1   2  698.54    8.95   0 
   7   1   1  193.78    7.01   0 
   8  -3   2    0.74    5.08   0 
   8   4  -4   78.34    5.56   0 
   9  -1   1    6.91    4.87   0 
   9   1   0    6.18    4.73   0 
   9   2  -1   12.08    4.54   0 
  10   3  -3   34.70    4.90   0 
  10   4  -6  159.47    6.46   0 
  -9 -10  -4   11.69    5.96   0 
  -9  -8  -6  120.16    5.81   0 
  -8  -8  -3  241.40    6.36   0 
  -8  -7  -4   10.36    4.79   0 
  -8  -6  -6   24.63    4.96   0 
  -7  -6  -3    9.71    5.62   0 
  -6  -6  -1  375.33    7.25   0 
  -6  -3  -9  214.29    6.73   0 
  -6  -3  -8  243.44    6.56   0 
  -5  -3  -3   39.14    5.17   0 
  -5  -2  -9  131.46    6.98   0 
  -5  -2  -7   27.09    5.82   0 
  -4  -3  -1  179.58    7.26   0 
  -4  -1  -9  563.32   10.13   0 
  -4  -1  -6   47.25    5.54   0 
  -3   0  -8    3.38    4.64   0 
  -2   0  -3 3182.73   24.56   0 
   4   4  -9    1.65    9.41   0 
   4   4  -6    4.39    6.46   0 
   5  -2   3  152.91    6.32   0 
   6  -3   3   14.70    5.09   0 
   8  -2   2   10.43    4.90   0 
   9   3  -2  162.90    6.08   0 
   9   4  -4  216.85    6.87   0 
  10   4  -5  124.14    6.12   0 
  11   3  -4   43.41    5.84   0 
  -9  -9  -5   18.23    5.01   0 
  -9  -8  -7  141.03    5.99   0 
  -8 -11  -2   22.97    6.07   0 
  -8  -6 -10   99.77    5.88   0 
  -8  -6  -9   11.69    5.20   0 
  -8  -6  -7  157.93    5.97   0 
  -7  -9  -1   52.00    6.20   0 
  -7  -7  -2  218.14    6.11   0 
  -7  -5  -5  262.07    6.45   0 
  -6  -8   0  136.79    6.12   0 
  -6  -4  -4    7.26    4.98   0 
  -5  -8   1  489.16   10.05   0 
  -5  -2  -8    3.46    4.72   0 
  -4  -4   0 1156.60   13.18   0 
  -4  -1  -8  198.19    6.49   0 
  -4  -1  -7   94.14    5.94   0 
  -3  -2  -1 3387.85   23.21   0 
  -2  -1  -1  267.50   12.33   0 
   0   2  -9   54.67    9.35   0 
   1   2 -12   16.94   10.76   0 
   4   2   0   95.40    6.45   0 
   5   4  -4  239.40    8.03   0 
   6  -2   3    3.56    4.46   0 
   6   3  -1  114.42    5.82   0 
   7   0   2  142.14    5.91   0 
   7   3  -1  661.76    8.47   0 
   7   4  -3  143.19    5.89   0 
   8  -1   2    1.37    4.51   0 
   8   4  -3   12.67    4.44   0 
   9   0   1   63.77    5.04   0 
  10   1   0   80.74    6.91   0 
  10   2  -1   27.76    4.98   0 
  10   3  -2    3.28    5.65   0 
  10   4  -4  123.53    6.80   0 
  11   2  -2   23.67    5.36   0 
  11   3  -3  104.28    6.41   0 
  -9 -11  -4    2.07    4.98   0 
  -9  -8  -8    1.14    4.94   0 
  -8  -9  -3   17.18    5.62   0 
  -8  -7  -5   23.68    4.74   0 
  -7 -12  -1    8.25    6.25   0 
  -7  -5  -6   96.00    5.34   0 
  -6 -12   0   17.39    6.33   0 
  -5 -11   1    6.31    6.00   0 
  -4  -2  -3 2709.62   17.72   0 
  -3 -11   2   19.72   10.43   0 
  -3  -6   2   29.11    7.09   0 
  -3  -4   1  786.98   13.33   0 
  -3  -1  -3  264.70    8.05   0 
  -2   0 -12  119.05    8.63   0 
  -1   1 -11    2.59    6.89   0 
  -1   1  -4   16.85    7.31   0 
   0   2  -6    3.54    9.10   0 
   2  -2   3  271.94    9.11   0 
   3   0   2 5279.04   27.46   0 
   3   1   1   34.07    6.89   0 
   4   4  -5   53.84    7.08   0 
   5   3  -1  218.90    6.95   0 
   6   4  -3 1297.28   12.74   0 
   7  -4   3   34.04    5.38   0 
   9  -2   2   78.48    6.96   0 
   9   2   0   60.83    4.87   0 
   9   3  -1    4.16    5.71   0 
   9   4  -3    2.13    4.22   0 
  -9 -10  -5   86.46    5.34   0 
  -8  -8  -4   23.84    4.76   0 
  -8  -7  -6    3.39    4.51   0 
  -7 -11  -1   37.47    6.76   0 
  -7  -8  -2   67.49    5.93   0 
  -7  -6  -4   15.47    4.89   0 
  -7  -5 -10    8.20    5.90   0 
  -7  -5  -7  143.36    5.96   0 
  -6 -11   0    1.41    6.29   0 
  -6 -10   0  266.42    7.78   0 
  -6  -9   0  128.38    5.85   0 
  -6  -4  -5    7.43    4.52   0 
  -5 -10   1    3.36    5.75   0 
  -5  -9   1   44.59    5.80   0 
  -5  -6   0   34.31    4.89   0 
  -5  -3  -4 2326.44   15.59   0 
   2  -6   4    1.35    7.39   0 
   3  -6   4  171.21    8.86   0 
   3  -5   4  140.80    7.44   0 
   4  -1   3  316.29    8.21   0 
   5  -1   3   66.14    5.09   0 
   6  -1   3   51.51    6.03   0 
   7  -2   3  594.25    9.06   0 
   8   5  -8   76.14    6.94   0 
   8   5  -7   55.95    6.53   0 
   9  -1   2   38.16    6.45   0 
   9   1   1   -2.18    4.44   0 
   9   5  -7    7.34    6.66   0 
  10   0   1   53.12    5.31   0 
  10   4  -3  199.89    6.30   0 
  11   2  -1   25.02    5.15   0 
  11   3  -2   12.16    5.72   0 
  11   4  -4   32.01    6.34   0 
  -9 -11  -5   10.42    5.06   0 
  -8 -10  -3   22.00    4.75   0 
  -8  -7  -7   28.64    4.99   0 
  -7  -7  -3  302.78    6.62   0 
  -7  -5  -9    8.26    4.90   0 
  -7  -5  -8    2.46    4.62   0 
  -6  -7  -1  108.82    5.34   0 
  -6  -4 -11   23.28    6.12   0 
  -5  -3 -12    2.72    6.30   0 
  -4  -6   1  172.07    7.42   0 
  -3  -1 -12   84.18    6.87   0 
   0   2  -8    8.06    7.25   0 
   0   2  -7    0.06    7.56   0 
   2  -7   4    7.90    7.90   0 
   2  -5   4   13.28    6.64   0 
   2   3  -4  290.69   15.20   0 
   3  -7   4   27.77    7.73   0 
   3  -4   4   59.86    7.16   0 
   4  -6   4  118.08    7.17   0 
   4  -5   4   11.23    5.91   0 
   4  -4   4   29.36    5.91   0 
   5   4  -3 1192.54   13.46   0 
   6   1   2  974.48   10.53   0 
   6   2   1   88.33    5.26   0 
   7  -1   3  242.15    7.21   0 
   7   2   1  160.14    5.88   0 
   7   5  -8    1.15    5.66   0 
   7   5  -7   60.78    6.52   0 
   7   5  -6   35.28    6.04   0 
   8  -3   3   17.56    6.32   0 
   8   2   1  333.40    7.67   0 
   8   4  -2   -1.15    4.54   0 
   8   5  -6    5.04    4.86   0 
   9   4  -2  222.67    6.70   0 
   9   5  -6   10.79    5.39   0 
  10   2   0  144.89    5.91   0 
  10   3  -1  132.20    5.51   0 
  -9 -10  -7   -0.76    6.18   0 
  -8 -11  -3   35.85    4.85   0 
  -8  -9  -4    8.38    4.37   0 
  -8  -8  -5    1.07    4.35   0 
  -8  -7  -8   91.30    5.37   0 
  -7  -6  -5   57.21    5.01   0 
  -6  -4 -10   36.64    6.11   0 
  -4  -2 -12   12.92    5.17   0 
  -4  -2  -4  119.48    5.96   0 
   1  -1   2 3994.26   35.59   0 
   4   4 -10  274.23   19.26   0 
   5  -5   4   30.56    6.51   0 
   5  -4   4   57.07    6.24   0 
   5   1   2  936.92   10.63   0 
   6   3   0  986.55   10.97   0 
   6   4  -2 1357.94   12.76   0 
   7   1   2  224.90    6.12   0 
   7   3   0   94.92    5.48   0 
   7   5  -9  110.82    8.90   0 
   8  -2   3   22.32    4.99   0 
   8   3   0   -0.53    4.71   0 
   8   5  -5  247.19    7.06   0 
   9   0   2    4.89    4.87   0 
   9   5  -5    3.78    4.82   0 
  10   1   1  234.39    6.99   0 
  10   4  -2   74.92    6.14   0 
  10   5  -6   20.05    5.33   0 
  10   5  -5    6.65    6.02   0 
  11   4  -3  294.45    7.40   0 
  -8  -8  -6  123.95    5.40   0 
  -6  -4  -9    2.07    4.85   0 
  -5  -7   0   -0.10    6.12   0 
  -5  -3 -11  103.00    6.07   0 
  -5  -3  -5    3.18    4.51   0 
  -4  -3  -2    9.96    4.96   0 
  -3  -1  -4  589.30   10.76   0 
  -2   0 -11   82.76    6.75   0 
  -2   0  -4  871.55   13.22   0 
  -1   1 -10    1.63    6.55   0 
   1  -7   4   39.22   10.44   0 
   1  -6   4  270.19   13.01   0 
   3  -1   3   12.17    5.30   0 
   3   3  -2   23.61    6.82   0 
   4  -3   4    8.97    6.00   0 
   4   4  -4  564.09   11.50   0 
   5  -6   4   49.00    6.81   0 
   5  -3   4   38.45    6.18   0 
   6  -4   4   89.13    6.84   0 
   6   0   3    6.37    5.46   0 
   8  -1   3    5.65    4.75   0 
   8   1   2  342.68    7.23   0 
   8   5  -4    5.20    5.54   0 
   9   2   1    0.68    4.49   0 
   9   3   0   35.00    4.61   0 
   9   5  -4    2.35    4.74   0 
  11   2   0   11.57    5.24   0 
  11   3  -1    3.87    4.65   0 
  -8 -10  -4  118.97    5.68   0 
  -8  -9  -5   10.64    4.64   0 
  -8  -8  -7   23.09    5.19   0 
  -7 -12  -2   10.40    6.42   0 
  -7 -10  -2   10.12    5.22   0 
  -7  -7  -4  117.75    5.79   0 
  -6  -5  -4  186.80    6.07   0 
  -5  -4  -3   67.36    5.14   0 
  -5  -3 -10    3.32    4.81   0 
  -5  -3  -6  183.25    5.85   0 
  -4  -2 -11    2.62    5.38   0 
  -3 -10   2  169.72   10.29   0 
  -3  -1 -11   82.53    6.99   0 
   2  -8   4   58.00   10.40   0 
   2  -4   4  538.85   11.97   0 
   3  -3   4  610.40   10.79   0 
   5   0   3 1288.48   11.81   0 
   6  -5   4   49.78    6.79   0 
   6   5  -8    9.59    6.96   0 
   6   5  -7    7.18    5.89   0 
   7   0   3   16.45    4.68   0 
   7   4  -1   25.25    5.49   0 
   7   5  -4   21.10    5.98   0 
   8   4  -1    0.98    4.51   0 
  10   0   2   23.07    5.07   0 
  10   2   1    2.58    4.70   0 
  10   3   0   27.52    4.95   0 
  10   5  -4   -2.59    4.72   0 
  11   4  -2   19.52    5.08   0 
  -8 -11  -4   45.00    5.64   0 
  -8  -8  -9   41.07    5.46   0 
  -8  -8  -8   -0.42    4.85   0 
  -7 -11  -2  116.24    6.24   0 
  -7  -6 -10    2.63    5.09   0 
  -7  -6  -9  152.45    5.76   0 
  -7  -6  -8    5.94    4.72   0 
  -7  -6  -7  316.92    6.55   0 
  -6  -7  -2  317.57    7.37   0 
  -6  -6  -3  222.00    7.06   0 
  -5  -3  -9   35.48    5.06   0 
  -5  -3  -8   12.55    5.40   0 
  -5  -3  -7   54.92    4.88   0 
  -4  -7   1   54.93    6.19   0 
  -4  -5   0   98.47    6.16   0 
  -4  -4  -1    4.98    6.67   0 
  -4  -2 -10   43.70    6.50   0 
  -2   0 -10   23.90    5.85   0 
  -1   1  -9  108.57    7.50   0 
  -1   1  -5    8.37    6.02   0 
   5  -2   4  247.16    7.01   0 
   5   4  -2  376.18    8.61   0 
   6  -2   4   51.79    6.32   0 
   6   5  -5    9.20    5.97   0 
   7  -3   4   64.92    7.08   0 
   8   0   3    9.18    4.87   0 
   8   5  -3   62.45    5.36   0 
   9  -1   3   -2.17    4.92   0 
   9   5  -3   55.10    5.43   0 
  10   4  -1  145.88    5.89   0 
  10   5  -3   20.44    5.79   0 
  11   5  -4   17.67    5.49   0 
  -8 -10  -5  195.83    6.10   0 
  -8  -9  -6    6.50    5.01   0 
  -7  -9  -3   27.62    4.50   0 
  -7  -7  -5    2.25    4.59   0 
  -6 -12  -1  134.32    7.35   0 
  -6 -10  -1  299.99    7.97   0 
  -6  -9  -1  450.88    8.08   0 
  -6  -5 -11   21.20    6.21   0 
  -6  -5  -5  156.88    5.71   0 
  -5 -12   0   20.48    6.43   0 
  -5  -8   0   78.43    6.82   0 
  -5  -5  -2 1547.54   12.79   0 
  -4 -11   1   23.03    7.25   0 
  -4  -2  -9  426.78    8.63   0 
  -4  -2  -6    5.49    5.43   0 
  -3  -9   2   12.66    7.62   0 
  -3  -8   2  972.10   15.54   0 
  -3  -1 -10    6.70    5.94   0 
  -3  -1  -5   34.00    6.40   0 
   1  -5   4  196.56   11.18   0 
   4  -2   4   77.33    5.40   0 
   4   0   3  951.20   11.23   0 
   4   2   1  154.60    6.59   0 
   6   4  -1 1349.10   12.03   0 
   6   5  -9   84.30    9.17   0 
   7  -2   4   82.00    6.74   0 
   7   2   2    0.97    4.54   0 
   7   3   1  346.12    6.87   0 
   7   5  -3    2.68    5.69   0 
   8   2   2   15.75    4.84   0 
   8   3   1    2.11    4.59   0 
   9   0   3   78.37    6.50   0 
  10   1   2    8.31    4.79   0 
  11   2   1    9.87    5.20   0 
  11   3   0   69.42    5.34   0 
  11   4  -1  138.66    5.98   0 
  11   5  -3   26.43    5.08   0 
  -8  -9  -8   14.80    5.86   0 
  -8  -9  -7  146.89    6.10   0 
  -7  -7  -6  233.48    6.82   0 
  -6 -11  -1   16.14    5.54   0 
  -6  -5 -10    0.94    5.65   0 
  -6  -5  -6   27.97    4.57   0 
  -5 -11   0   92.61    6.88   0 
  -5  -4 -12   83.86    6.99   0 
  -5  -4  -4  614.02    8.56   0 
  -3  -1  -9  207.54    7.30   0 
  -2   0  -9   44.25    5.89   0 
  -2   0  -5    0.35    4.64   0 
  -1   1  -8   42.41    6.85   0 
  -1   1  -6  368.50   10.54   0 
   1  -8   4  107.21   15.65   0 
   4   4  -3  223.25    8.14   0 
   6  -1   4   33.64    6.33   0 
   6   2   2    6.66    4.66   0 
   6   5  -4  166.51    7.34   0 
   7   1   3    1.37    4.50   0 
   8   4   0  109.62    5.17   0 
   8   5  -2 1369.70   12.33   0 
   9   2   2  115.30    5.20   0 
   9   4   0  171.74    5.88   0 
   9   5  -2   15.08    4.50   0 
  10   3   1   36.19    5.07   0 
  10   5  -2   56.33    4.85   0 
  -8  -9  -9    1.66    5.05   0 
  -7 -12  -3  206.22    7.52   0 
  -7 -11  -3   97.08    6.52   0 
  -7 -10  -3   30.55    4.98   0 
  -7  -7 -10   43.00    5.81   0 
  -7  -7  -7   70.57    5.27   0 
  -6  -8  -2  574.98    8.75   0 
  -6  -6  -4  545.17    7.89   0 
  -6  -5  -9  332.86    6.90   0 
  -6  -5  -8   14.83    5.72   0 
  -6  -5  -7  170.61    5.80   0 
  -5  -9   0    4.18    5.50   0 
  -4 -10   1  533.25   11.39   0 
  -4  -9   1   37.66    6.55   0 
  -4  -8   1 1512.53   15.58   0 
  -4  -3  -3 1385.66   12.33   0 
  -3  -5   1 1349.28   15.97   0 
  -3  -1  -8   43.37    6.17   0 
  -3  -1  -7  227.96    7.33   0 
  -3  -1  -6  244.96    6.72   0 
  -2   0  -8    3.73    5.61   0 
  -2   0  -6  489.98    9.93   0 
  -1   1  -7   16.59    5.89   0 
   0   1 -12   62.36    8.15   0 
   0   1  -2  216.62   17.47   0 
   1   2 -11   33.60    8.25   0 
   2   1   1  258.31   11.92   0 
   5  -1   4   93.54    5.66   0 
   6   1   3   26.44    4.49   0 
   6   3   1 1040.91   10.39   0 
   7  -1   4    0.45    5.01   0 
   8  -2   4    5.92    4.77   0 
   9   1   3   33.85    6.05   0 
   9   6  -7    8.20    6.32   0 
  10   2   2  172.55    6.20   0 
  10   4   0  184.17    5.88   0 
  10   6  -6   48.44    6.69   0 
  11   5  -2   36.64    5.07   0 
  -8 -11  -6  158.40    6.28   0 
  -8 -10  -7   28.99    4.94   0 
  -7  -9  -4   44.89    4.45   0 
  -7  -7  -9   38.96    4.93   0 
  -7  -7  -8    1.12    4.46   0 
  -6  -7  -3  318.12    6.46   0 
  -5  -4 -11    2.54    4.70   0 
  -5  -4  -5  148.01    6.57   0 
  -4  -3 -12   42.99    5.21   0 
  -2  -5   2  156.29    9.32   0 
  -2  -1  -2   51.01    7.48   0 
  -2   0  -7   70.15    6.29   0 
  -1  -9   3    2.64   10.11   0 
   1  -2   3  384.59   12.26   0 
   2  -3   4 2179.86   20.89   0 
   2  -1   3  745.94   13.01   0 
   3  -2   4  221.42    7.99   0 
   5   1   3  152.75    7.03   0 
   5   2   2  556.94    8.50   0 
   6   5  -3  588.80    9.88   0 
   7   5  -2  140.72    5.87   0 
   8  -1   4   66.89    5.08   0 
   9   5  -1  333.34    7.47   0 
   9   6  -5   73.47    6.54   0 
  10   5  -1   16.32    5.21   0 
  10   6  -5    7.03    5.07   0 
  11   2   2   15.13    6.11   0 
  11   3   1   -1.51    4.72   0 
  11   4   0   34.95    4.62   0 
  -7 -10  -4  149.51    6.36   0 
  -7  -8  -6    3.57    4.43   0 
  -6  -9  -2   35.65    5.78   0 
  -6  -6  -5   35.10    4.82   0 
  -5  -7  -1    9.85    4.25   0 
  -5  -5  -3  332.75    7.08   0 
  -5  -4 -10    7.41    4.37   0 
  -4  -6   0  675.35   10.53   0 
  -3  -3  -1  238.17    7.94   0 
  -3  -2 -12   -0.14    6.12   0 
  -1   0 -12   96.27    7.10   0 
   3   1   2  297.19    8.33   0 
   4  -1   4   57.42    5.78   0 
   4   3   0  162.58    6.72   0 
   5   4  -1  121.68    6.07   0 
   5   5  -7  317.63   11.73   0 
   5   5  -6    8.36    6.48   0 
   6   0   4   26.12    5.24   0 
   6   4   0  630.97    9.40   0 
   6   5 -10    5.95    9.23   0 
   7   0   4   21.20    4.69   0 
   8   0   4  155.06    6.66   0 
   8   3   2   76.31    4.97   0 
   8   6  -7  304.66    8.69   0 
   8   6  -6   51.47    6.02   0 
   9  -1   4   23.10    5.01   0 
   9   3   2    8.64    4.34   0 
   9   4   1   22.86    5.45   0 
   9   6  -4   83.25    6.39   0 
  10   1   3   14.43    4.82   0 
  10   6  -4  172.37    6.26   0 
  11   5  -1  204.59    6.06   0 
  -7 -12  -4   75.32    5.52   0 
  -7 -11  -4   40.98    5.09   0 
  -7  -9  -5  419.48    6.95   0 
  -7  -8 -10   64.22    5.20   0 
  -7  -8  -7   26.48    4.66   0 
  -6 -12  -2   75.86    6.02   0 
  -6 -11  -2   73.26    6.30   0 
  -6 -10  -2   26.01    6.13   0 
  -5  -4  -9   37.26    4.64   0 
  -5  -4  -8   53.38    5.43   0 
  -5  -4  -6  877.07    9.45   0 
  -4  -4  -2   28.58    5.23   0 
  -4  -3 -11   81.07    5.40   0 
  -4  -3  -4  169.46    6.26   0 
  -3  -4   0  281.10    9.15   0 
  -3  -2  -3  528.58    9.38   0 
  -2  -1 -12   27.27    6.24   0 
  -1   0  -2  256.35   11.06   0 
   2   3  -9  460.17   19.20   0 
   3   0   3  391.52    8.79   0 
   5  -5   5    5.55    6.67   0 
   5  -4   5   36.68    6.17   0 
   5   3   1  514.73    8.36   0 
   5   5  -5 1489.29   16.96   0 
   6  -4   5   -2.18    6.09   0 
   7   2   3   18.58    4.48   0 
   7   3   2  561.14    8.04   0 
   8   2   3  169.08    5.72   0 
   8   6  -8    1.22    7.06   0 
   8   6  -5    3.24    4.82   0 
   9   0   4   24.61    6.23   0 
  10   3   2   27.01    4.64   0 
  10   4   1   84.34    5.30   0 
  10   6  -3  143.67    5.71   0 
  11   6  -3    3.64    4.91   0 
  -7 -10  -5   96.62    6.27   0 
  -7  -9  -6   26.67    5.49   0 
  -7  -8  -9   17.91    4.70   0 
  -7  -8  -8   37.63    4.89   0 
  -6  -6 -10    6.95    4.65   0 
  -6  -6  -9   61.15    4.80   0 
  -6  -6  -7   -0.66    4.59   0 
  -6  -6  -6   11.05    4.57   0 
  -5 -12  -1    3.63    6.12   0 
  -5  -8  -1    4.64    5.87   0 
  -5  -5 -12   34.11    5.15   0 
  -4  -3 -10  123.22    6.59   0 
  -3  -2 -11  256.42    8.05   0 
  -1  -2   1 2707.03   38.19   0 
   0   1 -11  129.59    8.37   0 
   1  -4   4  176.01   10.98   0 
   3   3  -1   28.04    5.61   0 
   3   4  -6   54.07   11.00   0 
   4  -5   5   29.40    6.23   0 
   4  -4   5    6.14    5.30   0 
   4   4  -2 2419.40   19.33   0 
   5  -3   5   17.28    5.76   0 
   5   0   4    7.24    4.24   0 
   5   5  -8    3.12    8.70   0 
   6  -3   5   -0.03    4.46   0 
   6   5  -2   43.61    5.83   0 
   7  -3   5   23.15    6.14   0 
   7   4   1  649.19    8.16   0 
   7   5  -1  695.27    8.53   0 
   8   6  -4   89.56    5.61   0 
   9   5   0   -2.29    5.39   0 
   9   6  -3   52.66    5.05   0 
  10   2   3   96.91    5.33   0 
  10   5   0    5.08    4.58   0 
  11   3   2   30.78    4.96   0 
  11   4   1   46.66    5.02   0 
  -7 -11  -5   62.27    5.36   0 
  -7  -9  -7  108.20    5.10   0 
  -6  -6  -8  149.74    5.67   0 
  -1  -6   3   12.00   10.29   0 
   3   2   1 3410.19   22.23   0 
   4  -6   5   48.94    8.01   0 
   4  -3   5  105.45    7.22   0 
   4   1   3   57.10    5.72   0 
   4   2   2    2.28    5.03   0 
   5   5  -4  321.97    8.65   0 
   6  -2   5   10.72    4.98   0 
   6   2   3   10.19    4.38   0 
   6   3   2   44.68    4.86   0 
   7   1   4  282.01    6.30   0 
   7   6  -6    6.87    6.63   0 
   8   1   4  208.01    6.25   0 
   8   5   0 1011.32   10.44   0 
   8   6  -3   45.24    6.02   0 
   9   1   4  144.12    5.54   0 
   9   6  -2   51.04    6.26   0 
  10   6  -2   -1.94    4.34   0 
  11   5   0   72.52    5.31   0 
  11   6  -2   35.17    5.09   0 
  -7  -9  -9    4.98    4.72   0 
  -7  -9  -8    9.00    4.71   0 
  -6 -12  -3    6.26    5.98   0 
  -6  -9  -3  135.01    5.45   0 
  -6  -8  -4  134.01    6.46   0 
  -6  -7 -11  130.36    6.02   0 
  -6  -7  -5  647.28    8.32   0 
  -5 -11  -1  134.46    6.14   0 
  -5 -10  -1  152.95    7.18   0 
  -5  -9  -1   86.98    5.67   0 
  -5  -7  -2  950.79   10.46   0 
  -5  -5 -11   12.49    5.01   0 
  -4  -7   0   21.99    5.83   0 
  -4  -3  -8   -3.65    5.04   0 
  -4  -3  -6   28.36    4.46   0 
  -3 -11   1   28.07    7.01   0 
  -3  -6   1    3.34    5.61   0 
  -3  -2 -10  506.71    9.17   0 
  -1   0 -11  198.64    7.71   0 
   1   2 -10  180.22   10.17   0 
   2   3  -3   31.54    8.58   0 
   3  -5   5   34.97    6.94   0 
   3   4  -5  244.37   12.58   0 
   5  -2   5  146.80    5.91   0 
   6   1   4   28.35    4.43   0 
   7  -1   5  181.17    7.17   0 
   7   6  -7   34.93    6.86   0 
   7   6  -5   14.91    5.43   0 
   8  -2   5   55.66    5.41   0 
   8  -1   5   20.04    5.79   0 
   9   3   3   73.97    4.96   0 
   9   4   2  110.83    5.21   0 
  10   1   4  142.21    6.28   0 
  10   4   2    6.68    4.95   0 
  -7 -11  -6    1.89    4.52   0 
  -7 -10  -8   16.33    4.75   0 
  -7 -10  -7    6.18    4.91   0 
  -6 -11  -3    8.73    4.90   0 
  -6 -10  -3   16.60    4.82   0 
  -6  -7 -10   -0.90    4.49   0 
  -6  -7  -6   38.33    4.80   0 
  -5  -6  -3 2220.93   14.14   0 
  -5  -5 -10  266.57    6.44   0 
  -5  -5  -5   17.28    4.47   0 
  -4 -11   0   11.18    5.98   0 
  -4  -4 -12    7.98    4.85   0 
  -4  -4  -3    2.19    4.55   0 
  -4  -3  -7    5.02    4.24   0 
  -3  -2  -4 1743.86   14.69   0 
  -2 -10   2  467.27   13.43   0 
  -2  -1  -3   18.51    7.12   0 
  -1  -8   3  617.21   19.12   0 
   3  -6   5    6.25    7.44   0 
   3  -4   5  149.47    7.78   0 
   3  -1   4  445.94    8.93   0 
   4   0   4  281.55    7.85   0 
   5   4   0    4.25    4.95   0 
   6  -1   5   14.37    4.74   0 
   6   4   1   26.13    4.91   0 
   7   6  -4   90.28    6.22   0 
   8   3   3  460.55    7.31   0 
   8   4   2   38.22    4.67   0 
   8   6  -2   22.26    5.64   0 
   9   5   1    6.18    5.64   0 
  10   3   3   56.43    4.95   0 
  10   5   1   64.91    4.95   0 
  11   3   3    4.88    5.79   0 
  11   4   2  105.79    5.35   0 
  11   5   1  106.23    5.36   0 
  11   6  -1    5.87    4.51   0 
  -7 -11  -7  110.99    5.37   0 
  -6  -9  -4  828.71    8.96   0 
  -6  -8  -5  172.42    5.77   0 
  -6  -7  -9   65.76    4.92   0 
  -6  -7  -8   85.29    4.99   0 
  -6  -7  -7  220.72    5.84   0 
  -5  -5  -9  404.07    6.93   0 
  -5  -5  -7   42.04    5.53   0 
  -5  -5  -6 1131.97   10.22   0 
  -4 -10   0   63.37    6.20   0 
  -4  -8   0   92.43    6.73   0 
  -3  -2  -9  220.28    7.38   0 
  -2  -6   2   13.68    7.37   0 
  -2  -2  -1    5.37    8.86   0 
  -2  -1 -10   -0.67    5.69   0 
   2  -2   4 1037.88   14.58   0 
   2   2   0 1487.25   19.48   0 
   4  -2   5   76.61    6.44   0 
   4   3   1  181.57    7.58   0 
   5  -1   5  109.60    6.64   0 
   5   2   3 1048.78   10.62   0 
   5   5  -3    3.53    5.55   0 
   6   5  -1   66.96    4.77   0 
   7   0   5   94.31    6.27   0 
   7   3   3  182.18    5.80   0 
   7   5   0   59.79    4.59   0 
   7   6  -8    8.32    6.82   0 
   7   6  -3   30.75    5.60   0 
   8   0   5  109.13    5.48   0 
   8   2   4   76.04    5.14   0 
   9   0   5   35.76    5.96   0 
   9   2   4   -0.52    4.44   0 
   9   6  -1   60.24    4.68   0 
  10   2   4   10.90    4.44   0 
  10   7  -5    9.00    6.25   0 
  -6 -12  -4   10.47    4.75   0 
  -6 -11  -4    7.90    5.38   0 
  -5 -12  -2  115.44    6.16   0 
  -5  -8  -2  445.27    7.54   0 
  -5  -6  -4   -2.89    4.24   0 
  -4  -9   0  460.20    9.06   0 
  -4  -5  -2  564.75    8.79   0 
  -4  -4 -11    2.75    4.41   0 
  -3 -10   1  345.23    9.98   0 
  -3  -7   1  175.68    7.88   0 
  -3  -3 -12   71.71    5.86   0 
  -3  -3  -2   43.99    5.75   0 
  -3  -2  -8   25.96    5.61   0 
  -3  -2  -5  144.49    6.16   0 
  -1  -7   3  274.98   14.04   0 
  -1   0 -10   31.21    5.54   0 
   0   1 -10   48.48    6.74   0 
   3  -7   5    2.83    8.93   0 
   3  -3   5   31.34    6.61   0 
   4   4  -1   17.20    6.26   0 
   5   1   4  877.28    9.74   0 
   5   3   2   48.89    4.74   0 
   6   0   5   13.88    5.56   0 
   7   2   4   13.72    4.32   0 
   7   4   2   -0.27    4.49   0 
   8   5   1  157.64    5.42   0 
  10   6   0    8.15    4.13   0 
  10   7  -4   12.67    5.00   0 
  11   6   0   20.73    4.49   0 
  11   7  -3    0.32    5.00   0 
  -6  -8 -10   40.40    4.67   0 
  -6  -8  -9   -0.33    4.63   0 
  -6  -8  -7  163.75    5.14   0 
  -6  -8  -6  272.18    6.28   0 
  -5 -11  -2    4.66    5.41   0 
  -5  -9  -2   77.41    5.95   0 
  -4  -4 -10    3.99    5.49   0 
  -4  -4  -4  811.78    9.37   0 
  -3  -5   0 2355.23   19.17   0 
  -3  -2  -7  734.33    9.19   0 
  -3  -2  -6  203.84    6.20   0 
  -2  -9   2   42.67    7.99   0 
  -2  -4   1  485.77   12.00   0 
  -2  -1  -9  780.24   10.79   0 
   2   2 -12   49.88    8.83   0 
   3   4  -4  272.01   11.46   0 
   5   5  -9   19.96   10.93   0 
   6   3   3   18.98    4.45   0 
   7   6  -2   45.03    6.08   0 
   8   1   5   48.12    5.26   0 
   8   6  -1  764.75    9.44   0 
   9   1   5   53.20    5.10   0 
   9   4   3   16.53    4.29   0 
   9   7  -6  111.51    6.85   0 
   9   7  -5   51.86    6.33   0 
   9   7  -4   35.60    5.92   0 
  10   4   3  158.42    5.73   0 
  10   5   2   13.14    4.41   0 
  10   7  -3    6.84    4.64   0 
  11   4   3    4.86    4.47   0 
  11   5   2   66.43    5.02   0 
  11   7  -2   49.59    6.27   0 
  -6 -10  -5    0.03    4.16   0 
  -5  -6 -10    0.40    4.73   0 
  -5  -6  -5  255.51    6.25   0 
  -4 -12  -1   31.92    6.25   0 
  -4  -5 -12   72.38    6.40   0 
  -4  -4  -9    8.09    4.98   0 
  -3  -9   1  173.37    7.42   0 
  -3  -8   1    5.69    5.54   0 
  -3  -4  -1   33.74    6.62   0 
  -3  -3 -11   19.45    5.67   0 
  -2  -2 -12    2.18    5.97   0 
  -2  -1  -4 3388.48   21.88   0 
   5   5  -2  771.64   10.52   0 
   6   5   0    1.88    5.34   0 
   7   1   5  149.70    5.77   0 
   7   5   1   71.46    4.83   0 
   8   4   3   32.55    4.39   0 
   9   5   2   97.72    4.95   0 
   9   7  -3   42.54    6.18   0 
  10   3   4  180.45    5.81   0 
  10   7  -2   43.83    4.85   0 
  11   6   1    2.74    5.55   0 
  -6 -10  -6   20.19    4.53   0 
  -6  -9 -10   19.38    4.83   0 
  -6  -9  -9   76.53    5.10   0 
  -6  -9  -8   70.45    5.02   0 
  -6  -9  -7   28.08    4.78   0 
  -5 -12  -3   98.20    6.80   0 
  -5  -8  -3  197.32    5.77   0 
  -5  -7  -4  262.72    6.73   0 
  -5  -6  -9    3.51    4.42   0 
  -5  -6  -8  400.97    7.02   0 
  -5  -6  -7  447.05    7.79   0 
  -5  -6  -6  230.11    6.02   0 
  -4  -7  -1  533.84    9.17   0 
  -4  -4  -8   13.49    5.16   0 
  -4  -4  -5  986.48   10.12   0 
  -2  -8   2   65.98    8.24   0 
  -2  -7   2    9.56    6.16   0 
  -2  -3   0  680.13   12.79   0 
  -2  -1  -8   13.65    5.84   0 
  -1  -1 -12  210.61    8.10   0 
  -1   0  -3  306.11   10.94   0 
   1   2  -9    6.69    7.03   0 
   3   1   3  270.27    7.65   0 
   3   3   0  918.26   12.65   0 
   4  -1   5    2.19    4.20   0 
   5   0   5  182.69    6.22   0 
   6  -3   6    6.46    6.16   0 
   6   4   2 2315.86   14.16   0 
   6   6  -5   63.25    6.04   0 
   7  -2   6   67.73    6.50   0 
   8   5   2    8.93    5.17   0 
   8   6   0 1068.71   10.54   0 
   9   2   5   15.54    5.58   0 
  10   6   1   46.18    4.82   0 
  11   7  -1   21.75    5.01   0 
  -6 -11  -7    5.03    5.62   0 
  -6 -11  -6    9.26    4.66   0 
  -6 -10  -8   31.91    4.70   0 
  -6 -10  -7  232.86    6.19   0 
  -5 -11  -3   95.09    6.30   0 
  -5  -9  -3   39.78    5.95   0 
  -5  -7 -11    2.01    4.36   0 
  -4 -11  -1    2.06    5.58   0 
  -4  -5 -11   19.40    4.63   0 
  -4  -4  -7    6.60    4.08   0 
  -4  -4  -6   17.09    4.47   0 
  -3  -3 -10    9.02    5.49   0 
  -2  -1  -7  665.99   10.26   0 
  -2  -1  -6  211.29    7.31   0 
  -2  -1  -5 1311.44   13.57   0 
   0   0 -12    7.74    6.54   0 
   0   1  -9   55.56    6.42   0 
   1   1 -12    1.83    6.75   0 
   2  -6   5    3.28    8.61   0 
   2  -5   5  140.07    9.55   0 
   2   0   3 3190.96   23.08   0 
   2   3  -8   16.28    9.63   0 
   3  -2   5   13.23    5.57   0 
   4   1   4  980.90   11.64   0 
   5  -4   6   67.29    7.21   0 
   5  -3   6    9.72    6.35   0 
   6  -2   6   28.89    4.48   0 
   6   1   5    7.44    4.17   0 
   6   6  -4   28.06    5.72   0 
   7  -1   6   19.11    5.91   0 
   7   3   4   -0.97    4.19   0 
   7   6  -1  303.04    6.96   0 
   8  -1   6    4.27    4.96   0 
   8   7  -5   54.71    6.09   0 
   9   6   1    4.55    4.54   0 
   9   7  -2    4.00    4.70   0 
  10   2   5   30.69    5.23   0 
  10   5   3  145.60    6.55   0 
  10   7  -1   13.74    4.59   0 
  11   5   3  124.69    5.49   0 
  -6 -11  -8   36.68    4.87   0 
  -5 -10  -3  325.35    7.09   0 
  -5  -7 -10   69.01    5.13   0 
  -5  -7  -5   68.84    4.77   0 
  -4 -10  -1  342.21    8.39   0 
  -4  -9  -1    3.29    5.33   0 
  -4  -8  -1  274.91    7.12   0 
  -4  -6  -2  569.89    8.49   0 
  -3  -4 -12   34.02    5.80   0 
  -2  -3 -13    3.05    6.00   0 
  -2  -2 -11  209.52    6.88   0 
  -1   0  -8   49.93    6.88   0 
   2  -4   5    3.80    7.03   0 
   2   1   2   55.85    7.48   0 
   3   0   4  534.57    9.40   0 
   3   3 -11   15.80    9.47   0 
   3   4  -3 3652.59   29.75   0 
   5   2   4    2.47    5.51   0 
   5   5  -1   51.75    5.93   0 
   6  -1   6    9.34    5.82   0 
   6   6  -7  176.05    9.54   0 
   6   6  -3   96.80    6.52   0 
   7   2   5  427.32    7.78   0 
   8   0   6   16.76    4.54   0 
   8   7  -6    5.97    5.73   0 
   8   7  -4   88.90    5.29   0 
   8   7  -3  231.59    7.52   0 
   9   5   3    5.47    5.40   0 
  10   4   4    5.84    4.93   0 
  11   4   4    2.82    4.73   0 
  11   6   2   86.88    5.06   0 
  11   7   0   18.45    4.94   0 
  -5 -12  -4   41.08    5.00   0 
  -5  -8 -11   48.56    5.33   0 
  -5  -8  -4  470.95    7.23   0 
  -5  -7  -9  253.39    6.17   0 
  -5  -7  -8   18.16    4.47   0 
  -5  -7  -6    9.87    4.40   0 
  -4 -12  -2   43.75    6.18   0 
  -4  -6 -12   28.74    5.02   0 
  -4  -5 -10   91.03    5.31   0 
  -4  -5  -4 1207.88   10.88   0 
  -3 -11   0   88.16    6.67   0 
  -3  -6   0 1679.70   15.68   0 
  -2 -11   1   19.59    7.08   0 
   4   3   2    5.77    4.87   0 
   4   4   0 1227.94   12.88   0 
   5  -2   6   12.87    5.53   0 
   5   3   3   42.14    4.62   0 
   6   5   1  388.93    7.85   0 
   7   0   6    1.67    4.58   0 
   7   5   2  155.86    5.57   0 
   8   4   4   44.80    5.70   0 
   8   6   1  517.58    7.80   0 
   8   7  -7  282.19   10.11   0 
   9   1   6   22.95    6.09   0 
   9   3   5   90.41    4.77   0 
   9   7  -1   13.62    4.64   0 
  10   3   5    3.96    4.83   0 
  10   6   2  330.74    6.51   0 
  10   7   0    4.66    4.34   0 
  -5 -11  -4    3.51    4.48   0 
  -5 -10  -4    1.92    5.41   0 
  -5  -9  -4  419.24    7.08   0 
  -5  -8 -10  108.03    5.45   0 
  -5  -8  -5   36.29    4.65   0 
  -4  -7  -2  127.56    6.22   0 
  -4  -5  -9  608.57    7.83   0 
  -3  -3  -8   47.07    5.71   0 
  -3  -3  -4 6350.21   24.81   0 
  -2  -2 -10  494.63    8.93   0 
  -2  -2  -2 6029.42   30.74   0 
  -1  -2 -13  213.89    7.87   0 
  -1  -1 -11   57.09    6.04   0 
  -1   0  -4  539.25   11.80   0 
   0   1  -8    1.86    6.08   0 
   2  -1   4  505.99   10.46   0 
   2   3  -2  146.07   10.28   0 
   4  -4   6   -1.03    6.30   0 
   4   0   5   32.69    5.64   0 
   5   1   5  137.46    5.25   0 
   6   0   6   28.36    5.88   0 
   6   3   4    7.19    4.11   0 
   6   6  -2   25.71    5.81   0 
   7   6   0  429.03    7.36   0 
   8   1   6  466.11    7.72   0 
   8   3   5  175.54    5.78   0 
   8   5   3  209.53    5.74   0 
   8   7  -2   28.02    4.54   0 
   9   6   2  284.88    6.16   0 
  11   7   1   43.56    4.86   0 
  11   8  -2   16.69    6.20   0 
  -5 -12  -5   33.42    4.83   0 
  -5  -9  -5  209.28    6.65   0 
  -5  -8  -9    5.73    4.50   0 
  -5  -8  -7   26.36    5.39   0 
  -5  -8  -6  206.33    5.57   0 
  -4  -6 -11  114.14    5.33   0 
  -4  -6  -3  185.61    6.12   0 
  -4  -5  -8    0.87    4.38   0 
  -4  -5  -7   46.75    5.68   0 
  -4  -5  -6    5.51    5.25   0 
  -4  -5  -5  119.33    5.35   0 
  -3 -10   0   15.33    5.53   0 
  -3  -4  -2 1105.64   11.92   0 
  -3  -3  -7  108.52    5.94   0 
  -3  -3  -5  364.29    7.39   0 
  -2  -3 -12  167.92    7.09   0 
  -1   0  -6  960.28   12.55   0 
  -1   0  -5  935.84   13.11   0 
   1   2  -8   90.42    8.06   0 
   4  -5   6   44.42    7.66   0 
   4  -3   6   31.28    5.74   0 
   4   5  -5  125.95    9.33   0 
   5  -1   6  425.04    7.84   0 
   5   4   2   18.66    4.72   0 
   6   2   5  173.22    5.67   0 
   6   4   3  779.79    8.80   0 
   7   1   6   39.42    5.09   0 
   9   2   6   63.34    6.26   0 
   9   7   0   22.34    4.35   0 
  10   5   4   18.94    4.98   0 
  10   7   1    9.25    4.18   0 
  10   8  -4    3.64    5.15   0 
  10   8  -3   48.10    6.27   0 
  11   5   4   18.71    4.92   0 
  11   6   3   42.32    4.94   0 
  -5 -11  -5    8.81    4.51   0 
  -5 -10  -5   64.63    4.84   0 
  -5  -9 -10    1.73    4.71   0 
  -5  -9  -9    3.64    4.32   0 
  -5  -9  -6   26.27    4.56   0 
  -4 -12  -3   63.66    6.36   0 
  -4 -10  -2   37.87    6.12   0 
  -4  -8  -2  143.12    6.59   0 
  -4  -7 -12   10.15    4.71   0 
  -4  -6 -10  102.69    4.90   0 
  -3  -9   0   15.78    5.44   0 
  -3  -7   0  453.48    9.32   0 
  -3  -5 -12  103.33    6.50   0 
  -3  -5  -1 1487.67   14.05   0 
  -3  -3  -6   10.32    4.58   0 
  -2  -5   1 1044.15   15.21   0 
  -1 -10   2    0.69    7.85   0 
   0  -1 -13   43.58    6.12   0 
   0   0 -11   95.23    6.66   0 
   1  -1   3  707.59   15.17   0 
   1   0   2  239.28   11.65   0 
   2  -3   5  203.68    9.44   0 
   2   2 -11    6.04    7.29   0 
   3  -1   5  198.18    7.64   0 
   4  -2   6  128.45    7.40   0 
   4   4 -10  280.97   17.54   0 
   4   5  -4  827.45   14.45   0 
   6   6  -8    1.18    8.92   0 
   6   6  -1   22.96    5.57   0 
   7   3   5   60.58    4.76   0 
   7   4   4   56.43    4.66   0 
   8   6   2  383.96    7.49   0 
   8   7  -1   98.88    5.15   0 
   9   4   5   40.28    5.57   0 
   9   5   4   -1.79    4.34   0 
  10   4   5  280.79    6.34   0 
  10   8  -2   20.43    4.76   0 
  11   7   2   66.92    5.68   0 
  11   8  -1    3.58    4.66   0 
  -5 -11  -8   17.58    5.47   0 
  -5 -11  -7   -2.05    5.72   0 
  -5 -11  -6    4.04    4.43   0 
  -5 -10  -9   11.09    4.71   0 
  -5 -10  -8  519.95    8.54   0 
  -5 -10  -7   11.87    5.69   0 
  -5 -10  -6   86.55    4.45   0 
  -5  -9  -8  102.93    5.23   0 
  -5  -9  -7    3.37    4.38   0 
  -4  -9  -2   41.99    4.59   0 
  -4  -7 -11    2.46    4.46   0 
  -4  -6  -9  128.17    6.44   0 
  -3  -8   0   15.04    5.84   0 
  -2 -10   1    2.79    5.64   0 
  -2  -4 -13   36.53    5.22   0 
  -2  -2  -9  197.20    6.07   0 
  -1  -1 -10   22.56    5.29   0 
   0   1  -7 1261.79   15.79   0 
   0   1  -3 1112.92   22.27   0 
   1   1 -11   -2.30    5.36   0 
   3   3   1  244.88    7.68   0 
   3   4  -2  403.12   10.43   0 
   4   5  -6 1224.76   24.32   0 
   4   5  -3  833.98   13.59   0 
   6   1   6  137.76    6.22   0 
   6   5   2  433.94    7.94   0 
   7  -2   7   11.05    6.15   0 
   7   5   3   16.47    4.39   0 
   7   6   1  840.12    8.95   0 
   7   7  -5    8.75    6.43   0 
   7   7  -4  284.09    7.89   0 
   9   6   3   69.13    4.95   0 
   9   7   1   15.92    4.44   0 
  10   3   6    8.27    4.64   0 
  11   8   0   17.00    5.89   0 
  -4 -11  -3    1.35    5.61   0 
  -4  -7  -3    1.77    4.14   0 
  -4  -6  -8   67.69    5.88   0 
  -4  -6  -5  149.36    5.31   0 
  -3 -11  -1   25.34    6.63   0 
  -3  -4  -9   59.86    5.66   0 
  -3  -4  -3   17.35    4.79   0 
  -2  -2  -3  177.16    8.53   0 
  -1  -2 -12   76.92    6.43   0 
   2   2   1    5.12    7.45   0 
   4   2   4  116.02    6.83   0 
   4   4   1    1.48    5.03   0 
   5   0   6  298.40    7.09   0 
   7  -1   7   94.22    6.87   0 
   7   7  -6   74.58    7.23   0 
   8   0   7    8.64    6.09   0 
   8   5   4   72.55    4.79   0 
   8   7   0   18.14    4.57   0 
   9   3   6    2.88    4.21   0 
   9   8  -5    6.95    5.54   0 
   9   8  -4   11.31    6.03   0 
   9   8  -3  189.01    7.20   0 
  10   7   2   10.02    4.26   0 
  11   5   5    4.63    4.66   0 
  11   6   4  142.28    5.76   0 
  -4 -12  -4   78.79    5.67   0 
  -4 -10  -3    3.10    5.71   0 
  -4  -8 -11   74.56    5.07   0 
  -4  -8  -3   93.59    4.90   0 
  -4  -7 -10  371.98    6.65   0 
  -4  -6  -7   62.82    4.95   0 
  -4  -6  -6   18.67    4.63   0 
  -3 -12  -2   17.43    6.15   0 
  -3  -6 -12   59.11    6.04   0 
  -3  -6  -1  427.58    8.82   0 
  -3  -5 -11  285.14    6.50   0 
  -2  -3  -1   90.83    8.60   0 
  -1  -4   2   68.51    9.85   0 
   0  -9   3   41.98    9.80   0 
   3   1   4  573.60   10.35   0 
   4  -1   6   81.47    6.54   0 
   4   3   3 1367.33   12.42   0 
   5   2   5    3.30    4.28   0 
   5   3   4 2294.19   14.37   0 
   6  -3   7   77.04    6.74   0 
   6  -2   7   34.34    6.09   0 
   6   6   0  422.68    7.22   0 
   7   0   7    1.28    5.91   0 
   8   3   6    2.81    4.22   0 
   9   8  -2  260.78    6.84   0 
  10   5   5   53.56    5.22   0 
  10   6   4   73.69    5.30   0 
  10   8   0   13.69    4.51   0 
  11   7   3    7.92    4.63   0 
  11   8   1   35.51    5.20   0 
  -4 -12  -5   61.42    6.25   0 
  -4 -11  -4   -0.34    5.30   0 
  -4  -9  -3  434.38    7.63   0 
  -4  -8 -10  103.43    6.37   0 
  -4  -7  -4    5.54    4.31   0 
  -3 -10  -1   13.98    5.46   0 
  -3  -5  -2  625.60    9.38   0 
  -3  -4  -8    5.43    4.27   0 
  -3  -4  -4   11.61    4.55   0 
  -2 -11   0    5.20    6.58   0 
  -2  -9   1   52.19    5.97   0 
  -2  -4 -12    7.83    4.55   0 
  -2  -4   0 2337.79   20.45   0 
  -2  -2  -7   15.12    5.28   0 
  -1  -3 -13    3.89    4.86   0 
  -1  -1  -9  263.00    7.87   0 
   0  -1 -12   53.62    6.14   0 
   0   1  -6  631.70   12.05   0 
   1   2  -7  200.25    9.63   0 
   3  -4   6    2.74    6.43   0 
   4   5  -2  434.74    9.41   0 
   5   4   3   31.00    4.62   0 
   5   5   1 2029.33   14.12   0 
   6  -1   7   15.37    5.45   0 
   6   4   4   24.10    4.76   0 
   7   6   2   25.11    4.40   0 
   7   7  -1  110.48    6.20   0 
   8   1   7   34.50    4.70   0 
   8   6   3    1.05    4.16   0 
   8   7   1  469.60    7.20   0 
   9   2   7   10.35    5.84   0 
   9   5   5  139.44    5.41   0 
   9   7   2   29.97    4.59   0 
   9   8  -1  145.30    6.78   0 
  10   4   6   21.02    4.87   0 
  10   7   3    5.06    5.33   0 
  -4 -10  -4  137.35    6.49   0 
  -4  -9 -10    3.51    5.51   0 
  -4  -9  -4  110.89    5.80   0 
  -4  -8  -4  283.84    6.21   0 
  -4  -7  -7   65.84    4.70   0 
  -4  -7  -6   11.41    4.42   0 
  -4  -7  -5  150.41    5.39   0 
  -3  -7  -1   86.47    6.35   0 
  -3  -5 -10   42.88    4.57   0 
  -3  -4  -7  119.94    4.97   0 
  -3  -4  -5  858.58    9.49   0 
  -2  -8   1  231.86    8.30   0 
  -2  -6   1    3.32    5.41   0 
  -2  -3 -10   22.28    4.58   0 
  -2  -2  -6  980.70   10.78   0 
  -2  -2  -5 1076.25   12.39   0 
  -2  -2  -4 1000.06   11.69   0 
  -1  -9   2  146.78    9.42   0 
  -1  -2 -11   98.17    6.31   0 
   0   1  -5  590.48   12.93   0 
   0   1  -4   33.35    7.28   0 
   2  -2   5  826.52   13.74   0 
   2   3  -7  831.16   20.20   0 
   3  -5   6    5.13    7.82   0 
   3  -3   6   99.56    7.21   0 
   5  -3   7    8.72    6.38   0 
   5   1   6   81.93    5.98   0 
   5   6  -4   60.18    6.88   0 
   6   2   6  473.94    7.62   0 
   7   1   7   37.91    5.95   0 
   7   3   6  269.41    6.90   0 
   7   4   5   -0.96    4.11   0 
   7   5   4   21.30    4.57   0 
   7   7  -7   48.94    8.21   0 
   9   4   6  148.21    5.32   0 
   9   6   4  228.27    5.98   0 
  10   8   1   10.84    4.44   0 
  11   6   5   14.29    6.00   0 
  11   8   2   90.87    5.56   0 
  -4 -11  -5   17.13    4.54   0 
  -4  -8  -9  125.58    5.37   0 
  -4  -8  -8   40.05    4.25   0 
  -4  -8  -5  452.89    7.23   0 
  -3 -12  -3   40.99    6.40   0 
  -3 -11  -2   16.82    5.81   0 
  -3  -8  -1   31.59    5.78   0 
  -3  -7 -12   41.95    4.56   0 
  -3  -6 -11    5.30    4.43   0 
  -3  -5  -9  385.68    7.74   0 
  -2  -7   1    2.92    5.24   0 
   0  -2 -13    5.43    5.98   0 
   1  -8   4  104.12   13.81   0 
   1   0 -12   24.14    5.43   0 
   1   1 -10   28.22    6.30   0 
   3   0   5 2646.43   18.08   0 
   3   4  -1  799.31   12.21   0 
   5  -4   7   39.04    7.30   0 
   5  -2   7   49.55    5.81   0 
   5   6  -5   51.62    7.52   0 
   5   6  -3  407.01    9.15   0 
   6   0   7  221.60    6.60   0 
   6   5   3  548.05    7.62   0 
   6   6   1  369.71    6.82   0 
   7   7   0    1.40    5.07   0 
   8   2   7    1.09    4.31   0 
   8   5   5   12.93    4.53   0 
   9   8   0   38.08    4.93   0 
  10   6   5   89.08    6.00   0 
  11   7   4   40.64    4.88   0 
  -4 -11  -8    1.29    4.37   0 
  -4 -11  -6    7.81    4.51   0 
  -4 -10  -7  314.23    7.35   0 
  -4 -10  -6   80.30    4.79   0 
  -4 -10  -5   70.21    4.90   0 
  -4  -9  -8    2.76    4.30   0 
  -4  -9  -7  337.74    6.96   0 
  -4  -9  -6    1.88    5.30   0 
  -4  -8  -6   56.26    4.89   0 
  -3  -6  -2  646.13    9.64   0 
  -2  -5 -12    5.47    5.87   0 
  -2  -4 -11   25.89    4.55   0 
  -2  -3  -9    7.31    4.14   0 
  -1  -3 -12    8.02    5.90   0 
  -1  -1  -8  171.79    7.28   0 
   1  -2   4  198.85   10.32   0 
   2   0   4  878.20   12.71   0 
   2   1   3   13.51    5.87   0 
   3   3 -10   17.34    8.00   0 
   4   0   6  171.85    7.26   0 
   4   4   2   25.71    5.00   0 
   4   5  -1   31.70    5.89   0 
   5  -1   7   30.29    5.58   0 
   5   6  -2  242.08    7.64   0 
   7   6   3    8.44    5.34   0 
   8   4   6    5.89    4.50   0 
   8   6   4   10.16    4.34   0 
   8   8  -4  188.15    7.54   0 
   8   8  -3    6.80    5.39   0 
   8   8  -2    7.72    5.63   0 
   9   3   7   -1.46    4.58   0 
   9   7   3   58.91    4.59   0 
  10   5   6   12.15    4.39   0 
  10   7   4  189.02    6.01   0 
  10   8   2   30.41    4.72   0 
  10   9  -3   30.48    6.28   0 
  11   9   0   -3.86    5.84   0 
  -3 -12  -4  126.98    7.02   0 
  -3 -10  -2  182.75    7.19   0 
  -3  -7 -11   15.48    4.60   0 
  -3  -5  -8  456.52    7.10   0 
  -2 -10   0    9.94    5.55   0 
  -1  -4 -13   16.89    5.07   0 
   0  -1 -11   54.20    5.83   0 
   0   0  -9  579.11   10.17   0 
   2   1 -12    0.51    5.81   0 
   2   2 -10    3.67    6.34   0 
   3  -6   6    9.60   10.31   0 
   3  -2   6  505.65   10.14   0 
   3   2 -12   -0.51    6.95   0 
   3   3   2   39.55    5.79   0 
   5   3   5    1.67    5.39   0 
   5   5   2 1587.67   12.41   0 
   6   1   7   25.43    5.74   0 
   7   2   7   29.70    5.09   0 
   8   3   7    2.58    5.43   0 
   8   8  -5   16.63    5.65   0 
   8   8  -1   51.82    5.88   0 
   9   5   6    6.55    4.53   0 
   9   6   5   54.79    4.94   0 
   9   8   1  163.02    5.78   0 
  10   4   7   14.34    4.82   0 
  10   9  -2   95.35    5.71   0 
  11   8   3   32.44    4.96   0 
  -3 -11  -3   63.34    5.47   0 
  -3  -9  -2   32.69    5.59   0 
  -3  -8 -11   47.63    4.79   0 
  -3  -7 -10   35.04    5.55   0 
  -3  -7  -2 3195.23   17.64   0 
  -3  -6  -9  170.53    5.60   0 
  -3  -5  -7 1649.91   11.71   0 
  -3  -5  -6  636.04    8.18   0 
  -3  -5  -5  236.14    6.18   0 
  -2 -11  -1    2.32    5.99   0 
  -2  -3  -8  613.96    8.07   0 
  -2  -3  -2 3023.97   20.41   0 
  -1  -8   2  209.57    9.83   0 
  -1  -2 -10  121.12    5.43   0 
   1  -1 -13   30.37    6.19   0 
   1   2  -6   32.41    7.83   0 
   4   2   5  713.05    9.75   0 
   4   3   4  177.01    7.03   0 
   5   2   6   74.87    5.59   0 
   5   4   4  627.78    8.35   0 
   6   6   2  115.34    4.97   0 
   7  -1   8   62.53    6.57   0 
   7   4   6   17.80    5.36   0 
   7   7   1   45.96    4.54   0 
   9   4   7   23.09    4.52   0 
  10   8   3   36.97    5.65   0 
  10   9  -1  151.56    6.11   0 
  11   7   5    4.53    4.89   0 
  -3 -10  -3    4.24    5.86   0 
  -3  -8  -2    1.68    4.42   0 
  -3  -6  -8   26.70    5.43   0 
  -2  -9   0  520.84    9.51   0 
  -2  -5 -11  100.14    5.05   0 
  -2  -5   0 3306.83   22.09   0 
  -1 -10   1    7.59    6.20   0 
  -1  -1  -7  399.90    8.02   0 
  -1  -1  -2  336.01   11.08   0 
   0 -10   2   17.09    8.02   0 
   4  -3   7  574.32   11.55   0 
   4   5   0   97.00    5.80   0 
   5   0   7  136.68    5.77   0 
   5   6  -6   85.19    9.43   0 
   6   5   4  185.26    5.63   0 
   6   7  -4  459.11   10.03   0 
   6   7  -3   52.41    5.94   0 
   6   7  -2  108.15    6.52   0 
   7   0   8   51.34    6.29   0 
   8   1   8   21.49    4.96   0 
   8   5   6  885.47    9.35   0 
   8   7   3    3.46    4.45   0 
   8   8  -6  103.47    8.25   0 
   8   8   0   53.77    4.77   0 
   9   7   4   88.86    4.90   0 
   9   8   2    5.52    4.29   0 
  10   6   6  164.56    5.47   0 
  10   9   0   93.20    5.42   0 
  11   8   4  112.44    5.43   0 
  -3  -9 -10   11.68    4.47   0 
  -3  -7  -9  738.23    8.15   0 
  -3  -6  -7   87.34    5.99   0 
  -3  -6  -4   11.30    5.51   0 
  -2  -4  -9   10.74    5.35   0 
  -2  -4  -1 2109.54   17.26   0 
  -2  -3  -7  500.10    7.63   0 
  -2  -3  -3    5.07    5.40   0 
  -1  -5   2  463.73   13.10   0 
  -1  -3 -11   65.55    5.24   0 
  -1  -2   0 1166.39   20.48   0 
   0  -8   3   21.29    8.32   0 
   0  -2 -12   95.05    5.67   0 
   2   2   2 6011.57   30.12   0 
   3   2   4 1953.90   15.50   0 
   4  -4   7   -0.21    6.45   0 
   4  -2   7    2.85    5.05   0 
   5   6   0   37.81    5.54   0 
   6   2   7  306.31    6.66   0 
   7   3   7  381.72    7.00   0 
   7   6   4   10.81    4.32   0 
   7   7  -8   18.29    9.20   0 
   7   7   2  225.45    6.43   0 
   8   2   8   39.77    6.01   0 
   8   4   7   10.89    4.42   0 
   8   6   5  876.48    8.73   0 
  10   5   7   10.32    4.52   0 
  10   9   1  169.52    5.87   0 
  11   9   2    5.29    4.61   0 
  -3 -11  -8   12.79    4.59   0 
  -3 -11  -7   58.81    5.67   0 
  -3 -11  -6   25.99    4.65   0 
  -3 -11  -5    4.12    4.63   0 
  -3 -10  -9    5.68    4.65   0 
  -3 -10  -4  412.32    7.42   0 
  -3  -9  -9   37.51    5.59   0 
  -3  -9  -3   59.60    4.82   0 
  -3  -8  -9    0.09    4.33   0 
  -3  -8  -3  199.81    5.80   0 
  -3  -7  -8  163.11    5.31   0 
  -3  -7  -3   -3.06    4.13   0 
  -3  -6  -6   49.85    4.57   0 
  -3  -6  -5  400.24    6.81   0 
  -2 -10  -1  167.37    6.62   0 
  -2  -8   0  243.57    7.66   0 
  -2  -7 -12  146.68    5.64   0 
  -2  -6 -11  351.55    7.48   0 
  -2  -6   0  575.04    9.99   0 
  -2  -5 -10  207.83    6.59   0 
  -2  -3  -6  227.32    6.38   0 
  -2  -3  -4  865.42   10.86   0 
  -1  -7   2   20.12    6.20   0 
  -1  -2  -9  789.40    9.58   0 
   1   0 -11   18.18    5.40   0 
   1   1  -9  131.78    6.55   0 
   2  -1   5 1199.82   14.45   0 
   3   1   5   29.41    5.18   0 
   4   4   3    4.71    4.29   0 
   5   1   7  460.48    8.62   0 
   6  -2   8   34.95    6.23   0 
   6  -1   8    6.18    6.15   0 
   6   7  -5   -0.11    6.16   0 
   7   1   8    9.78    4.74   0 
   8   8   1   -1.67    4.28   0 
   9   3   8    4.11    4.69   0 
   9   5   7   11.28    4.47   0 
   9   6   6   11.40    4.52   0 
   9   8   3   25.74    4.40   0 
   9   9  -4   11.50    5.97   0 
   9   9  -3   12.12    4.68   0 
   9   9  -2  345.53    7.54   0 
   9   9  -1   85.10    6.44   0 
  10   8   4    5.14    4.55   0 
  -3 -10  -8    3.73    4.30   0 
  -3 -10  -7  363.97    7.44   0 
  -3 -10  -6   20.68    5.72   0 
  -3 -10  -5  475.16    7.58   0 
  -3  -9  -8   80.72    5.13   0 
  -3  -9  -4  437.76    7.04   0 
  -3  -8  -8    5.84    4.15   0 
  -3  -7  -7   67.29    4.78   0 
  -2  -7   0   28.27    5.55   0 
  -2  -4  -8   33.16    5.37   0 
  -2  -3  -5   58.21    5.30   0 
  -1  -6   2  913.60   15.62   0 
  -1  -1  -5  176.70    7.69   0 
  -1  -1  -3 1807.63   18.33   0 
   0  -1 -10  286.02    6.68   0 
   2   3   0  703.02   13.58   0 
   4  -1   7   18.38    5.57   0 
   4   5   1 2320.88   16.41   0 
   6   0   8    6.66    5.83   0 
   6   4   6   81.53    5.55   0 
   6   6   3  214.04    5.85   0 
   6   7   0  168.06    6.87   0 
   8   3   8   12.80    5.47   0 
   8   7   4   17.30    4.60   0 
   9   7   5   45.16    4.79   0 
   9   9   0  553.83    8.89   0 
  10   9   2    9.11    4.44   0 
  -3  -9  -7    1.91    4.14   0 
  -3  -9  -6    4.25    4.22   0 
  -3  -9  -5  203.06    5.69   0 
  -3  -8  -7   25.80    4.50   0 
  -3  -8  -6  204.70    5.71   0 
  -3  -8  -5   43.63    4.39   0 
  -3  -7  -6  323.92    6.29   0 
  -3  -7  -5    0.95    4.28   0 
  -2  -7 -11    7.90    4.42   0 
  -1  -9   1   76.02    7.14   0 
  -1  -5 -12   17.09    4.76   0 
  -1  -4 -11    2.21    5.48   0 
  -1  -1  -4  803.94   11.73   0 
   1  -1 -12  144.83    7.16   0 
   1   2  -5  199.43   10.87   0 
   2   1 -11   36.02    6.55   0 
   3   3   3   58.04    5.57   0 
   3   4   1   30.35    6.38   0 
   4  -5   7   10.19    7.88   0 
   5   6   1  265.07    6.44   0 
   6   5   5  157.62    5.45   0 
   7   4   7  126.77    5.28   0 
   7   5   6   90.01    5.09   0 
   7   8  -3   76.47    6.05   0 
   7   8  -2   49.11    5.79   0 
   7   8  -1   47.60    5.62   0 
   8   8   2   13.88    4.08   0 
   9   4   8   21.21    4.23   0 
  10   6   7  104.44    5.42   0 
  10   7   6   28.76    4.51   0 
  -2 -11  -3   57.06    5.22   0 
  -2 -10  -2   86.00    6.07   0 
  -2  -9  -1   16.95    5.40   0 
  -2  -8 -11   21.08    4.53   0 
  -2  -6 -10   33.66    4.48   0 
  -2  -5  -9   74.81    4.95   0 
  -2  -4  -7  253.31    6.01   0 
   0  -4 -13  180.41    6.25   0 
   0  -2 -11   30.59    4.87   0 
   2   2  -9  150.56    7.89   0 
   3   0   6  136.26    6.71   0 
   4   3   5 1037.01   10.82   0 
   5  -2   8    5.82    6.32   0 
   6   1   8  263.21    6.84   0 
   6   3   7    7.82    4.38   0 
   6   7   1  105.59    5.23   0 
   7   6   5   56.21    4.70   0 
   7   8  -4  160.78    7.27   0 
   7   8   0  213.58    6.82   0 
   8   5   7  243.49    6.09   0 
   8   6   6   17.10    4.60   0 
   9   8   4   19.47    4.42   0 
  10   8   5   21.44    4.59   0 
  10   9   3   80.98    5.11   0 
  -2 -11  -4    2.34    5.52   0 
  -2  -9 -10   20.01    5.56   0 
  -2  -8 -10   -1.41    5.45   0 
  -2  -7 -10   79.53    4.99   0 
  -2  -5  -8  676.43    8.66   0 
  -2  -4  -6   19.35    5.58   0 
  -1 -11  -1   74.86    6.22   0 
  -1 -10   0   12.91    5.72   0 
  -1  -6 -12  111.52    5.74   0 
   0   0  -7  300.81    8.34   0 
   1   0   3  296.80   10.69   0 
   2   1   4 3376.53   21.50   0 
   2   3  -6 1644.64   27.33   0 
   4   2   6    2.54    4.24   0 
   5  -3   8   23.10    6.87   0 
   5  -1   8    3.62    5.35   0 
   5   2   7   28.37    4.51   0 
   5   5   4 1350.39   10.76   0 
   6   7  -6  126.44    9.54   0 
   8   4   8   11.95    4.35   0 
   8   7   5   27.72    4.59   0 
   9   6   7    4.88    4.56   0 
   9   7   6  124.82    5.22   0 
   9   9   2   50.95    4.74   0 
  10  10  -1   35.37    6.20   0 
  -2 -11  -7    7.73    5.54   0 
  -2 -11  -6    0.31    5.64   0 
  -2 -11  -5   17.07    5.74   0 
  -2 -10  -9    3.18    4.67   0 
  -2 -10  -3  250.46    7.37   0 
  -2  -8  -1  102.59    5.71   0 
  -2  -6  -9   42.35    4.64   0 
  -2  -6  -1  632.06    9.89   0 
  -2  -4  -5  512.94    7.84   0 
  -2  -4  -4   71.80    5.86   0 
  -1  -7 -12    5.72    4.57   0 
  -1  -5 -11    8.40    4.16   0 
  -1  -4 -10   31.15    5.01   0 
  -1  -2  -7  457.76    8.23   0 
   0  -9   2    6.88    6.73   0 
   0  -1  -9    9.42    4.79   0 
   1   0 -10    4.02    5.17   0 
   1   1  -8   26.40    6.38   0 
   1   2  -1 2663.35   36.60   0 
   2  -4   6  206.51   11.58   0 
   2   0 -12   12.61    5.46   0 
   4   3 -11   63.50    8.39   0 
   4   4   4  867.51    9.34   0 
   4   5   2  552.29    8.51   0 
   5   0   8  841.23   10.99   0 
   5   6   2  265.40    6.19   0 
   6   2   8   63.95    6.10   0 
   6   7   2  301.22    6.97   0 
   7   7   4  123.93    5.15   0 
   7   8  -5  131.75    8.21   0 
   7   8   1   41.07    4.49   0 
   8   2   9   15.32    4.86   0 
   8   9  -2    0.94    5.77   0 
   8   9  -1  286.65    7.20   0 
   9   5   8   -3.81    4.19   0 
   9   8   5  106.20    6.03   0 
  10   7   7   41.71    4.81   0 
  10   9   4    9.62    4.30   0 
  10  10   0    6.19    4.36   0 
  -2 -10  -8   -1.75    4.27   0 
  -2  -9  -9    2.85    4.42   0 
  -2  -9  -2   83.42    4.90   0 
  -2  -6  -8   47.27    4.57   0 
  -2  -5  -7    6.70    4.53   0 
  -2  -5  -2  195.05    7.60   0 
  -1  -8   1  293.01    8.72   0 
   0 -10   1    0.12    6.29   0 
   0  -7   3  127.73    9.67   0 
   0  -4 -12    6.28    4.49   0 
   1  -9   3   -0.04    7.89   0 
   1  -1 -11    3.26    5.34   0 
   1  -1   4   15.52    7.08   0 
   2  -3   6  133.93    8.04   0 
   2   0   5   -1.27    5.67   0 
   3   2   5  146.41    7.08   0 
   3   3  -9  332.11   11.49   0 
   5   5  -9   21.09   11.29   0 
   6   4   7  107.65    6.14   0 
   6   5   6   25.91    4.23   0 
   7   1   9   25.58    5.95   0 
   8   6   7  153.43    6.20   0 
   8   8   4   20.67    5.40   0 
   8   9  -3   74.71    6.03   0 
   8   9   0   13.50    5.80   0 
   9   9   3  128.87    4.96   0 
  10   8   6  159.86    5.62   0 
  10  10   1    7.47    4.36   0 
  -2 -10  -7   12.76    4.23   0 
  -2 -10  -6  644.97    8.09   0 
  -2 -10  -5    0.17    4.09   0 
  -2 -10  -4  220.92    6.09   0 
  -2  -9  -8    9.58    4.30   0 
  -2  -9  -3  243.73    6.96   0 
  -2  -5  -6  799.69    8.72   0 
  -1 -11  -2    8.83    5.09   0 
  -1  -7 -11  386.67    7.69   0 
  -1  -6 -11   16.98    4.54   0 
  -1  -3  -8  116.58    5.87   0 
  -1  -2  -6  164.47    7.17   0 
   0  -3 -11  170.12    5.82   0 
   0   0  -6 1512.01   15.25   0 
   1  -4   5  127.83   14.68   0 
   1  -2 -12  103.16    6.03   0 
   1   2  -4  333.45   14.58   0 
   2   3   1   87.43    7.08   0 
   3  -3   7   67.18    7.23   0 
   3  -2   7  225.04    8.38   0 
   3   1 -12    4.67    5.50   0 
   3   3   4 6174.05   24.39   0 
   3   4   2 1113.20   11.65   0 
   4   1   7  101.08    5.52   0 
   5   1   8   84.65    6.20   0 
   7   4   8  100.08    5.08   0 
   7   8   2   63.61    4.65   0 
   8   3   9    3.18    4.31   0 
   8   5   8   86.35    5.09   0 
   8   7   6    4.49    4.30   0 
   8   9  -4   29.81    6.44   0 
   8   9   1   55.57    5.86   0 
   9   7   7   53.36    5.78   0 
  10  10   2    0.72    4.55   0 
  -2  -9  -7  113.09    5.09   0 
  -2  -8  -8   34.61    4.49   0 
  -2  -7  -2    5.68    5.12   0 
  -2  -6  -2   95.50    5.75   0 
  -2  -5  -5  739.39    8.66   0 
  -2  -5  -4 1352.18   11.96   0 
  -1  -9   0  324.56    8.05   0 
  -1  -8 -11    0.57    4.72   0 
  -1  -5 -10    9.93    4.42   0 
  -1  -4  -9  163.32    5.32   0 
   0  -5 -12   68.09    5.15   0 
   0  -1  -8   98.67    6.44   0 
   1   1   2  328.37   10.84   0 
   2  -2   6  280.41    9.17   0 
   3  -4   7   28.87    8.23   0 
   4   4  -9    1.94    8.26   0 
   4   5   3 1559.76   12.81   0 
   5   5   5   20.93    4.54   0 
   5   6   3 2145.27   13.34   0 
   6  -1   9    3.69    5.35   0 
   6   0   9   28.68    5.95   0 
   6   3   8  239.85    6.05   0 
   6   6   5   29.00    4.52   0 
   6   7   3  307.79    6.35   0 
   7   2   9    6.51    4.43   0 
   7   7   5    0.18    4.31   0 
   9   6   8   -1.29    4.14   0 
   9   8   6  120.84    5.47   0 
   9   9   4    5.44    4.46   0 
  -2  -9  -6   37.92    4.24   0 
  -2  -9  -5  152.17    5.38   0 
  -2  -8  -7   12.46    4.49   0 
  -2  -8  -6  414.78    7.58   0 
  -2  -8  -3    1.27    4.09   0 
  -2  -7  -7   65.67    4.65   0 
  -2  -6  -6   81.89    4.83   0 
  -2  -6  -3  216.08    6.99   0 
  -1 -11  -3   17.88    4.56   0 
  -1  -9 -10   -2.19    4.92   0 
  -1  -7   1  156.39    7.18   0 
  -1  -6 -10  191.91    5.69   0 
  -1  -4   1  535.72   12.72   0 
  -1  -2  -5 1491.17   13.96   0 
   0  -6 -12    0.89    5.44   0 
   3  -1   7    3.11    5.47   0 
   4   3   6   24.90    4.40   0 
   4   4   5  956.30   10.18   0 
   7   8   3   57.14    4.66   0 
   8   4   9   12.16    4.52   0 
   8   8   5   -0.38    4.10   0 
   8   9   2   66.34    5.18   0 
   9  10  -2   20.20    5.82   0 
   9  10   0   35.50    6.28   0 
  10   8   7    5.11    4.70   0 
  10  10   3   56.78    4.91   0 
  -2  -8  -4  299.18    6.04   0 
  -2  -7  -6  123.67    5.20   0 
  -2  -7  -5  271.24    6.20   0 
  -2  -7  -4  319.45    6.21   0 
  -2  -7  -3   84.58    4.87   0 
  -2  -6  -5  137.26    5.20   0 
  -2  -6  -4  243.83    6.20   0 
  -1 -11  -6   17.47    4.62   0 
  -1 -11  -5   52.87    4.86   0 
  -1 -11  -4    7.14    4.51   0 
  -1 -10  -2    9.01    5.44   0 
  -1  -8 -10   -2.40    4.36   0 
  -1  -7 -10    1.63    4.22   0 
  -1  -5  -9   23.00    4.38   0 
  -1  -3  -7 2091.56   13.58   0 
   0  -4 -11    6.94    3.89   0 
   0  -3 -10   22.57    4.83   0 
   0  -2  -9   31.10    5.73   0 
   1  -7   4   40.59    9.65   0 
   1  -3   5  449.64   14.78   0 
   1   0  -9    4.24    5.38   0 
   2  -1 -12  127.19    6.88   0 
   2   0 -11  146.30    6.64   0 
   4  -3   8   75.60    7.18   0 
   4  -2   8  177.99    7.47   0 
   4  -1   8   15.02    5.37   0 
   4   2   7  109.14    6.37   0 
   4   6  -2   47.71    6.08   0 
   4   6  -1  160.79    6.99   0 
   5   2   8    4.10    4.31   0 
   5   7  -1    2.30    4.28   0 
   5   7   0   -0.09    5.49   0 
   6   5   7  176.92    6.41   0 
   6   7   4  572.95    8.09   0 
   7   3   9   25.42    4.64   0 
   7   5   8    8.23    5.09   0 
   7   8  -6    3.05    7.52   0 
   8   7   7   22.63    5.38   0 
   8   9  -5    6.60    6.94   0 
   8   9   3   17.29    4.94   0 
   9   9   5   14.67    5.35   0 
   9  10  -3   17.71    5.69   0 
  10   9   6   -0.17    4.49   0 
  10  10   4   -1.62    5.16   0 
  -1 -10  -8   12.47    4.37   0 
  -1  -9  -9   11.18    4.23   0 
  -1  -9  -1    6.31    5.25   0 
  -1  -8   0  449.39    9.00   0 
  -1  -6  -9    4.07    4.97   0 
  -1  -6   1   11.23    5.48   0 
  -1  -5   1 1712.92   18.14   0 
  -1  -4  -8  582.01    7.71   0 
  -1  -2  -2   -0.32    7.22   0 
   0 -10   0  130.92    6.82   0 
   0  -8   2    1.68    6.81   0 
   0  -5 -11    3.99    5.17   0 
   0   0  -5 4444.66   26.15   0 
   1  -2 -11    3.46    5.59   0 
   1  -1 -10   35.92    5.63   0 
   1   1  -7    5.23    5.35   0 
   2  -1   6   92.80    6.78   0 
   2   2  -8   98.51    7.09   0 
   2   3   2 3005.04   20.42   0 
   3   4   3   15.86    4.87   0 
   4   0   8   24.40    5.54   0 
   4   6  -3  138.94    7.83   0 
   5   6   4   -1.91    4.13   0 
   5   7  -3  119.58    7.30   0 
   6   2   9   -2.25    5.33   0 
   6   4   8  401.31    6.75   0 
   6   6   6    9.21    4.34   0 
   6   8  -2    8.88    5.10   0 
   6   8  -1   14.81    4.46   0 
   6   8   0  129.91    6.52   0 
   7   7   6  234.32    5.60   0 
   7   8   4  277.79    5.97   0 
   8   5   9    5.43    5.50   0 
   9   7   8   11.32    4.58   0 
   9   8   7  139.20    5.20   0 
   9  10   2    5.04    4.22   0 
  -1 -10  -7    5.04    4.57   0 
  -1 -10  -6   40.21    5.47   0 
  -1 -10  -3   62.31    4.83   0 
  -1  -8  -9   18.45    4.71   0 
  -1  -7  -9   -0.15    4.06   0 
  -1  -3  -6  744.25    9.80   0 
  -1  -3   0 1629.48   19.30   0 
  -1  -2  -3 2952.46   20.40   0 
   0  -9   1  187.45    8.18   0 
   0  -6 -11  133.36    6.13   0 
   0  -6   3    3.29    7.12   0 
   0  -1  -7  322.26    7.84   0 
   1  -4 -12   53.96    6.06   0 
   1   2   0 1181.37   20.18   0 
   2   1   5 1296.98   13.69   0 
   3   0   7   34.43    5.73   0 
   3   2 -10   16.19    6.24   0 
   3   5  -2 2639.20   23.19   0 
   3   5  -1 1351.72   15.02   0 
   4   6   1   80.01    6.21   0 
   5   4   7   12.32    4.14   0 
   5   7   1   12.15    4.09   0 
   6   8  -3   31.56    6.33   0 
   7   4   9  327.66    6.56   0 
   8   8   6  123.99    4.98   0 
   8   9   4   11.28    4.04   0 
   9  10   3    6.03    4.15   0 
  10  10   5    6.67    4.48   0 
  -1 -10  -5  122.96    5.30   0 
  -1 -10  -4    6.28    4.29   0 
  -1  -9  -2    1.44    5.47   0 
  -1  -5  -8   62.45    4.63   0 
  -1  -4  -7   21.29    4.33   0 
   0  -7 -11   30.96    4.62   0 
   2   2   4  977.57   11.41   0 
   3   0 -12   28.49    6.13   0 
   3   2   6  212.74    6.20   0 
   3   3   5  332.13    7.18   0 
   3   5   0 2470.40   18.65   0 
   4  -4   8    3.67    8.54   0 
   5  -2   9    6.33    6.85   0 
   5  -1   9    1.43    5.45   0 
   5   0   9  103.12    6.59   0 
   5   3   8    6.70    4.16   0 
   5   7   2  949.95   10.07   0 
   6   7   5  644.78    7.88   0 
   6   8   2  580.41    8.40   0 
   7   2  10   11.17    5.63   0 
   7   9  -2  310.82    8.08   0 
   7   9  -1    1.16    4.20   0 
   7   9   0   52.89    4.97   0 
   7   9   1   47.68    5.66   0 
   9   9   6  306.57    6.43   0 
  -1  -9  -7   46.53    4.46   0 
  -1  -9  -6  113.03    5.74   0 
  -1  -8  -1   13.55    5.87   0 
  -1  -7  -8  321.73    6.18   0 
  -1  -6  -8    2.81    4.19   0 
  -1  -3  -5  581.18    9.41   0 
   0 -10  -1    3.77    5.77   0 
   0  -5 -10  255.97    6.72   0 
   0  -3  -9   29.89    4.26   0 
   0   0  -4  205.53    9.00   0 
   1  -5 -12   51.56    4.52   0 
   1  -3 -11   17.62    5.38   0 
   1  -2   5  898.39   16.57   0 
   2  -2 -12   52.11    6.09   0 
   3  -5   7    5.00   11.86   0 
   3   1 -11   10.94    5.34   0 
   3   5  -3 1264.42   19.80   0 
   4   1   8  194.83    6.19   0 
   4   3   7    5.20    4.82   0 
   4   4   6   12.71    4.40   0 
   4   6   2  580.27    8.93   0 
   5   1   9  580.32    9.39   0 
   5   7  -4  101.47    8.21   0 
   7   6   8    1.56    4.29   0 
   7   8   5  311.51    6.16   0 
   7   9   2  177.25    6.31   0 
   8   6   9   11.30    4.76   0 
   8   7   8   99.18    5.00   0 
   8   9   5    9.49    5.20   0 
   9   8   8    2.01    5.48   0 
   9  10   4   11.68    4.46   0 
  -1  -9  -5   86.27    4.98   0 
  -1  -9  -3   38.14    4.59   0 
  -1  -5  -7 1336.93   10.60   0 
  -1  -4  -6   84.06    5.80   0 
   0  -9  -9   43.40    5.67   0 
   0  -8 -10    9.01    4.48   0 
   0  -7 -10    3.26    4.18   0 
   0  -6 -10   12.23    4.25   0 
   1  -9   2   59.45    7.23   0 
   1  -8   3    8.20    7.22   0 
   1  -2 -10   -0.41    5.27   0 
   1   0  -8 1631.80   14.23   0 
   1   0   4  544.99   11.47   0 
   2  -1 -11   34.48    5.65   0 
   2   0   6  513.83    9.68   0 
   2   1  -9   56.36    5.72   0 
   3   4   4   10.53    4.41   0 
   4   3 -10   88.27    7.61   0 
   4   6  -4  487.21   13.79   0 
   5   7   3  512.20    7.24   0 
   6   6   7    0.72    4.25   0 
   6   8  -4  524.19   12.12   0 
   6   8   3  245.46    5.82   0 
   7   3  10   19.81    4.48   0 
   7   5   9    3.03    3.97   0 
   7   9  -3  225.89    7.63   0 
   8   8   7   26.15    4.55   0 
   8  10  -1   26.65    5.74   0 
   8  10   0  107.23    5.49   0 
   8  10   1   15.99    4.39   0 
  -1  -8  -6    4.03    4.38   0 
  -1  -8  -2  939.69   10.81   0 
  -1  -7  -7   11.68    4.21   0 
  -1  -6  -7   37.78    4.65   0 
  -1  -6   0  200.72    7.29   0 
  -1  -4   0 2055.87   19.40   0 
  -1  -3  -4  635.26    9.10   0 
  -1  -3  -1 7908.18   35.48   0 
   0 -10  -7    7.64    4.46   0 
   0 -10  -2  235.98    7.90   0 
   0  -9   0  247.08    7.69   0 
   0  -4  -9    3.88    4.21   0 
   0  -1  -6  919.02   11.58   0 
   0  -1   2  223.50   16.78   0 
   1  -4 -11    7.34    4.06   0 
   2  -8   4   57.94    9.40   0 
   2   0 -10  124.34    6.46   0 
   2   3   3    8.01    5.36   0 
   4   1 -12   78.79    6.35   0 
   4   2   8  329.96    7.56   0 
   4   5   5  106.89    5.16   0 
   4   6   3  175.38    6.80   0 
   5   2   9  126.49    6.50   0 
   5   4   8   52.18    5.43   0 
   5   5   7   33.60    4.35   0 
   6   1  10  135.45    6.91   0 
   6   4   9    3.21    4.12   0 
   6   7   6   44.74    4.46   0 
   7   8   6    3.64    4.24   0 
   8   5  10    0.75    4.49   0 
   8  10  -2  269.75    8.00   0 
   8  10   2  353.98    6.65   0 
   9   9   7   30.28    4.76   0 
   9  10   5   88.34    5.28   0 
  -1  -8  -4   -0.63    4.41   0 
  -1  -8  -3  259.92    6.17   0 
  -1  -7  -1    3.49    4.35   0 
  -1  -6  -6  196.69    5.63   0 
  -1  -5   0   50.47    6.14   0 
  -1  -4  -5   19.16    4.47   0 
  -1  -3  -3 2050.08   15.74   0 
  -1  -3  -2 3637.09   22.81   0 
   0 -10  -6    5.50    4.86   0 
   0 -10  -3   43.14    5.75   0 
   0  -9  -8    6.40    4.57   0 
   0  -8  -9   25.11    4.63   0 
   0  -8   1   12.02    5.98   0 
   0  -7   2    3.38    6.11   0 
   0  -5  -9   61.47    5.64   0 
   0  -5   3   53.31    8.89   0 
   0  -3  -8    7.55    5.04   0 
   1 -10   0    3.46    5.44   0 
   1  -6 -11    5.74    5.21   0 
   1  -5 -11   13.06    4.16   0 
   1   1  -6  372.11    9.39   0 
   3   3  -8   93.62    7.47   0 
   4   2 -11   44.41    5.79   0 
   5   6   6  228.78    5.96   0 
   5   7   4  253.91    6.81   0 
   6   2  10    6.15    5.58   0 
   6   8   4  130.01    5.21   0 
   7   4  10   22.70    4.73   0 
   7   9   4   47.71    5.42   0 
   8   7   9   17.07    5.38   0 
   8   9   6   10.48    4.60   0 
   8  10   3   15.62    4.31   0 
   9  11   1   30.26    5.73   0 
  -1  -7  -5 1623.47   11.52   0 
  -1  -7  -2  163.82    6.56   0 
   0 -10  -5   96.27    5.38   0 
   0 -10  -4   13.11    4.52   0 
   0  -9  -7  275.04    7.13   0 
   0  -7  -9   20.38    4.35   0 
   0  -6  -9   22.27    4.15   0 
   0  -2  -7  429.94    7.44   0 
   0   0  -3 4299.85   32.10   0 
   1  -3 -10    8.13    5.23   0 
   1   2  -3  190.12   16.51   0 
   2  -4 -12   15.83    4.78   0 
   2   2   5 1092.62   12.20   0 
   3  -1 -12    4.65    4.49   0 
   3   3   6   13.25    4.52   0 
   5   3   9   42.63    5.61   0 
   5   4 -10   45.55    7.36   0 
   7   6   9  146.61    5.23   0 
   7   7   8    2.84    4.48   0 
   7   9  -4   51.47    6.94   0 
   8   6  10   93.28    6.33   0 
   8   8   8    1.53    4.31   0 
   8  10  -3    3.46    5.44   0 
   9   9   8  176.50    6.09   0 
   9  10   6    9.52    4.32   0 
   9  11   2   25.12    4.78   0 
  -1  -7  -4   64.66    4.78   0 
  -1  -7  -3 1168.88   10.48   0 
  -1  -6  -1   58.84    5.09   0 
  -1  -5  -5  162.56    5.56   0 
  -1  -4  -4    5.46    4.52   0 
  -1  -4  -1   79.28    6.13   0 
   0  -9  -1    8.10    4.21   0 
   0  -4  -8  312.94    6.89   0 
   1  -1   5   10.18    6.63   0 
   2  -5 -12   85.90    5.40   0 
   2  -2 -11  304.24    6.75   0 
   2   1   6  208.31    7.32   0 
   2   2  -7    1.84    6.01   0 
   2   3  -5  182.10   12.67   0 
   2   4  -1  503.12   11.36   0 
   2   4   0 2257.70   19.74   0 
   3  -2   8  104.49    7.29   0 
   3  -1   8   -0.16    5.05   0 
   3   0 -11   33.34    5.70   0 
   3   2   7  690.56    8.75   0 
   3   4  -6   52.40   10.31   0 
   3   4   5  883.74    9.53   0 
   3   5   3 2274.28   15.04   0 
   4  -1   9   17.36    5.43   0 
   4   0   9   15.90    5.76   0 
   4   3   8   -0.04    4.85   0 
   4   5   6    2.74    4.11   0 
   5   3 -11  128.11    8.40   0 
   6   3  10    0.47    4.41   0 
   6   7   7  213.59    5.67   0 
   6   8   5  174.14    5.54   0 
   7   5  10    8.04    5.53   0 
   7   8   7   24.02    4.52   0 
   7   9   5  402.51    6.57   0 
   9  11   3    3.74    4.56   0 
  -1  -6  -4  664.03    8.38   0 
  -1  -6  -3 1420.70   11.63   0 
  -1  -6  -2  470.00    7.89   0 
  -1  -5  -1    2.50    4.99   0 
  -1  -4  -3 1190.53   11.51   0 
  -1  -4  -2  397.57    8.23   0 
   0  -9  -6    3.00    4.07   0 
   0  -9  -5   24.31    4.99   0 
   0  -9  -2  229.22    7.13   0 
   0  -8  -7    1.64    4.10   0 
   0  -7  -8    2.61    3.94   0 
   0  -6  -8  397.47    6.66   0 
   0  -1  -5  137.88    7.29   0 
   1 -10  -1   91.14    5.49   0 
   1  -9   1   58.46    6.16   0 
   1  -7 -10  270.71    6.21   0 
   1  -5 -10  190.41    6.19   0 
   1  -4 -10   -3.25    3.74   0 
   1  -2  -9   48.01    4.43   0 
   1   0  -7  669.39   10.15   0 
   2  -1 -10  337.67    7.85   0 
   2   3   4  872.38   10.16   0 
   2   4   1 2106.36   17.21   0 
   3  -2 -12   47.50    5.64   0 
   3   0   8    4.81    5.43   0 
   3   1 -10  110.42    6.29   0 
   3   2  -9    3.64    5.80   0 
   4  -2   9  291.03    9.42   0 
   4   1   9  552.47    9.53   0 
   5   5   8   13.17    4.39   0 
   8  10   5  203.33    5.76   0 
   9  10   7    3.54    4.60   0 
   9  11   4    5.24    4.30   0 
  -1  -5  -3  221.50    6.43   0 
  -1  -5  -2   54.10    5.47   0 
   0  -9  -4    5.78    3.71   0 
   0  -9  -3   44.49    4.82   0 
   0  -8   0   37.34    5.52   0 
   0  -4   3  658.04   19.74   0 
   0  -3  -7    2.47    4.26   0 
   0   0  -2 2501.94   29.73   0 
   1 -10  -6    6.24    4.24   0 
   1 -10  -2  114.04    6.88   0 
   1  -9  -8  162.20    5.44   0 
   1  -8  -9    0.93    4.27   0 
   1  -1  -8   -3.09    4.70   0 
   2  -2   7  265.37    9.11   0 
   2  -1   7  148.55    7.49   0 
   2   4  -2 1187.45   19.72   0 
   3  -3   8    8.41    7.47   0 
   4   0 -12   90.53    6.76   0 
   5  -1  10    3.31    6.35   0 
   5   0  10   35.88    5.84   0 
   5   1  10  174.85    7.03   0 
   5   4   9   41.02    4.58   0 
   5   6   7  443.14    6.80   0 
   5   8   0   85.11    6.39   0 
   5   8   1    8.65    5.60   0 
   6   4  10   41.02    4.58   0 
   6   8   6  272.16    6.59   0 
   6   9   0  130.19    6.21   0 
   7   7   9   41.82    4.55   0 
   7   9   6   27.73    4.35   0 
   8  10  -4   65.31    7.43   0 
   0  -7  -7  173.20    5.43   0 
   0  -6   2    2.97    6.19   0 
   0  -4  -7    3.52    5.05   0 
   0  -2   3  415.77   22.56   0 
   1 -10  -5    9.56    4.54   0 
   1 -10  -4   73.81    4.92   0 
   1 -10  -3    5.69    4.37   0 
   1  -8   2   37.49    6.77   0 
   1  -7  -9   43.37    5.67   0 
   1  -6   4  271.08   12.32   0 
   1  -3  -9  165.49    5.42   0 
   1   2   2    0.35    7.21   0 
   2  -9   2   62.41    7.43   0 
   2  -6 -11   19.87    4.46   0 
   2  -4 -11   44.36    4.60   0 
   2  -3   7   22.47    8.06   0 
   2   0  -9    3.37    4.18   0 
   2   1  -8    6.62    5.35   0 
   2   4   2  360.83    8.85   0 
   3  -3 -12    2.17    4.49   0 
   3   1   8   42.34    5.91   0 
   4   2   9  420.70    8.15   0 
   4   6   5  150.63    5.40   0 
   5   2  10  137.07    6.52   0 
   5   7  -5   70.64   10.42   0 
   5   7   6   13.10    5.26   0 
   5   8  -1  499.59    9.26   0 
   5   8   2  441.30    7.28   0 
   6   8  -5  134.39    9.74   0 
   6   9  -1    5.72    5.47   0 
   6   9   3  132.98    6.04   0 
   7   6  10    1.22    4.45   0 
   7   8   8   39.85    4.48   0 
   7  10   0   10.25    5.52   0 
   7  10   1  750.36    9.28   0 
   7  10   2   11.44    4.38   0 
   8   9   8   11.12    4.32   0 
   8  10   6   96.31    5.04   0 
   0  -8  -5    3.88    4.10   0 
   0  -8  -1   15.31    4.55   0 
   0  -7  -6    4.44    5.29   0 
   0  -6  -7   97.65    5.15   0 
   1  -9  -7    3.40    4.31   0 
   1  -9   0  180.91    7.30   0 
   1  -8  -8   54.20    4.88   0 
   1  -6  -9  187.77    5.52   0 
   1  -4  -9   26.41    5.40   0 
   1   1   4  782.44   11.48   0 
   2  -2 -10   18.90    5.38   0 
   2   0   7   70.27    5.97   0 
   3  -1 -11   28.96    5.80   0 
   3   3   7  101.37    4.99   0 
   3   4   6 1150.01   10.20   0 
   4  -3   9   11.61    7.96   0 
   4   1 -11   45.75    6.43   0 
   4   4  -8    1.08    7.06   0 
   4   4   8   16.69    4.19   0 
   4   5   7   44.40    4.70   0 
   4   7   0   24.33    4.85   0 
   4   7   2  129.82    5.31   0 
   5   8   3  211.22    5.64   0 
   6   2  11   20.87    6.04   0 
   6   5  10    4.96    5.05   0 
   6   7   8   80.63    4.87   0 
   6   9   4  829.70    8.92   0 
   7  10  -1    4.68    5.18   0 
   7  10   3   35.59    4.75   0 
   8  11   2   22.22    5.47   0 
   0  -8  -4  164.26    5.28   0 
   0  -8  -3  436.62    7.52   0 
   0  -3  -6   24.21    4.73   0 
   0  -1  -4   30.81    6.63   0 
   1  -9  -6   71.99    4.85   0 
   1  -7   3   23.37    6.74   0 
   1  -2  -8 1067.26   10.65   0 
   1   0   5  907.24   12.65   0 
   1   1  -5   18.30    5.62   0 
   2  -7 -10   30.46    4.77   0 
   2   2   6  953.77   10.47   0 
   2   3   5   57.33    6.13   0 
   3   2   8   26.26    5.59   0 
   3   5  -4   24.46   11.91   0 
   4  -1 -12   40.90    4.51   0 
   4   6   6   21.82    5.53   0 
   4   7  -1   54.40    5.67   0 
   4   7   3    3.36    4.14   0 
   5   3  10   -2.96    4.52   0 
   5   5   9  409.98    6.50   0 
   5   8  -2  522.13   10.17   0 
   5   8   4  477.85    7.06   0 
   6   3  11   17.09    5.63   0 
   6   9  -2  421.67    8.83   0 
   7   9  -5   58.48    8.79   0 
   7   9   7  113.89    4.93   0 
   8  10   7   26.01    4.28   0 
   8  11   0   99.55    5.64   0 
   8  11   3   31.27    4.66   0 
   8  11   4   44.48    5.55   0 
   0  -7  -5   22.07    4.16   0 
   0  -7   0   13.15    5.67   0 
   0  -6  -6   13.31    4.36   0 
   0  -5  -6 1701.52   12.42   0 
   0  -4  -6  160.10    5.59   0 
   0  -2  -5  264.20    7.14   0 
   1  -9  -5    3.81    4.11   0 
   1  -9  -1    0.89    4.28   0 
   1  -8  -7    3.90    4.08   0 
   2  -8  -9   30.28    4.56   0 
   2  -8   3   17.09    6.74   0 
   2  -6 -10   99.54    5.10   0 
   2  -3 -10   15.45    4.33   0 
   2   4   3  553.64    8.57   0 
   3  -2 -11  332.94    7.55   0 
   3   0 -10  198.97    7.03   0 
   4   2 -10   42.99    5.63   0 
   4   3  -9    4.21    5.80   0 
   4   3   9   30.42    4.53   0 
   5   7   7   82.78    4.65   0 
   6   9   5    7.74    4.06   0 
   7   7  10   41.44    4.84   0 
   7   8   9   20.67    4.47   0 
   7  10   5   95.54    4.99   0 
   8   9   9    5.15    4.41   0 
   8  11  -1   19.56    5.72   0 
   0  -7  -4  360.55    6.57   0 
   1  -9  -4   15.69    4.48   0 
   1  -9  -3   36.65    4.60   0 
   1  -9  -2   22.22    4.62   0 
   1  -8   1  217.14    7.37   0 
   1  -6  -8   38.65    4.42   0 
   1  -3  -8  164.12    5.36   0 
   1  -1  -7  774.30    9.38   0 
   1   0  -6  377.99    8.61   0 
   1   2   3 2924.06   20.33   0 
   2  -9  -7   44.81    4.73   0 
   2  -9   1   76.80    6.20   0 
   2  -7  -9  222.18    6.50   0 
   2  -4 -10  122.04    5.11   0 
   2  -1  -9   66.80    5.01   0 
   3  -3 -11   48.13    5.60   0 
   3   6   0 1707.72   15.07   0 
   3   6   1  426.30    7.73   0 
   3   6   2  633.87    9.29   0 
   4  -2 -12    1.54    4.31   0 
   4   7  -2   63.41    6.75   0 
   4   7   4    2.47    4.11   0 
   5   2 -11   48.40    6.12   0 
   5   4  10    4.71    4.56   0 
   6   4  11   21.24    4.58   0 
   6   6  10    5.81    4.16   0 
   6   7   9   67.54    4.52   0 
   7   9   8    5.78    4.35   0 
   8  11   5   63.29    4.99   0 
   0  -7  -2   68.55    5.15   0 
   0  -7  -1  402.38    7.66   0 
   0  -6  -5   -1.21    4.33   0 
   0  -6   1    3.11    5.37   0 
   0  -3  -5 1848.18   13.31   0 
   1  -5  -8  211.48    5.64   0 
   1  -4  -8  274.93    5.92   0 
   2  -8  -8    1.03    4.18   0 
   2   4   4   74.76    5.09   0 
   3  -4 -11   22.64    4.74   0 
   3   1  -9    5.10    5.01   0 
   3   3   8   46.05    5.53   0 
   3   4   7  127.89    4.98   0 
   3   6   3  232.57    6.28   0 
   4   0 -11  187.37    7.23   0 
   4   0  10   -2.25    5.14   0 
   4   1  10  115.24    6.30   0 
   4   4   9    3.13    4.92   0 
   4   5   8    3.10    4.25   0 
   6   8   8   53.15    4.66   0 
   6   9   6  454.54    6.75   0 
   7  10   6  176.90    5.32   0 
   8  11  -2    0.04    5.36   0 
   0  -6  -4  192.78    5.49   0 
   0  -5  -5  239.55    6.11   0 
   0  -5   2 1605.40   18.76   0 
   0  -4  -5 2165.82   13.41   0 
   0  -1  -3   58.59    8.27   0 
   1  -8  -5   67.57    4.27   0 
   1  -8   0  122.71    6.22   0 
   1   1   5  173.37    7.62   0 
   2  -9   0   16.55    5.87   0 
   2  -7   4    6.84    6.90   0 
   2  -6  -9   57.01    4.47   0 
   2  -2  -9   36.29    4.45   0 
   2   0  -8   27.72    4.69   0 
   2   3   6  247.98    7.24   0 
   3  -4   8    6.01   10.49   0 
   3  -1 -10  106.46    6.22   0 
   3  -1   9   70.91    6.04   0 
   3   0   9   21.58    5.31   0 
   3   1   9  204.06    6.89   0 
   3   3  -7    1.36    6.53   0 
   3   5   6  650.93    8.08   0 
   3   6  -1    1.78    5.46   0 
   4  -1  10   49.48    6.60   0 
   4   2  10   41.65    5.69   0 
   4   7   5  151.12    5.33   0 
   5   1  11   26.05    5.86   0 
   5   2  11   13.03    5.64   0 
   5   3 -10  145.82    7.66   0 
   5   5  10  258.80    6.82   0 
   5   6   9    2.17    3.88   0 
   5   7   8   17.40    4.27   0 
   5   8  -3  166.66    8.49   0 
   5   8   6  194.73    5.49   0 
   6   5  11   18.93    4.51   0 
   6   9  -3  166.09    8.23   0 
   7   8  10   60.87    4.59   0 
   7  10  -3   54.40    6.82   0 
   0  -6  -3   10.93    5.44   0 
   0  -6   0  372.69    8.54   0 
   0  -2  -4  103.41    6.17   0 
   1  -8  -4  173.68    5.67   0 
   1  -7  -6   48.29    4.55   0 
   1  -7   2  152.46    7.38   0 
   1  -2  -7   13.75    4.62   0 
   1  -2   6  432.37   11.93   0 
   1  -1   6  365.54   10.07   0 
   1   2   4 1292.63   13.50   0 
   2  -9  -5    3.38    4.50   0 
   2  -9  -4   55.92    6.14   0 
   2  -9  -1  129.08    6.86   0 
   2  -8  -7   28.53    4.64   0 
   2  -7  -8   30.97    4.52   0 
   2  -4  -9   44.74    5.59   0 
   2  -3  -9  134.73    5.11   0 
   2   1  -7   93.26    6.22   0 
   2   2  -6   41.10    6.02   0 
   2   2   7   12.83    4.35   0 
   3  -6 -10   11.94    4.16   0 
   3   2  -8  384.01    8.69   0 
   3   6   4   16.09    4.47   0 
   4  -1 -11   88.29    6.23   0 
   5   3  11  104.71    6.57   0 
   5   5  -8    3.38    7.49   0 
   6   7  10    0.84    4.16   0 
   6   8   9    5.29    5.33   0 
   6   9   7   26.07    4.40   0 
   6  10   2   23.05    5.61   0 
   6  10   3   16.40    5.58   0 
   7   9   9    8.69    4.30   0 
   7  11   2  111.62    6.35   0 
   0  -6  -2   37.83    5.57   0 
   0  -6  -1  390.36    8.22   0 
   0  -3  -4  278.18    7.67   0 
   1  -8  -3    5.35    4.24   0 
   1  -8  -2  112.59    5.24   0 
   1  -8  -1  270.72    6.82   0 
   1  -5  -7    8.74    4.53   0 
   1  -4  -7   11.61    4.44   0 
   1  -3  -7  781.58    8.49   0 
   2  -9  -3  131.51    5.54   0 
   2  -9  -2   63.90    5.17   0 
   2  -8   2   49.58    5.70   0 
   2  -6   5    0.91    9.00   0 
   2  -1   8   79.98    6.92   0 
   2   4   5  520.56    7.71   0 
   3  -7   5    0.86    7.91   0 
   3  -5 -10  191.36    5.63   0 
   3  -2 -10  183.86    5.80   0 
   3  -2   9   13.39    6.33   0 
   3   2   9  219.21    6.34   0 
   3   4   8    8.41    5.14   0 
   4  -4 -11   54.33    5.88   0 
   4  -2 -11   47.39    5.63   0 
   4   1 -10  229.31    7.01   0 
   4   3  10  124.82    5.42   0 
   4   5   9  603.09    8.39   0 
   4   6   8   63.38    5.67   0 
   4   7   6    4.36    4.40   0 
   5   1 -11   12.67    5.70   0 
   5   4  -9  292.93    9.58   0 
   5   8   7   26.05    4.17   0 
   5   9   1   82.52    5.86   0 
   5   9   2   72.44    5.12   0 
   5   9   3   34.63    4.60   0 
   6   6  11   61.18    4.71   0 
   6  10   1  309.70    6.81   0 
   6  10   4   72.45    5.07   0 
   7  11   1   41.44    5.90   0 
   7  11   3   99.31    5.12   0 
   7  11   4   40.11    4.66   0 
   0  -4  -4  620.65    8.43   0 
   1  -7  -5   87.96    4.94   0 
   1  -6  -6   60.51    4.66   0 
   1  -1  -6  224.37    6.61   0 
   1   0   6  976.48   12.35   0 
   2  -8  -6    1.63    4.28   0 
   2  -7  -7    7.80    4.08   0 
   2  -6  -8  381.08    6.69   0 
   2   0   8    8.15    5.52   0 
   3  -3 -10   15.39    4.29   0 
   3   0  -9  182.17    6.63   0 
   3   5   7 1694.27   11.57   0 
   4  -3 -11   -1.43    4.33   0 
   4  -2  10   18.89    7.19   0 
   4   8   2  140.54    6.44   0 
   5   4  11    0.48    4.22   0 
   5   6  10    4.75    4.10   0 
   5   9   0    4.41    5.23   0 
   5   9   4  417.38    6.76   0 
   6   4 -10   37.46    7.02   0 
   6   9   8   67.21    4.56   0 
   6  10   0  258.51    7.27   0 
   6  10   5   -1.00    3.66   0 
   7  11   0    8.21    5.76   0 
   7  11   5   70.92    4.99   0 
   0  -5  -3  832.11    9.61   0 
   0  -5   1  753.73   11.90   0 
   0  -2  -3 1408.66   15.16   0 
   0  -1   3 1143.90   22.12   0 
   1  -7  -4   12.63    5.27   0 
   1  -7   1    4.07    5.21   0 
   1  -3   6  148.85   12.22   0 
   1   3   2 3649.61   22.18   0 
   2  -8  -5   15.32    4.25   0 
   2  -5  -8    4.95    4.20   0 
   2  -2   8   11.06    6.99   0 
   2   1   8    8.84    4.74   0 
   2   3   7  494.60    7.53   0 
   2   5   1  510.24    9.07   0 
   2   5   2  194.30    6.55   0 
   2   5   3  314.11    7.08   0 
   3  -9  -4   11.78    5.72   0 
   3  -8  -7   14.83    4.52   0 
   3  -8   3    3.76    6.68   0 
   3  -7  -8   17.92    5.31   0 
   3   3   9  532.40    7.69   0 
   3   6  -2   31.24    6.72   0 
   4   4  10    3.13    4.25   0 
   4   7  -3  352.83   10.86   0 
   4   7   7   65.92    4.64   0 
   4   8   1  266.90    6.76   0 
   4   8   3   94.89    4.75   0 
   4   8   4  276.43    6.14   0 
   5   5  11    3.67    5.22   0 
   5   8   8    6.33    4.11   0 
   6   8  10   37.44    5.41   0 
   6  10   6   23.27    4.20   0 
   7  11   6    6.61    4.28   0 
   0  -5  -2 3074.59   17.61   0 
   0  -5   0 1336.57   13.91   0 
   0  -4  -3  721.23    9.16   0 
   0  -4   2 1729.10   21.60   0 
   0  -1  -2 6430.17   36.54   0 
   1  -7  -3    8.16    5.12   0 
   1  -6   3    5.05    6.06   0 
   1  -2  -6  354.91    7.89   0 
   1   0  -5  124.41    6.28   0 
   1   1  -4   10.99    6.32   0 
   1   2   5 1456.67   13.19   0 
   1   3   0 1698.70   19.93   0 
   1   3   3 2077.72   16.26   0 
   2  -8  -4   24.44    5.55   0 
   2  -8   1   15.55    5.27   0 
   2  -7  -6  171.39    6.12   0 
   2  -6  -7  224.31    6.46   0 
   2  -4  -8   73.85    4.81   0 
   2  -3  -8    7.44    5.01   0 
   2  -2  -8  426.64    7.03   0 
   2   4  -3  730.41   25.44   0 
   2   4   6   11.91    4.77   0 
   2   5   0 3328.01   21.56   0 
   3  -9  -3   32.03    4.95   0 
   3  -9  -1    0.43    5.83   0 
   3  -6   6    7.18    9.82   0 
   3  -5  -9    3.61    4.16   0 
   3   6   6   44.70    4.58   0 
   4  -5 -10    4.71    4.31   0 
   4   0 -10   -1.92    4.68   0 
   4   2  -9   21.55    5.33   0 
   4   6   9  132.07    6.15   0 
   4   8   0   88.75    6.34   0 
   4   8   5  455.09    7.66   0 
   5   0 -11  106.40    5.62   0 
   5   9   6   23.92    4.48   0 
   6   6  -8    4.87    8.40   0 
   6   7  11  119.79    5.60   0 
   6   9   9   74.13    4.99   0 
   6  10  -1  184.07    7.08   0 
   7  11  -1  103.37    6.34   0 
   0  -5  -1 1540.26   13.60   0 
   0  -3  -3 1256.64   12.37   0 
   1  -7  -2  577.40    8.66   0 
   1  -7  -1   27.01    5.73   0 
   1  -7   0   26.83    5.73   0 
   1  -4  -6  350.25    6.70   0 
   1  -3  -6  186.40    5.83   0 
   1   1   6  737.07   10.10   0 
   2  -8  -3  189.62    6.81   0 
   2  -8   0   36.45    5.47   0 
   2   0  -7  808.95   10.59   0 
   2   2   8  473.72    7.91   0 
   2   5   4 1359.49   11.29   0 
   3  -8  -6   44.05    4.75   0 
   3  -4  -9  108.86    4.95   0 
   3  -1  -9 1076.76   10.62   0 
   3   1  10    6.08    5.47   0 
   3   4   9   62.60    5.46   0 
   3   5   8  446.41    6.84   0 
   3   7   2 3224.28   17.17   0 
   3   7   3    1.72    5.18   0 
   4  -4 -10   30.47    5.40   0 
   4  -1 -10   67.92    6.11   0 
   4   0  11   68.79    7.33   0 
   4   1  11   41.84    6.07   0 
   4   2  11    4.27    4.50   0 
   4   5  10   94.99    5.12   0 
   4   7   8  168.49    5.27   0 
   5  -2 -11  147.24    6.73   0 
   5  -1 -11    3.89    5.50   0 
   5   2 -10  267.94    7.59   0 
   5   3  12    6.52    5.71   0 
   5   9  -1   44.88    5.40   0 
   6  10   7  228.97    5.85   0 
   0  -4  -2    0.61    4.94   0 
   0   0   2 2407.68   29.21   0 
   1  -6  -4    9.11    4.33   0 
   1  -5  -5  113.36    5.37   0 
   1   3   4  604.72    9.00   0 
   2  -8  -2   50.19    4.98   0 
   2  -8  -1    7.67    4.49   0 
   2  -7  -5   22.28    5.09   0 
   2  -7   3   31.78    5.77   0 
   2  -5  -7    6.73    4.36   0 
   2   5   5  722.55    8.51   0 
   3  -8  -5    8.23    5.08   0 
   3  -8   2   54.05    7.25   0 
   3  -7  -7    9.58    4.45   0 
   3  -6  -8    2.95    4.53   0 
   3  -3  -9   30.10    4.17   0 
   3  -2  -9   31.87    4.60   0 
   3   0  10  124.96    6.67   0 
   3   1  -8    9.01    5.39   0 
   3   2  10  514.57    8.92   0 
   3   6   7   80.62    5.14   0 
   3   7   1   94.12    6.28   0 
   3   7   4  186.25    5.35   0 
   4  -7  -8   34.71    4.96   0 
   4  -6  -9   47.51    4.90   0 
   4  -3 -10   42.77    4.55   0 
   4  -2 -10  327.21    6.68   0 
   4   3  -8  353.99    9.03   0 
   4   3  11   86.71    5.20   0 
   5   4  12   84.64    6.35   0 
   5   6  11  118.41    5.21   0 
   5   8   9    5.96    4.26   0 
   5   9   7   10.34    4.22   0 
   6   9  -4  349.66   11.67   0 
   6  10   8   26.78    4.42   0 
   7  10  -4   33.86    8.15   0 
   0  -3  -2  477.80   10.18   0 
   0  -2  -2 1832.41   18.58   0 
   1  -5   4  189.81   10.63   0 
   2  -6  -6   64.36    4.69   0 
   2   3   8  614.07    7.88   0 
   2   4   7  255.77    6.01   0 
   3  -3   9  156.98   10.91   0 
   3  -1  10   26.72    6.39   0 
   3   3  10    6.22    5.37   0 
   3   7   5    2.13    4.31   0 
   4   4  11    2.98    4.06   0 
   4   8  -1 1502.82   14.39   0 
   4   8   7  290.59    6.58   0 
   5   9   8   98.43    5.87   0 
   6   1 -11   63.17    6.21   0 
   6   9  10   25.27    4.53   0 
   6  11   3   12.39    5.12   0 
   6  11   4    3.10    5.09   0 
   7  12   3  201.44    6.93   0 
   7  12   4   67.19    6.06   0 
   0  -4  -1  339.00    8.17   0 
   0  -4   0 1301.84   14.74   0 
   0  -4   1   12.12    5.85   0 
   1  -6  -3   75.12    4.55   0 
   1  -6   2   98.76    6.39   0 
   1  -4  -5   30.21    4.68   0 
   1  -1   7   21.66    6.56   0 
   1   0   7  748.57   11.13   0 
   1   2   6  162.10    6.16   0 
   1   3   5  578.97    9.36   0 
   2  -7  -4    5.47    4.11   0 
   2  -4  -7  976.18    9.30   0 
   2  -1  -7   82.36    4.98   0 
   2   0   9   47.99    6.23   0 
   2   1  -6    4.64    5.59   0 
   2   1   9  797.63   10.44   0 
   2   5  -1 1010.83   14.01   0 
   2   5   6  799.21    8.57   0 
   3  -8  -4    1.77    4.29   0 
   3  -8   1   12.87    5.92   0 
   3  -7  -6   70.04    4.61   0 
   3  -7   4   31.19    7.90   0 
   3  -6  -7  236.75    6.56   0 
   3  -5  -8   96.53    4.81   0 
   3   5   9  367.98    6.61   0 
   3   6   8   21.81    5.37   0 
   3   7   0  439.85    8.56   0 
   4  -7  -7   16.09    5.53   0 
   4  -5  -9   74.65    4.82   0 
   4   1  -9  138.97    6.64   0 
   4   6  10   98.63    4.59   0 
   4   7   9  139.66    5.17   0 
   5  -4 -10   55.78    5.58   0 
   5   5  12   36.98    4.64   0 
   5   7  11    1.00    4.48   0 
   5   8  -4  278.20   12.61   0 
   5   8  10  103.67    4.98   0 
   5  10   4    1.81    4.48   0 
   5  10   5   67.40    5.47   0 
   6   0 -11   17.61    5.93   0 
   6   3 -10  119.50    6.58   0 
   6  10  -2    0.87    5.10   0 
   6  11   5    2.71    4.23   0 
   6  11   6    6.98    5.12   0 
   7   7  -8   20.68    9.25   0 
   7  11  -2    2.34    6.45   0 
   7  12   2   12.43    5.62   0 
   7  12   5   -1.45    4.25   0 
   0   0   3 4231.94   31.92   0 
   1  -6  -2   -0.48    5.11   0 
   1  -5  -4  532.14    7.51   0 
   1  -3  -5  210.50    5.99   0 
   2  -7   2    2.91    5.14   0 
   2  -6  -5   14.68    5.11   0 
   2  -5  -6   71.30    5.84   0 
   2  -3  -7    1.25    4.07   0 
   2  -3   8   24.75    9.41   0 
   2  -2  -7 2361.56   13.84   0 
   2   2   9  196.34    6.68   0 
   3  -8  -3   13.01    4.33   0 
   3  -8  -2   16.29    5.43   0 
   3  -8   0   93.49    6.81   0 
   3  -4  -8  153.68    5.44   0 
   3   0  -8  727.75    9.33   0 
   3   2  -7  103.43    6.25   0 
   3   4  10  203.23    6.59   0 
   4  -8  -5   75.81    5.04   0 
   4  -6  -8   37.60    4.59   0 
   4  -4  -9    7.22    4.34   0 
   4   4  -7   18.57    6.09   0 
   4   5  -6 1268.99   23.80   0 
   4   5  11   19.88    4.44   0 
   5  -3 -10    2.80    5.36   0 
   5   3  -9  164.06    7.03   0 
   5   6  12   59.11    5.88   0 
   5   9  -2    2.65    5.80   0 
   5   9   9    9.30    5.35   0 
   5  10   6   90.09    4.55   0 
   6  11   1   16.51    5.80   0 
   6  11   7    8.41    5.14   0 
   7  12   1    9.52    5.65   0 
   0  -3  -1 1436.87   15.88   0 
   1  -6  -1  209.03    7.15   0 
   1  -6   0  310.51    8.07   0 
   1  -6   1   76.75    6.14   0 
   2  -1   9  218.06    8.60   0 
   2   4   8   31.44    4.46   0 
   2   5   7    6.80    5.84   0 
   2   6   3  217.57    6.16   0 
   2   6   4  248.59    7.01   0 
   3  -7  -5   78.08    4.62   0 
   3  -5   7    5.48   11.24   0 
   3  -3  -8  395.13    6.79   0 
   3  -1  -8   16.34    5.35   0 
   3   7   7   75.41    4.70   0 
   4  -8  -4   26.08    4.65   0 
   4  -3  -9   15.49    5.36   0 
   4   0  -9  189.46    6.84   0 
   4   2  12   15.76    6.06   0 
   4   9   2   42.91    5.58   0 
   4   9   3  434.77    7.10   0 
   4   9   4  106.86    4.91   0 
   4   9   5  126.42    5.04   0 
   5  -5  -9   31.85    4.86   0 
   5  -2 -10   21.88    4.56   0 
   5  -1 -10   78.60    5.89   0 
   5   0 -10   51.78    4.91   0 
   5  10   1  143.08    5.82   0 
   5  10   7   13.97    5.28   0 
   0  -1   4   32.33    7.65   0 
   1  -5  -3 2171.64   14.34   0 
   1  -4  -4  129.76    5.47   0 
   1  -2   7   26.23    7.16   0 
   1   0  -4   75.79    7.05   0 
   1   2   7  475.97    8.30   0 
   1   3   6  743.54    9.05   0 
   1   4   2  386.84    8.16   0 
   1   4   3 1176.14   11.39   0 
   2  -7  -2    5.45    4.53   0 
   2  -7   0   35.63    5.54   0 
   2  -7   1    2.20    4.96   0 
   2  -6   4   -0.74    6.76   0 
   2  -4  -6  990.75   10.23   0 
   2   2  -5 2111.07   21.03   0 
   2   3   9    8.11    4.26   0 
   2   6   2  102.11    5.66   0 
   2   6   5  130.63    5.29   0 
   3  -6  -6   20.09    4.51   0 
   3  -5  -7    0.67    4.24   0 
   3  -2  -8   30.01    4.50   0 
   3   2  11  259.98    7.63   0 
   3   5  10   40.19    5.48   0 
   3   6   9  161.65    5.47   0 
   4  -8  -3    9.14    5.67   0 
   4  -7  -6  157.53    5.36   0 
   4  -6  -7  148.91    5.43   0 
   4  -5  -8   32.62    5.00   0 
   4  -2  -9   41.42    4.50   0 
   4   3  12   39.10    5.16   0 
   4   4  12    1.53    5.52   0 
   4   9   6    1.81    4.40   0 
   5  -6  -8   10.55    4.79   0 
   5   8  11   44.75    4.88   0 
   6  11   0   -0.51    5.64   0 
   6  11   8   25.64    4.78   0 
   0  -3   0  159.24    8.79   0 
   0  -3   2  668.66   17.20   0 
   0  -2  -1    4.11    7.02   0 
   0   0   4  210.56    9.00   0 
   1  -4   5  123.17   14.10   0 
   1   4   4    0.31    4.57   0 
   2  -5  -5    3.32    5.47   0 
   2   0  -6  179.82    6.81   0 
   2   6   1  635.56    9.63   0 
   3  -7  -4   45.99    4.64   0 
   3  -7   3    0.88    5.99   0 
   3  -2  10  171.45    9.65   0 
   3   1  11   81.03    5.21   0 
   3   3  -6   24.45    7.12   0 
   3   3  11   23.17    4.65   0 
   3   7  -1  180.45    7.03   0 
   3   7   8  166.41    5.21   0 
   3   8   4  209.16    5.58   0 
   4  -8  -2   12.66    4.68   0 
   4  -8  -1    2.36    5.71   0 
   4  -8   0   34.03    6.27   0 
   4   2  -8  159.85    6.64   0 
   4   8  -2  195.45    8.33   0 
   4   9   1    5.99    4.30   0 
   4   9   7  332.69    6.07   0 
   5  -4  -9    9.25    4.31   0 
   5   4  -8   12.69    6.07   0 
   5   9  10   -1.87    4.51   0 
   5  10   0  506.29    9.03   0 
   6   2 -10    3.20    4.61   0 
   6   4  -9  344.24    9.42   0 
   1  -5  -2  228.13    7.47   0 
   1  -3  -4 3939.90   18.52   0 
   1   4   1   86.10    6.08   0 
   1   4   5   21.47    4.48   0 
   2  -3  -6  122.15    5.28   0 
   2   4   9    8.84    4.39   0 
   2   5   8  703.07    7.97   0 
   2   6   6   82.44    4.87   0 
   3  -7  -3    7.22    5.49   0 
   3  -4  -7   26.03    4.46   0 
   3   0  11  211.29    7.50   0 
   3   1  -7  101.85    6.30   0 
   3   4  11   27.53    4.49   0 
   3   6  -3  270.67   11.45   0 
   3   8   2   -1.59    5.43   0 
   3   8   5   41.13    4.46   0 
   3   8   6  211.36    6.38   0 
   4  -7  -5  122.22    5.32   0 
   4  -4  -8   61.50    4.58   0 
   4   5  12   78.47    5.16   0 
   4   9   8    0.50    5.28   0 
   5  -6  -7   18.64    5.24   0 
   5  -5  -8    5.13    4.26   0 
   5   2  -9    2.77    4.19   0 
   5  10   9   15.83    5.40   0 
   6  -2 -10  125.39    5.53   0 
   6   1 -10    0.26    5.38   0 
   6  12   5    5.68    5.36   0 
   0  -3   1  279.48   10.03   0 
   0  -2   4    6.78    9.50   0 
   0   1   2 6403.07   36.64   0 
   0   1   3   54.47    7.00   0 
   1  -5   3  353.61   10.08   0 
   1  -4  -3   41.15    6.06   0 
   1  -2  -4   84.93    5.66   0 
   1  -1  -4  599.17    9.70   0 
   1   0   8   45.90    6.00   0 
   1   1   8  170.69    7.36   0 
   1   3   7 2068.04   13.25   0 
   1   4   6   89.39    5.75   0 
   2  -2   9    9.57    7.08   0 
   2  -1  -6 1448.59   12.24   0 
   2   1  10   -2.70    5.44   0 
   2   2  10  457.64    8.75   0 
   2   6   7   72.48    5.02   0 
   3  -6  -5   46.36    4.59   0 
   3  -5  -6   87.59    4.74   0 
   3  -3  -7  438.56    7.59   0 
   3   6  10  131.38    5.18   0 
   3   7   9  729.98    8.07   0 
   3   8   7   27.28    5.16   0 
   4  -7  -4  241.27    6.73   0 
   4  -5  -7    0.52    4.34   0 
   4   6  12   30.18    5.73   0 
   4   9   0  443.17    8.69   0 
   5  -7  -5   29.96    5.64   0 
   5  -3  -9   13.32    4.43   0 
   5  11   4    2.87    5.13   0 
   5  11   6    8.02    5.24   0 
   6  -4  -9   10.68    4.52   0 
   6  -1 -10   38.46    4.89   0 
   6   0 -10    5.91    4.37   0 
   6  10  -3    1.74    7.29   0 
   6  12   3   12.31    5.69   0 
   6  12   4   10.13    4.50   0 
   7   3 -10   15.94    5.83   0 
   7  11  -3    4.66    6.73   0 
   0   1   4   30.32    5.59   0 
   1   2   8  716.05    9.23   0 
   2  -6  -2   17.62    5.29   0 
   2  -6   3    9.73    5.96   0 
   2  -5  -4  682.74    8.31   0 
   2  -4  -5   17.33    4.59   0 
   2   0  10   20.82    5.41   0 
   2   3  -4  287.07   13.96   0 
   2   3  10   19.62    4.49   0 
   2   5   9   76.37    5.60   0 
   3  -7  -2  129.13    5.53   0 
   3  -7  -1   17.58    5.72   0 
   3  -7   2  104.86    6.24   0 
   3  -6   5    4.98    7.03   0 
   3   0  -7   56.19    5.95   0 
   3   5  11  286.98    6.33   0 
   3   8   1   27.72    5.68   0 
   4   1  -8   29.28    5.54   0 
   4   9   9   22.50    4.51   0 
   5  -2  -9   28.17    4.10   0 
   5   1  -9  228.31    6.45   0 
   5  11   3   95.96    4.90   0 
   5  11   7    6.11    4.47   0 
   6  11  -1   71.71    5.93   0 
   6  12   2   77.73    6.32   0 
   7   5  -9  109.93    7.85   0 
   0  -2   0   76.35    9.62   0 
   0  -1   5  592.42   12.69   0 
   0   0   5 4302.15   25.65   0 
   1  -5   2  354.74    9.60   0 
   1  -1   8   38.82    5.84   0 
   1   3   8  111.21    5.73   0 
   1   4   7   21.63    5.29   0 
   2   4  10  133.12    5.99   0 
   2   5  -2  155.50    9.37   0 
   2   6   8   51.17    4.49   0 
   2   7   4  313.50    6.14   0 
   2   7   5  274.53    6.08   0 
   3  -7   0   18.31    4.50   0 
   3  -6  -4  118.23    5.21   0 
   3  -2  -7   40.98    4.45   0 
   3  -1  -7   95.97    4.91   0 
   3  -1  11   -5.50    6.53   0 
   3   2  12   -0.86    5.85   0 
   3   3  12   76.97    6.36   0 
   3   8   8    2.40    4.10   0 
   4  -7  -3   67.80    4.74   0 
   4  -6  -5   36.18    5.31   0 
   4  -2  -8   40.84    4.33   0 
   4  -1  -8  462.26    8.10   0 
   4   0  -8   59.71    5.64   0 
   4   7  12    7.58    5.39   0 
   4   8  11   72.14    4.89   0 
   4  10   3    5.67    5.65   0 
   4  10   4  148.55    5.38   0 
   4  10   5   71.38    4.77   0 
   4  10   6   90.53    4.59   0 
   5  -7  -4    4.31    4.71   0 
   5  -6  -6   63.88    4.60   0 
   5  -5  -7  257.69    6.91   0 
   5  -4  -8   79.49    4.91   0 
   5  -1  -9  278.25    6.61   0 
   5   0  -9  329.12    6.95   0 
   5   9  -3  703.11   14.14   0 
   5  10  -1    4.52    5.23   0 
   5  11   2    6.39    5.27   0 
   5  11   8   12.35    4.55   0 
   6  -3  -9    4.64    4.55   0 
   7   2 -10   54.62    6.30   0 
   0   1   5  138.52    7.38   0 
   1  -5   1  464.90    9.28   0 
   1  -4  -2  635.77    9.87   0 
   1  -3  -3  238.82    6.71   0 
   1   1  -3 2452.24   27.01   0 
   1   5   3  224.84    6.44   0 
   1   5   4  382.00    7.01   0 
   1   5   5  163.45    5.55   0 
   2  -6  -1 1272.20   11.53   0 
   2  -6   2  211.77    7.18   0 
   2  -3  -5  904.85    9.31   0 
   2   7   3   87.89    4.89   0 
   2   7   6  126.00    5.18   0 
   3  -5  -5  143.40    5.19   0 
   3   4  -5  245.06   12.08   0 
   3   6  11    3.79    4.07   0 
   3   7  10   32.98    4.51   0 
   4  -7  -2   -1.02    5.24   0 
   4  -7   3   72.58    6.61   0 
   4  -5  -6   18.05    4.38   0 
   4  -4  -7  173.62    5.30   0 
   4   3  -7  157.77    7.56   0 
   4   7  -4  249.41   15.57   0 
   4   9  10    3.11    4.23   0 
   5   5  -7  325.56   11.01   0 
   6   3  -9   16.83    5.47   0 
   6   5  -8    8.09    6.24   0 
   6  12   1  139.49    6.32   0 
   7   0 -10   16.84    4.82   0 
   7   1 -10    0.93    4.64   0 
   0   2   4   96.74    6.28   0 
   1   1   9  262.14    7.66   0 
   1   5   2   53.14    5.46   0 
   2  -6   0    8.45    4.84   0 
   2  -6   1  156.62    6.92   0 
   2  -5  -3  390.00    6.69   0 
   2  -4  -4   44.72    5.81   0 
   2  -1  10  133.62    7.92   0 
   2   1  -5    5.60    5.57   0 
   2   6   9   44.67    4.56   0 
   2   7   2    8.21    4.31   0 
   2   7   7   62.10    4.63   0 
   3  -6  -3   47.58    4.48   0 
   3   1  12   85.57    5.99   0 
   3   5  12  110.42    6.31   0 
   3   8   0   15.93    5.58   0 
   3   8   9    1.09    4.40   0 
   3   9   4  445.35    7.04   0 
   3   9   5  200.17    5.48   0 
   3   9   6    4.39    4.26   0 
   4  -7  -1   73.83    5.92   0 
   4  -7   2  179.24    7.49   0 
   4   9  -1   35.71    6.18   0 
   4  10   2   32.89    4.78   0 
   4  10   8    2.18    4.25   0 
   5  -7  -3   28.68    4.89   0 
   5  -6  -5   11.37    5.32   0 
   5   3  -8    5.12    5.06   0 
   5  11   1  137.38    6.34   0 
   6  -5  -7   28.15    4.77   0 
   6  -4  -8   58.35    4.78   0 
   6  -2  -9   18.60    4.34   0 
   0   0   6 1542.03   15.13   0 
   0   2   5  262.95    7.25   0 
   1   0   9  211.82    7.90   0 
   1   5   7 1395.84   11.30   0 
   2  -5   5  136.69    9.76   0 
   2  -2  -5 1477.15   11.89   0 
   2   1  11   91.20    6.21   0 
   2   2  11  195.22    5.91   0 
   2   3  11   42.45    4.86   0 
   2   7   8  204.55    6.28   0 
   3  -3  -6    2.92    4.49   0 
   3   2  -6  468.50    9.56   0 
   3   7  -2   40.91    6.46   0 
   3   7  11   11.63    4.27   0 
   3   9   3   55.58    4.52   0 
   3   9   7   -2.82    4.26   0 
   4  -7   0   59.60    5.00   0 
   4  -7   1   15.47    4.99   0 
   4  -3  -7  636.95    7.71   0 
   5  -7  -2   22.64    4.82   0 
   5  -5  -6  139.34    6.56   0 
   5  -4  -7   55.95    4.72   0 
   6  -1  -9  102.24    4.98   0 
   6   2  -9   34.14    4.65   0 
   0   1   6  915.39   10.87   0 
   1  -4  -1  507.32    9.59   0 
   1  -2  -3   17.17    5.47   0 
   1   3   9   47.55    4.32   0 
   2  -5  -2  619.61    8.78   0 
   2  -1  -5  555.50    8.65   0 
   2   4  11   29.77    4.62   0 
   2   6  -1    3.05    6.24   0 
   2   6  10   28.12    5.23   0 
   2   7   1  386.37    7.94   0 
   3  -6  -2   43.14    4.79   0 
   3  -6   4  166.29    8.07   0 
   3  -5  -4  102.49    4.86   0 
   3  -4  -5   93.84    5.04   0 
   3   0  12    1.50    6.49   0 
   3   6  12   57.79    4.86   0 
   3   8  10   99.94    5.23   0 
   3   9   2   33.05    5.39   0 
   3   9   8   84.11    4.76   0 
   4  -5  -5   14.15    4.58   0 
   4  -4  -6  799.62    8.42   0 
   4  10   1  337.75    7.70   0 
   5  -7  -1   18.62    4.58   0 
   5  -7   0   12.24    5.59   0 
   5  -7   1    4.73    5.71   0 
   5   2  -8    7.50    4.95   0 
   5  12   4   41.95    5.62   0 
   5  12   5   39.85    4.50   0 
   6  -6  -5    8.96    4.14   0 
   6  -3  -8    6.18    4.18   0 
   6   1  -9    3.95    4.36   0 
   6  11  -2   16.22    6.71   0 
   6  12   0   24.83    6.56   0 
   7  -2  -9   10.30    4.38   0 
   7   4  -9   12.45    4.98   0 
   0  -1   6  617.68   12.14   0 
   0   3   4  280.44    7.65   0 
   1  -2   8    1.49    6.52   0 
   1  -1  -3  123.78    7.24   0 
   1   0  -3 4573.07   29.15   0 
   1   4   9  156.36    5.23   0 
   1   5   1    0.62    4.87   0 
   1   5   8   66.94    4.62   0 
   1   6   4  658.30    8.72   0 
   1   6   5  111.47    5.24   0 
   2   0  11   78.48    6.66   0 
   2   5  11  104.08    5.00   0 
   2   7   9   -0.29    3.84   0 
   2   8   4  301.65    6.64   0 
   2   8   5  162.99    5.33   0 
   2   8   6  395.03    6.61   0 
   3  -6  -1   65.59    6.20   0 
   3   9   9   35.26    4.44   0 
   4  -6  -3   50.56    4.79   0 
   4  -6   5   53.08    7.24   0 
   4  -2  -7   -0.64    4.08   0 
   4   2  -7  287.97    7.76   0 
   4  11   5   17.51    4.37   0 
   4  11   6    5.63    4.37   0 
   4  11   7   16.73    4.34   0 
   5  -6  -4   -1.37    4.23   0 
   5  -1  -8    8.49    3.89   0 
   5  11   0   87.63    6.06   0 
   5  12   3   89.88    6.15   0 
   6  -5  -6   23.63    4.11   0 
   6  -4  -7   57.95    4.97   0 
   7  -3  -8   11.17    5.18   0 
   7  -1  -9   72.54    5.06   0 
   7   6  -8   14.46    6.64   0 
   0  -2   1  891.33   20.26   0 
   0  -2   5 3027.86   34.08   0 
   0   1   7  320.33    7.86   0 
   0   3   3 1220.89   12.13   0 
   0   3   5 1905.09   13.30   0 
   1  -3  -2  723.79    9.93   0 
   1  -1   9  109.19    7.00   0 
   1   2  10  114.50    6.38   0 
   1   6   3 1408.35   11.97   0 
   1   6   6  196.99    5.73   0 
   2  -5  -1 1136.76   11.12   0 
   2  -4  -3  232.66    6.22   0 
   2  -3  -4  428.32    7.19   0 
   2   8   3    4.03    4.95   0 
   2   8   7   16.40    4.17   0 
   3  -6   0  227.90    6.72   0 
   3  -6   3   10.52    5.11   0 
   3  -5  -3    3.52    5.07   0 
   3   0  -6 1102.74   11.27   0 
   3   1  -6 1366.13   13.25   0 
   3   7  12   39.45    4.68   0 
   3   8  11   48.72    4.43   0 
   4  -1  -7   40.47    4.29   0 
   4   8  -3  424.82   12.36   0 
   4  11   4    0.55    4.28   0 
   4  11   8    0.91    4.25   0 
   5  -5  -5  126.28    5.25   0 
   5  -3  -7  154.94    5.26   0 
   5   0  -8   38.75    4.87   0 
   5  10  -2   41.89    6.88   0 
   6  -6  -4   39.25    4.88   0 
   6  -2  -8   42.65    4.56   0 
   7  -4  -7    9.72    4.53   0 
   7   0  -9   33.35    6.04   0 
   7   3  -9    7.14    5.85   0 
   0   0   7  306.24    8.30   0 
   0   2   1    2.42    6.90   0 
   0   2   7  401.55    7.25   0 
   0   3   6   22.59    4.82   0 
   1  -4   0  751.26   11.24   0 
   1   1  10   14.85    5.33   0 
   1   3  10   86.00    5.20   0 
   1   5   9   19.90    4.39   0 
   1   6   7   36.79    4.70   0 
   2   2  12    2.91    5.64   0 
   2   3  12  158.13    6.04   0 
   2   4  12    5.20    5.34   0 
   2   6  11  335.75    6.54   0 
   2   7  10   93.85    4.73   0 
   2   8   8   31.88    4.44   0 
   3  -6   1   20.34    5.23   0 
   3  -6   2   -0.38    5.34   0 
   3  -3  -5  287.05    6.21   0 
   3   8  -1    3.93    5.25   0 
   3   9   1  235.51    6.30   0 
   3   9  10   12.31    4.38   0 
   3  10   5  491.26    7.52   0 
   3  10   6   26.18    4.65   0 
   4  -6  -2  141.34    5.60   0 
   4  -5  -4  113.95    5.01   0 
   4  -3  -6   90.93    5.05   0 
   4   0  -7  112.80    5.24   0 
   4   1  -7    3.75    4.51   0 
   4  10   0   62.43    6.01   0 
   4  11   3    6.45    4.37   0 
   5  -6  -3  117.78    5.20   0 
   5  -4  -6  124.91    5.10   0 
   5  12   2  119.67    6.60   0 
   6   4  -8   90.57    6.39   0 
   6   6  -7  172.43    9.18   0 
   7   1  -9    4.53    4.25   0 
   7   2  -9    0.98    4.52   0 
   0   3   2  493.32    9.38   0 
   0   3   7    5.56    4.30   0 
   1  -4   4  176.46   10.24   0 
   1   4  -1  543.80   12.59   0 
   1   4  10   30.43    4.13   0 
   1   6   2  449.05    8.42   0 
   1   6   8    0.09    4.18   0 
   2  -5   0   16.83    5.55   0 
   2  -5   4   13.90    6.18   0 
   2  -2  -4  736.47   10.04   0 
   2  -2  10   28.13    7.89   0 
   2   5  12    6.99    4.82   0 
   2   7   0   26.03    5.44   0 
   2   8   2   68.57    6.09   0 
   2   8   9   13.03    4.65   0 
   3  -4  -4   51.09    4.72   0 
   3  10   4  423.18    7.22   0 
   3  10   8    3.73    4.49   0 
   4  -6  -1   13.60    4.55   0 
   4  -6   4  111.56    7.27   0 
   4  -4  -5   93.31    4.88   0 
   4   4  -6    5.10    6.54   0 
   5  -6  -2    2.86    4.96   0 
   5  -2  -7    1.17    4.10   0 
   5   4  -7   10.16    5.80   0 
   5   6  -6   87.83    9.41   0 
   6  -6  -3    4.72    4.57   0 
   6  -5  -5   57.33    4.96   0 
   6  -4  -6  118.19    5.40   0 
   6  -3  -7   16.04    4.33   0 
   6  -1  -8    0.35    4.05   0 
   7  -5  -5   -4.30    4.57   0 
   7  -2  -8  128.15    5.08   0 
   8   4  -9    0.65    5.78   0 
   0   1   8  104.30    6.42   0 
   0   2   8  294.67    7.39   0 
   0   4   5 2138.94   13.29   0 
   0   4   6  162.75    5.66   0 
   1  -4   1  205.06    7.71   0 
   1   0  10   30.14    5.10   0 
   1   5   0   51.45    6.07   0 
   1   5  10   13.22    4.09   0 
   1   6   9    3.03    5.29   0 
   1   7   6  169.91    6.27   0 
   2  -4  -2 2154.02   14.66   0 
   2  -1  11    6.27    7.11   0 
   2   1  12   27.01    6.09   0 
   2   7  11    9.12    4.22   0 
   3  -5  -2  728.06    8.53   0 
   3  -5   6    4.62    7.26   0 
   3  10   3    4.20    4.69   0 
   4  -6   0   56.01    6.09   0 
   4  -5   7    8.33    8.23   0 
   4  -2  -6   42.04    5.49   0 
   4   9  -2   57.66    7.26   0 
   4  11   2  205.02    6.24   0 
   5  -5  -4   72.16    4.82   0 
   6  -6  -2    8.83    4.51   0 
   6   0  -8  314.57    6.46   0 
   6   3  -8   56.75    5.74   0 
   7  -4  -6    1.86    4.42   0 
   7  -3  -7   64.68    4.94   0 
   8   1  -9    1.71    4.51   0 
   8   3  -9    1.59    5.91   0 
   0  -1   7 1281.83   15.42   0 
   0   3   8    7.28    4.17   0 
   0   4   3  643.23    8.74   0 
   0   4   7    5.61    4.14   0 
   1  -4   2   14.87    6.43   0 
   1  -3  -1  127.57    6.38   0 
   1  -2  -2    8.38    6.15   0 
   1   2  11   95.86    6.06   0 
   1   3  11   67.30    5.17   0 
   1   7   4   67.00    4.88   0 
   1   7   5 1574.85   11.26   0 
   1   7   7    5.10    4.20   0 
   2  -5   1  208.45    6.48   0 
   2  -5   2  402.30    8.77   0 
   2  -5   3   13.19    6.40   0 
   2  -3  -3  222.24    6.27   0 
   2   6  12    5.52    4.25   0 
   2   8  10    5.95    4.33   0 
   2   9   6   37.62    4.57   0 
   2   9   7  116.82    4.98   0 
   2   9   8    5.76    4.97   0 
   3  -2  -5   -0.61    4.46   0 
   4  -6   1   82.64    5.95   0 
   4  -6   2   91.96    6.00   0 
   4  -6   3    3.28    5.41   0 
   4  -5  -3  157.90    5.46   0 
   5  -6  -1   11.51    4.36   0 
   5  -6   4   52.09    7.01   0 
   5  -4  -5 1198.71    9.90   0 
   5  -1  -7  104.77    4.92   0 
   5  11  -1    9.17    5.89   0 
   5  12   1    5.01    5.66   0 
   6  -6  -1   28.75    5.53   0 
   6  -5  -4   71.77    4.72   0 
   6  -2  -7   11.72    5.07   0 
   6   1  -8    2.29    4.43   0 
   6   2  -8  117.54    6.42   0 
   7  -5  -4   46.42    5.56   0 
   7  -1  -8   25.13    4.54   0 
   7   5  -8    0.46    5.20   0 
   0   0   8 1768.38   15.23   0 
   0   4   8  312.43    6.86   0 
   1  -4   3  145.93    8.40   0 
   1   1  11   63.41    5.77   0 
   1   4  11    4.13    4.43   0 
   1   6   1   58.55    5.82   0 
   1   7   3 1168.16   10.79   0 
   2   2  -4   35.04    6.94   0 
   2   3  13    0.10    5.58   0 
   2   7  12  133.15    6.47   0 
   2   8   1  110.36    6.35   0 
   2   8  11   13.98    5.40   0 
   2   9   4  155.57    5.38   0 
   3  -5  -1   32.45    5.53   0 
   3  -4  -3  299.04    6.16   0 
   3  -3  -4 1474.11   11.80   0 
   3   9   0   13.52    5.10   0 
   3  10   2  177.91    6.80   0 
   4  -4  -4   -0.31    4.08   0 
   4  -3  -5   12.94    4.59   0 
   4  12   5   65.08    5.00   0 
   5  -6   0   73.66    4.92   0 
   5  -6   3    2.05    5.68   0 
   5  -5  -3    3.00    5.16   0 
   5   3  -7   76.70    5.95   0 
   6  -4  -5  603.93    8.69   0 
   7   0  -8   11.18    4.84   0 
   7   7  -7   46.87    8.05   0 
   8  -1  -8   -0.57    4.00   0 
   0   1   9    7.76    5.86   0 
   0   2   9   28.04    4.91   0 
   0   4   2   29.01    6.41   0 
   0   5   4  778.26    9.53   0 
   0   5   7 1825.98   12.50   0 
   1   5  11    7.67    4.29   0 
   2   0  -4  899.31   12.04   0 
   2   0  12  119.65    6.98   0 
   3  -1  -5  112.92    5.46   0 
   3   3  -5   23.70    6.64   0 
   3  11   5    5.52    5.27   0 
   3  11   6   17.89    4.57   0 
   3  11   7   63.98    4.68   0 
   3  11   8   14.60    4.47   0 
   4  -5  -2  232.41    5.83   0 
   4  -1  -6  131.59    4.99   0 
   4  11   1    2.82    5.25   0 
   4  12   4   77.34    5.01   0 
   5  -6   1    4.20    4.06   0 
   5  -6   2    8.06    5.72   0 
   5   0  -7  172.44    5.32   0 
   5   1  -7  625.85    8.99   0 
   6  -6   0    3.81    4.31   0 
   6  -6   1    2.57    5.50   0 
   6  -5  -3   17.52    5.18   0 
   6  -3  -6   65.15    4.57   0 
   6  10  -4   52.79   12.85   0 
   7  -4  -5   17.20    4.12   0 
   7  -2  -7   30.12    4.36   0 
   7   4  -8  443.93    8.74   0 
   8  -2  -7    1.11    5.10   0 
   8   6  -8    1.84    6.44   0 
   0  -2   6    5.26    7.44   0 
   0   4   9    3.51    4.14   0 
   0   5   8    8.69    5.31   0 
   1  -1  10    6.04    5.93   0 
   1   3  12    9.83    5.32   0 
   1   6  11   13.65    4.36   0 
   1   7  10    1.36    4.99   0 
   1   8   6    6.52    5.47   0 
   2  -4  -1  364.59    7.39   0 
   2   1  -4 3021.21   22.30   0 
   2   9  10   16.76    4.38   0 
   3  -5   5   35.87    7.15   0 
   3  -4   8    5.32   10.30   0 
   3  11   4   18.49    5.48   0 
   4   0  -6  758.02    9.32   0 
   4   3  -6   -1.21    5.08   0 
   4  10  -1  525.30   10.00   0 
   4  12   3   61.96    6.17   0 
   5  -4  -4    8.15    4.23   0 
   5  -2  -6   15.79    4.13   0 
   5   2  -7  167.23    5.90   0 
   7  -5  -3    6.53    4.30   0 
   7  -3  -6    3.54    4.24   0 
   7   1  -8   30.61    4.52   0 
   7   2  -8   -3.85    5.19   0 
   7   3  -8   41.22    5.68   0 
   8  -3  -6    1.09    4.46   0 
   0  -1   8   -1.57    6.23   0 
   1  -2   9   31.27    7.69   0 
   1   2  12   76.18    6.24   0 
   1   4  12   34.38    4.76   0 
   1   5  12   17.34    5.50   0 
   1   7   2  152.42    5.88   0 
   1   8   8  177.74    5.37   0 
   2  -2  -3 3649.62   18.83   0 
   2   7  -1    3.00    6.00   0 
   2  10   6  649.36    7.87   0 
   2  10   7   10.52    4.22   0 
   2  10   8   -1.10    4.14   0 
   3  -4  -2  120.62    6.10   0 
   3   0  -5  183.68    6.25   0 
   3  10   1   13.59    5.33   0 
   4  -5  -1  438.31    7.26   0 
   4  -4  -3   13.46    5.02   0 
   4   1  -6   53.96    6.19   0 
   4   2  -6   52.68    5.85   0 
   5  -5  -2   11.07    4.36   0 
   5  -3  -5   26.14    4.41   0 
   5  12   0   14.87    5.73   0 
   6  -5  -2   67.48    5.42   0 
   6  -4  -4  108.38    5.88   0 
   6   5  -7    6.53    5.81   0 
   6  11  -3    1.24    8.32   0 
   7  -1  -7  142.12    6.12   0 
   8   1  -8   70.96    6.13   0 
   0  -2   2    1.22   11.04   0 
   0   0   9  572.90    9.81   0 
   0   3  10   20.89    4.33   0 
   0   4  10   19.93    5.08   0 
   0   5   9   69.58    4.65   0 
   0   6   5   -1.19    4.38   0 
   0   6   6    9.13    4.42   0 
   1   8   4    2.32    3.89   0 
   1   8   9   15.37    4.46   0 
   2  -3  -2  122.20    5.76   0 
   2   6  -2   18.24    6.60   0 
   2   9   2   85.00    4.83   0 
   2  10   5   -0.34    4.17   0 
   2  10   9   -0.63    4.41   0 
   3  -5   1    5.13    4.54   0 
   3  -5   4  137.20    7.45   0 
   3   1  -5   11.74    5.62   0 
   3   2  -5  783.22   11.76   0 
   3  11   3   62.52    5.92   0 
   4  -5   6   42.23    7.00   0 
   4  -3  -4  182.37    5.72   0 
   5  -1  -6    7.05    4.95   0 
   6  -3  -5  191.29    5.38   0 
   6  -2  -6  234.74    5.66   0 
   6   0  -7   66.28    4.62   0 
   7  -5  -2   50.12    4.76   0 
   7  -4  -4   72.03    4.87   0 
   8  -1  -7   23.96    4.46   0 
   8   2  -8   65.38    5.56   0 
   8   5  -8   70.26    6.52   0 
   0   1  10  277.80    7.29   0 
   0   2   0   74.61    8.09   0 
   0   5  10  247.56    6.61   0 
   1  -2  -1   12.79    7.66   0 
   1   8  10    0.76    4.15   0 
   2  -4   0  215.27    6.58   0 
   3  -5   2   24.86    5.54   0 
   3  -5   3  114.74    6.24   0 
   3   8  -2 1000.74   14.63   0 
   4  -5   0    6.98    4.14   0 
   4  11   0   15.02    5.46   0 
   4  12   2   40.24    5.04   0 
   5  -5  -1   92.15    5.11   0 
   5  -4  -3  266.21    6.15   0 
   6  -5  -1    7.11    5.09   0 
   6   1  -7  350.30    7.74   0 
   6   7  -6  125.80    9.60   0 
   7  -5  -1    4.58    5.46   0 
   7  -3  -5   20.83    4.36   0 
   7  -2  -6   59.77    4.56   0 
   8  -3  -5   61.79    4.84   0 
   8  -2  -6    3.52    4.01   0 
   8   3  -8    2.18    5.47   0 
   8   4  -8   60.66    6.18   0 
  -1   1   5   80.40    6.96   0 
  -1   2   5 1551.36   12.72   0 
  -1   2   6  353.08    7.14   0 
   0   3  11  173.22    6.58   0 
   0   4  11    8.33    4.98   0 
   1   3  13    2.98    5.68   0 
   1   4  13   18.51    4.50   0 
   1   7   1    5.15    5.41   0 
   1   8  11   -0.60    4.67   0 
   1   9   6  108.34    4.87   0 
   1   9   7   43.28    4.47   0 
   1   9   8  149.58    5.33   0 
   2  -1  12    6.29    7.64   0 
   3   7  -3   27.14    8.90   0 
   4  -4  -2  157.11    6.13   0 
   4  -1  -5  114.63    5.98   0 
   5  -5   0   39.59    5.69   0 
   5  -3  -4  358.43    7.24   0 
   5  -2  -5    5.75    4.24   0 
   5   5  -6    8.85    6.13   0 
   5  10  -3   46.45    8.24   0 
   6  -4  -3   42.09    4.42   0 
   6   2  -7   76.76    6.05   0 
   6   3  -7  244.39    6.95   0 
   6   4  -7  207.94    6.95   0 
   7  -4  -3   34.88    5.50   0 
   7   0  -7   35.95    4.33   0 
   8  -4  -3   36.66    4.71   0 
   9   2  -8   81.68    5.23   0 
  -1   1   7  903.95   10.47   0 
  -1   2   7   15.62    4.54   0 
  -1   3   6  182.45    5.75   0 
  -1   3   7  755.77    8.42   0 
   0  -2   7    1.75    7.33   0 
   0   0  10   13.51    6.10   0 
   0   2  11   31.16    4.54   0 
   0   5  11    2.55    5.02   0 
   0   6   3   12.84    4.34   0 
   0   6  10   11.65    4.35   0 
   0   7   8    4.69    3.81   0 
   1   2  13  210.86    7.33   0 
   1   9   9   10.53    4.45   0 
   2  -4   1 1019.41   12.05   0 
   2  -1  -3 2554.12   17.57   0 
   2   9   1   20.59    5.29   0 
   2  10   3  249.98    6.38   0 
   2  11   7    2.59    4.24   0 
   3  -4  -1   85.86    5.06   0 
   3  11   2   17.46    4.26   0 
   4  -5   1  109.78    5.35   0 
   4  -5   5   28.71    5.74   0 
   5  11  -2    1.41    7.25   0 
   6  -5   0  161.56    5.65   0 
   6  -1  -6   80.54    4.98   0 
   7  -5   0   40.04    4.59   0 
   7   1  -7    5.54    5.40   0 
   7   6  -7   30.79    5.70   0 
   8   0  -7   54.50    4.65   0 
   9   0  -7   31.32    4.49   0 
   9   3  -8   16.99    4.83   0 
   9   4  -8   43.97    6.10   0 
  -1   0   5  120.05    7.13   0 
  -1   2   8 1043.44    9.94   0 
  -1   3   8  163.99    5.38   0 
  -1   4   6  343.76    6.66   0 
  -1   4   7   15.29    5.51   0 
   0  -1   9   55.95    6.45   0 
   0   1  11   55.01    5.85   0 
   0   7   5   16.48    4.30   0 
   0   7   9   13.92    4.39   0 
   1  -3   1   17.58    6.38   0 
   1   0  12  105.55    7.80   0 
   1   8   2  960.93   10.65   0 
   1   9   4    5.24    5.34   0 
   1   9  10    3.70    4.31   0 
   2  -4   6  200.89   10.98   0 
   2  -3  -1 1190.43   12.58   0 
   2  -2  11   19.60    9.37   0 
   2  11   5   21.79    5.50   0 
   2  11   6   -2.56    4.52   0 
   3  -1  -4 1056.65   10.73   0 
   3   5  -4   25.73   11.93   0 
   3  10   0   13.48    5.60   0 
   4  -5   2   57.91    5.21   0 
   4  -5   3    1.87    5.22   0 
   4  -5   4    9.68    5.40   0 
   4  -3  -3   49.51    4.58   0 
   4  -2  -4  255.07    6.02   0 
   4  12   1   31.61    5.68   0 
   5  -5   1  224.72    6.46   0 
   5  -5   5    4.48    5.16   0 
   5  -4  -2  211.10    5.85   0 
   6  -5   1    8.29    5.38   0 
   6  -3  -4   37.68    4.48   0 
   6  -2  -5   61.36    4.62   0 
   7  -5   1    3.01    4.57   0 
   7  -3  -4    0.32    4.14   0 
   7  -1  -6  876.11    8.66   0 
   8  -4  -2   -0.48    4.49   0 
   8  -3  -4    3.32    4.36   0 
   8  -1  -6   51.35    4.72   0 
   9  -2  -5    5.43    4.76   0 
   9  -1  -6    0.95    4.39   0 
  -1   0   4   75.19    7.07   0 
  -1   1   3  125.33    8.63   0 
  -1   1   8    2.18    5.65   0 
  -1   2   3   10.38    5.66   0 
  -1   4   5   32.03    4.72   0 
   0   3  12  125.23    6.35   0 
   0   4  12    6.85    4.42   0 
   0   5  12   74.59    5.94   0 
   0   6  11  130.41    5.27   0 
   0   7  10    1.42    4.29   0 
   2  -2  -2 1726.30   14.40   0 
   2  10   2   85.35    5.92   0 
   3  -4   0  423.37    7.93   0 
   3  -3  -2  278.84    6.59   0 
   4  -4  -1  109.13    5.98   0 
   4   0  -5  351.16    7.66   0 
   4   5  -5  132.97    9.25   0 
   5  -5   2  146.00    5.60   0 
   5  -5   3    5.14    5.23   0 
   5  -5   4   30.61    5.93   0 
   5   1  -6   16.07    4.30   0 
   6  -5   3   12.59    5.91   0 
   6  -5   4   48.53    6.11   0 
   6  -4  -2  190.94    5.48   0 
   6   0  -6   44.70    5.54   0 
   7  -4  -2  178.34    5.56   0 
   7  -2  -5  267.10    6.07   0 
   7   2  -7   74.32    5.30   0 
   7   5  -7   58.21    5.91   0 
   8  -2  -5    7.75    4.38   0 
   8   1  -7  338.02    6.67   0 
   8   7  -7  279.41    8.75   0 
   9   1  -7   56.26    5.02   0 
  -1   2   9   44.88    4.85   0 
  -1   3   3  250.36    6.76   0 
  -1   3   9  179.45    5.44   0 
  -1   4   4  122.84    5.32   0 
  -1   4   9   27.28    4.32   0 
  -1   5   7    7.18    4.61   0 
  -1   5   8  192.23    6.45   0 
   0   2  12   90.52    6.45   0 
   0   5   1 1532.35   13.49   0 
   0   6   2   40.42    4.64   0 
   0   6  12    1.72    5.40   0 
   0   7  11   35.27    4.56   0 
   0   8   6    1.10    4.43   0 
   0   8   7    0.22    3.99   0 
   0   8   8   23.15    4.66   0 
   0   8   9   30.85    4.64   0 
   1  10   6   32.98    4.55   0 
   1  10   7    5.05    4.29   0 
   1  10   8   14.10    4.06   0 
   2  -4   2  891.59   12.11   0 
   2  11   4    1.29    4.09   0 
   3  -2  -3  768.39    8.93   0 
   3  11   1   22.26    6.01   0 
   3  12   3   43.89    6.12   0 
   4  10  -2    6.26    7.17   0 
   5  -3  -3   74.64    4.90   0 
   5  -1  -5  189.99    5.63   0 
   5   2  -6  278.51    6.75   0 
   5   3  -6   55.25    6.19   0 
   5   4  -6   36.60    5.73   0 
   7   3  -7  234.54    6.51   0 
   7   4  -7    8.01    5.49   0 
   7   8  -6    4.09    7.32   0 
   8  -4  -1   66.44    4.98   0 
   8   2  -7   57.08    5.49   0 
  -1   1   9  344.87    7.95   0 
  -1   3  10    2.56    5.04   0 
  -1   5   5  115.75    5.27   0 
  -1   5   9  281.38    6.29   0 
   0   7   3   48.27    4.43   0 
   0   8   5    2.95    3.94   0 
   0   8  10    7.71    4.26   0 
   1  -2  10  154.72   10.04   0 
   1  10   5  127.18    5.95   0 
   2  -4   3  451.72   10.18   0 
   2  -4   5    3.31    6.80   0 
   3   0  -4 2081.78   15.09   0 
   4  -4   8    2.44    8.56   0 
   4  11  -1   17.32    6.25   0 
   5  -4  -1   15.48    4.33   0 
   5  -2  -4  168.40    5.54   0 
   5   7  -5   74.69   10.42   0 
   6  -4  -1    8.22    5.13   0 
   6  -3  -3   42.34    4.54   0 
   6  -1  -5  116.78    5.86   0 
   7  -4  -1   18.93    4.39   0 
   7  -3  -3    3.79    4.20   0 
   7   0  -6   -3.67    3.96   0 
   8  -3  -3   29.44    4.41   0 
   8   0  -6   28.79    4.39   0 
   9  -2  -4   -2.62    4.52   0 
   9   0  -6   34.16    4.45   0 
   9   2  -7   10.38    4.36   0 
  -1   0   3 4529.95   29.09   0 
  -1   2  10   -3.84    4.32   0 
  -1   4   3   43.82    4.90   0 
  -1   4  10    0.96    4.07   0 
  -1   5   4  546.24    7.64   0 
  -1   5  10  193.07    6.18   0 
  -1   6   6   54.72    4.43   0 
  -1   6   7   56.01    4.55   0 
  -1   6   8   43.38    4.50   0 
   0   0  11   85.96    6.28   0 
   0   3  13   -1.09    5.57   0 
   0   4  13  189.61    6.24   0 
   1   1  -2 3235.41   36.06   0 
   1   7   0  430.34    8.78   0 
   1   8   1   16.37    5.78   0 
   2  -4   4  522.77   11.17   0 
   2   9   0  540.52    9.04   0 
   2  11   3   56.85    6.13   0 
   3  -4   7   26.84    8.37   0 
   4  -4   0   10.96    4.34   0 
   4  -3  -2  802.31    8.61   0 
   4  -1  -4  534.40    8.46   0 
   4   1  -5   67.96    5.01   0 
   4   9  -3    5.81    8.35   0 
   6  -2  -4   30.11    4.44   0 
   6   1  -6  260.01    5.95   0 
   6   6  -6   62.30    6.73   0 
   7  -2  -4   20.88    4.16   0 
   7  -1  -5   69.93    4.84   0 
   8  -4   0   26.77    4.92   0 
   8  -2  -4    9.80    4.42   0 
   8  -1  -5   16.73    4.17   0 
   8   3  -7    3.67    4.24   0 
   8   4  -7  131.76    6.43   0 
   8   5  -7   49.69    6.03   0 
   9  -1  -5   13.71    4.43   0 
   9   3  -7   96.28    6.13   0 
  -1  -1   6  329.38    9.68   0 
  -1   1  10   31.15    5.50   0 
  -1   2   2    6.09    6.11   0 
  -1   3  11   17.77    5.66   0 
  -1   4  11   18.93    5.05   0 
  -1   6   5   26.52    4.35   0 
   0  -2   8    6.96    6.78   0 
   0  -1  10   47.21    6.70   0 
   0   9   7  262.63    5.89   0 
   0   9   8    4.35    4.73   0 
   0   9   9   41.88    4.82   0 
   1  -3   2  500.61   11.68   0 
   1   6  -1   12.60    6.55   0 
   1   9   2    5.94    5.41   0 
   1  10   4    4.35    4.11   0 
   2  -3   0    1.11    4.95   0 
   2  10   1  173.99    6.46   0 
   3  -3  -1    1.18    5.83   0 
   3  12   2   12.49    5.77   0 
   4  -2  -3  161.68    5.66   0 
   4   2  -5  600.21   10.09   0 
   5  -4   0  341.97    7.81   0 
   7  -4   0   53.56    4.94   0 
   7   1  -6  152.09    5.31   0 
   8  -3  -2    1.20    4.30   0 
  -1  -1   5   17.05    5.94   0 
  -1   0   9    7.21    5.52   0 
  -1   1   2 2987.36   22.83   0 
  -1   2  11    4.44    5.48   0 
  -1   5   3 2237.31   14.46   0 
  -1   5  11   14.81    4.37   0 
  -1   6  10   32.37    4.74   0 
  -1   7   7   94.25    4.87   0 
  -1   7   8   62.30    4.67   0 
   0   2  13    1.05    4.84   0 
   0   6   1  375.64    7.56   0 
   0   9   6    4.63    4.32   0 
   1  11   6   12.90    5.43   0 
   2   7  -2   11.57    6.53   0 
   3  -4   2  277.48    7.77   0 
   4  -4   1   55.86    5.81   0 
   4   4  -5   57.71    6.09   0 
   5  -3  -2   41.41    4.59   0 
   6  -3  -2    1.93    4.25   0 
   6   2  -6   26.39    4.23   0 
   7  -4   1   26.66    5.54   0 
   7  -3  -2   88.36    4.91   0 
   8   1  -6   13.01    4.48   0 
   9  -2  -3   33.85    4.69   0 
   9   1  -6   40.19    4.78   0 
   9   4  -7  214.44    6.42   0 
   9   5  -7   14.57    5.96   0 
   9   6  -7    6.36    5.86   0 
  -1  -1   7    2.41    5.47   0 
  -1   4  12   58.77    5.98   0 
  -1   6   4   10.34    4.20   0 
  -1   6  11    7.12    4.19   0 
  -1   7   6   44.77    4.51   0 
  -1   7   9   37.73    4.71   0 
   0   9   5   19.72    4.12   0 
   1  -1  12   31.83    7.94   0 
   1  10   3   62.98    5.78   0 
   2  11   2  113.52    6.58   0 
   3  -2  -2 1204.40   11.09   0 
   3  10  -1  341.87    9.01   0 
   5  -2  -3   73.95    4.99   0 
   5  -1  -4  143.37    5.34   0 
   6  -4   1  179.20    6.88   0 
   6   0  -5    3.16    4.21   0 
   6   3  -6   34.25    5.78   0 
   6   4  -6  855.08   10.96   0 
   6   5  -6  619.52   10.07   0 
   7   2  -6   48.87    5.51   0 
   8  -3  -1   13.86    5.38   0 
   8  -2  -3  230.29    5.91   0 
   9  -1  -4   13.95    4.50   0 
   9   0  -5   -1.49    4.27   0 
  10   2  -6   40.36    5.74   0 
  -2   3   7    8.72    5.16   0 
  -1  -1   4   10.61    6.32   0 
  -1   1  11    2.57    5.25   0 
  -1   3  12   34.16    4.48   0 
  -1   5  12   53.81    4.90   0 
  -1   7   5   83.61    4.83   0 
  -1   7  11   11.26    4.39   0 
   0   0  12    8.22    6.14   0 
   0   1  13   38.96    6.04   0 
   0   5   0 1414.40   14.54   0 
   0  10   7    9.94    5.19   0 
   1   4  -2   66.20    9.21   0 
   1  11   5   53.75    4.79   0 
   2  -1  -2    2.20    5.86   0 
   2   1  -3  183.34    8.65   0 
   3  -4   3  218.42    7.39   0 
   3  -4   6    1.09    6.25   0 
   3   9  -2   12.37    6.04   0 
   3  11   0   86.74    6.34   0 
   4  -4   2  243.73    7.37   0 
   4  -4   7   -0.21    6.02   0 
   4  -3  -1  266.46    6.16   0 
   4   0  -4    9.13    5.89   0 
   5  -4   7   37.18    7.27   0 
   6  -2  -3   30.18    4.49   0 
   6  -1  -4  858.20    8.80   0 
   7  -4   2    0.75    4.24   0 
   7  -4   3   34.63    5.75   0 
   7  -2  -3  126.47    5.07   0 
   7  -1  -4  537.92    7.89   0 
   7   0  -5   84.10    4.75   0 
   7   7  -6   70.72    7.04   0 
   8  -1  -4    2.29    4.36   0 
   8   0  -5   43.33    4.41   0 
   8   2  -6   10.76    4.62   0 
   9   2  -6   11.55    4.15   0 
  -2   2   7 2334.74   13.84   0 
  -2   2   8  440.58    7.00   0 
  -2   3   6  139.53    5.22   0 
  -2   3   8    7.78    4.22   0 
  -2   4   6  984.17    9.37   0 
  -1  -1   8   30.55    5.67   0 
  -1   0  10    0.24    5.02   0 
  -1   2  12   99.93    6.70   0 
  -1   6   3   70.10    4.46   0 
  -1   8   7    5.22    4.09   0 
  -1   8   8   57.97    4.80   0 
  -1   8   9    1.28    4.28   0 
   0   9   4   -0.04    3.90   0 
   0  10   6    4.81    4.35   0 
   1   9   1    0.83    5.42   0 
   2  -3   1   42.18    6.24   0 
   3  -4   4   53.98    5.84   0 
   3  -4   5  144.50    7.32   0 
   3  -3   0 1096.69   11.61   0 
   3   2  -4 2627.54   19.76   0 
   5  -4   2   45.32    4.92   0 
   5  -3  -1    2.53    3.97   0 
   6  -3  -1    2.03    4.17   0 
   7  -3  -1  122.77    5.05   0 
   7   3  -6   29.43    5.49   0 
   8  -3   0    7.50    5.69   0 
   8   8  -6   96.66    7.84   0 
   9  -2  -2   32.11    4.53   0 
  10   0  -4    9.66    5.61   0 
  10   1  -5   79.16    4.63   0 
  -2   1   6 1405.21   12.58   0 
  -2   2   5 1583.97   12.41   0 
  -2   2   9   43.49    4.54   0 
  -2   3   5  948.80    9.41   0 
  -2   4   5   18.23    5.20   0 
  -2   4   9   50.61    4.54   0 
  -2   5   7    5.54    4.22   0 
  -2   5   8    7.81    4.10   0 
  -2   5   9  441.54    6.72   0 
  -1   3  13   29.98    5.81   0 
  -1   7   4    7.71    4.15   0 
  -1   8   6   58.09    4.64   0 
   0  -2   9   56.34    8.52   0 
   0  -1  11  129.03    7.81   0 
   0   8   2  357.16    7.58   0 
   1  -3   3 1630.25   20.56   0 
   1   8   0  428.83    8.15   0 
   1  10   2   10.13    5.54   0 
   1  11   4    7.06    4.38   0 
   3   4  -4  271.77   11.12   0 
   4  -4   3   55.43    5.65   0 
   4  -4   6    4.84    6.01   0 
   4  -2  -2  759.06    8.98   0 
   4  -1  -3  502.43    8.09   0 
   5  -4   3  582.24    9.60   0 
   5  -4   6   63.70    6.72   0 
   5   2  -5   76.85    5.81   0 
   6  -4   3   27.19    4.59   0 
   6  -4   5    3.42    5.81   0 
   7   6  -6   11.47    6.14   0 
   8  -2  -2   13.94    4.15   0 
   8   3  -6    1.18    5.47   0 
   9  -1  -3   55.49    4.78   0 
   9   1  -5   55.47    4.58   0 
   9   3  -6    1.99    5.21   0 
  10   3  -6   29.93    4.69   0 
  -2   1   5  567.56    8.72   0 
  -2   1   8   11.73    4.72   0 
  -2   2  10   16.69    5.37   0 
  -2   3  10   16.49    4.40   0 
  -2   4  10  116.96    5.07   0 
  -2   5   6   65.94    4.84   0 
  -2   5  10   23.90    4.43   0 
  -2   6   8  370.94    6.47   0 
  -1  -1   9  132.38    7.14   0 
  -1   1  12  144.31    7.01   0 
  -1   8   5   63.85    4.48   0 
  -1   9   8  162.52    5.52   0 
   0   9   3   43.71    4.74   0 
   0  10   5   99.72    5.18   0 
   2   9  -1   50.49    6.27   0 
   2  10   0    8.79    5.41   0 
   3   3  -4 1813.40   18.79   0 
   4  -4   4   32.63    5.42   0 
   4  -4   5    8.45    5.07   0 
   5  -4   4   61.18    5.54   0 
   5  -4   5   39.08    5.82   0 
   5  -2  -2  533.51    8.12   0 
   5   0  -4   90.63    4.95   0 
   6   8  -5  139.94    9.99   0 
   7  -3   0   39.06    4.51   0 
   7  -2  -2   54.16    4.62   0 
   7   1  -5    9.55    4.25   0 
   7   5  -6   33.62    5.56   0 
   8  -3   1   33.65    5.95   0 
   8   1  -5  330.57    6.46   0 
   9  -2  -1    7.34    4.30   0 
   9   0  -4   13.99    4.42   0 
  10   4  -6  172.82    6.62   0 
  -2   1   9   66.51    5.00   0 
  -2   2   4  760.15    9.31   0 
  -2   3  11   51.71    5.54   0 
  -2   4   4   50.45    4.84   0 
  -2   4  11   41.42    4.56   0 
  -2   5   5    5.42    4.35   0 
  -2   5  11   63.10    4.89   0 
  -2   6   6   72.29    4.57   0 
  -2   6   7  229.19    5.63   0 
  -2   6   9   66.91    4.86   0 
  -2   6  10   93.34    5.01   0 
  -1   0  11   16.98    5.34   0 
  -1   2   1   11.34    6.48   0 
  -1   2  13  146.83    6.98   0 
  -1   7   3    8.34    5.08   0 
  -1   9   7    2.51    4.16   0 
   1  -2  11    2.61    9.32   0 
   1   7  -1  164.36    7.04   0 
   1  11   3   22.64    5.66   0 
   2   2  -3 1498.56   20.31   0 
   2  11   1    2.36    4.34   0 
   3   0  -3 3468.67   19.51   0 
   4  -3   0   16.81    4.36   0 
   5  -3   0   28.71    4.32   0 
   5  -1  -3    7.39    4.13   0 
   5   3  -5  109.98    6.31   0 
   5   6  -5   54.11    6.65   0 
   6  -3   0    5.92    4.10   0 
   6  -2  -2    7.82    4.18   0 
   6   0  -4   12.36    4.26   0 
   7  -1  -3  755.55    8.94   0 
   7   0  -4  120.22    6.00   0 
   8   0  -4   52.71    4.47   0 
   8   4  -6    8.86    4.65   0 
   8   7  -6    6.95    5.45   0 
  10   2  -5    1.95    4.38   0 
  -2   0   6  192.78    7.13   0 
  -2   0   7  798.61   10.60   0 
  -2   1   4  161.49    7.37   0 
  -2   1  10  336.29    7.78   0 
  -2   6  11   21.60    4.34   0 
  -2   7   8   37.15    4.60   0 
  -2   7  10   32.56    5.69   0 
  -1   6   2    3.63    3.97   0 
   0  10   4   10.97    4.42   0 
   1  -3   7   28.92   12.12   0 
   3  -3   1  946.41   11.24   0 
   3  -2  -1   15.08    4.75   0 
   6  -1  -3   55.58    4.71   0 
   6   2  -5   93.72    5.09   0 
   7  -3   1   59.43    4.97   0 
   8  -3   2    3.38    4.58   0 
   8  -2  -1   67.98    4.61   0 
   8   5  -6   10.59    4.29   0 
   9  -2   0   83.95    5.00   0 
   9  -1  -2   92.78    5.03   0 
   9   2  -5   19.52    4.16   0 
   9   5  -6    2.06    5.10   0 
  10   0  -3   20.21    4.54   0 
  10   1  -4  164.23    5.61   0 
  10   5  -6   20.57    4.79   0 
  -2   0   8   26.32    4.77   0 
  -2   3   3  226.58    7.04   0 
  -2   3  12   12.63    4.45   0 
  -2   5   4  689.23    8.17   0 
  -2   5  12   82.12    5.14   0 
  -2   6   5   17.55    4.26   0 
  -2   7   7    6.09    4.21   0 
  -1   9   5    3.26    5.01   0 
   0   8   1   12.18    5.37   0 
   0   9   2  226.29    7.05   0 
   1  -3   4  331.13   12.26   0 
   1  -2   1  167.75    9.07   0 
   1   5  -2  469.04   13.06   0 
   2  -3   2  632.79   10.66   0 
   3  -1  -2  266.20    6.98   0 
   3   8  -3    4.43    9.80   0 
   4  11  -2    0.74    7.45   0 
   5   4  -5   24.08    5.40   0 
   5   5  -5 1518.13   16.12   0 
   6  -3   1   59.61    5.51   0 
   7  -2  -1   36.03    4.50   0 
   7   2  -5   24.93    4.38   0 
   7   9  -5   52.89    8.32   0 
   8  -3   3    9.92    4.53   0 
   8   2  -5  816.40    8.80   0 
   9   1  -4  224.01    6.40   0 
   9   6  -6   95.43    5.59   0 
   9   7  -6  107.02    6.25   0 
  10  -1  -1  156.42    5.88   0 
  10   3  -5  103.38    6.35   0 
  -2   0   5  293.41    7.58   0 
  -2   0   9    3.71    5.37   0 
  -2   1  11   38.68    5.87   0 
  -2   2   3 3573.92   18.55   0 
  -2   8   8    3.57    4.05   0 
  -1  -1  10   23.71    5.43   0 
  -1   0  12   20.74    6.35   0 
  -1   1  13   28.07    5.95   0 
   0  -1  12   61.82    8.41   0 
   0   3  -1  278.60   10.06   0 
   0   4  -1   14.14    6.44   0 
   0  10   3   46.45    5.68   0 
   1   9   0  317.21    7.71   0 
   1  10   1   96.38    6.26   0 
   2  -2   0  995.85   12.19   0 
   2   0  -2 3654.77   23.84   0 
   2   8  -2   64.41    7.99   0 
   3  11  -1   23.74    6.92   0 
   4  -2  -1   18.79    4.78   0 
   5  -3   1   10.97    4.16   0 
   5   1  -4 1319.46   11.25   0 
   6  -2  -1   48.82    4.50   0 
   6   3  -5   96.83    6.34   0 
   7  -3   2   64.66    4.92   0 
   8  -2   0    8.37    5.19   0 
   8  -1  -2   14.23    4.40   0 
   9  -2   1    4.43    4.53   0 
  -3   4   8  158.65    6.39   0 
  -2   6   4   41.65    4.35   0 
  -2   7   5   13.80    4.30   0 
  -2   8   7   27.51    4.57   0 
  -1   8   3    4.38    4.30   0 
  -1   9   4   14.94    5.40   0 
  -1  10   6   -0.32    4.57   0 
   0  -2  10   64.53    8.81   0 
   0   7   0   11.06    5.72   0 
   1  11   2   14.60    4.90   0 
   2   3  -3   33.59    8.44   0 
   4  -1  -2 1391.38   11.94   0 
   4   0  -3 4045.44   19.18   0 
   4   2  -4  600.38    9.77   0 
   4   7  -4  251.86   15.50   0 
   5  -2  -1   37.71    4.31   0 
   6  -3   2   17.97    5.48   0 
   6   1  -4   10.64    4.19   0 
   7  -3   3   89.24    5.14   0 
   7  -1  -2  298.80    6.21   0 
   7   1  -4   34.69    4.59   0 
   7   3  -5   52.19    5.67   0 
   8   0  -3   49.34    4.71   0 
   8   1  -4   69.39    4.89   0 
   9  -1  -1  113.57    5.36   0 
   9   3  -5   -0.03    4.37   0 
  10   0  -2   11.55    4.60   0 
  10   1  -3    3.84    5.71   0 
  10   2  -4    8.21    4.32   0 
  -3   2   7   43.72    5.46   0 
  -3   2   8   31.88    4.56   0 
  -3   3   6    3.21    5.54   0 
  -3   3   9   32.20    4.18   0 
  -3   4   7   28.71    4.35   0 
  -3   4   9  116.97    4.99   0 
  -3   4  10   20.85    4.53   0 
  -3   5   7    0.66    5.15   0 
  -3   5   9    3.30    4.23   0 
  -2   0   4  821.12   11.90   0 
  -2   8   6    3.36    4.62   0 
   1  -3   5  437.22   14.82   0 
   2  -1  -1 3722.34   23.05   0 
   3  -3   2   -0.04    5.66   0 
   3   1  -3  835.90   11.91   0 
   5  -3   2    5.02    5.30   0 
   5  -1  -2  554.04    7.73   0 
   5   0  -3  500.43    7.49   0 
   6  -1  -2   13.34    4.55   0 
   6   4  -5   20.24    5.99   0 
   6   7  -5   -2.72    6.29   0 
   6  10  -4   50.42   12.49   0 
   7  -3   4   60.03    5.35   0 
   7  -3   5   21.72    6.11   0 
   7  -2   0  308.51    6.57   0 
   7   0  -3   92.14    5.01   0 
   8  -2   1   23.55    5.48   0 
   9  -2   2   81.63    5.42   0 
  11   3  -4   40.86    5.32   0 
  -3   2   6  119.85    5.14   0 
  -3   2   9   23.78    4.60   0 
  -3   4   6    3.27    4.58   0 
  -3   4  11   16.76    4.60   0 
  -3   5   6   90.16    5.63   0 
  -3   5  10  205.48    5.74   0 
  -3   5  11   47.12    4.94   0 
  -3   6   8   -2.98    4.76   0 
  -3   6  10    5.17    4.47   0 
  -2   1  12  128.21    7.02   0 
  -2   6   3   73.26    5.57   0 
  -2   7   4    2.65    4.10   0 
  -1  -2   6   32.22    7.84   0 
  -1  -2   7  203.40    9.57   0 
  -1  -1  11    0.25    6.20   0 
  -1  10   5   15.07    4.76   0 
   0   2  -1  874.59   20.23   0 
   1   8  -1  301.12    8.17   0 
   2  11   0    1.64    5.22   0 
   3  -2   0   16.36    6.29   0 
   3  10  -2  162.85    9.50   0 
   4  -3   2  464.33    8.20   0 
   6  -3   3   16.39    4.80   0 
   6   0  -3  232.51    5.96   0 
   6   5  -5   12.50    5.59   0 
   8  -1  -1  407.27    6.72   0 
   9   0  -2    6.65    4.51   0 
   9   1  -3    4.63    5.29   0 
   9   2  -4   59.99    4.63   0 
   9   4  -5    2.09    4.37   0 
  11   2  -3    5.98    4.44   0 
  -3   1   7   94.89    4.99   0 
  -3   2   5    1.35    5.51   0 
  -3   3   5  278.32    6.24   0 
  -3   7   9  141.13    6.28   0 
  -2  -1   6    3.57    5.66   0 
  -2  -1   7   88.99    6.40   0 
  -2  -1   8    4.62    5.61   0 
  -2   3   2  126.22    6.12   0 
  -1  -2   8   90.90    7.95   0 
  -1   8   2  112.53    6.18   0 
  -1   9   3   41.43    5.76   0 
   0   9   1    6.80    5.55   0 
   1  -3   6  142.26   12.14   0 
   2  10  -1    3.32    6.32   0 
   3  -3   9  151.13   11.03   0 
   4  -3   9   11.42    8.13   0 
   5  -3   3  242.66    7.57   0 
   5  -2   0   10.49    4.98   0 
   5   2  -4   69.36    5.07   0 
   6  -3   7   70.20    6.70   0 
   6   6  -5   64.32    5.89   0 
   7   4  -5  715.76    9.31   0 
   7   8  -5  122.50    8.13   0 
   8  -2   2   16.98    5.46   0 
   8   2  -4   99.70    5.16   0 
   8   4  -5  191.37    5.93   0 
   8   9  -5   10.29    6.74   0 
   9  -1   0   43.58    4.64   0 
  10   0  -1   64.35    5.04   0 
  10   3  -4   24.37    4.64   0 
  10   5  -5   -0.28    4.45   0 
  -3   1   6  227.69    6.14   0 
  -3   1   9 1102.77   10.76   0 
  -3   2  11  326.86    6.68   0 
  -3   3  12    1.39    4.60   0 
  -3   6   6   22.27    4.40   0 
  -3   7   7   13.49    5.20   0 
  -3   7   8   22.11    4.40   0 
  -2   5   2  627.72    8.89   0 
  -2   9   6  194.17    5.79   0 
  -1  -2   5  197.67   11.24   0 
  -1   7   1   26.87    5.88   0 
  -1  10   4   74.16    5.18   0 
   1  -1   0 2664.56   26.05   0 
   1  11   1   75.12    6.25   0 
   3  -3   3   12.10    5.67   0 
   4  -3   3    2.02    5.60   0 
   4  -2   0  601.78    8.49   0 
   5  -3   8   23.60    7.25   0 
   6  -3   5    0.77    4.47   0 
   6  -3   6    9.13    5.98   0 
   6   2  -4   74.51    4.69   0 
   7  -2   1  216.89    5.90   0 
   7  -1  -1  155.64    5.52   0 
   7   2  -4    3.20    4.10   0 
   7   5  -5  514.36    8.94   0 
   8   1  -3  142.01    5.36   0 
   8   5  -5  266.10    7.43   0 
   9   5  -5   11.40    4.48   0 
  10   1  -2  148.11    5.53   0 
  10   2  -3   31.37    4.68   0 
  10   6  -5    7.24    5.95   0 
  11   4  -4   32.19    4.66   0 
  -3   1   5  115.43    6.54   0 
  -3   1  10  109.90    5.29   0 
  -3   4   4   49.91    4.72   0 
  -3   6   5   45.10    4.50   0 
  -2  -1   5   33.27    5.68   0 
  -2   9   5   11.85    5.50   0 
   0   6  -1    4.72    5.38   0 
   0   8   0   37.44    5.55   0 
   1  10   0   18.02    5.50   0 
   2  -3   4 2312.28   20.89   0 
   3  -1  -1 3667.95   19.72   0 
   3   0  -2   79.60    6.09   0 
   4   1  -3   36.90    5.34   0 
   5  -3   4   36.97    5.85   0 
   6  -2   1    6.06    5.18   0 
   6  -1  -1    1.18    4.45   0 
   7   0  -2  203.74    6.59   0 
   7   1  -3   -0.17    5.15   0 
   7   6  -5   12.48    5.52   0 
   7   7  -5    6.50    5.40   0 
   8  -2   3   21.87    4.58   0 
   8  -1   0   -2.08    4.19   0 
   8   8  -5   15.76    6.31   0 
   9  -1   1   14.19    4.46   0 
  10   0   0    3.07    4.48   0 
  10   7  -5    5.61    5.91   0 
  11   2  -2   16.06    4.98   0 
  11   3  -3   94.44    5.08   0 
  -3   0   8  788.99   10.39   0 
  -3   1  11   24.55    5.72   0 
  -3   2   4  131.23    5.67   0 
  -3   2  12   41.75    4.71   0 
  -3   8   7   24.43    5.62   0 
  -2   0   3 3403.96   21.87   0 
  -2   0  12   17.07    5.87   0 
  -2   6   2   16.58    4.48   0 
  -1  -2   9    5.93    6.85   0 
  -1  -1  12    5.93    6.66   0 
   2  -3   8   21.82    9.98   0 
   2  -2   1  533.67    9.77   0 
   4  -3   4    7.23    5.57   0 
   4  -3   8   80.62    7.41   0 
   4  -1  -1  145.20    6.63   0 
   5  -3   5   19.86    5.57   0 
   5  -3   6    8.63    5.37   0 
   5  -3   7    7.11    5.42   0 
   5  -1  -1  990.43    9.81   0 
   6   1  -3    7.91    4.20   0 
   7  -2   2   26.88    4.53   0 
   8  -2   4    1.78    4.62   0 
   8   6  -5    8.84    4.55   0 
   8   7  -5   56.46    6.03   0 
   9   1  -2  429.29    6.84   0 
   9   2  -3   41.03    4.52   0 
   9   7  -5   52.70    6.14   0 
   9   8  -5   11.11    5.51   0 
  11   5  -4   16.54    4.66   0 
  -4   3   9   15.60    5.40   0 
  -4   4   8   65.04    4.51   0 
  -4   4   9    9.75    4.23   0 
  -4   4  10   29.27    5.61   0 
  -4   5   9   79.37    5.81   0 
  -3   0   6 1096.59   11.41   0 
  -3   0   9  173.26    6.81   0 
  -2  -1  10  103.44    6.26   0 
  -2   1   2    1.36    6.15   0 
  -1   2   0 4814.22   29.14   0 
  -1   9   2   24.40    4.66   0 
  -1  10   3    2.16    4.43   0 
   0  -2  11   56.14    9.71   0 
   2   9  -2   44.85    7.75   0 
   3  -3   4  634.38   10.46   0 
   3  -3   8    9.75    7.40   0 
   3   2  -3   62.42    6.73   0 
   4  -3   5  109.60    6.93   0 
   4   0  -2  257.71    6.59   0 
   4   6  -4  501.75   13.93   0 
   5  -2   1   15.23    4.32   0 
   5   0  -2  616.85    8.18   0 
   6   0  -2  223.93    6.01   0 
   6   3  -4 1158.25   11.73   0 
   7  -1   0  329.10    6.63   0 
   7   3  -4  173.51    6.23   0 
   8  -2   5   50.95    5.17   0 
   9  -1   2   36.76    4.93   0 
  -4   2   8   39.71    5.30   0 
  -4   2   9   48.19    5.29   0 
  -4   3  10   40.51    4.58   0 
  -4   4   7  172.03    5.48   0 
  -4   4  11   54.29    5.04   0 
  -4   5   7    2.06    4.43   0 
  -4   5   8   33.46    4.81   0 
  -4   6   9   51.94    5.06   0 
  -3   0  10  194.09    7.12   0 
  -3   1  12    4.68    5.78   0 
  -3   3   3  257.74    6.35   0 
  -3   4   3  304.27    6.35   0 
  -3   8   6   45.85    5.07   0 
  -2   7   2   12.42    5.72   0 
  -2   9   4   47.72    5.06   0 
   0  10   1    6.96    4.79   0 
   2  -3   5  201.63    8.70   0 
   3  -3   5   35.96    6.56   0 
   3  -2   1  146.34    6.39   0 
   4  -3   6   28.18    5.68   0 
   4  -3   7  556.54   10.77   0 
   4  -2   1 1164.79   11.21   0 
   4   5  -4  816.29   14.15   0 
   6  -2   2  208.13    6.06   0 
   8  -1   1    3.63    4.12   0 
   8   1  -2  546.70    8.07   0 
   8   2  -3  192.70    5.80   0 
   9  -1   3    4.33    5.66   0 
   9   0   0   20.00    4.49   0 
   9   4  -4  216.63    5.95   0 
  10   2  -2  288.90    6.26   0 
  10   3  -3   35.75    4.44   0 
  10   5  -4    0.50    5.26   0 
  11   2  -1   19.54    4.84   0 
  11   4  -3  306.20    6.91   0 
  11   6  -4   27.32    4.85   0 
  -4   2   7    1.89    4.14   0 
  -4   5   6   27.16    5.49   0 
  -4   6   7  148.57    5.61   0 
  -4   6   8   33.51    4.77   0 
  -3   0   5  177.68    6.29   0 
  -3   2   3  762.09    9.16   0 
  -3   5   3    5.69    4.14   0 
  -3   7   4   47.16    5.41   0 
  -3   8   5    2.39    5.23   0 
  -2  -1   4 3224.41   23.44   0 
  -2  -1  11   39.08    6.57   0 
  -2   5   1 1158.04   11.19   0 
   0   7  -1    6.39    5.23   0 
   1  -2   2  870.70   15.61   0 
   1   7  -2   19.00    6.17   0 
   2  -3   6  135.05    8.64   0 
   2   1  -2  567.94   12.13   0 
   3  -3   6  107.03    7.32   0 
   3  -3   7   62.43    7.94   0 
   6  -1   0   33.59    4.53   0 
   7  -2   4   78.82    6.22   0 
  10   0   2   22.88    5.10   0 
  11   3  -2    5.86    4.50   0 
  -4   1   8  472.15    7.94   0 
  -4   1   9  241.54    7.02   0 
  -4   2   6   42.08    4.52   0 
  -4   6   6   54.91    5.53   0 
  -4   7   8   33.40    4.72   0 
  -3   6   3   39.70    5.58   0 
  -2   2   1 1058.86   12.81   0 
   2  11  -1   20.64    6.89   0 
   6  -2   3    2.09    5.75   0 
   7  -2   5  179.53    7.37   0 
   7  -2   6   56.01    6.55   0 
   7  -2   7   10.40    6.00   0 
   7  -1   1    7.26    5.47   0 
   7   0  -1   58.48    4.78   0 
   7   1  -2   90.30    6.01   0 
   7   4  -4   27.53    5.56   0 
   8  -1   2    7.28    4.35   0 
   9   0   1   59.53    5.76   0 
   9   1  -1  147.70    5.39   0 
   9   2  -2   39.76    5.41   0 
   9   5  -4    3.61    5.57   0 
  10   1   0   68.01    4.99   0 
  10   6  -4  184.83    6.68   0 
  -4   1   7   39.01    4.52   0 
  -4   1  10   67.62    5.32   0 
  -4   2  12    6.29    5.40   0 
  -4   3   5   15.49    4.67   0 
  -4   5   5   13.22    4.46   0 
  -4   7   7   16.31    4.56   0 
  -2   9   3  121.89    5.64   0 
  -1   7   0   33.26    4.71   0 
  -1   9   1    3.00    5.51   0 
  -1  10   2  114.25    5.92   0 
   1  11   0   73.86    6.62   0 
   2  -1   0 5126.46   27.91   0 
   4   2  -3   37.60    5.30   0 
   5  -1   0  286.95    6.50   0 
   6   2  -3   78.86    4.91   0 
   8   0   0  439.91    6.94   0 
  10   0   3    9.15    4.74   0 
  10   2  -1   27.56    4.77   0 
  10   4  -3  193.64    5.68   0 
  11   2   0    8.59    4.69   0 
  11   5  -3   21.70    4.75   0 
  -4   1   6  126.39    4.99   0 
  -4   6   5   36.64    4.63   0 
  -3   0   4 2069.30   15.27   0 
  -3   1   3  119.37    5.75   0 
  -3   4   2  117.64    5.32   0 
  -3   8   4    5.07    4.33   0 
   4  -2   2  428.90    7.75   0 
   4  -1   0  703.42    9.39   0 
   5   2  -3    5.25    4.69   0 
   6   0  -1   42.50    4.49   0 
   6   1  -2   79.63    4.98   0 
   8  -1   3    0.65    4.48   0 
   8   5  -4    4.98    4.24   0 
  10   3  -2    7.64    4.30   0 
  10   7  -4    9.38    5.05   0 
  11   3  -1    1.06    4.35   0 
  11   4  -2   30.75    4.53   0 
  -5   5   6  133.72   16.36   0 
  -4  -1   7    6.75    6.04   0 
  -3  -2   7  108.90    6.29   0 
  -3  -2   9    5.07    4.40   0 
  -3  -1   4  964.81   13.58   0 
  -3   8   3    6.55    5.85   0 
  -2  -2  12   49.47    6.37   0 
  -1  -3   7 1493.29   12.38   0 
  -1  -3   8  622.90    9.08   0 
   0  -3   6   31.61    4.76   0 
   0  -3   9    6.93    4.65   0 
   0  -3  10   88.73    6.86   0 
   0  -1   1  128.91   10.06   0 
   1  -3  10   10.45    4.86   0 
   1   3  -2 2983.53   19.59   0 
   1   7  -2   21.00    4.55   0 
   1  11   0   74.29    5.61   0 
   2  -3  10   62.51    5.19   0 
   2  -2   2 1140.72   13.74   0 
   2   2  -2  259.24   10.20   0 
   2   9  -2   39.95    4.87   0 
   3  -3   6  112.74    5.58   0 
   3  -3   7   59.65    4.96   0 
   3  -3   8   16.03    4.83   0 
   3   5  -3 1283.21   12.09   0 
   3   7  -3   29.27    4.93   0 
   3  10  -2  168.95    6.94   0 
   4   9  -3    4.04    4.56   0 
   5  10  -3   44.21    5.35   0 
   6   2  -2  864.47   15.06   0 
   8  -1   5   22.00    6.27   0 
   8   5  -3   66.19    6.49   0 
   9   6  -3   47.50    6.21   0 
  10   8  -3   55.26    6.70   0 
  -5   0   9  338.75    8.71   0 
  -3   6   2   47.38    6.30   0 
  -3   9   4   12.69    6.58   0 
  -2   7   1  382.21    8.02   0 
  -1  -3   6  111.46    6.51   0 
  -1  -3   9    0.46    4.57   0 
  -1  -3  10  329.89    7.97   0 
  -1  -2   3  210.74    8.67   0 
  -1   9   1    3.44    5.99   0 
   0  -3   5  380.93    7.38   0 
   0  -3  11  107.30    6.77   0 
   0   7  -1   11.46    5.35   0 
   1  -3  11  220.06    6.74   0 
   1  -2   2  898.66   12.51   0 
   1   6  -2  903.42    9.71   0 
   1   9  -1   78.89    6.24   0 
   3  -3  10   67.78    5.73   0 
   3  -2   2 2409.53   19.04   0 
   3   6  -3  263.17    6.44   0 
   4  -3   8   83.68    6.63   0 
   4   4  -3  225.85    7.75   0 
   5  -2   3  158.26    7.73   0 
   6   4  -3 1311.83   13.84   0 
   6  10  -3    1.14    4.86   0 
   9   0   3   78.79    8.29   0 
  10   5  -2   51.92    6.53   0 
  10   9  -3   33.97    5.27   0 
  -5   0   8   40.76    6.32   0 
  -5   0  10   54.98    5.43   0 
  -5   0  11  112.91    7.32   0 
  -5   1   6    3.74    6.96   0 
  -5   6   7   14.54   12.59   0 
  -4  -1   6   54.33    5.49   0 
  -4   6   4  552.97   13.54   0 
  -3  -2   6  474.66    8.02   0 
  -3  -2  11   65.11    5.31   0 
  -2  -3   8   19.90    5.70   0 
  -2  -2   4   52.93    6.24   0 
  -1  -3  11   20.60    6.12   0 
  -1   7   0   31.27    5.18   0 
   0   2  -1  894.77   15.41   0 
   0   9   0  244.35    7.01   0 
   1   4  -2   66.93    5.54   0 
   1   5  -2  442.85    7.91   0 
   2  -3   4 2267.31   15.87   0 
   2   8  -2   58.40    5.32   0 
   2  10  -1    5.79    5.99   0 
   4  -3   6   32.77    5.01   0 
   4  -3   9    4.55    5.28   0 
   5   4  -3 1213.00   12.15   0 
   5   9  -3  679.49    8.56   0 
   6  -2   4   50.22    6.53   0 
   7  -2   7    8.34    6.71   0 
   7  10  -3   49.09    5.31   0 
   8  -1   4   68.64    6.73   0 
   8   2  -1    9.12    8.76   0 
   8  10  -3   -0.34    4.66   0 
   9   7  -3   43.17    6.41   0 
   9   9  -3    7.91    6.20   0 
   9  10  -3   21.99    5.21   0 
  -5   0   7  175.69    8.57   0 
  -3  -2  12   -2.75    5.25   0 
  -2  -3   9  461.28    7.69   0 
  -2  -3  10  154.71    5.85   0 
  -2   8   2   54.68    6.59   0 
  -1  -3   5  614.18    8.81   0 
  -1  10   2  115.14    6.49   0 
   0   6  -1    4.76    5.44   0 
   3   9  -2   12.91    4.36   0 
   3  11  -1   21.83    5.08   0 
   4  -3   5  100.37    6.88   0 
   4  -2   2  422.04    9.90   0 
   4   6  -3  126.10    5.46   0 
   4  10  -2    7.87    4.68   0 
   5  -3   8   25.79    6.29   0 
   5  11  -2    4.00    4.75   0 
   7  -2   6   64.10    6.84   0 
   7   5  -3   -2.27    4.90   0 
   7   9  -3  220.63    6.26   0 
   8   6  -3   52.17    5.15   0 
   8   9  -3   77.61    5.40   0 
   9   8  -3  178.15    6.24   0 
  -6   3  10    8.14    8.52   0 
  -4  -2   8  158.66    6.66   0 
  -4  -2   9   23.68    4.81   0 
  -4  -2  10   41.56    6.18   0 
  -4   7   5  121.35    9.84   0 
  -3   5   2  748.95   12.60   0 
  -3   7   3    0.70    5.57   0 
  -2  -3  11   35.58    4.98   0 
  -2   6   1 1256.92   13.26   0 
   0  -3   4 1898.93   14.28   0 
   0  -2   2    2.99    6.52   0 
   0  10   1    9.96    4.71   0 
   1   1  -1   84.19   11.16   0 
   1   8  -1  282.49    6.44   0 
   1  10   0   11.67    4.75   0 
   2   7  -2    6.19    4.57   0 
   2  11   0    9.54    6.00   0 
   3   2  -2  405.93    9.68   0 
   5  -3   6   11.23    5.95   0 
   5  -3   7   11.22    4.65   0 
   5   2  -2  445.38   10.64   0 
   5   5  -3   -0.08    4.44   0 
   5   6  -3  414.16    7.19   0 
   6   5  -3  569.51    8.80   0 
   6   8  -3   25.32    5.06   0 
   6  11  -2   18.50    4.87   0 
   7  -2   5  184.11    8.29   0 
   7  -1   2  701.08   14.50   0 
   7   6  -3   25.76    5.65   0 
   7   8  -3   73.28    5.25   0 
   8   7  -3  239.20    6.72   0 
   8   8  -3   -0.39    4.24   0 
  10   1   2    3.59   11.93   0 
  11   5  -1  203.77    9.63   0 
  11   8  -2   19.45    6.52   0 
  -5  -1  10   52.04    6.45   0 
  -4  -2   7  289.83    7.91   0 
  -4  -2  11   44.52    5.61   0 
  -4  -1   5   82.20    6.64   0 
  -4   0   4   14.49    6.97   0 
  -3  -3   8   89.75    6.31   0 
  -3  -3   9  341.33    6.84   0 
  -2   9   3  129.64    7.97   0 
  -1   8   1  278.39    7.97   0 
   0  -4   8  172.01    6.56   0 
   0  -4   9    3.23    5.81   0 
   0   3  -1  278.27    9.25   0 
   1  -4   7  268.56    7.26   0 
   1  -4   8    9.04    4.64   0 
   1  -4   9    6.46    5.01   0 
   1  11   1   79.42    5.49   0 
   2   3  -2  139.95    6.86   0 
   2   6  -2   13.97    4.64   0 
   3   8  -2  968.30    9.93   0 
   4  -3   4    5.69    5.85   0 
   4   9  -2   54.90    5.93   0 
   6   7  -3   49.74    5.07   0 
   7   3  -2  566.25   11.58   0 
   7   7  -3  173.36    5.91   0 
   7  11  -2    6.04    6.04   0 
  10   6  -2   -1.45    5.80   0 
  -6   2   9   17.76    8.10   0 
  -6   3   9    8.89    9.21   0 
  -5  -1   8  156.99    6.96   0 
  -5  -1  11   15.21    5.34   0 
  -3  -3   7    2.45    4.37   0 
  -3  -3  11    7.57    4.94   0 
  -3   8   4    3.84    5.75   0 
  -2  -3   5  171.90    6.22   0 
  -1  -4   8   43.24    5.90   0 
  -1  -4   9    2.87    4.95   0 
  -1  -3   4  437.65    7.76   0 
   0  -4   7    8.88    4.53   0 
   0  -4  10   30.44    5.09   0 
   0   4  -1   15.50    5.57   0 
   1  -4   6  322.71    7.69   0 
   1  -4  10   14.71    5.06   0 
   1   7  -1  158.17    6.52   0 
   2  -4   7  109.92    5.22   0 
   2  -4   8   11.67    4.64   0 
   2  -4   9  168.09    6.09   0 
   2  -3   3  558.94    9.22   0 
   2   5  -2  161.22    5.85   0 
   3  10  -1  334.03    6.83   0 
   4  11  -1   23.41    4.73   0 
   5  -3   5   12.41    5.04   0 
   6  -2   3    6.00    5.74   0 
   6  -1   1  225.40   10.61   0 
   6   1  -1   12.83   10.04   0 
   8  -1   3    6.44    7.40   0 
   8  11  -2    1.05    4.93   0 
   9   3  -1    1.70    7.81   0 
   9   5  -2   10.29    5.77   0 
  10   4  -1  154.54    9.44   0 
  -6   1  10   31.72    6.68   0 
  -5   0   6  781.14   12.69   0 
  -4  -2   6   58.49    6.06   0 
  -4   5   4  114.77    9.61   0 
  -3   4   2  124.62    7.82   0 
  -2  -2   3 1814.27   16.21   0 
  -2  -1   2  693.44   14.81   0 
  -1  -4   7  359.57    7.06   0 
  -1  -4  10   14.10    4.80   0 
  -1  -4  11    2.96    5.15   0 
  -1   5   0  422.39    8.24   0 
  -1   9   2   26.14    6.00   0 
   0  -4   6  167.22    5.91   0 
   1   9   0  324.08    7.04   0 
   2  -4   6  198.29    6.05   0 
   3  -4   7   27.63    4.81   0 
   3  -4   8    1.63    5.00   0 
   3  -4   9   44.83    5.69   0 
   3  -3   3   11.60    4.90   0 
   3  -1   0  968.24   21.59   0 
   3   7  -2   37.90    4.87   0 
   5  -2   2  597.06   11.18   0 
   5   9  -2   -0.74    4.64   0 
   6  -3   7   72.74    5.97   0 
   6  10  -2    3.94    4.73   0 
   7  -2   4   80.66    6.94   0 
   7  10  -2   53.74    6.17   0 
   8   4  -2    0.87    5.92   0 
   9  10  -2   24.11    4.90   0 
  10   7  -2   39.06    5.38   0 
  10   8  -2   25.93    6.37   0 
  10   9  -2   99.06    5.96   0 
  -6   1   9  106.56    8.29   0 
  -6   4   9   13.14   12.40   0 
  -5  -1   7  614.15   10.54   0 
  -3  -3   6   25.86    4.59   0 
  -3  -2   4 2684.40   19.34   0 
  -3  -1   3  808.59   13.81   0 
  -2  -4   8  230.69    6.11   0 
  -2  -4   9   59.61    5.27   0 
  -2  -4  10  114.05    5.81   0 
  -2   7   2    7.09    4.80   0 
  -1  -4   6  874.55    9.60   0 
  -1   2   0 4663.13   34.49   0 
  -1   4   0  772.62   12.08   0 
  -1  10   3    4.99    5.28   0 
   0  -3   3  601.50    9.50   0 
   0   7   0   11.25    5.52   0 
   0   9   1    9.22    4.99   0 
   1  -4   5  127.57    5.51   0 
   2  -4   5    8.43    5.74   0 
   2   8  -1  230.59    6.31   0 
   2  10   0   10.99    4.63   0 
   3  -4   6    4.23    4.92   0 
   3   3  -2   24.79    5.54   0 
   3   6  -2   29.45    5.78   0 
   3  11   0   85.24    5.64   0 
   4  -4   8    4.23    6.16   0 
   4   8  -2  187.95    6.20   0 
   5  -3   4   41.10    6.37   0 
   5  11  -1    9.49    4.97   0 
   6  -3   6   13.25    5.17   0 
   8   0   1    5.47   12.29   0 
   8  10  -2  264.45    6.74   0 
   9   6  -2   53.08    6.55   0 
   9   9  -2  355.82    8.40   0 
  11   4   0   31.84    9.11   0 
  11   6  -1    3.43    6.62   0 
  -6   0  10    4.07    6.31   0 
  -6   0  11   23.77    6.70   0 
  -6   2   8   41.64    9.57   0 
  -5  -2   9    5.00    6.31   0 
  -5  -2  10  264.82    7.11   0 
  -5  -2  11   45.77    6.91   0 
  -5   2   5    0.12   11.88   0 
  -4  -3   9    4.42    4.72   0 
  -4  -3  10   82.26    5.56   0 
  -4  -3  11   62.40    5.81   0 
  -3   3   2  283.55   11.88   0 
  -3   6   3   46.14    6.28   0 
  -2  -4   7    3.54    4.77   0 
  -2  -4  11   26.40    5.11   0 
  -2  -3   4  288.55    8.25   0 
  -1  -2   2 5351.09   29.10   0 
  -1   3   0  186.48    8.93   0 
  -1   7   1   27.78    5.29   0 
   0  -4   5  245.84    6.51   0 
   1   6  -1   16.66    4.84   0 
   1  10   1   89.19    5.57   0 
   2  -2   1  506.68   11.75   0 
   2  -1   0 5010.60   46.80   0 
   3  -4   5  150.08    7.24   0 
   3  -2   1  157.91    8.24   0 
   3   4  -2  397.47    9.18   0 
   3   5  -2 2710.43   16.17   0 
   4  -4   7   -0.54    5.13   0 
   4  -3   3    2.89    6.29   0 
   4   7  -2   66.06    5.24   0 
   4  10  -1  531.50    8.09   0 
   5   8  -2  501.02    7.91   0 
   6  -3   5    3.22    5.99   0 
   6   3  -2  924.75   13.01   0 
   6   9  -2  427.97    7.16   0 
   6  11  -1   62.14    6.46   0 
   7   9  -2  309.97    6.78   0 
   9   0   2    5.38    9.78   0 
   9   7  -2    5.04    6.34   0 
   9   8  -2  260.17    7.98   0 
  -6   0   9    4.49    6.02   0 
  -6   1   8    1.02    7.16   0 
  -5  -2   8    5.61    5.95   0 
  -4  -3   7  161.85    6.74   0 
  -3  -4   8  113.45    6.48   0 
  -3  -4   9  256.26    6.74   0 
  -3  -4  10   13.21    4.82   0 
  -3  -4  11   78.95    6.53   0 
  -3  -3   5   28.06    5.11   0 
  -3   2   2 1203.44   27.78   0 
  -2  -4   6  124.56    5.90   0 
  -2   9   4   52.10    7.24   0 
  -1  -4   5  159.31    6.05   0 
  -1  -3   3  903.55   10.92   0 
   1  11   2   17.76    5.17   0 
   4  -4   6    6.04    5.02   0 
   4   3  -2  133.81    6.86   0 
   5   3  -2  111.87    7.16   0 
   5  12   0   15.13    5.46   0 
   7   4  -2  156.20    7.35   0 
   7  11  -1  108.64    6.74   0 
   8  -2   5   51.50    7.29   0 
   8   5  -2 1431.03   13.59   0 
   8   8  -2   12.40    5.84   0 
   9  -1   4   21.42    8.22   0 
  -6   3   8    5.28   10.12   0 
  -5  -1   6   18.04    6.11   0 
  -5   1   5  180.16   11.15   0 
  -4  -2   5  567.48    9.21   0 
  -4  -1   4  926.77   13.48   0 
  -4   6   5   34.74    8.60   0 
  -3  -4   7  136.78    6.59   0 
  -2   3   1 1153.98   16.94   0 
  -1   8   2  117.02    7.21   0 
   0  -5   8  285.92    6.62   0 
   0  -5   9   47.26    5.50   0 
   0  -5  10   35.08    5.40   0 
   0  -4   4   28.69    6.12   0 
   0   6   0  385.51    8.50   0 
   1  -5   8    4.15    5.03   0 
   1  -5   9    6.23    4.99   0 
   1  -4   4  170.92    6.01   0 
   1  -2   1  179.59    8.38   0 
   1   2  -1 2644.67   24.49   0 
   1   5  -1 1678.24   13.77   0 
   2  -3   2  611.94   10.96   0 
   2   7  -1    8.76    4.82   0 
   2   9   0  543.54    7.86   0 
   4  -4   5   13.16    6.10   0 
   4  -1   0  685.29   19.12   0 
   4   9  -1   37.18    6.03   0 
   4  11   0    8.94    4.89   0 
   5  -4   7   42.75    6.94   0 
   5   7  -2    7.40    4.64   0 
   5  10  -1    3.88    5.04   0 
   6  12   0   13.43    6.33   0 
   8   6  -2   25.15    5.23   0 
   9   2   0   61.11   11.48   0 
  10   3   0   22.95    8.57   0 
  10   5  -1   12.78    6.31   0 
  11   8  -1    6.94    6.74   0 
  -6  -1  10   -1.99    6.32   0 
  -6  -1  11   65.69    6.08   0 
  -6   0   8  315.69    9.86   0 
  -5  -3  10  148.67    7.18   0 
  -4  -3   6   -1.87    5.48   0 
  -3   7   4   46.25    6.54   0 
  -3   8   5    0.04    6.99   0 
  -2  -4   5  461.29    7.82   0 
  -2   2   1 1077.71   20.35   0 
  -2   6   2   15.42    6.42   0 
  -1  -5   8  103.43    5.68   0 
  -1  -5   9   41.70    5.45   0 
  -1  -5  10   11.94    5.13   0 
  -1  -1   1   92.59   11.29   0 
  -1   6   1  202.69    7.70   0 
   0  -5   7   11.92    4.90   0 
   0   8   1   19.41    5.20   0 
   1  -5   7   86.60    5.32   0 
   1  -3   2  508.88    9.67   0 
   2  -5   8   -2.99    5.12   0 
   2  -5   9   38.85    5.49   0 
   3  -4   4   61.23    6.43   0 
   3  -3   2   -1.24    6.04   0 
   4  -2   1 1211.01   16.32   0 
   4   4  -2 2458.64   17.16   0 
   4   5  -2  432.03    8.00   0 
   5  -4   6   70.89    6.92   0 
   5   4  -2  383.09    9.13   0 
   5   6  -2  245.33    6.30   0 
   6  -3   4  154.13    7.75   0 
   6  -2   2  203.81    9.06   0 
   6   4  -2 1326.72   13.36   0 
   6  10  -1  182.31    6.00   0 
   7   5  -2  133.96    6.23   0 
   7   6  -2   53.91    6.07   0 
   7   7  -2   50.38    4.96   0 
  10  10  -1   38.75    5.59   0 
  11   3   1    2.25   10.97   0 
  -6  -1   9    5.97    6.08   0 
  -5  -3   9  161.88    6.36   0 
  -5  -3  11  133.75    6.23   0 
  -5   0   5 1028.04   16.19   0 
  -4  -4   9    2.45    4.41   0 
  -4  -4  10  279.77    6.97   0 
  -4  -4  11   23.45    5.28   0 
  -3  -4   6   51.33    5.09   0 
  -2  -5   8  161.40    6.08   0 
  -2  -5   9  329.45    7.14   0 
  -2  -5  10   -0.62    5.01   0 
  -1  -5   7   23.04    4.85   0 
  -1  -4   4  229.96    6.64   0 
  -1   9   3   36.42    5.58   0 
  -1  10   4   82.08    7.24   0 
   0  -5   6  595.19    8.63   0 
   0   9   2  226.61    7.88   0 
   1  -5   6  201.87    6.40   0 
   1   3  -1 4948.41   26.71   0 
   1   9   1    5.29    4.67   0 
   2  -5   7  136.51    6.06   0 
   2   1  -1 4072.72   36.81   0 
   3  11   1   20.84    5.04   0 
   5   9  -1   48.82    5.94   0 
   6   5  -2   42.36    4.89   0 
   7  10  -1    2.20    4.49   0 
   8  10  -1   30.92    5.10   0 
   9   4  -1  118.72    8.08   0 
   9  10  -1   12.63    4.86   0 
  10   6  -1   37.98    6.29   0 
  -6  -2  11   34.85    6.94   0 
  -6  -1   8    2.33    5.84   0 
  -5  -3   8    8.28    4.85   0 
  -4  -4   8   -1.28    4.48   0 
  -4   4   4    4.77    8.63   0 
  -3  -5  10   75.20    6.44   0 
  -3  -3   4 1753.88   14.41   0 
  -3   5   3    3.84    6.82   0 
  -2  -5   7  148.01    5.87   0 
  -1  -5   6   44.14    5.17   0 
   0  -3   2  671.83   10.44   0 
   0   5   0 1406.88   14.14   0 
   0  10   3   42.59    6.69   0 
   1   7   0  431.63    7.47   0 
   1  10   2    8.27    5.92   0 
   2  -5   6  196.37    6.28   0 
   2  11   2  104.17    5.94   0 
   3  -5   7    5.82    5.30   0 
   3  12   2   14.12    5.01   0 
   4  -4   4   35.62    5.97   0 
   4  10   0   63.21    5.25   0 
   5  -4   5   35.08    6.60   0 
   7  -3   5   19.59    6.07   0 
   7   2  -1  451.72   13.00   0 
   8  -2   4    1.80    6.41   0 
   8   3  -1   31.18    7.07   0 
  10   0   3    8.07   10.24   0 
  10   7  -1   18.66    6.18   0 
  10   8  -1  119.21    6.26   0 
  11   5   0   71.44    8.01   0 
  -6  -2   9   37.96    6.48   0 
  -6  -2  10    1.81    5.51   0 
  -6   1   7  350.26   12.87   0 
  -5  -2   6  281.70    7.48   0 
  -4  -4   7   16.13    4.73   0 
  -3  -5   8  832.60    9.26   0 
  -3  -5   9   -2.25    4.82   0 
  -3  -2   3   71.22    6.34   0 
  -2  -3   3   31.09    5.41   0 
  -2   7   3  327.28    8.64   0 
   0  -5   5  743.31    8.99   0 
   0  -4   3  667.77   10.22   0 
   0  -2   1  854.55   14.65   0 
   1  -5   5  885.81    9.93   0 
   1  -4   3  142.01    6.20   0 
   1  11   3   18.97    5.25   0 
   2  -4   3  469.72    8.06   0 
   2   5  -1 1019.49   11.47   0 
   2   8   0  241.18    6.33   0 
   3   9   0   16.53    4.80   0 
   4  -3   2  467.76    9.85   0 
   6   9  -1    3.26    4.82   0 
   8  -1   2    5.39    7.99   0 
   9   9  -1   83.34    5.64   0 
  -6   0   7   65.35    7.59   0 
  -5  -4  10   44.75    5.51   0 
  -5  -1   5  441.47   10.79   0 
  -4  -3   5 1037.92   11.18   0 
  -4  -2   4  598.32   10.57   0 
  -3  -5   7   75.44    5.29   0 
  -3  -4   5  237.47    6.31   0 
  -2  -5   6  199.85    6.09   0 
  -2  -4   4   30.62    5.02   0 
  -2  -2   2  253.88   10.27   0 
  -2   9   5    6.15    6.68   0 
  -1  -5   5   56.87    5.26   0 
  -1   7   2  590.94   10.26   0 
   0  -6   9   -0.19    6.20   0 
   0   7   1  396.75    7.86   0 
   2  -5   5  136.53    5.78   0 
   3  -4   3  209.39    8.01   0 
   4  -5   7    4.51    5.35   0 
   4  11   1    1.77    4.78   0 
   5  -2   1   15.85    6.96   0 
   5   1  -1 1333.41   23.28   0 
   5   8  -1  514.44    7.90   0 
   5  10   0  498.81    7.62   0 
   6  12   1  137.80    6.00   0 
   7  11   0    7.12    4.87   0 
   8  11   0  103.02    5.51   0 
   9   8  -1  149.89    6.19   0 
   9  11   0  118.97    6.23   0 
  -6  -3  10  117.69    7.16   0 
  -6  -2   8  116.29    7.03   0 
  -6  -1   7  373.48    9.83   0 
  -6   2   7   12.30   10.55   0 
  -5  -4   9  285.98    6.94   0 
  -5   6   8    7.69   10.95   0 
  -4  -5   9   76.84    5.48   0 
  -4  -5  10    5.58    4.61   0 
  -4  -4   6    5.13    4.43   0 
  -2   5   2  637.22   11.20   0 
  -1  -6   8   60.96    5.25   0 
  -1  -6   9    1.12    4.99   0 
  -1  -4   3   24.43    6.13   0 
  -1  -3   2 3079.61   20.02   0 
  -1   5   1 1206.19   12.94   0 
   0  -6   8    1.96    5.01   0 
   0   4   0 1318.38   14.68   0 
   1  -6   8   58.19    5.59   0 
   1  -1   0 2621.38   36.43   0 
   1   6   0  203.26    6.37   0 
   1   8   1   16.65    4.94   0 
   2   4  -1  489.17    8.95   0 
   2   9   1   21.14    5.64   0 
   3  -5   5   40.16    5.57   0 
   3   6  -1    6.00    4.53   0 
   3  10   1   14.97    4.79   0 
   4  -5   6   38.97    6.44   0 
   4   7  -1   56.11    5.15   0 
   4   9   0  448.82    8.28   0 
   4  12   2   43.49    5.38   0 
   5  -4   4   62.28    6.64   0 
   6  -3   3   18.64    6.10   0 
   6   8  -1   11.81    4.63   0 
   7  -1   1    6.77   10.39   0 
   7   8  -1   49.53    6.13   0 
   7  12   1   13.82    6.28   0 
   8   8  -1   50.61    5.22   0 
   9  -1   3   -0.17    8.73   0 
   9   6  -1   56.34    6.53   0 
   9   7  -1   11.06    5.09   0 
  10   2   1    1.11   10.42   0 
  10  10   0    9.83    6.38   0 
  11   6   0   16.29    5.94   0 
  11   9   0    1.19    5.32   0 
  -5  -4   8   10.56    4.39   0 
  -5  -3   6   57.16    6.40   0 
  -4  -5   8   95.73    5.32   0 
  -3  -5   6  304.14    6.59   0 
  -3   6   4  114.00    7.83   0 
  -2  -6   8   10.86    5.15   0 
  -2  -6   9    6.20    4.90   0 
  -2  -5   5  429.83    7.55   0 
  -1  -6   7  254.78    6.55   0 
  -1   8   3   10.21    6.24   0 
  -1  10   5    5.96    6.82   0 
   0  -6   7   76.29    5.33   0 
   0  -5   4  584.64    8.52   0 
   0   8   2  354.94    8.55   0 
   1  -6   7  113.35    5.89   0 
   1  -5   4  180.24    6.11   0 
   2   2  -1  270.08   10.26   0 
   2   3  -1 9012.31   36.08   0 
   2   7   0   31.15    4.61   0 
   3   1  -1 1471.32   23.15   0 
   3   8   0   17.69    4.65   0 
   3  11   2   13.35    5.03   0 
   4  -4   3   51.38    6.25   0 
   5   7  -1    4.71    5.85   0 
   5  11   1  133.72    5.85   0 
   6  -4   5    2.84    6.55   0 
   6  10   0  257.37    6.56   0 
   7  -3   4   61.30    6.99   0 
   8   4  -1    4.21    6.07   0 
   8   7  -1  102.74    6.82   0 
   9  10   0   29.67    6.38   0 
  10   4   0  180.88   10.17   0 
  11   7   0   13.77    6.75   0 
  11   8   0   15.92    5.39   0 
  -7   0  10   10.92    7.63   0 
  -5  -2   5   79.56    7.00   0 
  -4  -5   7  200.53    6.38   0 
  -3  -6   9   50.88    5.28   0 
  -3  -4   4  274.35    7.98   0 
  -3   0   2   78.92   11.37   0 
  -3   8   6   47.92    6.91   0 
  -2  -6   7  275.42    6.77   0 
  -1  -5   4    9.27    4.71   0 
  -1   9   4   18.81    5.01   0 
   0  -6   6    2.55    4.70   0 
   0   9   3   45.05    6.74   0 
   1  -6   6   41.69    5.95   0 
   1   9   2    6.83    4.69   0 
   1  11   4   11.94    6.47   0 
   2  -6   7   59.08    5.85   0 
   2  10   2   83.40    5.47   0 
   2  11   3   63.04    5.80   0 
   3   5  -1 1377.13   12.33   0 
   4  -5   5   27.25    6.35   0 
   4   1  -1  907.58   19.26   0 
   4   6  -1  167.61    6.14   0 
   5  -3   2    1.63    5.85   0 
   5  -1   0  291.14   16.32   0 
   5  12   2  124.54    5.68   0 
   6   7  -1  574.03    8.86   0 
   7   7  -1  107.18    6.34   0 
   7  10   0   13.52    4.81   0 
   8   5  -1   30.78    6.75   0 
   8   6  -1  756.37   11.07   0 
   8  10   0  110.51    5.83   0 
  -7  -1  10    5.96    6.28   0 
  -6  -4  10   36.13    6.59   0 
  -6  -3   8   55.92    5.72   0 
  -6  -2   7   81.01    5.62   0 
  -5  -5   9   22.17    5.15   0 
  -5  -5  10   21.27    5.57   0 
  -5   5   7  260.89   15.01   0 
  -4  -4   5   51.70    4.99   0 
  -4  -3   4  416.50    9.47   0 
  -4   7   7   16.47    8.73   0 
  -3  -6   8  331.19    6.99   0 
  -3  -3   3  423.72    9.88   0 
  -3   7   5   81.70    7.13   0 
  -1  -6   6  110.70    5.60   0 
   0   3   0  155.48    8.98   0 
   0  10   4   10.08    5.53   0 
   1  -4   2   16.92    6.66   0 
   1  10   3   60.52    5.45   0 
   2  -6   6   12.35    5.06   0 
   2  -4   2  893.46   11.66   0 
   2  -3   1   45.14    6.90   0 
   3  -5   4  135.47    6.09   0 
   4  10   1  333.69    6.76   0 
   5   9   0    4.46    4.82   0 
   6   2  -1  553.95   12.94   0 
   6  11   1   14.27    5.33   0 
   7  -2   2   28.13    8.03   0 
   7   3  -1  655.30   11.96   0 
   8  -2   3   23.69    7.89   0 
  -7  -2  10   52.25    7.14   0 
  -5  -5   8   -1.69    4.29   0 
  -4  -6   9   26.76    4.89   0 
  -4   5   5   16.39    7.57   0 
  -3  -6   7   56.80    5.04   0 
  -3  -5   5  189.80    6.20   0 
  -2  -6   6   -1.51    4.81   0 
  -2  -5   4  593.73    8.56   0 
  -2  -4   3  697.60    9.45   0 
  -2   6   3   77.98    6.84   0 
  -1   4   1  505.26   11.03   0 
   0  -6   5  120.35    6.19   0 
   0  -4   2 1716.66   15.06   0 
   1  -6   5   47.10    6.27   0 
   1  -3   1   21.27    7.01   0 
   1   7   1    2.33    5.36   0 
   3  -3   1  962.94   13.66   0 
   3   9   1  241.34    6.54   0 
   4   5  -1   35.75    6.48   0 
   4   8   0   86.46    5.59   0 
   4  11   2  204.32    6.14   0 
   4  12   3   70.91    5.64   0 
   6  -4   4   87.09    8.12   0 
   6   9   0  124.84    5.38   0 
   6  12   2   80.55    5.73   0 
   7   9   0   50.01    6.14   0 
   7  11   1   38.04    5.04   0 
   8   9   0   11.70    5.72   0 
   8  11   1    2.83    4.72   0 
  10   5   0    3.25    6.09   0 
  -7  -1   9    5.91    5.91   0 
  -7   0   9   35.30    7.48   0 
  -6  -4   8   98.94    6.99   0 
  -5  -4   6   41.70    4.96   0 
  -5  -3   5  114.50    6.92   0 
  -4  -6   8    5.40    5.03   0 
  -4   6   6   52.48    8.15   0 
  -3   4   3  304.14   10.69   0 
  -2  -3   2  146.88    8.31   0 
  -2   9   6  191.90    8.48   0 
  -1  -7   8   50.31    5.43   0 
  -1  -6   5  156.43    6.09   0 
  -1   6   2    3.75    4.88   0 
   0  -5   3   48.06    5.17   0 
   1  -5   3  348.48    7.24   0 
   2  -6   5    6.20    6.28   0 
   2  -5   3   22.48    6.08   0 
   2   8   1  106.35    5.25   0 
   3  -6   6    4.67    5.14   0 
   3  -4   2  271.90    7.74   0 
   3   2  -1 2865.90   24.61   0 
   3   3  -1  259.00    9.84   0 
   3  10   2  188.04    6.86   0 
   4  -5   4   11.11    6.19   0 
   5  -5   5    1.14    6.61   0 
   5  -4   3  559.08   10.54   0 
   7   4  -1   26.38    6.29   0 
   7   5  -1  694.44   10.05   0 
   7  12   2   12.37    5.09   0 
   9   3   0   35.34    8.43   0 
  10   6   0    6.64    6.34   0 
  10   7   0    3.25    5.19   0 
  11   4   1   51.79    8.36   0 
  -7  -3  10   20.96    6.87   0 
  -7  -2   9   -2.12    6.33   0 
  -7   1   9   84.64    9.97   0 
  -6   0   6   36.29    7.22   0 
  -5  -5   7  314.11    7.08   0 
  -4  -6   7  101.52    5.58   0 
  -4  -1   3   36.70    6.95   0 
  -3  -6   6    4.22    4.73   0 
  -3  -1   2 1852.28   22.44   0 
  -2  -7   8   11.69    5.15   0 
  -2  -6   5  177.07    6.00   0 
  -2   4   2 2253.31   20.31   0 
  -2   7   4    7.17    5.76   0 
  -2   8   5   10.65    5.91   0 
  -1  -7   7   29.35    5.17   0 
  -1  -5   3   -4.85    6.02   0 
  -1  10   6    1.99    6.87   0 
   0  -7   7    6.83    5.16   0 
   0   2   0   69.70   10.27   0 
   0   7   2   67.88    6.58   0 
   2   9   2   83.07    6.19   0 
   3  11   3   64.38    5.36   0 
   4   4  -1   18.45    7.20   0 
   5   2  -1  124.68    8.80   0 
   5   5  -1   55.08    5.55   0 
   5  11   2    2.40    4.89   0 
   6   3  -1  114.51    7.49   0 
   6   5  -1   63.39    5.15   0 
   6  10   1  304.99    7.78   0 
   7  -3   3   84.00    8.38   0 
   9   8   0   37.43    5.33   0 
  10  10   1    8.45    5.07   0 
  11   9   1   65.33    6.05   0 
  -6  -2   6   21.17    6.41   0 
  -5  -6   9    9.71    4.75   0 
  -4  -5   5  125.64    5.71   0 
  -4  -4   4  559.11    9.49   0 
  -3  -7   8   46.67    5.38   0 
  -3  -5   4   28.36    4.95   0 
  -2  -7   7    0.45    5.21   0 
  -1  -4   2   64.63    5.76   0 
  -1   7   3    6.26    6.28   0 
  -1   9   5   -0.65    6.34   0 
   0  -6   4   74.99    5.57   0 
   1  -7   7   19.71    5.47   0 
   1  -6   4  270.55    7.54   0 
   1   4   0 2067.97   17.27   0 
   1   8   2  936.11   10.16   0 
   1  11   5   47.20    6.58   0 
   2  10   3  258.75    6.89   0 
   2  11   4   -1.52    5.47   0 
   3  -6   5    1.80    5.29   0 
   3  -5   3  114.68    6.34   0 
   4  -4   2  256.86    8.60   0 
   4  -3   1 1092.28   14.69   0 
   4   2  -1 1026.50   15.74   0 
   4   3  -1  662.57   11.91   0 
   4   7   0   24.46    6.00   0 
   4   9   1   11.79    4.67   0 
   5   4  -1  123.32    7.59   0 
   5  12   3   94.10    5.68   0 
   6  -3   2   21.27    7.57   0 
   6  -2   1    3.35    7.78   0 
   6   8   0  135.26    5.90   0 
   7   8   0  219.45    6.38   0 
   7  10   1  765.80    9.10   0 
   8   8   0   49.97    5.32   0 
   8  10   1   24.71    6.08   0 
   9   1   1   -0.59   12.89   0 
   9   7   0   26.85    6.58   0 
   9  10   1   90.66    5.59   0 
  11   8   1   32.68    6.79   0 
  -7  -3   9    3.66    5.63   0 
  -7  -1   8   34.42    7.35   0 
  -6  -5   8    6.04    6.11   0 
  -5  -6   8   40.46    5.38   0 
  -5  -4   5   22.66    6.20   0 
  -4  -7   9   46.33    5.35   0 
  -4  -6   6  236.58    6.45   0 
  -4  -2   3   45.70    6.80   0 
  -3  -7   7  119.11    6.78   0 
  -3  -6   5  109.45    5.83   0 
  -3  -4   3 3695.40   19.52   0 
  -3   8   7   23.24    7.57   0 
  -1  -7   6   70.92    5.25   0 
  -1  -6   4   23.20    4.90   0 
  -1   8   4  183.61    7.66   0 
   0  -7   6   10.45    4.97   0 
   0   8   3  431.08    9.23   0 
   0   9   4    3.31    6.23   0 
   0  10   5   97.76    6.68   0 
   1  -7   6  125.86    6.26   0 
   1   9   3   44.40    5.14   0 
   1  10   4    6.58    5.02   0 
   2  -6   4    1.82    5.11   0 
   3   8   1   21.86    4.81   0 
   4  10   2   34.77    4.92   0 
   5  -5   4   25.39    6.37   0 
   5   3  -1  223.06    7.54   0 
   6  11   2   63.07    5.50   0 
   6  12   3   10.22    5.23   0 
   9   4   0  166.35    8.35   0 
   9   6   0  210.69    7.75   0 
  10   9   1  169.94    6.35   0 
  11   5   1  101.93    7.49   0 
  11   7   1   45.89    7.05   0 
  -7  -2   8   -2.86    5.76   0 
  -7   0   8    8.39    7.38   0 
  -6  -3   6   37.11    5.50   0 
  -6   1   6   78.46   11.13   0 
  -5  -6   7    5.00    5.83   0 
  -5  -2   4   69.69    6.97   0 
  -5  -1   4 1364.31   17.10   0 
  -4  -7   8   16.54    4.90   0 
  -3  -2   2  401.24   10.58   0 
  -2  -7   6    1.00    4.93   0 
  -2  -6   4  132.28    5.78   0 
  -2  -5   3  659.51    9.01   0 
   1   6   1   62.45    5.55   0 
   2  -7   6   20.49    6.38   0 
   2   5   0 3261.34   18.63   0 
   2   7   1  386.68    7.21   0 
   3  -2   0   16.97    7.97   0 
   3   6   0 1653.62   12.90   0 
   4  -6   5   47.53    7.06   0 
   4  -5   3   -2.17    6.24   0 
   4  12   4   82.73    5.71   0 
   5   7   0   -1.19    4.77   0 
   5   9   1   84.40    5.31   0 
   7  11   2  109.74    5.59   0 
   8   2   0   82.05    9.27   0 
   8   7   0   13.40    5.09   0 
   8  11   2   22.92    5.10   0 
   9   5   0    3.25    5.83   0 
   9  11   2   24.30    5.03   0 
  11   6   1    5.19    6.43   0 
  -7  -4   9    4.65    5.38   0 
  -7  -3   8   39.41    6.59   0 
  -6  -6   9    3.95    5.21   0 
  -6  -5   7   11.76    6.29   0 
  -5   0   4   84.97    9.40   0 
  -4  -7   7   10.52    4.91   0 
  -4   3   4  190.70   12.54   0 
  -3  -7   6  309.57    6.98   0 
  -3   5   4  108.64    7.42   0 
  -3   7   6   64.54    7.93   0 
  -2  -4   2 1180.76   11.92   0 
  -2   9   7   61.64    6.71   0 
  -1  -7   5  229.02    6.53   0 
  -1   3   1  135.67    8.75   0 
   0  -7   5  134.88    5.92   0 
   1  -7   5   15.14    6.09   0 
   1  -5   2  355.02    8.35   0 
   3  -6   4  167.07    6.58   0 
   5  10   2  178.30    7.27   0 
   6  -4   3   31.16    6.15   0 
   6   7   0  157.53    5.94   0 
   7   7   0    7.33    4.51   0 
   8   9   1   44.45    5.82   0 
   9   9   1  139.74    5.94   0 
  10   8   1    8.23    6.24   0 
  -7  -4   8  465.83    9.60   0 
  -6  -6   8    4.44    5.98   0 
  -6  -4   6  868.19   10.42   0 
  -5  -7   8   12.35    6.22   0 
  -5  -5   5 1443.81   12.76   0 
  -5  -3   4 3263.04   20.81   0 
  -4  -6   5  263.69    6.62   0 
  -4  -3   3 1493.84   14.38   0 
  -4   7   8   37.58    8.28   0 
  -3  -6   4   16.71    6.10   0 
  -3   6   5   44.52    7.50   0 
  -2  -7   5  199.26    6.08   0 
  -2   5   3  392.01   10.27   0 
  -1  -8   7  124.15    5.93   0 
  -1  -3   1 5096.86   27.13   0 
  -1   5   2  222.16    7.55   0 
   0  -6   3    5.43    4.67   0 
   0  -5   2 1610.85   13.27   0 
   1  -6   3    4.04    4.54   0 
   1  -4   1  200.75    8.39   0 
   2  -7   5   18.46    6.52   0 
   2  -5   2  415.67    8.42   0 
   2  -4   1 1025.65   13.07   0 
   2   8   2   66.22    6.06   0 
   3  10   3    2.59    4.77   0 
   3  11   4   22.53    5.08   0 
   4   6   0  681.58    9.15   0 
   4   8   1  263.49    6.80   0 
   5  -4   2   46.92    7.29   0 
   5  11   3  102.90    5.35   0 
   5  12   4   39.33    5.47   0 
  10   3   1   29.33    8.65   0 
  10  10   2    0.62    5.20   0 
  -7  -5   9  106.82    6.16   0 
  -7  -2   7   76.83    7.63   0 
  -7   2   9   11.00   12.79   0 
  -5  -6   6   84.74    5.18   0 
  -4  -7   6   59.87    5.19   0 
  -3  -7   5  108.59    6.55   0 
  -3  -5   3 1228.63   11.53   0 
  -2  -8   7    7.07    4.99   0 
  -1  -6   3    9.23    5.16   0 
   0   6   2   37.55    6.21   0 
   1  -2   0 4766.39   35.12   0 
   2  -6   3    6.25    4.78   0 
   2   9   3  250.22    7.53   0 
   2  10   4  228.82    7.68   0 
   2  11   5   15.07    5.31   0 
   3  -5   2   24.87    6.44   0 
   3   5   0 2436.80   16.65   0 
   5  -3   1   17.35    6.98   0 
   5   6   0   39.43    6.33   0 
   6  10   2   18.42    5.04   0 
   7   6   0  447.34    8.95   0 
   8   5   0 1017.23   12.69   0 
   9   8   1  164.26    7.64   0 
   9  10   2   -1.13    4.64   0 
  10   7   1    7.02    6.16   0 
  11   9   2    2.33    5.36   0 
  -7  -5   8   -0.58    6.35   0 
  -7  -1   7   -2.08    6.95   0 
  -7   1   8   26.82   10.47   0 
  -6  -6   7  175.92    6.28   0 
  -6  -5   6  623.52    8.99   0 
  -5  -7   7   -5.15    5.25   0 
  -5  -4   4  248.81    7.75   0 
  -4  -4   3  217.34    8.29   0 
  -3  -8   7   71.37    5.46   0 
  -2  -8   6   43.13    5.19   0 
  -2  -6   3    7.03    5.03   0 
  -2  -1   1 4434.10   37.91   0 
  -2   8   6    2.00    6.27   0 
  -1  -8   6  149.26    6.02   0 
  -1  -7   4   49.90    5.27   0 
   0  -8   6   96.78    6.10   0 
   0  -7   4    5.88    4.59   0 
   0  -4   1   13.70    5.98   0 
   0  10   6    6.41    5.12   0 
   1  -7   4   36.66    5.49   0 
   1  10   5  122.03    6.14   0 
   2   4   0 2326.97   17.30   0 
   3  -7   5    4.11    6.71   0 
   3  -4   1  246.11    8.55   0 
   3   7   1   93.23    5.47   0 
   4  -2   0  608.21   15.25   0 
   4   9   2   45.77    4.94   0 
   4  12   5   69.22    5.84   0 
   5  -5   3    1.17    6.02   0 
   5   8   1    3.10    5.14   0 
   6  -5   4   43.82    7.04   0 
   6   6   0  412.88    7.64   0 
   6  11   3    7.86    5.08   0 
   6  12   4    8.04    5.30   0 
   7  10   2   12.06    5.05   0 
   8   4   0  110.57    7.37   0 
   8   8   1    4.43    5.51   0 
   8  10   2  349.61    7.29   0 
  10   6   1   50.95    6.34   0 
  11   3   2   22.77   10.37   0 
  -7  -4   7   -0.35    6.39   0 
  -6  -7   8   59.20    7.20   0 
  -6  -3   5   93.54    6.37   0 
  -6  -1   5  213.55    9.85   0 
  -5  -6   5   58.56    6.51   0 
  -4  -8   7  180.01    6.25   0 
  -4  -6   4  487.66    8.76   0 
  -4   6   7  141.31   10.27   0 
  -3  -8   6    5.84    6.10   0 
  -3   8   8    3.08    7.09   0 
  -2  -7   4   14.62    5.12   0 
  -2  -2   1  278.57   11.56   0 
  -2   3   2  115.50    8.92   0 
  -2   6   4   36.52    6.57   0 
  -2   7   5   16.93    6.15   0 
  -1   6   3   73.84    6.06   0 
  -1   8   5   64.05    6.91   0 
   0   4   1  340.42    8.94   0 
   0   7   3   49.36    6.65   0 
   0   9   5   21.25    6.31   0 
   1   9   4    7.08    5.15   0 
   2  -7   4    4.27    6.16   0 
   2   6   1  638.87    9.27   0 
   3  -6   3    7.98    5.35   0 
   4  10   3    2.07    4.79   0 
   4  11   4   -3.80    5.03   0 
   6   8   1  135.47    5.55   0 
   7   8   1   49.64    5.32   0 
   7  12   4   69.64    5.74   0 
   8  -2   2   14.83   10.01   0 
  10   4   1   81.09    7.20   0 
  10   5   1   70.45    7.06   0 
  10   9   2    4.36    5.24   0 
  11   8   2   95.24    6.59   0 
  -6  -4   5   17.76    5.59   0 
  -5  -7   6   82.51    5.44   0 
  -4  -7   5   30.19    5.31   0 
  -3  -4   2  413.16    8.84   0 
  -3   3   3  254.72   11.97   0 
  -2  -8   5   36.55    6.13   0 
  -1  -8   5  235.10    6.93   0 
  -1  -4   1  532.63   10.11   0 
  -1   7   4    9.56    6.08   0 
   0  -8   5    0.03    5.14   0 
   0   8   4  159.03    6.58   0 
   1   5   1    2.98    5.57   0 
   3   8   2   -2.86    4.69   0 
   3  11   5    5.68    5.08   0 
   4  -5   2   57.82    6.84   0 
   4   7   1  510.27    8.22   0 
   5   9   2   73.44    5.36   0 
   5  12   5   33.21    4.91   0 
   7  -3   2   74.08    9.32   0 
   7   1   0   41.02   10.02   0 
   7   5   0   60.66    5.73   0 
   8  -3   3   12.57    9.30   0 
   9   7   1   13.95    5.21   0 
   9   9   2   50.98    6.75   0 
  10   1   2    2.97   12.73   0 
  11   7   2   66.49    7.43   0 
  -8  -4   9    5.22    6.86   0 
  -8  -3   9    3.18    6.18   0 
  -8  -2   9   -1.54    6.14   0 
  -7  -6   8   17.35    5.24   0 
  -7  -5   7   51.49    5.58   0 
  -7   0   7   38.67    9.59   0 
  -6  -7   7    4.59    4.81   0 
  -6  -6   6   63.49    5.48   0 
  -6   4   9   12.56   12.49   0 
  -5  -8   7   51.87    6.42   0 
  -5  -5   4  315.57    7.00   0 
  -4  -8   6  110.28    6.10   0 
  -4  -5   3  840.05   10.07   0 
  -4   4   5   90.93    9.00   0 
  -4   5   6   23.57    8.55   0 
  -3  -7   4   -1.48    4.84   0 
  -3  -6   3  270.02    6.73   0 
  -2   0   1  110.40   17.96   0 
   0  -7   3  138.74    6.80   0 
   0  -6   2    2.48    4.67   0 
   1  -8   5   76.72    6.07   0 
   1  -6   2   96.98    5.63   0 
   2  11   6    0.69    5.28   0 
   3  -7   4   31.24    6.56   0 
   3   9   3   57.19    5.33   0 
   3  10   4  428.74    7.37   0 
   4  -4   1   56.36    6.88   0 
   5  -6   4   47.34    7.00   0 
   5   5   0  165.83    6.66   0 
   5  10   3  330.62    7.22   0 
   6   5   0   -0.38    4.96   0 
   6   9   2   47.85    5.52   0 
   7  -4   3   32.91    8.20   0 
   7   9   2  172.49    7.02   0 
   8   7   1  463.05    9.36   0 
   8   9   2   70.18    6.11   0 
  10   8   2   32.54    6.35   0 
  11   4   2  100.71    9.05   0 
  -8  -1   9    5.01    7.93   0 
  -7  -3   6   28.96    6.48   0 
  -6  -5   5   12.26    5.00   0 
  -5   5   8    4.54    9.51   0 
  -3  -8   5   19.44    5.08   0 
  -2  -3   1 9470.55   36.50   0 
  -1  -7   3  283.99    6.83   0 
  -1  -6   2  914.74    9.94   0 
   0  10   7    4.35    6.39   0 
   1  -7   3   27.66    5.26   0 
   1  -5   1  449.30    9.22   0 
   1   2   0 1122.56   19.49   0 
   2  -6   2  203.91    7.74   0 
   2  -3   0    6.49    6.69   0 
   2   7   2    4.59    4.77   0 
   3   4   0  272.22    7.88   0 
   4  -6   3    2.98    5.07   0 
   5   7   1    9.54    4.91   0 
   6  -4   2  190.04    9.61   0 
   6  10   3   11.68    4.98   0 
   6  11   4    3.67    4.98   0 
   6  12   5    9.53    5.49   0 
   7   4   0 1407.14   14.76   0 
   7   7   1   44.23    6.09   0 
   9   6   1    3.35    5.74   0 
   9  10   3    7.80    6.22   0 
  11   5   2   69.51    7.45   0 
  11   9   3  177.30    7.15   0 
  -7  -7   8   14.52    5.47   0 
  -7  -6   7   32.26    5.17   0 
  -7  -4   6  502.13   10.04   0 
  -7  -2   6   55.82    7.30   0 
  -6  -7   6  128.06    6.74   0 
  -5  -8   6  137.61    5.92   0 
  -5  -7   5   63.96    5.33   0 
  -5  -6   4   57.74    5.22   0 
  -4  -8   5  157.24    6.07   0 
  -4  -7   4  235.26    6.67   0 
  -3  -5   2 2624.72   16.20   0 
  -3   7   7   13.73    6.20   0 
  -2  -9   6    7.64    5.19   0 
  -2  -8   4  114.41    5.46   0 
  -2  -7   3  338.60    7.21   0 
  -2  -6   2   14.04    6.01   0 
  -1  -8   4  115.85    5.98   0 
  -1   2   1   13.38    8.90   0 
  -1   4   2  621.45   11.74   0 
  -1   9   7    6.89    6.92   0 
   0  -8   4  440.57    7.88   0 
   0  -5   1  726.33   10.39   0 
   0  -2   0   69.04    8.89   0 
   1  -3   0  178.01    9.11   0 
   1   6   2  449.74    9.31   0 
   1  10   6   37.79    5.41   0 
   2  -7   3   27.55    5.46   0 
   2  -5   1  206.85    7.80   0 
   2   3   0  693.78   12.41   0 
   2   8   3    2.97    4.60   0 
   2   9   4  154.91    6.94   0 
   3  -3   0 1050.25   15.91   0 
   3   6   1  420.46    7.84   0 
   4   8   2  137.68    6.07   0 
   4  11   5   24.07    4.79   0 
   6  -5   3   12.07    6.13   0 
   7   2   0  487.85   12.83   0 
   7   3   0   88.35    8.17   0 
   7  10   3   36.41    5.14   0 
   7  11   4   38.32    5.48   0 
   8  10   3   21.14    5.08   0 
   8  11   4   48.70    6.51   0 
   9  11   4    0.41    5.00   0 
  -8  -5   8   75.93    7.41   0 
  -8  -4   8   63.50    6.01   0 
  -8  -3   8    9.18    6.29   0 
  -8  -2   8   66.93    7.86   0 
  -7  -5   6   34.78    5.25   0 
  -6  -8   7   14.09    5.71   0 
  -6  -6   5   62.51    5.24   0 
  -6   0   5    5.93    8.60   0 
  -5  -3   3  130.67    7.79   0 
  -4  -6   3  132.09    5.95   0 
  -3  -9   6    0.92    5.10   0 
  -3  -8   4   26.23    5.78   0 
  -3  -7   3   23.04    6.41   0 
  -2  -4   1  495.42   10.02   0 
  -2   8   7   31.41    6.96   0 
  -1  -5   1 1699.70   14.57   0 
   0   5   2 2960.26   20.08   0 
   1  -8   4  102.22    5.89   0 
   1   9   5   94.76    6.94   0 
   3  -6   2    2.59    6.26   0 
   3  11   6   21.47    6.61   0 
   4   4   0 1192.80   13.11   0 
   4   9   3  448.85    7.71   0 
   4  10   4  135.44    5.63   0 
   5  -5   2  145.84    8.73   0 
   5   8   2  430.77    8.60   0 
   6  -3   1   51.94    9.16   0 
   6   4   0  618.06   10.65   0 
   7  -2   1  221.66   14.61   0 
   8   6   1  522.58    9.58   0 
   9   2   1    3.13    7.92   0 
   9   5   1   10.32    6.03   0 
   9   8   2    8.02    5.30   0 
  10   7   2   14.34    6.27   0 
  10   9   3   83.65    7.17   0 
  -7  -7   7   43.73    5.66   0 
  -6  -3   4 1124.40   13.36   0 
  -5  -2   3    5.34    6.45   0 
  -4  -9   6   11.56    5.10   0 
  -4  -3   2  128.84    8.20   0 
  -3   6   6   26.04    7.03   0 
  -2  -9   5   36.87    5.31   0 
  -1  -9   5   60.69    5.61   0 
   0   9   6    1.93    4.99   0 
   1   7   3 1177.58   11.37   0 
   1   8   4    3.84    5.68   0 
   2  -8   4   56.45    5.73   0 
   2   5   1  508.18    9.06   0 
   3  -7   3    0.43    6.40   0 
   3   7   2 3156.26   17.63   0 
   4   6   1   78.97    5.75   0 
   5  -2   0    8.66    9.54   0 
   5   4   0    2.38    5.56   0 
   5  11   5    5.70    5.01   0 
   6   8   2  575.73    8.85   0 
   8   8   2    7.60    4.60   0 
   9   4   1   25.34    6.21   0 
  -8  -6   8    0.36    5.60   0 
  -7  -6   6   11.00    5.19   0 
  -7  -1   6  161.44   10.22   0 
  -6  -8   6  229.35    6.67   0 
  -6  -7   5    3.72    4.97   0 
  -6  -5   4  210.57    7.61   0 
  -6  -4   4    8.43    5.31   0 
  -5  -8   5   26.53    5.15   0 
  -5  -7   4   96.98    5.53   0 
  -5  -5   3    4.15    5.94   0 
  -4  -8   4   61.80    5.27   0 
  -4  -4   2 2471.16   17.37   0 
  -4  -2   2  317.72   10.01   0 
  -3  -9   5   36.15    5.09   0 
  -3  -6   2   26.19    5.20   0 
  -3   4   4   49.24    7.73   0 
  -3   5   5  152.84    8.50   0 
  -2   4   3  226.55    8.94   0 
  -2   7   6  170.54    7.70   0 
  -1  -8   3  579.33    8.20   0 
  -1  -7   2   17.51    4.81   0 
  -1   8   6   56.80    5.62   0 
   0  -8   3   22.34    5.18   0 
   0  -7   2    9.99    4.89   0 
   0  -3   0  150.90    8.07   0 
   0   3   1 1456.91   17.63   0 
   0   6   3   12.59    6.03   0 
   0   8   5    1.76    6.07   0 
   1  -7   2  155.62    7.39   0 
   1   4   1   80.45    6.65   0 
   3  10   5  496.27    8.18   0 
   5  -6   3   -4.13    6.20   0 
   5  -4   1  500.42   11.48   0 
   5   6   1  260.91    7.87   0 
   5   9   3   34.32    5.06   0 
   5  10   4    1.64    4.67   0 
   7   6   1  832.75   10.03   0 
   7   8   2   61.32    5.43   0 
   9   3   1    9.93    6.36   0 
   9   9   3  132.72    5.96   0 
  10   6   2  324.13    8.90   0 
  10  10   4   -0.38    5.39   0 
  -8  -5   7   54.39    7.13   0 
  -8  -4   7  134.28    7.60   0 
  -7  -8   7   25.51    6.70   0 
  -7  -7   6   72.78    6.44   0 
  -6  -2   4   71.43    6.81   0 
  -5  -9   6   55.98    5.34   0 
  -4  -9   5   17.55    5.41   0 
  -4  -7   3  346.73    7.16   0 
  -2  -9   4   74.66    6.57   0 
  -2  -8   3  369.15    7.48   0 
  -2  -7   2    9.99    5.04   0 
  -2  -5   1 1005.12   11.14   0 
  -1  -9   4   -3.99    4.87   0 
  -1   5   3 2207.25   18.35   0 
  -1   7   5   90.12    6.80   0 
   0   7   4  364.85    7.62   0 
   1  -8   3    6.18    5.00   0 
   1  -6   1   80.18    7.04   0 
   1  10   7    5.78    6.29   0 
   3   3   0  875.92   12.93   0 
   3   8   3  202.22    6.23   0 
   3   9   4  455.03    7.93   0 
   4  -6   2   87.40    6.87   0 
   4  -3   0   19.21    7.51   0 
   4  11   6   13.07    5.06   0 
   6   3   0  997.27   13.65   0 
   6   9   3  132.25    5.80   0 
   6  10   4   78.28    5.55   0 
   6  11   5   -2.02    5.00   0 
   7   9   3   27.33    5.53   0 
   7  11   5   65.70    6.60   0 
   8   5   1  163.54    7.72   0 
   8   9   3   21.68    4.80   0 
   9   7   2   24.61    5.27   0 
   9  11   5    4.49    5.23   0 
  11   7   3    3.89    5.74   0 
  -8  -6   7  302.51    8.63   0 
  -8  -3   7    4.58    5.95   0 
  -8  -1   8   71.91    8.48   0 
  -7  -5   5  513.07    9.56   0 
  -7  -4   5  714.37   10.17   0 
  -7  -3   5   44.33    7.35   0 
  -6  -6   4   26.60    5.08   0 
  -5  -6   3  397.79    7.61   0 
  -4  -5   2  431.84    8.20   0 
  -4   6   8   34.60    8.09   0 
  -3  -9   4   41.65    5.10   0 
  -3  -8   3    4.74    4.90   0 
  -2   5   4  695.95   11.64   0 
  -2   6   5   11.44    6.22   0 
  -1  -6   1   14.00    5.02   0 
  -1   6   4   13.70    6.22   0 
  -1   9   8  160.66    8.04   0 
   0  -9   4    5.16    5.38   0 
   1  -4   0  759.93   11.71   0 
   2  -8   3   15.74    6.44   0 
   2  -7   2    6.12    5.07   0 
   2  -6   1  153.13    7.66   0 
   2  -4   0  239.00    8.70   0 
   2   6   2   96.09    6.18   0 
   3   5   1 1462.24   12.98   0 
   3  11   7   58.97    6.81   0 
   4  -7   3   79.60    7.25   0 
   4  -5   1  114.27    7.22   0 
   7  10   4  155.27    6.09   0 
   8  10   4  120.32    6.26   0 
  10   5   2   12.67    6.29   0 
  -7  -6   5   18.47    5.00   0 
  -6  -9   6  184.62    6.36   0 
  -5  -9   5   79.50    5.56   0 
  -5  -8   4  272.09    6.51   0 
  -5  -1   3 1094.72   18.71   0 
  -5   2   5    1.95   12.56   0 
  -4  -6   2   48.39    6.61   0 
  -3  -7   2   35.81    5.26   0 
  -3   7   8   23.10    6.37   0 
  -2   8   8    0.53    6.35   0 
   2   9   5  152.20    6.18   0 
   4   8   3   99.37    5.79   0 
   4   9   4  106.56    5.77   0 
   5   3   0  716.28   11.59   0 
   5   7   2  947.94   10.83   0 
   5  11   6   11.57    5.04   0 
   6   2   0  169.19    9.50   0 
   8   7   2  312.81    7.58   0 
  10   2   2  173.87   10.71   0 
  10   4   2    3.03    7.15   0 
  10   9   4    7.01    6.58   0 
  11   6   3   35.26    6.93   0 
  -8  -7   7  280.16    7.44   0 
  -8  -2   7   60.42    7.96   0 
  -7  -8   6    7.83    5.14   0 
  -7  -7   5    5.84    6.45   0 
  -6  -7   4  443.13    7.67   0 
  -5  -7   3  110.19    5.70   0 
  -4 -10   5   11.98    6.35   0 
  -4  -9   4  122.05    5.70   0 
  -4  -8   3  414.88    7.41   0 
  -3  -4   1  798.03   10.79   0 
  -2  -6   1    6.58    4.95   0 
  -1  -9   3    2.76    5.88   0 
  -1  -8   2  210.33    6.43   0 
   0  -8   2   11.70    6.10   0 
   1   9   6  120.75    6.08   0 
   2   8   4  293.08    6.94   0 
   3  -7   2  103.37    7.51   0 
   3  -4   0  414.21   10.32   0 
   3  10   6   17.48    6.28   0 
   4   5   1 2270.45   16.68   0 
   5  10   5   59.71    6.35   0 
   6  -5   2   64.90    8.14   0 
   6   0   0  748.06   24.64   0 
   6   7   2  307.43    6.88   0 
   7  -4   2    6.02    8.58   0 
   7   5   1   69.64    5.95   0 
   8   4   1   78.91    7.11   0 
   9   8   3   28.10    5.28   0 
  10   3   2   30.18    7.57   0 
  10   7   3    4.23    6.10   0 
  10  10   5   -1.04    5.54   0 
  11   5   3  121.88    7.42   0 
  11   8   4  109.11    6.50   0 
  -8  -6   6   52.56    6.57   0 
  -8  -5   6    9.36    6.68   0 
  -8  -4   6    2.84    6.13   0 
  -7  -2   5   28.44    7.28   0 
  -6  -9   5  103.45    5.68   0 
  -5   3   6  218.70   13.41   0 
  -4  -1   2   66.72    8.47   0 
  -3  -9   3  329.67    7.90   0 
  -3  -5   1 1396.40   12.66   0 
  -3  -2   1 2962.32   25.23   0 
  -2  -9   3   -3.20    4.88   0 
  -2  -8   2   62.09    5.40   0 
  -1  -3   0 1672.27   17.62   0 
  -1  -2   0 1145.30   19.40   0 
   0  -9   3   44.25    5.42   0 
   0  -7   1    8.83    5.98   0 
   1  -8   2   36.74    6.75   0 
   1  -5   0  435.48    9.42   0 
   1   5   2   56.28    6.30   0 
   1   8   5  776.50   10.71   0 
   1  10   8   10.58    6.31   0 
   2   4   1 2051.14   17.29   0 
   2  10   7    5.50    6.16   0 
   3  -8   3    2.09    6.88   0 
   3  -6   1   19.06    6.25   0 
   4  11   7   20.73    4.86   0 
   5   9   4  417.48    7.48   0 
   6   1   0  267.61   12.21   0 
   6   5   1  379.43    7.99   0 
   6  11   6    6.92    5.24   0 
   7  11   6   -0.06    5.03   0 
   8   0   1    5.73   12.54   0 
   8   8   3  253.09    6.58   0 
   8  11   6  162.77    7.54   0 
   9   9   4    3.96    4.90   0 
  11   3   3    3.61    8.09   0 
  11   4   3    5.30    7.66   0 
  -9  -4   8   35.75    7.04   0 
  -8  -7   6    6.31    6.38   0 
  -7  -9   6    0.45    5.18   0 
  -7  -8   5  130.23    6.95   0 
  -6  -8   4  519.70    8.08   0 
  -6  -5   3  590.75   10.08   0 
  -6  -1   4   10.21    8.15   0 
  -5 -10   5   10.98    5.36   0 
  -5  -9   4   -7.33    5.06   0 
  -5  -8   3  166.26    6.84   0 
  -4  -7   2   70.68    5.52   0 
  -4   5   7    2.19    6.93   0 
  -3 -10   4  124.89    5.91   0 
  -3  -8   2  967.24   10.16   0 
  -2 -10   4   20.98    5.43   0 
  -1  -7   1  157.97    6.09   0 
  -1  -4   0 2097.70   16.91   0 
   0   8   6    2.54    6.25   0 
   1  -9   3    1.71    5.33   0 
   1  -7   1    6.77    5.09   0 
   1   6   3 1411.29   13.49   0 
   1   7   4   72.38    6.44   0 
   2  -5   0   12.13    6.86   0 
   3   6   2  613.18    9.01   0 
   3   9   5  206.70    6.43   0 
   3  11   8   12.00    5.48   0 
   5  -6   2    4.87    6.27   0 
   6   8   3  247.76    6.59   0 
   6   9   4  858.58    9.39   0 
   6  10   5   -3.44    5.10   0 
   7   8   3   53.03    5.42   0 
   7   9   4   46.04    6.34   0 
   8   3   1    0.51    7.21   0 
   8   6   2  387.25    8.52   0 
   8   9   4   11.66    4.99   0 
  -8  -3   6    5.71    7.05   0 
  -7  -6   4   82.46    7.06   0 
  -7  -5   4   22.85    6.34   0 
  -6  -6   3   94.07    5.48   0 
  -6  -4   3 1282.83   13.10   0 
  -5  -5   2  802.72   10.10   0 
  -5  -4   2  391.54    9.50   0 
  -5   5   9   28.68    8.65   0 
  -4 -10   4  105.84    5.71   0 
  -4  -9   3    9.51    5.00   0 
  -3   6   7  239.72    9.71   0 
  -2  -7   1    3.77    5.22   0 
  -2   7   7    5.72    6.05   0 
   2  -8   2   44.21    5.88   0 
   2  -7   1    1.14    6.28   0 
   3   7   3    3.25    5.01   0 
   4  10   6   88.93    5.62   0 
   5   2   0  204.37    9.18   0 
   5  11   7   -0.05    4.95   0 
   6  -4   1  165.22   10.46   0 
   7   4   1  625.26   11.17   0 
   8  -3   2    0.61   11.32   0 
   9   5   2   91.19    5.93   0 
   9   7   3   53.51    7.07   0 
  10   6   3  304.59    8.96   0 
  10   8   4    2.17    5.42   0 
  11   7   4   34.55    5.73   0 
  -9  -3   8   17.28    7.86   0 
  -8  -8   6   89.37    5.92   0 
  -7  -9   5   63.04    6.85   0 
  -7  -7   4  287.46    7.97   0 
  -7  -4   4   30.17    6.80   0 
  -6 -10   5   36.94    5.40   0 
  -6  -9   4  341.71    7.06   0 
  -6  -7   3   50.18    5.42   0 
  -6   3   8    4.49   10.98   0 
  -5  -6   2  242.69    6.50   0 
  -4  -8   2  182.61    6.49   0 
  -2 -10   3   15.68    6.16   0 
  -2  -9   2   48.26    6.18   0 
  -2   2   2 1653.04   24.66   0 
  -2   8   9   27.43    6.61   0 
  -1  -9   2  144.32    5.79   0 
  -1  -5   0   52.36    6.14   0 
  -1   7   6   50.61    6.32   0 
   0   7   5   13.01    6.34   0 
   0   9   8    8.79    4.86   0 
   1   9   7   45.11    6.61   0 
   2   9   6   33.94    4.95   0 
   3   2   0  966.35   15.46   0 
   4  -6   1   79.14    7.83   0 
   4  -4   0    8.35    6.11   0 
   4   2   0  101.94    8.58   0 
   4   6   2  555.85    8.83   0 
   4   9   5  125.85    7.09   0 
   5  -3   0   29.46    8.26   0 
   7   6   2   27.99    5.04   0 
   8   2   1  329.87   10.85   0 
  10   9   5   14.98    5.56   0 
  -9  -6   7    6.15    5.54   0 
  -9  -5   7    4.26    7.05   0 
  -8  -6   5    5.64    6.58   0 
  -8  -5   5  256.15    8.66   0 
  -6  -3   3    4.84    6.73   0 
  -5 -10   4   21.46    5.09   0 
  -5  -9   3  673.20    8.88   0 
  -5  -7   2    7.93    4.74   0 
  -5  -3   2  113.54    7.98   0 
  -4  -5   1   32.76    7.02   0 
  -4   6   9   51.37    7.29   0 
  -3 -10   3   -3.74    5.04   0 
  -3  -9   2   14.97    4.92   0 
  -3   7   9  145.15    8.23   0 
  -1 -10   3    1.35    5.56   0 
  -1  -8   1  289.14    6.94   0 
   0  -9   2    7.79    4.98   0 
   0  -8   1    7.41    6.36   0 
   0   5   3  826.55   12.13   0 
   1  -6   0  320.63    8.79   0 
   1   3   1 7933.62   36.29   0 
   2   5   2  191.35    8.02   0 
   3  -5   0  254.71    8.91   0 
   3   4   1   30.35    6.04   0 
   3  10   7  365.61    7.65   0 
   4   7   3    3.94    5.12   0 
   4   8   4  277.48    6.71   0 
   6   6   2  118.78    5.68   0 
   7  11   7  113.75    6.03   0 
   8   1   1  460.48   14.81   0 
   8   7   3    6.04    4.84   0 
   9   4   2  117.13    7.97   0 
   9   8   4   19.74    4.95   0 
   9   9   5   17.59    6.13   0 
   9  10   6   12.04    5.09   0 
  11   6   4  139.96    7.96   0 
  -9  -4   7  213.93    9.54   0 
  -8  -7   5   56.06    5.80   0 
  -8  -1   7  341.39   14.04   0 
  -7  -8   4  158.62    6.26   0 
  -7   0   6    2.61   12.17   0 
  -4 -10   3   32.61    5.44   0 
  -4  -6   1  164.98    6.34   0 
  -4  -4   1   16.18    6.17   0 
  -4   4   6  815.32   16.15   0 
  -2  -8   1  228.93    6.33   0 
  -2  -5   0 3319.20   18.94   0 
  -2  -4   0 2377.80   17.52   0 
  -2   6   6   65.68    6.80   0 
  -1  -6   0  194.42    6.78   0 
  -1   6   5   29.01    6.59   0 
  -1   8   8   53.29    6.94   0 
   1  -9   2   64.81    5.68   0 
   1  -8   1  225.74    8.25   0 
   2   8   5  156.49    5.91   0 
   3  -8   2   47.12    6.12   0 
   3  -7   1   23.07    6.29   0 
   5   7   3  508.60    9.12   0 
   5   9   5  206.89    6.33   0 
   5  11   8   17.57    5.40   0 
   6   4   1   27.83    5.42   0 
   7   7   3  299.31    8.08   0 
   7  10   6  179.81    6.29   0 
   8   5   2    4.68    6.51   0 
   8   8   4   24.09    5.98   0 
  10   5   3  139.33    7.86   0 
  -8  -4   5  195.77    7.91   0 
  -8   0   8  210.08   18.06   0 
  -7  -9   4   58.10    5.55   0 
  -7  -3   4  159.55    7.98   0 
  -6 -10   4   51.35    5.32   0 
  -5  -8   2  529.02    8.17   0 
  -4  -9   2   58.69    5.47   0 
  -3  -8   1    5.47    5.02   0 
  -3   5   6   83.87    6.98   0 
  -2  -3   0  675.12   12.52   0 
   0   8   7    0.15    6.59   0 
   1   8   6    0.22    4.97   0 
   2  -6   0    8.84    5.87   0 
   2   7   4  323.44    7.09   0 
   3   9   6    6.05    4.89   0 
   4  10   7  307.97    7.00   0 
   5   4   1  160.02    7.18   0 
   5   8   4  490.06    8.17   0 
   6   8   4  134.44    5.98   0 
   6   9   5   13.60    5.22   0 
   7  -3   1   57.99   11.54   0 
   7   3   1  340.02   10.13   0 
   7   8   4  280.44    6.85   0 
   7   9   5  427.32    7.32   0 
   8   9   5   16.29    4.96   0 
   9   6   3   68.15    6.05   0 
  10   8   5   20.10    6.51   0 
  11   5   4   17.68    6.76   0 
  -9  -7   6  112.17    6.47   0 
  -9  -6   6   92.21    7.48   0 
  -8  -9   5    5.21    5.63   0 
  -8  -2   6   10.04    7.58   0 
  -6  -9   3  169.68    6.22   0 
  -5 -10   3   48.62    5.65   0 
  -4  -3   1  672.67   12.13   0 
  -3 -10   2  173.79    7.74   0 
  -2 -10   2  460.65    8.13   0 
  -2  -6   0  551.28    8.98   0 
  -2   5   5    2.43    6.19   0 
  -1 -10   2   -2.32    5.10   0 
  -1  -7   0  434.36    8.60   0 
  -1   4   3   43.46    5.98   0 
  -1   5   4  548.13   10.69   0 
   0  -7   0    6.62    5.09   0 
   0   9   9   48.72    5.87   0 
   2  -9   2   58.52    6.07   0 
   2   9   7  116.79    7.38   0 
   3  10   8   -1.75    5.35   0 
   9   3   2   11.75    6.94   0 
  10   4   3  156.72    8.90   0 
  10   9   6    6.10    5.38   0 
  11   7   5    2.58    5.35   0 
  -9  -5   6    4.54    6.59   0 
  -7 -10   4   42.71    5.01   0 
  -7  -7   3  179.16    6.29   0 
  -7  -6   3   28.23    5.12   0 
  -7  -5   3    1.64    6.74   0 
  -7  -1   5   10.84    8.79   0 
  -6  -7   2  108.70    5.49   0 
  -6  -6   2   25.08    5.00   0 
  -6  -5   2   41.67    6.42   0 
  -5  -9   2    5.62    4.86   0 
  -4 -11   3   12.74    5.53   0 
  -4 -10   2    6.96    6.21   0 
  -4  -8   1 1460.24   11.79   0 
  -3  -1   1 1468.58   22.97   0 
  -2  -9   1   47.39    5.31   0 
  -2  -7   0   25.53    6.13   0 
  -1  -9   1   77.26    5.42   0 
   0 -10   2   17.23    5.26   0 
   0  -9   1  195.75    7.75   0 
   0   2   1    1.57   10.28   0 
   1  -7   0   28.35    5.54   0 
   1   7   5 1597.25   13.55   0 
   1   9   8  146.68    6.27   0 
   2  10   9    4.29    5.11   0 
   3  -6   0  221.16    8.27   0 
   3   5   2  634.89    9.38   0 
   3   8   5   42.06    5.32   0 
   4  -5   0    5.52    6.16   0 
   5   1   0   30.38    8.58   0 
   5  10   7    6.53    5.05   0 
   7   5   2  154.78    6.96   0 
   9   7   4   95.93    6.17   0 
  10   6   4   72.87    7.31   0 
  11   4   4    0.49    7.50   0 
  -9  -3   7   87.96    8.82   0 
  -8  -8   4  190.00    6.71   0 
  -8  -7   4   91.66    6.03   0 
  -8  -6   4   97.37    6.04   0 
  -8  -3   5   85.95    7.86   0 
  -7  -8   3   75.81    5.68   0 
  -6 -10   3   -1.22    5.45   0 
  -6  -8   2    8.29    5.08   0 
  -6  -2   3   82.42    8.49   0 
  -5 -11   3   12.07    5.44   0 
  -5  -6   1  747.46   10.18   0 
  -5  -2   2  457.02   11.15   0 
  -5   4   8   77.36    9.35   0 
  -4   3   5   16.90    7.93   0 
  -3  -9   1  173.08    6.35   0 
  -3  -6   0 1681.26   13.17   0 
  -3  -5   0 2337.12   15.87   0 
  -3   4   5  100.04    8.19   0 
  -3   6   8    0.25    6.21   0 
  -2   4   4   46.07    7.29   0 
  -1   8   9    4.56    6.45   0 
   0   7   6    5.09    6.15   0 
   2  -7   0   36.63    6.56   0 
   3   7   4  189.04    6.34   0 
   4  -7   1   12.04    6.84   0 
   4   5   2  540.68   10.14   0 
   4  10   8    6.38    6.25   0 
   5  -6   1    0.03    6.08   0 
   5  -4   0  339.39   12.12   0 
   6  10   7  213.97    6.52   0 
   7  10   7    6.16    5.21   0 
   8   4   2   33.05    6.85   0 
   8  10   7   32.86    5.22   0 
   9   0   2    6.50    9.61   0 
   9   2   2  121.54    8.53   0 
   9   9   6  296.55    7.47   0 
  -9  -7   5   55.70    7.18   0 
  -9  -4   6  197.13    8.91   0 
  -8  -9   4   28.39    5.54   0 
  -8  -5   4    1.99    6.31   0 
  -7   2   9   10.18   13.81   0 
  -6  -9   2  421.64    8.28   0 
  -6  -4   2 1300.58   14.24   0 
  -5  -7   1   -3.34    5.11   0 
  -5  -5   1   54.94    5.92   0 
  -4  -9   1   38.05    5.32   0 
  -4   2   4  257.33   14.29   0 
  -4   5   8   33.88    7.77   0 
  -3  -7   0  437.10    8.07   0 
  -3   2   3  696.66   18.27   0 
  -2  -2   0 1483.28   20.15   0 
  -1  -8   0  423.97    7.61   0 
   0  -8   0   32.68    6.71   0 
   1  -9   1   59.47    5.80   0 
   1   5   3  213.55    7.54   0 
   1   6   4  635.86    9.33   0 
   2   3   1   85.74    8.37   0 
   2   8   6  382.20    7.45   0 
   3  -8   1   12.98    6.80   0 
   4   8   5  463.04    7.67   0 
   5   5   2 1529.09   13.35   0 
   6  -5   1    5.66    7.43   0 
   6   3   1 1040.22   13.76   0 
   6   9   6  438.47    7.65   0 
   7   6   3    8.86    6.09   0 
   8   7   4   17.47    4.72   0 
   8   8   5    7.46    5.82   0 
   9   1   2   73.99    9.57   0 
   9   5   3    3.94    5.44   0 
  10   3   3   66.17    7.35   0 
  10   7   5   19.77    6.41   0 
  11   6   5   18.06    5.78   0 
  -9  -8   5   10.17    5.22   0 
  -9  -6   5   76.72    7.24   0 
  -8 -10   4   68.30    6.89   0 
  -7  -4   3  143.27    7.87   0 
  -6 -11   3    1.65    5.22   0 
  -5  -8   1  496.12    8.00   0 
  -4 -11   2    1.05    5.23   0 
  -3 -11   2   16.04    5.26   0 
  -3 -10   1  343.99    8.15   0 
  -3   3   4 1471.10   20.00   0 
  -2 -10   1    7.31    5.53   0 
  -2  -8   0  247.80    6.61   0 
  -1 -10   1    7.62    5.21   0 
   0   8   8   27.47    5.62   0 
   1  -8   0  120.00    7.30   0 
   1  -3  -1  133.97    9.18   0 
   1   8   7  245.43    6.79   0 
   2  -4  -1  363.98   10.70   0 
   2   1   0  337.52   14.71   0 
   2   9   8    2.27    4.73   0 
   4   6   3  178.08    6.67   0 
   4   7   4    4.46    5.08   0 
   5   8   5   33.78    5.35   0 
   5  10   8  501.85    8.66   0 
   6   6   3  212.96    7.30   0 
   7   2   1  155.52    8.19   0 
   7   7   4  125.97    7.15   0 
   7   8   5  307.36    7.17   0 
  10   2   3   98.91    9.01   0 
  -7  -2   4    2.72    7.03   0 
  -5 -11   2    6.06    6.37   0 
  -5  -9   1   48.71    5.21   0 
  -5  -4   1  125.34    8.02   0 
  -4 -10   1  520.51    9.00   0 
  -3  -8   0   16.81    5.13   0 
  -2   6   7  224.02    7.94   0 
  -2   7   9  230.45    8.85   0 
   0 -10   1    4.91    5.17   0 
   0  -5  -1 1494.13   14.39   0 
   0  -4  -1  356.89    9.27   0 
   0   6   5    1.70    4.93   0 
   1  -5  -1 1164.97   13.04   0 
   2  -9   1   79.82    6.35   0 
   3  -7   0   18.15    6.19   0 
   4  -6   0   51.54    7.50   0 
   4   1   0  280.60   11.98   0 
   4   9   7  333.61    6.97   0 
   4  10   9  158.01    7.66   0 
   5   6   3 2169.91   14.49   0 
   5   7   4  254.27    6.84   0 
   6   7   4  572.08    8.42   0 
   6  10   8   25.34    5.33   0 
   7  10   8   17.51    5.38   0 
   8  10   8  117.65    6.32   0 
   9   9   7   25.63    5.50   0 
  10   1   3   16.95    8.35   0 
  10   5   4   12.48    6.75   0 
  11   5   5    1.33    6.97   0 
  -9  -5   5    8.04    6.37   0 
  -8  -8   3    2.25    5.17   0 
  -8  -7   3  240.81    8.01   0 
  -8  -4   4   86.09    6.86   0 
  -7  -8   2   47.64    4.99   0 
  -7  -7   2   47.97    5.40   0 
  -4  -7   0   22.04    5.34   0 
  -4  -6   0  676.09    9.24   0 
  -4  -2   1 1036.13   15.98   0 
  -3  -3   0  907.85   14.09   0 
  -1  -9   0  325.92    7.35   0 
  -1  -5  -1    4.97    5.98   0 
  -1   6   6   62.98    5.93   0 
  -1   8  10   62.95    7.34   0 
   0  -9   0  246.61    8.37   0 
   1  -6  -1  202.16    8.12   0 
   2  -8   0   36.88    6.72   0 
   2  -5  -1 1108.37   13.82   0 
   2   4   2  363.65    9.87   0 
   3   3   1  235.28    8.91   0 
   3   8   6  205.14    6.53   0 
   4   3   1  189.88    9.12   0 
   5   9   7    3.99    6.03   0 
   7   4   2    5.02    6.49   0 
   8   3   2   78.74    7.25   0 
   8   5   3  205.58    7.98   0 
   9   4   3   18.13    6.61   0 
   9   7   5   47.57    5.63   0 
   9   8   6  132.37    5.94   0 
  -9  -9   4   23.11    6.54   0 
  -9  -8   4   18.40    6.31   0 
  -8  -6   3   46.53    6.57   0 
  -7  -9   2  301.17    6.89   0 
  -7  -6   2   48.11    5.09   0 
  -6 -11   2   14.75    5.23   0 
  -6  -8   1   16.76    4.98   0 
  -6  -7   1  563.86    8.42   0 
  -5 -10   1    0.72    5.18   0 
  -4  -8   0   84.27    5.95   0 
  -4  -5   0  101.64    6.44   0 
  -3 -11   1   23.71    5.36   0 
  -3  -9   0   18.31    5.10   0 
  -3   5   7    4.39    6.93   0 
  -3   6   9  140.24    8.05   0 
  -2 -11   1   20.86    5.44   0 
  -1  -6  -1   62.16    5.90   0 
  -1  -4  -1   77.39    6.93   0 
  -1   7   8   69.72    6.86   0 
   0  -3  -1 1458.23   17.23   0 
   0   3   2  472.53   11.80   0 
   0   5   4  819.36   11.75   0 
   1   7   6  162.18    6.09   0 
   1   9  10    4.34    5.38   0 
   2   5   3  324.54    8.08   0 
   2   6   4  258.84    7.19   0 
   2   8   7   19.94    5.97   0 
   2   9   9    7.66    6.23   0 
   3  -4  -1   92.29    8.81   0 
   3  -3  -1    2.14    7.97   0 
   3   1   0  154.61   10.85   0 
   3   9   8   79.64    5.38   0 
   5  -7   1    7.56    7.80   0 
   5  -5   0   34.08    7.96   0 
   5  10   9   12.28    5.44   0 
   6   9   7   29.79    5.31   0 
   6  10   9  160.85    7.51   0 
  10   6   5   91.97    6.33   0 
  10   7   6   23.72    6.18   0 
  10   8   7    4.88    6.75   0 
  -9  -7   4   38.89    5.42   0 
  -8 -10   3    2.53    5.08   0 
  -7 -10   2   56.44    5.56   0 
  -6  -6   1   22.76    5.10   0 
  -6  -3   2  903.25   13.27   0 
  -4 -11   1   16.33    5.29   0 
  -4  -9   0  446.34    7.73   0 
  -2  -6  -1  642.14    9.42   0 
  -1  -7  -1    5.56    4.75   0 
  -1   1   1  349.26   18.74   0 
   0  -7  -1  409.21    8.30   0 
   0   4   3  713.08   12.28   0 
   0   7   7  170.49    6.36   0 
   0   8   9   26.70    5.43   0 
   1  -9   0  181.49    6.77   0 
   1   8   8  183.23    6.68   0 
   2  -6  -1 1282.01   14.40   0 
   2  -2  -1 1038.43   20.41   0 
   3   7   5   -3.23    5.17   0 
   4   8   6   55.91    5.46   0 
   6   4   2 2293.72   17.14   0 
   7  -4   1   28.16   11.69   0 
   8   6   4   12.47    5.60   0 
   8   7   5   25.62    5.03   0 
  10   4   4    5.47    6.71   0 
  -9  -6   4   95.56    7.19   0 
  -9  -3   6   -0.68    7.34   0 
  -9  -2   7    5.34    9.48   0 
  -8  -5   3   64.79    6.66   0 
  -7 -11   2    6.40    6.54   0 
  -7  -5   2  127.31    6.60   0 
  -7  -3   3  580.47   11.60   0 
  -6 -10   1  178.60    6.31   0 
  -6   2   7    9.68   11.22   0 
  -5 -11   1    8.16    5.29   0 
  -5  -7   0    3.73    5.08   0 
  -4  -4   0 1188.91   13.30   0 
  -4   4   7  177.94    9.37   0 
  -3 -10   0   14.21    5.13   0 
  -2 -10   0    8.74    4.79   0 
  -2  -7  -1  378.47    7.52   0 
  -2  -5  -1  511.08    8.94   0 
  -2   5   6   68.74    7.30   0 
  -2   7  10   28.75    7.08   0 
  -1 -10   0   16.79    5.32   0 
  -1  -8  -1   17.98    6.49   0 
  -1   5   5  108.08    7.77   0 
   1  -7  -1   27.14    5.67   0 
   1  -2  -1   10.37    8.94   0 
   3  -5  -1   32.01    7.02   0 
   3   4   2 1086.71   12.41   0 
   3   6   4   13.88    5.54   0 
   4   9   8    1.36    4.85   0 
   5   8   6  195.98    6.29   0 
   6  -6   1    1.10    9.01   0 
   6  -3   0    6.22   12.37   0 
   6   8   6  267.24    6.62   0 
   7   1   1  204.39   10.05   0 
   7   5   3   13.15    5.36   0 
   8   9   8    7.11    6.08   0 
   9   5   4    1.16    6.58   0 
 -10  -7   5    3.81    7.19   0 
  -9  -4   5    6.99    6.35   0 
  -6  -5   1   74.36    5.57   0 
  -6   3   9    7.64    9.61   0 
  -5  -9   0    7.80    5.05   0 
  -5  -6   0   40.87    5.62   0 
  -2   6   8  372.13    9.50   0 
   0 -10   0  127.02    6.41   0 
   0  -8  -1   18.59    5.80   0 
   2  -9   0   19.28    7.06   0 
   2   9  10   20.32    5.69   0 
   3  -8   0   95.47    7.70   0 
   3   8   7   26.11    5.24   0 
   3   9   9   42.75    5.07   0 
   4  -7   0   63.45    7.05   0 
   4   4   2   26.03    6.00   0 
   5   0   0 2468.17   35.05   0 
   5   4   2   16.52    6.05   0 
   5   7   5   64.19    5.79   0 
   5   9   8   97.64    5.91   0 
   6   2   1   96.09    8.06   0 
   6   7   5  645.25    8.65   0 
   6   9   8   66.59    5.96   0 
   7   6   4   11.08    5.07   0 
   7   7   5    7.02    5.13   0 
   7   9   8    0.09    5.46   0 
   9   3   3   64.28    6.99   0 
   9   6   5   61.29    7.18   0 
   9   7   6  126.75    7.05   0 
  10   5   5   60.29    7.55   0 
  -9 -10   3   22.02    6.85   0 
  -9  -9   3   13.67    5.64   0 
  -9  -8   3  182.56    7.59   0 
  -8  -9   2   -0.10    4.63   0 
  -8  -8   2   14.94    5.07   0 
  -8  -7   2   27.07    6.34   0 
  -7  -9   1    1.39    5.07   0 
  -7  -8   1   52.69    5.32   0 
  -6 -11   1   67.92    5.78   0 
  -5 -10   0  516.65    8.77   0 
  -5   3   7  163.36   11.15   0 
  -5   4   9   11.63    7.64   0 
  -3  -8  -1   26.27    5.42   0 
  -3  -7  -1   88.20    5.89   0 
  -3  -6  -1  424.91    8.15   0 
  -3   6  10    3.11    7.59   0 
  -2 -11   0    5.00    6.27   0 
  -1  -3  -1 7988.15   36.47   0 
  -1   7   9   37.26    6.78   0 
   0   8  10    7.33    5.23   0 
   1  -8  -1  277.92    8.60   0 
   1   2   1 3358.29   28.92   0 
   2  -7  -1  367.68    9.38   0 
   2   7   6  120.37    5.97   0 
   2   8   8   35.19    6.59   0 
   3  -6  -1   67.25    7.99   0 
   3  -2  -1   21.43   10.02   0 
   4   5   3 1546.84   13.47   0 
   4   6   4 1500.80   12.43   0 
   5   5   3  320.04    8.98   0 
   5   6   4    0.87    6.70   0 
   6   5   3  555.42    8.84   0 
   6   6   4  551.51    8.53   0 
   7   3   2  576.25   10.85   0 
   8   2   2   19.69    6.80   0 
   8   4   3   28.30    6.84   0 
   8   8   7   24.68    5.17   0 
  10   3   4  172.46    8.27   0 
  10   7   7   40.01    5.53   0 
  -9  -7   3   48.95    6.92   0 
  -9  -5   4    7.27    6.35   0 
  -8 -11   2    5.72    5.46   0 
  -8  -3   4  121.02    7.81   0 
  -8  -1   6   13.18   11.91   0 
  -7 -10   1    5.14    5.41   0 
  -5  -5   0  174.26    7.04   0 
  -4 -11   0    9.27    5.50   0 
  -3  -9  -1  231.83    7.80   0 
  -3  -5  -1 1476.67   13.24   0 
  -2  -9  -1   18.32    4.95   0 
  -1 -11   0   67.23    5.84   0 
  -1  -9  -1    3.17    4.88   0 
  -1   4   4  131.37    7.78   0 
  -1   6   7   60.39    5.84   0 
   0  -9  -1    8.82    6.97   0 
   0   6   6    7.87    5.58   0 
   0   7   8   -2.25    6.55   0 
   1 -10   0    1.70    5.66   0 
   1   5   4  372.17    9.50   0 
   1   7   7   10.44    5.32   0 
   1   8   9   18.83    5.19   0 
   3   9  10   10.11    6.50   0 
   4   8   7  293.32    6.91   0 
   4   9   9   29.14    5.55   0 
   5  -6   0   78.40    8.48   0 
   7   8   7   21.84    5.27   0 
   8   7   6    0.13    6.16   0 
   8   9   9    7.79    5.28   0 
   9   8   8    4.26    6.49   0 
 -10  -8   4    8.71    5.12   0 
  -8  -6   2   23.08    6.56   0 
  -7 -11   1  100.32    5.80   0 
  -7  -6   1  307.50    8.42   0 
  -7  -4   2  163.88    7.94   0 
  -6  -9   0  127.08    5.87   0 
  -6  -8   0  137.42    6.10   0 
  -6  -7   0  165.17    7.32   0 
  -6  -4   1 1310.82   14.37   0 
  -5 -11   0   90.11    6.09   0 
  -4  -8  -1  269.94    7.09   0 
  -4  -7  -1  519.70    8.34   0 
  -3   4   6    8.06    6.74   0 
   2   6   5  134.85    7.32   0 
   4  -4  -1  104.43    8.86   0 
   4  -3  -1  277.96   13.45   0 
   5   9   9    7.94    5.35   0 
   6   8   7  160.47    6.29   0 
   7   9   9    4.86    5.26   0 
   8   5   4   74.32    5.98   0 
   8   6   5  879.17   10.29   0 
   9   2   3   28.01    7.92   0 
   9   4   4  306.03    8.88   0 
  10   2   4    8.62    7.39   0 
 -10  -7   4   11.39    6.93   0 
  -8  -4   3    4.38    6.26   0 
  -4  -9  -1    8.32    5.17   0 
  -4  -6  -1   81.03    5.96   0 
  -4   5  10   10.66    6.83   0 
  -3 -10  -1   10.29    4.98   0 
  -2 -10  -1  164.65    6.18   0 
  -2   4   5   20.73    6.88   0 
  -1 -10  -1   92.95    5.92   0 
  -1   3   3  235.86    9.88   0 
  -1   7  10  283.61    8.80   0 
   0  -2  -1    1.95    8.44   0 
   1  -9  -1    1.28    6.45   0 
   1   3   2 3647.64   24.65   0 
   1   4   3 1206.27   13.57   0 
   1   8  10    2.12    6.55   0 
   2  -8  -1    4.00    5.38   0 
   3  -7  -1   16.67    6.62   0 
   3   8   8    3.62    5.21   0 
   4  -8   0   33.06    8.17   0 
   4  -5  -1  441.11   11.73   0 
   4   7   6    5.83    6.66   0 
   4   9  10   -1.98    4.91   0 
   5   2   1  245.87    9.41   0 
   6  -4   0  117.83   12.57   0 
   7   0   1    1.09    9.14   0 
   7   7   6  229.64    6.96   0 
   8   8   8   -0.79    5.08   0 
   9   7   7   50.32    5.60   0 
  -9 -10   2   26.61    5.42   0 
  -9  -9   2  365.79    7.81   0 
  -9  -6   3   42.75    5.94   0 
  -8 -10   1   33.77    5.41   0 
  -8  -9   1  303.34    7.00   0 
  -6 -11   0    5.95    5.51   0 
  -6  -6   0  424.69    7.86   0 
  -5 -12   0   13.25    5.64   0 
  -4  -3   0  156.68    7.84   0 
  -3  -2   0 1089.63   16.40   0 
  -2   6   9   62.60    6.89   0 
  -1   2   2    9.13    8.94   0 
   0 -10  -1    5.31    6.44   0 
   0   5   5  231.02    8.29   0 
   2   7   7   62.68    5.84   0 
   2   8   9   11.85    5.24   0 
   4   8   8   41.47    5.01   0 
   5   7   6    7.33    5.34   0 
   5   9  10    1.40    5.12   0 
   6   3   2   40.65    7.48   0 
   6   7   6   41.79    5.65   0 
   6   9  10   27.95    5.79   0 
   7   5   4   20.57    6.56   0 
   7   6   5   62.88    5.72   0 
   7   8   8   41.53    5.45   0 
   8   1   2  348.77   11.45   0 
   9   5   5  142.38    6.91   0 
   9   6   6   11.05    5.20   0 
  10   1   4  171.34   10.34   0 
  10   5   6   12.11    5.57   0 
  10   6   7  109.39    6.45   0 
 -10  -9   3   32.05    5.69   0 
 -10  -5   5    4.86    6.59   0 
 -10  -4   6  172.66   10.43   0 
  -8 -11   1   18.62    5.05   0 
  -7 -10   0   12.27    5.16   0 
  -6 -12   0   19.77    5.62   0 
  -6  -1   3    5.11   10.09   0 
  -5 -10  -1  150.65    7.26   0 
  -5  -9  -1   82.44    5.64   0 
  -5  -8  -1    8.78    5.18   0 
  -5  -7  -1    7.59    6.51   0 
  -5  -4   0    3.91    7.33   0 
  -5   4  10   53.59    8.48   0 
  -4 -11  -1   -1.77    6.44   0 
  -3 -11  -1   22.96    5.49   0 
  -3  -4  -1   35.22    6.40   0 
  -2 -11  -1    0.26    5.35   0 
  -2  -3  -1   82.66    8.71   0 
  -2   5   7    5.89    6.37   0 
  -1  -6  -2  464.11    9.81   0 
   0  -7  -2   66.99    7.43   0 
   0  -6  -2   35.34    5.51   0 
   0   7   9   21.95    5.45   0 
   1   6   6  195.74    6.63   0 
   1   7   8  341.20    7.63   0 
   2   2   1    5.66    8.47   0 
   2   5   4 1351.19   12.79   0 
   3   6   5  401.81    7.76   0 
   4  -6  -1   10.85    7.53   0 
   5  -7   0   17.19    7.90   0 
   5   8   8    5.59    5.26   0 
   6   6   5   31.57    6.38   0 
   6   8   8   48.00    5.69   0 
   7  -5   1    3.81   11.16   0 
   8   3   3  463.37   10.08   0 
   8   7   7   23.63    5.22   0 
 -10  -8   3   49.06    7.33   0 
 -10  -6   4  178.83    8.13   0 
  -9  -4   4  215.25    9.54   0 
  -9  -3   5    3.27    8.59   0 
  -8  -7   1  105.46    7.13   0 
  -8  -5   2 1405.48   14.45   0 
  -7 -11   0   11.36    5.25   0 
  -7  -8   0  221.03    6.65   0 
  -5  -1   2  923.88   19.75   0 
  -4  -5  -1 2334.70   16.56   0 
  -4   3   6   95.25    8.66   0 
  -2  -8  -2   66.12    5.55   0 
  -2  -7  -2    5.49    5.09   0 
  -1  -8  -2  962.46   10.55   0 
  -1   5   6  984.19   12.25   0 
  -1   6   8   44.37    5.52   0 
  -1   7  11   15.46    5.58   0 
   0  -8  -2  343.23    8.90   0 
   0   6   7   93.13    5.93   0 
   1 -10  -1   78.57    7.68   0 
   1  -7  -2  572.34   10.60   0 
   1  -6  -2    5.12    5.10   0 
   1  -5  -2  234.93    9.11   0 
   1   8  11    2.03    5.46   0 
   2  -9  -1  126.67    7.03   0 
   2   8  10    2.94    5.09   0 
   3  -8  -1   10.73    6.76   0 
   3   7   7   70.70    5.55   0 
   3   8   9    0.76    5.17   0 
   4   2   1  160.07    8.22   0 
   4   6   5  141.60    6.52   0 
   6   4   3  824.98   11.42   0 
   6   5   4  195.88    7.36   0 
   8   6   6   19.18    6.91   0 
   8   8   9   46.70    5.14   0 
   9   1   3   37.54    7.81   0 
   9   3   4  294.13    9.00   0 
   9   7   8    8.10    5.33   0 
  10   3   5   -1.00    6.55   0 
  -7  -7   0    3.12    5.01   0 
  -6  -9  -1  462.86    7.84   0 
  -6  -5   0    4.93    6.55   0 
  -6  -2   2  889.64   15.96   0 
  -5 -11  -1  134.50    6.21   0 
  -5  -6  -1  263.22    7.24   0 
  -4 -12  -1   33.32    6.59   0 
  -3  -9  -2   29.95    6.62   0 
  -3  -8  -2    0.64    5.15   0 
  -3  -7  -2 3217.43   17.68   0 
  -2  -6  -2  103.26    6.55   0 
  -2   6  10   98.83    7.97   0 
  -1  -9  -2    5.94    5.29   0 
  -1  -5  -2   50.53    6.63   0 
   2   3   2 2990.70   21.85   0 
   3   2   1 3297.06   25.53   0 
   3   5   4 1568.96   13.20   0 
   4   7   7   60.95    6.66   0 
   4   8   9  121.72    5.82   0 
   5   3   2   52.28    7.79   0 
   5   8   9    1.64    6.37   0 
   6  -5   0  163.93   11.95   0 
   6   1   1   92.39    9.37   0 
   7   2   2   -0.39    6.42   0 
   7   7   7   67.43    5.59   0 
   7   8   9   15.96    5.28   0 
   8   4   4   42.20    5.68   0 
   8   5   5    7.89    6.81   0 
   9   6   7   10.25    6.44   0 
 -10  -7   3    2.59    7.03   0 
  -9 -10   1   13.81    5.62   0 
  -9  -5   3   61.88    6.68   0 
  -7  -2   3  210.52   10.70   0 
  -6 -11  -1    9.78    5.33   0 
  -6  -8  -1  141.07    6.13   0 
  -5 -12  -1    3.95    5.33   0 
  -3 -10  -2  185.20    7.29   0 
  -3   3   5  286.16   10.48   0 
  -3   5   9    1.96    6.33   0 
  -2 -10  -2   87.71    5.69   0 
  -2  -1   0  345.04   15.03   0 
  -2   3   4  418.16   10.86   0 
   0   4   4  618.35   10.64   0 
   0   7  10    0.49    5.28   0 
   1  -8  -2  112.14    6.61   0 
   1   7   9    0.40    6.54   0 
   2  -6  -2   14.67    7.25   0 
   2  -5  -2  630.17   11.79   0 
   2   6   6   76.43    6.04   0 
   2   7   8  178.35    6.21   0 
   2   8  11   21.81    5.62   0 
   3   4   3   20.72    7.13   0 
   3   8  10  104.67    5.89   0 
   4  -7  -1   76.87    8.53   0 
   4   5   4 1172.00   11.67   0 
   5   4   3   30.24    6.19   0 
   5   7   7   69.23    5.69   0 
   6   7   7  219.66    6.65   0 
   9   4   5   39.18    6.83   0 
   9   5   6    4.90    5.34   0 
  10   5   7    6.55    5.73   0 
  -9  -9   1   82.00    6.01   0 
  -8 -11   0  102.54    6.05   0 
  -8 -10   0  116.02    6.04   0 
  -8  -9   0    8.22    4.98   0 
  -8  -6   1  752.82   11.21   0 
  -7  -3   2  550.16   12.22   0 
  -6 -12  -1  140.34    6.25   0 
  -6  -7  -1  104.32    6.98   0 
  -5  -2   1  121.40    9.30   0 
  -5   3   8   17.83    8.68   0 
  -4 -10  -2   35.13    4.98   0 
  -4  -9  -2   41.23    5.45   0 
  -4  -8  -2  133.22    6.22   0 
  -3  -6  -2  633.92    9.17   0 
  -2  -5  -2  199.92    7.50   0 
  -1 -10  -2   13.30    5.14   0 
  -1  -2  -1 3378.73   29.14   0 
  -1   6   9  193.76    8.13   0 
   1  -4  -2  618.84   11.94   0 
   1   5   5  156.48    6.90   0 
   2  -7  -2    9.34    6.58   0 
   3   3   2   39.13    6.92   0 
   4   3   2    5.10    6.17   0 
   4   4   3    3.70    5.83   0 
   4   8  10  101.65    5.98   0 
   7   6   6  172.80    6.41   0 
   7   8  10   59.15    5.93   0 
   8   0   2  117.36   10.81   0 
   9   0   3   76.78    8.81   0 
  10   2   5   28.67    7.21   0 
  -9  -8   1  144.23    6.32   0 
  -9  -6   2   50.35    7.01   0 
  -9  -2   6    8.35   10.94   0 
  -8  -8   0   49.58    6.29   0 
  -7 -11  -1   37.22    6.89   0 
  -7 -10  -1  752.09    9.16   0 
  -7  -9  -1   46.71    6.74   0 
  -7  -6   0  430.64    8.44   0 
  -6  -3   1  113.97    8.09   0 
  -5   2   6   11.11    9.01   0 
  -4  -7  -2  127.96    6.33   0 
  -3 -11  -2   15.01    5.12   0 
  -3   4   7   23.55    6.68   0 
  -2   5   8    3.63    6.32   0 
  -2   6  11   19.26    6.06   0 
   0 -10  -2  229.89    7.40   0 
   0   6   8  389.05    8.98   0 
   1  -9  -2   24.02    5.67   0 
   1   6   7   40.10    5.33   0 
   3  -9  -1    0.87    6.62   0 
   3   6   6   49.84    5.71   0 
   3   7   8  160.05    6.30   0 
   3   8  11   45.70    5.68   0 
   5   8  10  101.38    5.81   0 
   6   6   6    3.69    5.19   0 
   7  -1   1    3.55   11.31   0 
   7   3   3  187.33    8.47   0 
   7   5   5  260.00    7.14   0 
   7   7   8    7.53    5.01   0 
   8   2   3  168.30    8.02   0 
   8   6   7  157.96    6.35   0 
   8   7   9   24.84    6.24   0 
   9   2   4    1.76    7.20   0 
   9   6   8    1.41    5.16   0 
 -10  -8   2   20.02    6.11   0 
 -10  -5   4    0.43    7.20   0 
  -7 -12  -1    6.56    5.49   0 
  -7  -1   4   31.57   12.37   0 
  -5 -11  -2    2.09    5.17   0 
  -5 -10  -2  179.52    6.12   0 
  -5  -9  -2   70.40    5.66   0 
  -5  -8  -2  426.91    8.00   0 
  -5  -5  -1 1968.18   15.02   0 
  -4   4   9   11.93    7.29   0 
  -3  -3  -1  248.33   10.21   0 
  -3   5  10  193.71    8.68   0 
  -2   4   6  996.20   13.17   0 
  -1 -11  -2   18.41    5.63   0 
  -1  -4  -2  396.88    9.36   0 
  -1   4   5   31.94    7.18   0 
   0   5   6 1655.98   13.82   0 
   1   7  10    2.82    5.10   0 
   2  -8  -2   56.15    5.55   0 
   2  -4  -2 2120.36   20.32   0 
   2   7   9   -1.52    4.69   0 
   4  -2  -1   20.99   14.54   0 
   4   6   6   23.34    5.47   0 
   4   8  11   76.50    5.81   0 
   5   6   6  219.97    6.91   0 
   5   7   8   21.74    5.11   0 
   5   8  11   51.77    5.56   0 
   6  -6   0    1.35   10.19   0 
   7   4   4   50.72    5.68   0 
   8   5   6  892.72   11.36   0 
   9  -1   3    1.69    9.06   0 
   9   5   7    8.70    6.77   0 
  10   3   6    5.07    6.88   0 
  10   4   7   15.19    7.05   0 
 -10 -10   1   35.95    6.94   0 
 -10  -6   3  153.14    8.28   0 
 -10  -4   5  124.54    9.58   0 
  -9 -11   0  114.33    6.51   0 
  -9 -10   0   35.31    6.74   0 
  -9  -7   1   11.89    6.87   0 
  -8  -4   2    2.75    6.46   0 
  -8  -3   3  296.45   10.46   0 
  -7  -8  -1   42.09    5.64   0 
  -7  -4   1   22.13    6.83   0 
  -6  -6  -1  365.52    7.68   0 
  -6   2   8   37.81    9.70   0 
  -5 -12  -2  120.47    7.29   0 
  -4 -12  -2   40.95    5.73   0 
  -4  -6  -2  566.07    8.98   0 
  -4  -1   1  918.44   19.86   0 
  -3 -12  -2   15.74    5.85   0 
  -3  -5  -2  611.70    9.42   0 
  -1   5   7    8.17    5.68   0 
  -1   6  10   36.15    6.64   0 
   0   3   3 1225.89   15.05   0 
   2   6   7   66.17    6.62   0 
   3  -6  -2   49.83    6.94   0 
   3  -5  -2  737.82   13.68   0 
   3   7   9  700.46    9.96   0 
   4  -8  -1    6.08    6.83   0 
   4   0   0  259.89   14.36   0 
   5  -5  -1  104.70   10.72   0 
   5  -4  -1   17.97   10.65   0 
   6   2   2    5.73    7.10   0 
   6   5   5  161.33    6.22   0 
   7   7   9   42.18    5.68   0 
   8   3   4   88.43    7.31   0 
   8   4   5  568.74   10.22   0 
   9   4   6  155.07    7.72   0 
  -9  -9   0  560.41    9.53   0 
  -8 -11  -1    7.53    5.31   0 
  -8 -10  -1   22.04    5.01   0 
  -8  -7   0   17.27    5.04   0 
  -6 -10  -2   19.60    5.30   0 
  -6  -9  -2   45.98    5.75   0 
  -6  -4   0  628.03   11.04   0 
  -5  -3   0  780.12   12.73   0 
  -2  -8  -3    3.24    6.32   0 
  -2  -4  -2  371.56   10.09   0 
  -2   2   3 3688.60   31.52   0 
  -1  -8  -3  242.41    7.75   0 
   1   4   4    2.26    6.29   0 
   1   7  11  390.95    7.96   0 
   2  -9  -2   68.13    7.17   0 
   2   7  10   94.24    5.70   0 
   3  -7  -2  134.05    7.58   0 
   3   5   5  221.03    7.24   0 
   4   7   9  139.04    5.87   0 
   5   5   5   15.88    6.39   0 
   5   7   9  269.87    7.75   0 
   6   7   9   67.82    5.58   0 
   8  -1   2    9.51    9.56   0 
   8   6   8  456.20    8.03   0 
 -10  -9   1  153.19    6.26   0 
 -10  -7   2   38.88    5.76   0 
  -8  -9  -1   53.41    5.25   0 
  -8  -5   1   30.43    7.36   0 
  -8  -2   4  100.80   11.29   0 
  -7  -7  -1   44.53    5.40   0 
  -7  -5   0   60.95    7.09   0 
  -6 -12  -2   80.87    5.88   0 
  -3 -10  -3    7.68    4.99   0 
  -3  -9  -3   57.32    5.67   0 
  -3  -8  -3  201.55    6.59   0 
  -3   5  11   56.52    6.15   0 
  -2 -10  -3  263.03    7.30   0 
  -2  -7  -3   90.64    5.81   0 
  -2   5   9  465.84   10.17   0 
  -1  -9  -3   37.47    5.53   0 
  -1  -7  -3 1148.32   11.60   0 
  -1   6  11    7.04    6.84   0 
   0  -8  -3  429.91    9.56   0 
   0   6   9   25.96    5.71   0 
   1   6   8    3.93    5.01   0 
   1   7  12    2.18    5.41   0 
   3   6   7   81.20    5.95   0 
   4   5   5  106.51    6.33   0 
   5  -6  -1   12.00    7.99   0 
   5   1   1 6549.62   37.63   0 
   5   6   7  456.77    9.17   0 
   6   3   3   12.17    5.41   0 
   6   6   7   -2.67    5.19   0 
   7   1   2  236.62    9.32   0 
   7   5   6   96.57    6.96   0 
   9   1   4  148.48    9.09   0 
  -9  -8   0   38.87    7.07   0 
  -9  -5   2    8.85    6.35   0 
  -9  -4   3    7.77    7.46   0 
  -8   0   8  215.96   17.79   0 
  -7 -12  -2   17.06    5.55   0 
  -7 -11  -2  111.84    5.89   0 
  -7 -10  -2    9.96    5.27   0 
  -7   1   8   25.97   10.00   0 
  -5   3   9   12.05    7.95   0 
  -4 -11  -3    8.32    6.49   0 
  -4 -10  -3    3.57    5.18   0 
  -4  -9  -3  443.16    7.92   0 
  -4  -2   0   92.74    9.37   0 
  -4   3   7  613.02   12.72   0 
  -4   4  10   26.73    6.88   0 
  -3 -11  -3   63.73    5.76   0 
  -3  -7  -3   -3.30    6.36   0 
  -3   4   8  149.62    7.81   0 
  -2 -11  -3   59.65    7.25   0 
  -1  -6  -3 1407.68   13.83   0 
   0  -9  -3   43.33    6.06   0 
   0  -6  -3   10.88    6.68   0 
   0   2   2 1842.99   22.36   0 
   1  -3  -2  721.31   14.31   0 
   1   5   6  106.73    6.27   0 
   3  -8  -2   13.42    6.85   0 
   3  -4  -2  118.38    9.60   0 
   3   7  10   35.12    5.56   0 
   4   7  10  375.82    7.50   0 
   5   4   4  607.32   10.50   0 
   5   7  10   67.08    5.78   0 
   6   7  10    7.68    5.10   0 
   7   6   8    4.06    5.23   0 
   8   1   3  313.37   10.61   0 
   8   5   7  253.00    7.50   0 
   8   6   9   10.46    5.60   0 
 -11  -7   3    2.89    6.77   0 
 -11  -6   4   27.92    8.22   0 
 -10  -8   1  117.75    6.93   0 
  -9 -11  -1   26.10    5.60   0 
  -8  -8  -1    1.91    5.09   0 
  -8  -6   0 1068.48   12.91   0 
  -7  -9  -2  170.42    6.30   0 
  -6  -7  -2  315.02    8.19   0 
  -6   1   6   74.99   11.51   0 
  -5 -11  -3  105.39    5.94   0 
  -5 -10  -3  331.18    7.39   0 
  -5  -6  -2  274.86    7.36   0 
  -4 -12  -3   71.57    7.23   0 
  -4  -8  -3  100.73    6.29   0 
  -4   2   5  487.75   13.30   0 
  -3 -12  -3   40.19    6.96   0 
  -2  -6  -3  206.72    7.22   0 
  -2  -2  -1    6.75   10.91   0 
  -1 -11  -3   22.31    6.77   0 
  -1   5   8  210.06    7.54   0 
  -1   6  12    6.64    5.68   0 
   0 -10  -3   46.91    7.06   0 
   0  -3  -2  475.93   11.13   0 
   0   4   5 2133.43   17.30   0 
   0   5   7 1817.40   14.56   0 
   0   6  10   10.56    5.35   0 
   1  -8  -3    6.92    6.91   0 
   1  -7  -3    6.19    5.66   0 
   1   6   9    9.28    6.31   0 
   2   6   8   51.32    5.72   0 
   2   7  12  145.99    6.56   0 
   3   7  11   12.07    5.29   0 
   5  -7  -1   16.94    9.35   0 
   6   5   6   25.29    6.65   0 
   7   2   3   13.75    7.00   0 
   7   4   5    2.06    5.24   0 
   8   6  10  101.59    7.38   0 
   9   2   5   13.51    6.74   0 
   9   3   6    4.31    7.08   0 
   9   4   7   26.17    5.77   0 
 -10 -10   0    2.52    5.50   0 
 -10  -3   6   26.00   10.65   0 
  -9 -10  -1   96.11    5.87   0 
  -9  -6   1   53.14    6.04   0 
  -9  -3   4  161.76   10.85   0 
  -7  -6  -1  832.20   11.23   0 
  -6  -5  -1  392.45    8.34   0 
  -5 -12  -3   90.83    5.93   0 
  -5  -9  -3   37.01    5.44   0 
  -5  -4  -1  158.96    7.46   0 
  -3  -4  -2 1083.74   13.25   0 
  -3   2   4  147.36   10.18   0 
  -2   5  10   19.80    7.03   0 
  -1   3   4 3969.55   25.79   0 
   1  -9  -3   45.27    7.19   0 
   1  -6  -3   68.70    6.54   0 
   1   3   3 2155.53   18.35   0 
   2   5   6  811.15   10.09   0 
   3  -9  -2   66.90    7.72   0 
   3   4   4   14.32    5.58   0 
   3   6   8   26.26    5.58   0 
   3   7  12   44.55    5.53   0 
   4   4   4  874.81   10.93   0 
   4   7  11   -1.05    5.49   0 
   4   7  12    8.40    6.76   0 
   5   2   2  551.56   11.41   0 
   5   3   3   39.23    6.54   0 
   5   6   8  394.93    7.57   0 
   5   7  11    3.31    5.23   0 
   6   0   1  103.89   10.05   0 
   7   3   4    3.84    5.72   0 
   7   6   9  147.29    6.08   0 
   8  -2   2   12.03   10.41   0 
   8   2   4   78.49    7.15   0 
   8   3   5  182.94    8.12   0 
   8   4   6    5.05    5.56   0 
   8   5   8   90.47    6.87   0 
 -11  -8   2   21.07    5.88   0 
 -10  -9   0   88.78    7.35   0 
 -10  -6   2    0.92    6.37   0 
 -10  -5   3   11.63    7.48   0 
  -9  -9  -1  139.09    7.37   0 
  -8 -11  -2   24.15    5.59   0 
  -8 -10  -2  377.12    7.61   0 
  -7  -8  -2   60.45    5.67   0 
  -6 -12  -3    9.97    5.60   0 
  -5  -8  -3  214.11    6.90   0 
  -4  -7  -3   -0.59    5.38   0 
  -3  -6  -3  222.60    7.27   0 
  -3   3   6    4.97    6.52   0 
  -2   4   7  922.16   12.07   0 
  -1  -3  -2 3542.16   24.66   0 
   0  -5  -3  805.36   12.52   0 
   0   6  11  129.08    6.53   0 
   2   6   9   48.80    6.73   0 
   3   5   6  641.33    9.19   0 
   4  -6  -2  129.92    9.04   0 
   4   5   6   -0.04    6.78   0 
   4   6   8   70.24    5.76   0 
   5   5   6 1186.74   11.35   0 
   6   6   9   52.11    6.70   0 
   9   0   4   17.55    7.04   0 
   9   4   8   18.00    5.76   0 
 -10  -7   1   21.38    6.64   0 
  -8  -7  -1  444.49    8.62   0 
  -6   2   9   17.22    7.84   0 
  -5   3  10   -0.58    6.30   0 
  -3   4   9  114.70    7.68   0 
  -2   3   5  924.48   13.60   0 
  -2   5  11   63.51    6.57   0 
  -1  -5  -3  219.78    7.79   0 
  -1   5   9  280.35    7.52   0 
   0   6  12    5.35    5.36   0 
   1 -10  -3   -0.10    6.06   0 
   1  -5  -3 2221.82   18.72   0 
   1   5   7 1352.98   12.12   0 
   1   6  10  188.48    6.64   0 
   2  -8  -3  193.78    8.20   0 
   2  -7  -3  333.04    9.22   0 
   2   3   3    6.54    6.77   0 
   3   6   9  171.46    7.68   0 
   4  -7  -2    0.78    7.65   0 
   4  -5  -2  237.49   11.12   0 
   4   3   3 1388.02   14.10   0 
   5   6   9    6.38    6.43   0 
   6   4   5    4.86    5.22   0 
   7  -2   1  226.12   15.28   0 
   8  -3   2    4.17   12.22   0 
   8   5   9   11.83    6.65   0 
  -8  -9  -2   63.39    5.65   0 
  -7 -12  -3  210.63    6.81   0 
  -7 -11  -3  103.40    5.75   0 
  -7 -10  -3   41.15    6.35   0 
  -6  -6  -2  114.43    5.98   0 
  -5  -7  -3  515.16    8.43   0 
  -5  -5  -2 1546.45   14.27   0 
  -3 -11  -4   22.30    6.53   0 
  -3  -9  -4  457.77    8.90   0 
  -2 -10  -4  230.74    7.01   0 
  -2  -9  -4  157.33    6.28   0 
  -2   5  12   86.40    6.74   0 
   0   5   8   14.70    5.33   0 
   1   4   5   19.36    6.22   0 
   1   6  11   12.03    5.29   0 
   2  -9  -3  123.84    7.79   0 
   2  -6  -3   75.41    7.61   0 
   2   6  10   31.28    5.35   0 
   3   3   3   46.07    6.78   0 
   4   1   1    4.16    7.84   0 
   4   6   9  124.11    6.11   0 
   6   6  10    5.98    5.38   0 
   7   4   6   14.56    5.60   0 
   7   5   8    8.71    5.10   0 
   8   0   3    2.65    7.32   0 
   9  -1   4   24.98    8.38   0 
   9   1   5   62.38    7.33   0 
   9   2   6   54.53    7.41   0 
   9   3   7    1.06    5.61   0 
 -10 -10  -1    5.41    5.55   0 
 -10  -8   0   14.77    6.76   0 
 -10  -4   4  129.85    9.25   0 
  -9 -11  -2   31.15    5.82   0 
  -9  -8  -1  161.96    6.68   0 
  -7  -7  -2  222.49    6.71   0 
  -6  -8  -3  250.69    6.77   0 
  -5 -11  -4    8.28    6.55   0 
  -5   2   7    1.31    6.90   0 
  -4 -12  -4   74.99    5.89   0 
  -4  -9  -4  114.69    6.10   0 
  -4  -6  -3  179.35    6.91   0 
  -4   3   8  242.06    8.72   0 
  -3 -12  -4  128.30    7.60   0 
  -3  -8  -4  206.92    7.24   0 
  -2 -11  -4    1.52    5.54   0 
  -2  -8  -4  308.63    7.17   0 
  -1 -10  -4   11.13    5.15   0 
  -1  -9  -4    8.09    5.59   0 
  -1  -8  -4    4.98    5.09   0 
  -1   5  10  193.66    8.20   0 
   1  -1  -1  369.87   19.94   0 
   1   2   2    0.50    8.84   0 
   1   6  12  111.63    6.44   0 
   2   5   7    4.68    5.35   0 
   2   6  11  345.60    8.59   0 
   3   6  10  126.64    6.21   0 
   4  -8  -2   12.39    8.32   0 
   4   2   2    1.90    6.43   0 
   4   6  10  102.95    7.04   0 
   5  -1   0  291.40   17.05   0 
   5   4   5  148.65    6.45   0 
   5   6  10    5.91    5.40   0 
   6   1   2  943.16   14.83   0 
   6   3   4    8.98    5.32   0 
   6   6  11   61.44    5.68   0 
   7   0   2  144.02    9.23   0 
   8   3   6    1.43    6.68   0 
   8   5  10   -0.05    5.77   0 
 -11  -8   1    7.09    6.89   0 
 -11  -7   2   50.77    7.15   0 
 -11  -6   3    6.49    6.35   0 
  -8 -11  -3   37.24    5.54   0 
  -8  -8  -2   10.89    4.93   0 
  -8  -5   0 1023.25   13.09   0 
  -8  -4   1    2.26    6.72   0 
  -7  -4   0 1426.78   15.00   0 
  -7   1   9   77.56   10.27   0 
  -6   2  10  133.18    9.40   0 
  -4  -4  -2   25.10    6.36   0 
  -3  -5  -3 2280.10   16.13   0 
  -3   4  10   23.18    5.69   0 
  -2  -3  -2 3033.95   22.12   0 
  -2   4   8   72.86    7.18   0 
  -1  -7  -4   71.24    7.00   0 
   0  -9  -4    4.27    6.61   0 
   0  -8  -4  161.29    7.92   0 
   0   4   6  157.50    8.03   0 
   1   5   8   59.21    6.74   0 
   2   4   5  503.23    9.12   0 
   2   6  12    3.30    5.10   0 
   3   5   7 1598.08   12.76   0 
   4   4   5  981.82   10.97   0 
   4   5   7   44.78    5.87   0 
   4   6  11  123.20    7.22   0 
   5   6  11  116.61    5.78   0 
   5   6  12   57.01    7.62   0 
   6   2   3   11.60    7.05   0 
   6   5   8   18.27    5.25   0 
   7   3   5   54.25    6.12   0 
   7   5   9    2.29    5.18   0 
   8   1   4  210.59    9.39   0 
   8   2   5   47.67    6.92   0 
   8   4   8   19.23    5.39   0 
 -10  -9  -1  181.18    7.78   0 
  -9  -6   0  214.85    8.20   0 
  -9  -5   1  336.62    9.27   0 
  -8 -10  -3   18.95    5.06   0 
  -6 -12  -4    4.58    5.61   0 
  -6 -11  -4    0.29    5.25   0 
  -6 -10  -4   77.79    6.88   0 
  -6  -3   0 1019.87   14.08   0 
  -5  -9  -4  416.89    7.71   0 
  -3   4  11   21.72    7.36   0 
  -2  -7  -4  317.76    7.30   0 
  -2   1   2    6.15   10.82   0 
  -1   4   7   10.03    6.78   0 
  -1   5  11   17.52    5.51   0 
  -1   5  12   52.77    7.01   0 
   0 -10  -4    9.43    5.77   0 
   0  -7  -4  369.61    9.11   0 
   2   2   2 6173.18   33.14   0 
   3  -7  -3    4.21    7.32   0 
   3  -3  -2  280.09   12.82   0 
   3   2   2 6392.41   32.22   0 
   3   4   5  892.07   10.48   0 
   4   6  12   28.97    5.74   0 
   7   1   3    0.52    6.81   0 
   7   2   4    7.80    7.19   0 
   7   4   7  125.75    6.23   0 
   7   5  10    9.54    5.41   0 
   8   4   9    7.97    6.84   0 
   9   0   5   42.57    7.26   0 
   9   2   7    3.25    7.19   0 
 -11  -9   0    2.73    5.78   0 
 -11  -5   4   13.99    8.41   0 
  -9  -4   2  228.43    9.87   0 
  -8  -6  -1  533.83    9.16   0 
  -8  -3   2    4.58    7.28   0 
  -7 -12  -4   75.28    5.95   0 
  -7  -8  -3   53.08    5.57   0 
  -7   0   6    2.57   12.62   0 
  -6  -4  -1   32.31    5.73   0 
  -4   3   9   17.87    7.72   0 
  -3  -7  -4  185.97    6.57   0 
  -3   3   7  445.93   11.39   0 
  -3   4  12   -0.05    7.01   0 
   0  -4  -3  677.06   11.45   0 
   0   5  10  249.05    7.38   0 
   1  -9  -4   14.13    7.03   0 
   1  -8  -4  182.76    8.13   0 
   2   5   8  677.45    9.04   0 
   3  -8  -3    7.25    6.38   0 
   3  -6  -3   48.69    7.94   0 
   4  -4  -2  144.85   10.57   0 
   4   5   8    6.60    6.83   0 
   5   3   4 2305.31   16.43   0 
   5   5   8   16.50    5.32   0 
   6   5   9  323.53    7.39   0 
   9   1   6   20.07    7.20   0 
 -10  -7   0    1.77    6.81   0 
 -10  -6   1   37.63    6.73   0 
  -9 -11  -3    9.16    5.57   0 
  -9  -7  -1   16.24    5.52   0 
  -8  -9  -3   22.60    5.16   0 
  -6  -9  -4  832.67    9.47   0 
  -6  -2   1  559.48   13.61   0 
  -5  -8  -4  465.99    8.02   0 
  -4  -7  -4    5.30    5.36   0 
  -3  -2  -1 3444.34   26.06   0 
  -3  -1   0  152.61   11.04   0 
  -2   4   9   40.71    5.87   0 
  -1  -6  -4  644.24   10.41   0 
  -1   2   3   14.72    8.33   0 
   0   5  11    6.70    6.33   0 
   1 -10  -4   77.57    7.75   0 
   1  -7  -4   10.50    6.66   0 
   1  -4  -3   43.45    7.63   0 
   1   4   6   88.81    6.37   0 
   1   5   9   19.04    5.37   0 
   3   1   1   28.47    7.88   0 
   3   5   8  458.19    8.08   0 
   5   4   6  877.80   10.16   0 
   5   5   9  403.71    8.62   0 
   6   5  10    2.99    5.16   0 
   7   4   8   95.37    6.02   0 
   8  -1   3    3.90    7.83   0 
 -10 -10  -2    5.63    5.46   0 
 -10  -5   2   53.60    7.09   0 
  -8  -7  -2  325.73    7.56   0 
  -7 -10  -4  149.44    6.43   0 
  -7  -2   2   95.66    9.79   0 
  -6  -5  -2  437.02    8.53   0 
  -5   1   5  180.79   11.84   0 
  -4 -12  -5   60.15    7.41   0 
  -4 -11  -5   20.69    5.13   0 
  -4  -5  -3 1569.03   13.41   0 
  -4   2   6   45.17    8.17   0 
  -3 -11  -5    3.84    5.38   0 
  -2 -10  -5    2.10    6.00   0 
  -2  -6  -4  252.40    7.42   0 
  -2  -4  -3  557.70    9.92   0 
  -2   3   6  142.41    8.31   0 
  -1   3   5  209.66    7.84   0 
  -1   4   8  304.13    9.18   0 
   0  -6  -4  194.72    7.33   0 
   1   3   4  625.67   10.59   0 
   1   5  10   13.34    5.34   0 
   2   5   9   74.64    5.86   0 
   4   3   4  174.00    7.57   0 
   4   4   6   17.02    6.71   0 
   4   5   9  633.38    8.75   0 
   5   5  10  269.63    7.96   0 
   6   3   5   17.14    5.41   0 
   6   4   7  112.24    6.22   0 
   6   5  11   18.45    5.34   0 
   7   3   6  272.38    7.72   0 
   8   2   6    6.55    6.34   0 
   8   3   8    5.26    5.55   0 
 -11  -7   1   25.96    7.03   0 
 -10  -8  -1   11.42    5.51   0 
  -9 -10  -3   12.37    5.42   0 
  -9  -8  -2    6.12    5.38   0 
  -8 -11  -4   52.04    5.63   0 
  -6  -8  -4  136.52    6.22   0 
  -5 -11  -5    8.77    5.31   0 
  -5  -3  -1  535.14   10.53   0 
  -5   2   8    1.16    6.61   0 
  -4 -10  -5   56.02    5.67   0 
  -4   3  10   47.87    7.13   0 
  -3  -9  -5  195.95    7.06   0 
  -3  -6  -4   16.01    5.74   0 
  -2 -11  -5   17.37    5.77   0 
  -2   4  10  118.39    6.52   0 
  -1 -10  -5  116.83    7.37   0 
   0   4   7    3.77    5.31   0 
   1   5  11   10.56    4.96   0 
   1   5  12   13.35    6.80   0 
   2   1   1  269.77   13.63   0 
   2   4   6   17.73    5.97   0 
   3   3   4 6349.87   26.86   0 
   3   4   6 1108.78   11.26   0 
   4   5  10   96.53    5.95   0 
   5   5  11   12.93    5.52   0 
   5   5  12   32.03    5.78   0 
   7   4   9  325.30    7.49   0 
   7   4  10   22.59    6.54   0 
   8   0   4  139.99    8.21   0 
   8   1   5   52.83    6.97   0 
   8   3   9   -1.27    6.91   0 
 -11  -8   0   12.63    5.88   0 
 -11  -6   2   44.07    7.53   0 
 -10  -9  -2    6.19    6.56   0 
  -7  -9  -4   41.05    5.71   0 
  -7  -7  -3  293.39    7.27   0 
  -6 -12  -5    5.05    5.65   0 
  -6 -11  -5   -2.17    5.55   0 
  -6  -6  -3  216.25    6.65   0 
  -6   1   7  339.16   13.44   0 
  -5 -10  -5   58.90    5.77   0 
  -5  -7  -4  256.03    7.12   0 
  -5  -4  -2   19.56    6.12   0 
  -5  -2   0  203.18    9.19   0 
  -4   3  11   -0.93    7.13   0 
  -3   3   8  423.50    9.86   0 
  -2  -8  -5  163.21    7.36   0 
  -2   4  11   47.11    6.15   0 
  -2   4  12   10.08    5.78   0 
  -1 -11  -5   51.44    6.12   0 
  -1  -9  -5   92.20    6.38   0 
   1  -6  -4    7.98    5.88   0 
   2  -9  -4   57.40    7.86   0 
   2  -8  -4   24.86    6.95   0 
   2  -4  -3  227.52    9.43   0 
   2   3   4  882.30   11.53   0 
   2   5  11  104.96    5.86   0 
   2   5  12    8.07    5.32   0 
   3  -5  -3    4.33    6.84   0 
   3   5  10   45.29    5.47   0 
   3   5  12  110.55    7.23   0 
   4   5  11   23.58    5.46   0 
   4   5  12   78.98    5.99   0 
   5   0   1  104.81    9.85   0 
   5   4   7   14.35    5.26   0 
   6   2   4  280.34   10.06   0 
   6   4   8  401.63    7.86   0 
   7  -3   1   55.44   12.10   0 
   7  -1   2  708.15   15.23   0 
   7   2   5  417.12    8.78   0 
   7   3   7  394.87    9.15   0 
   8   2   7    8.70    6.58   0 
 -11  -9  -1   63.39    6.29   0 
 -10  -3   5  100.42   14.14   0 
  -9  -9  -3  126.17    5.94   0 
  -9  -3   3  150.80   11.14   0 
  -8 -10  -4  131.27    5.97   0 
  -6 -10  -5    3.53    5.41   0 
  -5  -9  -5  206.06    6.41   0 
  -4  -6  -4 1526.20   12.59   0 
  -3  -8  -5   44.92    5.50   0 
  -3  -4  -3   19.37    5.87   0 
  -3   2   5    1.07    7.85   0 
  -2   2   4  737.30   13.46   0 
  -1  -8  -5  777.09   10.27   0 
  -1   4   9   27.95    5.27   0 
   0 -10  -5  102.06    7.51   0 
   0  -9  -5   24.47    6.83   0 
   0   4   8  313.49    8.21   0 
   1   4   7   18.88    5.36   0 
   2  -7  -4    2.09    6.36   0 
   4   4   7    8.88    6.83   0 
   5  -7  -2   27.92   10.75   0 
   6  -1   1  223.43   11.38   0 
   6   3   6  854.78   10.82   0 
   6   4   9    7.51    5.21   0 
   8  -2   3   22.51    8.94   0 
  -9 -11  -4   -0.01    5.20   0 
  -9  -6  -1   -0.07    6.20   0 
  -8  -5  -1  162.36    8.07   0 
  -7 -11  -5   66.99    5.49   0 
  -7  -8  -4  271.21    7.97   0 
  -5   2   9   29.28    6.75   0 
  -4  -8  -5  448.97    7.69   0 
  -2  -5  -4 1344.59   13.49   0 
  -1  -5  -4  381.49    8.71   0 
  -1   4  10   -0.12    5.22   0 
   0  -5  -4  798.03   11.85   0 
   0  -2  -2 1833.50   21.41   0 
   0   3   5 1879.70   16.11   0 
   1  -2  -2    9.23    9.06   0 
   4   2   3 2755.00   20.36   0 
   5  -6  -2    2.79    9.08   0 
   5   4   8   45.31    5.52   0 
   6  -6  -1   26.34   16.25   0 
   6   1   3   30.77    7.06   0 
   6   4  10   44.45    5.25   0 
   6   4  11   17.42    5.63   0 
   7   0   3   14.40    6.47   0 
   7   1   4  284.96    8.08   0 
   7   3   8   95.90    6.00   0 
   8   1   6  455.40   10.43   0 
   8   2   8   34.66    5.42   0 
 -11  -5   3   20.01    8.38   0 
 -10  -7  -1    7.75    6.40   0 
 -10  -6   0    4.33    6.27   0 
  -9  -7  -2   29.70    5.56   0 
  -9  -5   0   -2.04    6.11   0 
  -8  -4   0  108.68    7.70   0 
  -7 -10  -5  109.46    6.12   0 
  -7  -5  -2  162.53    7.76   0 
  -6  -9  -5    8.17    5.15   0 
  -6  -7  -4  574.12    8.48   0 
  -5  -8  -5   31.12    6.63   0 
  -5   2  10   25.69    7.63   0 
  -3  -7  -5   -1.49    6.46   0 
  -3   3   9   30.06    5.52   0 
  -1   3   6  183.18    8.07   0 
  -1   4  11   16.22    5.25   0 
  -1   4  12   48.92    5.80   0 
   0   2   3 1423.82   17.31   0 
   1   4   8  596.51    8.86   0 
   2  -6  -4   39.65    6.99   0 
   4  -8  -3    7.33    8.31   0 
   4  -7  -3   64.44    8.54   0 
   4   3   5 1035.26   11.43   0 
   4   4   8   15.40    5.46   0 
   5   4   9   41.59    5.37   0 
   6   0   2  144.38    9.18   0 
   7   2   6  515.24    9.91   0 
   7   3   9   20.67    5.36   0 
   7   3  10   20.39    6.79   0 
   8  -1   4   69.39    8.02   0 
   8   0   5  103.31    7.39   0 
   8   2   9   11.85    5.52   0 
 -10  -8  -2   28.16    5.45   0 
  -9 -10  -4   12.49    5.67   0 
  -8 -11  -5   57.48    5.39   0 
  -8  -7  -3    0.79    4.85   0 
  -8  -2   3  197.84   13.43   0 
  -7  -6  -3    8.54    6.39   0 
  -5 -11  -6    9.95    5.43   0 
  -5  -6  -4   -1.09    5.36   0 
  -5   2  11  149.13    7.82   0 
  -4 -10  -6   82.70    6.69   0 
  -4  -3  -2    7.25    6.23   0 
  -4   1   4  540.39   15.83   0 
  -4   2   7    3.70    7.41   0 
  -3 -11  -6   17.14    5.64   0 
  -3  -5  -4 1622.85   13.39   0 
  -3   1   3  125.13   11.26   0 
  -3   3  10   15.82    7.12   0 
  -3   3  11   46.63    7.49   0 
  -3   3  12    3.27    6.36   0 
  -1  -2  -2    2.22    8.88   0 
   0  -7  -5   20.79    6.78   0 
   0   4  10   27.31    5.04   0 
   0   4  12    7.32    6.44   0 
   0   4  13  185.78    7.04   0 
   1 -10  -5   12.04    6.93   0 
   1  -9  -5   -0.78    6.63   0 
   1  -5  -4  536.58   10.89   0 
   1   3   5  587.22   10.01   0 
   2   4   8   26.85    5.67   0 
   3   4   8    5.20    5.44   0 
   4   4   9    2.65    6.23   0 
   5   3   6  192.42    6.37   0 
   5   4  10    8.18    5.25   0 
   5   4  11    5.59    5.61   0 
   5   4  12   89.58    6.22   0 
   6   3   7    6.64    5.45   0 
   8  -3   3    8.62    9.57   0 
   8   1   7   38.19    7.16   0 
 -11  -8  -1   33.14    6.13   0 
 -11  -7   0   10.18    7.36   0 
 -10  -5   1   16.97    6.59   0 
  -9  -4   1  116.06    8.21   0 
  -7  -9  -5  411.92    7.62   0 
  -6 -11  -6    8.16    5.12   0 
  -6   1   8    4.54    7.75   0 
  -4  -7  -5  153.42    6.29   0 
  -4  -4  -3    8.33    5.91   0 
  -4  -2  -1  155.80    9.26   0 
  -2 -10  -6  665.96    9.33   0 
   0  -3  -3 1236.58   15.79   0 
   1  -8  -5   67.80    6.19   0 
   1   4   9  156.72    6.36   0 
   1   4  13   12.59    5.50   0 
   2   3   5   53.83    6.04   0 
   2   4   9    7.23    6.19   0 
   2   4  13   39.39    6.67   0 
   3  -8  -4    0.13    7.39   0 
   3   2   3  504.95   10.31   0 
   3   4   9   58.40    5.42   0 
   4  -6  -3   62.73    8.91   0 
   4   4  10    2.22    4.97   0 
   4   4  12    1.79    4.98   0 
   5  -5  -2   17.31   10.74   0 
   5   2   4    1.65    5.48   0 
   6   2   5  164.77    7.03   0 
   7   2   7   25.70    7.25   0 
   8   1   8   25.64    7.13   0 
 -11  -9  -2    2.43    5.45   0 
 -11  -6   1    1.17    6.70   0 
  -8 -10  -5  204.03    6.67   0 
  -8  -8  -4   21.92    5.01   0 
  -7  -7  -4  120.91    6.25   0 
  -7  -3   0   91.66    7.68   0 
  -6  -8  -5  161.76    6.25   0 
  -6  -5  -3  547.16    8.79   0 
  -6  -4  -2 2333.19   16.78   0 
  -4  -9  -6    2.50    5.09   0 
  -3  -9  -6    5.02    5.06   0 
  -2  -9  -6   39.38    5.34   0 
  -2   3   8    7.52    5.80   0 
  -1 -11  -6   19.66    5.88   0 
  -1 -10  -6   34.96    5.67   0 
  -1  -6  -5  115.45    7.37   0 
  -1  -3  -3 2170.21   18.41   0 
   1  -3  -3  253.90   10.05   0 
   1   2   3 3028.89   22.81   0 
   1   4  10   25.85    5.03   0 
   1   4  12   29.75    5.77   0 
   2  -2  -2 1708.13   25.30   0 
   2   2   3  170.95    8.78   0 
   2   4  10  132.95    6.19   0 
   2   4  11   32.62    5.51   0 
   2   4  12   12.08    5.31   0 
   3  -9  -4    8.77    6.83   0 
   3  -7  -4   49.65    7.71   0 
   3  -4  -3  309.72   11.32   0 
   3   4  10  205.86    6.53   0 
   3   4  11   25.92    5.41   0 
   3   4  12   34.10    5.33   0 
   4   1   2  223.81    9.63   0 
   5   3   7   58.68    6.60   0 
   6   3   9  220.70    6.81   0 
   6   3  10   -7.82    5.49   0 
   6   3  11   13.42    5.42   0 
   7   1   5  158.12    6.78   0 
   7   2   8  119.24    7.40   0 
   8   0   6   25.94    7.42   0 
  -9 -11  -5    3.09    5.61   0 
  -8  -3   1   41.98    7.83   0 
  -7 -11  -6    4.12    5.30   0 
  -6 -10  -6   21.60    5.57   0 
  -6  -6  -4  522.41    9.10   0 
  -6  -3  -1 1070.50   14.06   0 
  -6   1   9  101.54    8.77   0 
  -5  -9  -6   23.41    5.04   0 
  -5  -7  -5   67.39    5.95   0 
  -5  -1   1 1375.36   24.60   0 
  -4  -5  -4 1201.79   11.89   0 
  -4   2   8   45.21    6.77   0 
  -3  -6  -5  383.15    8.62   0 
  -2   3   9  129.72    7.91   0 
  -1   3   7  755.98   10.29   0 
   0  -6  -5    5.14    6.40   0 
   0   3   6   30.03    5.93   0 
   1  -7  -5   86.25    6.26   0 
   4   3   6   25.31    5.51   0 
   6  -3   0    4.25   12.61   0 
   7  -4   1   22.72   12.94   0 
   7   2   9    9.58    5.52   0 
   7   2  10    8.42    5.60   0 
   8  -2   4    0.55    7.87   0 
   8  -1   5   22.01    7.09   0 
  -8  -9  -5   14.29    5.04   0 
  -7  -8  -5  308.25    8.10   0 
  -7   0   7   36.10    9.40   0 
  -6  -1   2   79.24   13.29   0 
  -6   1  10   39.57    7.12   0 
  -5   1   6    3.91    8.22   0 
  -4  -8  -6   55.40    6.59   0 
  -3  -8  -6  207.87    6.64   0 
  -2  -8  -6  377.23    7.70   0 
  -2  -3  -3   13.19    6.60   0 
  -2   3  10   13.08    5.65   0 
  -2   3  11   54.98    5.67   0 
  -2   3  12   16.59    5.55   0 
  -1  -8  -6    2.93    6.29   0 
  -1  -4  -4    2.95    7.77   0 
  -1   2   4   86.18    7.11   0 
   0 -10  -6    8.16    5.84   0 
   0  -9  -6    1.41    6.44   0 
   1   3   6  737.96   10.33   0 
   2  -9  -5    6.34    6.75   0 
   3   3   6    8.71    5.56   0 
   4   2   4  122.50    8.25   0 
   5   3   8   10.74    5.25   0 
   5   3   9   38.08    6.65   0 
   5   3  11   97.01    7.01   0 
   5   3  12    4.88    5.66   0 
   6   1   4  128.08    8.20   0 
   7  -2   2   25.00    8.27   0 
   7   0   4   20.64    6.57   0 
   7   1   6   39.54    7.00   0 
   8   0   7    8.17    6.06   0 
 -10  -8  -3   35.16    6.71   0 
 -10  -7  -2   13.58    6.26   0 
  -9  -7  -3   58.99    6.02   0 
  -9  -6  -2  293.40    7.95   0 
  -8  -1   6   16.16   12.45   0 
  -7 -10  -6  177.81    6.38   0 
  -6  -7  -5  646.30    9.48   0 
  -4 -11  -7   16.30    6.02   0 
  -4   2  10  356.79    9.41   0 
  -4   2  11   49.40    7.75   0 
  -4   2  12    2.53    5.78   0 
  -3 -11  -7   61.80    7.07   0 
  -2  -4  -4   73.47    7.33   0 
  -1   3   8  159.01    6.62   0 
  -1   3  13   30.99    5.84   0 
   0  -4  -4  622.08   10.70   0 
   0   3   7    6.17    6.45   0 
   2  -8  -5    5.71    6.38   0 
   3  -6  -4  117.97    7.48   0 
   4  -5  -3  150.70   10.71   0 
   4  -3  -2  815.22   24.05   0 
   4   3   7   10.72    5.34   0 
   5   1   3  146.08    7.09   0 
   5   2   5    1.47    5.32   0 
   5   3  10    2.25    5.13   0 
   6   2   7  311.51    8.52   0 
   7  -1   3  237.77    9.17   0 
   8  -1   6    2.21    6.47   0 
 -11  -9  -3  184.06    7.96   0 
 -11  -8  -2   89.04    6.38   0 
 -11  -7  -1   46.09    7.24   0 
 -11  -5   2   39.97    8.47   0 
 -10  -6  -1   43.01    5.58   0 
 -10  -4   2   78.24   10.11   0 
  -9  -8  -4   14.69    4.99   0 
  -9  -5  -1    4.55    6.09   0 
  -8  -7  -4   12.91    5.88   0 
  -8  -6  -3    2.76    4.90   0 
  -8  -5  -2    2.88    5.26   0 
  -6 -11  -7    3.49    6.52   0 
  -5 -11  -7    3.46    5.15   0 
  -5  -8  -6  206.97    6.30   0 
  -5  -5  -4 1322.07   12.13   0 
  -5  -3  -2   48.25    7.58   0 
  -4 -10  -7  315.71    7.37   0 
  -3 -10  -7  364.21    7.58   0 
  -2 -11  -7    5.40    6.50   0 
  -2  -7  -6  122.30    7.03   0 
  -1   3   9  169.12    6.55   0 
  -1   3  10   10.07    6.00   0 
  -1   3  11   24.95    6.58   0 
  -1   3  12   37.09    5.63   0 
   0  -8  -6    3.87    5.35   0 
   0   3  13   -4.91    5.47   0 
   1  -6  -5   30.07    5.76   0 
   1   3  13   -1.99    6.32   0 
   2  -7  -5   21.48    6.61   0 
   3   3   7  100.24    6.15   0 
   4   3   8   29.32    5.47   0 
   4   3   9   86.26    6.70   0 
   4   3  11   88.62    5.93   0 
   6   2   8   55.80    5.59   0 
   7   1   7   38.31    5.61   0 
   7   1   8    5.65    6.55   0 
   8  -2   5   47.61    7.24   0 
 -10  -9  -4    4.90    5.56   0 
  -8 -10  -6   93.41    6.53   0 
  -7  -9  -6   29.98    5.20   0 
  -7  -6  -4   14.18    6.03   0 
  -5 -10  -7    8.86    5.55   0 
  -5  -6  -5  253.52    7.88   0 
  -3  -7  -6  324.16    7.19   0 
  -3  -4  -4    7.40    6.67   0 
  -3  -3  -3   47.53    6.49   0 
  -3   2   7   40.17    6.87   0 
  -2 -10  -7   14.41    5.29   0 
  -1   1   2 2920.62   33.04   0 
   0   3   8    4.08    4.86   0 
   0   3  12  127.97    6.08   0 
   1 -10  -6    8.80    6.89   0 
   1  -9  -6   77.56    7.32   0 
   1   3   7 2172.37   14.80   0 
   2   3   7  443.21    8.12   0 
   3   2   4 1952.97   15.74   0 
   3   3  11   23.68    6.79   0 
   3   3  12   70.27    5.47   0 
   4   0   1  709.50   15.30   0 
   4   3  10  119.21    5.70   0 
   5   2   6   70.54    6.50   0 
   6   0   3    1.86    6.56   0 
   6   1   5   11.66    6.77   0 
   6   2   9    6.00    4.98   0 
   7   0   5   88.84    7.22   0 
   7   1   9   22.17    5.36   0 
 -11  -6   0   18.61    6.36   0 
 -11  -4   4   31.33   11.93   0 
 -10 -10  -5    0.01    5.40   0 
 -10  -5   0    6.70    6.52   0 
  -9  -9  -5   18.62    5.22   0 
  -9  -3   2  170.52   11.82   0 
  -8  -8  -5    8.20    4.71   0 
  -8  -4  -1   83.69    7.43   0 
  -7 -11  -7  124.35    6.19   0 
  -7  -4  -2    5.97    6.57   0 
  -6  -2   0  167.36    9.78   0 
  -4  -7  -6    7.88    5.49   0 
  -4  -1   0  280.15   12.38   0 
  -3  -9  -7    0.42    5.03   0 
  -2  -9  -7  119.10    6.45   0 
  -2  -5  -5  775.32   10.12   0 
  -2  -1  -1  263.50   13.46   0 
  -1 -10  -7    2.63    6.53   0 
  -1  -5  -5  148.09    6.81   0 
   0  -7  -6    1.61    6.30   0 
   0   2   4  103.35    7.51   0 
   0   3  10   18.89    4.79   0 
   0   3  11  165.27    6.38   0 
   1   3   8  105.32    6.04   0 
   1   3  11   69.93    5.69   0 
   2   3   8  617.81    8.89   0 
   2   3  11   37.34    5.45   0 
   3   3  10    3.59    5.22   0 
   4   2   5  727.43   10.15   0 
   7  -5   1    0.84   11.27   0 
  -7  -7  -5    8.74    5.22   0 
  -7  -2   1  460.41   13.53   0 
  -7   0   9   32.56    7.92   0 
  -7   0  10   16.92    7.14   0 
  -5  -7  -6   11.03    6.43   0 
  -5   1   7  104.90    7.53   0 
  -3  -5  -5  224.40    6.93   0 
  -3  -2  -2 6692.13   32.76   0 
  -3   2   8   29.08    6.90   0 
  -1  -9  -7   44.05    6.86   0 
   1  -8  -6   62.26    5.75   0 
   1   2   4 1289.32   14.16   0 
   1   3   9   44.01    5.39   0 
   1   3  10   93.59    6.15   0 
   2   3   9    8.84    5.02   0 
   2   3  10   18.99    5.53   0 
   4  -8  -4   21.42    9.60   0 
   5   0   2  165.13    8.70   0 
   5   1   4  902.03   12.19   0 
   5   2   7   22.40    5.24   0 
   5   2   8    5.68    6.42   0 
   5   2  10  132.06    6.64   0 
   6  -2   1    6.39    8.94   0 
   6  -1   2  792.05   14.61   0 
   6   1   6  139.08    7.66   0 
   7  -3   2   67.68    9.84   0 
   7  -1   4   -0.16    6.28   0 
   7   0   6   -0.39    5.35   0 
  -9 -10  -6    5.37    5.24   0 
  -9  -4   0  160.54    7.92   0 
  -8  -9  -6    6.99    5.49   0 
  -7 -10  -7    7.74    5.39   0 
  -7  -8  -6    4.46    5.04   0 
  -6  -9  -7   25.99    6.53   0 
  -6  -6  -5   27.23    6.45   0 
  -6  -5  -4  193.20    6.31   0 
  -6  -4  -3  779.91   11.05   0 
  -6   0   5    8.35    9.54   0 
  -5  -2  -1  238.75    8.94   0 
  -5   1  11   -1.21    6.91   0 
  -4 -11  -8    4.77    6.53   0 
  -4  -4  -4  810.66   10.67   0 
  -4   1   5  112.07    9.16   0 
  -3  -8  -7   28.59    5.02   0 
  -3   2   9   26.17    5.59   0 
  -2  -8  -7   15.41    6.08   0 
  -2  -6  -6   71.91    6.58   0 
  -2   2   6   12.01    5.70   0 
  -1   2   5 1610.42   15.96   0 
   0 -10  -7    5.29    6.65   0 
   2  -6  -5   16.13    6.73   0 
   3  -8  -5    2.21    7.44   0 
   3  -5  -4  107.37    8.04   0 
   4   1   3   61.42    8.05   0 
   4   2   6   -4.12    6.37   0 
   4   2  12   13.37    5.57   0 
   5   2   9  128.05    5.99   0 
   6   1   7   23.94    6.43   0 
   7  -2   3  611.93   13.38   0 
   7   0   7   -0.71    5.24   0 
   7   0   8   48.81    5.54   0 
 -10  -8  -4    3.20    5.29   0 
 -10  -7  -3    2.86    5.20   0 
  -9  -8  -5  108.09    7.20   0 
  -9  -6  -3   65.00    6.92   0 
  -6 -11  -8   41.11    6.95   0 
  -5 -11  -8   15.48    5.08   0 
  -5   1   8    4.87    6.20   0 
  -5   1   9  279.61    9.24   0 
  -5   1  10   80.78    7.36   0 
  -4  -8  -7  294.80    7.14   0 
  -3 -11  -8   18.05    5.45   0 
  -3  -6  -6   45.84    5.56   0 
  -2   2  12   49.44    5.80   0 
  -1  -8  -7  239.00    7.76   0 
  -1   2  13  154.72    6.76   0 
   0   2  13   -2.90    6.36   0 
   1  -7  -6   48.90    6.67   0 
   1  -5  -5   99.07    6.51   0 
   2  -4  -4   46.31    7.59   0 
   2   1   2   59.70   10.20   0 
   2   2  13   24.53    5.69   0 
   3   2  12   -2.27    4.94   0 
   4  -7  -4  249.34   10.75   0 
   4   2  11    7.96    5.21   0 
   6   0   4   32.01    7.12   0 
   6   1   8  263.52    7.67   0 
   6   1   9   80.35    5.86   0 
   7  -1   5  169.87    7.84   0 
 -11  -7  -2   71.03    6.36   0 
 -10  -9  -5   15.05    5.46   0 
  -8 -10  -7   24.03    5.19   0 
  -8  -7  -5   23.30    4.97   0 
  -8  -6  -4    7.87    5.46   0 
  -8  -1   7  338.54   14.19   0 
  -7  -3  -1  348.48    9.57   0 
  -6  -7  -6   39.22    5.37   0 
  -5 -10  -8  500.90    9.53   0 
  -5  -8  -7   26.66    5.15   0 
  -4 -10  -8    7.36    5.22   0 
  -4  -6  -6   20.71    5.55   0 
  -3 -10  -8    6.38    5.25   0 
  -2   2  11  306.69    7.57   0 
  -1   2  12   95.05    5.99   0 
   0  -6  -6   10.06    6.74   0 
   0   2   5  264.41    9.37   0 
   2  -9  -6  181.89    8.58   0 
   2   2   5 1122.67   12.57   0 
   2   2  12    6.54    6.55   0 
   3  -7  -5   83.10    8.52   0 
   3   2  11  253.42    7.97   0 
   4  -1   0  689.10   19.82   0 
   4   2   7  102.15    5.90   0 
   4   2   8  327.10    7.32   0 
   4   2   9  414.92    7.54   0 
   4   2  10   38.09    5.40   0 
   5  -7  -3   26.36   11.29   0 
   5  -1   1   70.01    9.65   0 
   5   1   5  158.41    7.25   0 
   7  -1   6   12.99    6.75   0 
 -11  -5   1  200.36   10.34   0 
  -9  -9  -6  309.27    7.41   0 
  -9  -5  -2   92.71    6.94   0 
  -8  -8  -6  128.65    5.64   0 
  -8  -5  -3  190.10    6.69   0 
  -8  -3   0   12.14    7.44   0 
  -6 -10  -8   28.67    6.66   0 
  -6  -3  -2   43.24    7.12   0 
  -5  -5  -5   15.65    6.20   0 
  -4   1  12   37.68    6.05   0 
  -2 -10  -8   -0.94    5.43   0 
  -2   2   9   40.74    5.74   0 
  -2   2  10   23.49    5.23   0 
  -1   2   6  348.77    8.47   0 
  -1   2  11    7.04    6.33   0 
   0  -8  -7   -3.73    6.71   0 
   0   2  12   86.88    5.93   0 
   1   2   5 1496.22   13.81   0 
   1   2  12   76.95    5.82   0 
   2  -8  -6   -3.18    5.82   0 
   3   2  10  503.71    9.05   0 
   5   1  10  178.65    7.72   0 
   6   0   5   19.11    6.41   0 
   7  -2   4   77.77    8.32   0 
   7  -1   7   91.78    6.82   0 
   7  -1   8   65.36    6.15   0 
 -11  -6  -1    3.48    6.39   0 
 -10  -4   1  148.45    9.88   0 
  -9 -10  -7   -1.65    6.54   0 
  -8  -1   8   73.55    9.01   0 
  -8  -1   9    5.93    8.03   0 
  -7  -6  -5   58.44    5.63   0 
  -7  -5  -4   15.60    6.05   0 
  -6  -8  -7  159.89    6.23   0 
  -6   0  11   23.46    7.20   0 
  -5  -6  -6  222.25    6.92   0 
  -4  -9  -8    1.44    5.04   0 
  -4  -7  -7   60.32    5.65   0 
  -4  -2  -2   -1.46    7.34   0 
  -4   1  11   84.97    7.55   0 
  -3  -9  -8   83.98    5.57   0 
  -3  -7  -7   72.94    5.56   0 
  -3   1   4 1163.51   17.25   0 
  -2  -9  -8    6.24    6.05   0 
  -2  -7  -7   63.74    5.68   0 
  -2   1   3 2490.36   26.66   0 
  -1 -10  -8   17.44    6.85   0 
  -1  -7  -7   11.80    6.55   0 
  -1   2  10   -6.10    6.02   0 
   0   2  11   28.97    5.35   0 
   1   2  11   86.69    5.82   0 
   3  -2  -2 1182.41   28.03   0 
   3   2   8   27.22    5.49   0 
   4  -6  -4  552.04   14.65   0 
   4  -4  -3   12.97    9.99   0 
   5  -3  -1    5.69   14.96   0 
   5   1   7  506.58    8.98   0 
   5   1   8   89.50    6.79   0 
   5   1   9  564.35    8.57   0 
   6  -1   3   41.82    8.09   0 
   6   0   6   32.18    6.86   0 
   6   0   9   27.46    5.89   0 
   7  -4   2    0.39    8.18   0 
   7  -3   3   86.04    8.64   0 
 -10  -5  -1   71.94    7.03   0 
  -8  -9  -7  150.35    6.21   0 
  -8  -4  -2   37.47    6.80   0 
  -7 -10  -8   12.58    5.63   0 
  -2  -4  -5  506.82    9.13   0 
  -1  -4  -5   20.36    5.85   0 
  -1   2   7   18.84    5.49   0 
  -1   2   8 1021.87   10.98   0 
  -1   2   9   50.46    5.55   0 
   0  -4  -5 2151.28   17.29   0 
   0   2   6  838.81   10.99   0 
   0   2  10  156.12    6.40   0 
   1  -9  -7   -0.85    5.88   0 
   1   2  10  114.92    6.14   0 
   2  -7  -6  176.38    7.88   0 
   2  -5  -5    8.53    6.46   0 
   2   2   9  194.91    6.84   0 
   3  -3  -3  254.61   12.43   0 
   3   1  12   80.55    5.96   0 
   4   1  11   43.08    5.83   0 
   5  -6  -3  108.04   13.36   0 
   5   0   3 1332.70   14.56   0 
   6   0   7  210.77    7.25   0 
   6   0   8   -0.37    5.45   0 
   7  -2   5  181.85    8.65   0 
   7  -2   7   15.23    7.08   0 
 -11  -8  -4  107.62    6.68   0 
 -10  -9  -6    2.38    6.45   0 
 -10  -7  -4  180.38    6.79   0 
  -9  -7  -5   44.59    6.64   0 
  -8  -2   2    8.71   10.56   0 
  -7  -8  -7   18.84    5.26   0 
  -7  -4  -3  702.89   10.36   0 
  -6  -9  -8   70.16    5.87   0 
  -6   0   6   40.92    7.74   0 
  -6   0  10   -0.11    6.52   0 
  -5  -7  -7   82.70    5.61   0 
  -5  -3  -3   39.36    6.13   0 
  -4   1   7   36.98    7.05   0 
  -4   1   9  239.85    8.58   0 
  -3  -8  -8    8.34    6.23   0 
  -3  -1  -1   32.25    9.08   0 
  -1  -9  -8  151.04    6.35   0 
  -1  -5  -6  106.83    6.15   0 
  -1   1  13   30.21    5.54   0 
   0  -7  -7  174.43    7.60   0 
   0   1  13   47.55    5.75   0 
   0   2   7  380.37    8.01   0 
   0   2   8  299.24    7.10   0 
   1  -8  -7    5.72    6.56   0 
   1   2   7  441.20    8.20   0 
   1   2   8  700.67    9.37   0 
   1   2   9  774.57    9.36   0 
   3  -6  -5   49.81    7.08   0 
   5  -2   0    7.85    9.13   0 
   7  -2   6   61.06    6.39   0 
 -11  -7  -3   12.11    5.65   0 
 -11  -4   3  297.47   17.16   0 
  -9  -8  -6  131.33    6.06   0 
  -9  -6  -4  236.17    7.39   0 
  -9  -4  -1   25.98    6.30   0 
  -8 -10  -8  117.68    6.19   0 
  -6  -6  -6    8.15    5.00   0 
  -6  -5  -5  164.51    6.28   0 
  -6   0   7   59.28    7.93   0 
  -6   0   9    1.61    6.32   0 
  -4 -10  -9  137.11    7.52   0 
  -4  -8  -8   36.88    5.34   0 
  -3  -5  -6  668.92    9.24   0 
  -3   1  11   27.69    5.48   0 
  -2  -8  -8   29.80    5.18   0 
  -2  -2  -3  170.85   10.07   0 
  -2   1  12  130.58    6.45   0 
   0  -5  -6 1737.06   14.71   0 
   2   1  12   21.26    5.35   0 
   3   0   1  758.70   16.11   0 
   3   1  11   77.01    5.80   0 
   4   0   2 2372.93   21.13   0 
   4   1   5  162.46    6.66   0 
   4   1   9  560.30    8.55   0 
   5   0  10   34.75    5.60   0 
   6  -1   4   40.54    6.79   0 
   6  -1   9    7.14    5.23   0 
   7  -4   3   35.50    8.54   0 
   7  -3   4   62.83    7.41   0 
  -9  -9  -7   29.16    5.63   0 
  -9  -3   1    2.74    8.48   0 
  -9  -2   6   12.15   10.85   0 
  -8  -7  -6    0.95    5.05   0 
  -7  -9  -8   10.57    5.01   0 
  -6 -10  -9  156.41    7.63   0 
  -6  -7  -7  223.30    6.42   0 
  -6  -4  -4    4.85    5.44   0 
  -5 -10  -9   13.51    5.29   0 
  -5  -8  -8    2.65    5.05   0 
  -4  -5  -6    4.87    5.18   0 
  -4  -4  -5  972.22   10.78   0 
  -3 -10  -9    6.16    5.59   0 
  -2  -6  -7   79.56    5.53   0 
  -1  -6  -7   33.35    6.24   0 
   0  -9  -8   12.02    7.39   0 
   0   1  12   48.37    5.51   0 
   1  -4  -5   36.71    7.09   0 
   1  -2  -3   12.90    8.08   0 
   1   1  12  212.43    6.80   0 
   2   1   3   22.67    8.67   0 
   2   1  11   90.69    7.24   0 
   3  -4  -4   52.18    8.16   0 
   3   1  10    7.26    5.21   0 
   4   0  11   65.51    5.61   0 
   4   1   6   46.25    5.38   0 
   5   0   4    4.58    5.51   0 
   5   0   9  102.14    5.92   0 
   6  -1   5   11.31    6.48   0 
   6  -1   8   10.03    5.32   0 
   7  -3   5   19.88    7.03   0 
 -11  -6  -2   84.47    7.74   0 
 -11  -5   0   74.30    7.50   0 
  -9  -5  -3    6.22    6.43   0 
  -9  -2   7    3.54    9.76   0 
  -9  -2   8   85.59   10.47   0 
  -8  -8  -7   26.41    5.39   0 
  -8  -5  -4   74.95    7.02   0 
  -6  -8  -8   58.09    5.67   0 
  -6  -2  -1   96.37    8.55   0 
  -4  -6  -7   63.12    5.76   0 
  -3   1   5  115.13    7.68   0 
  -2 -10  -9   -2.20    5.48   0 
  -2   1  11   28.94    5.61   0 
   1  -7  -7   89.08    7.36   0 
   2  -9  -7   45.99    7.27   0 
   3  -8  -6   42.09    7.91   0 
   3   0  12    6.13    5.49   0 
   3   1   4  600.24   10.34   0 
   3   1   9  208.42    7.58   0 
   5   0   5  178.55    7.92   0 
   5   0   8  826.81   10.11   0 
   6  -4   0  118.35   12.68   0 
   6  -3   1   55.04    9.79   0 
   6  -1   6    8.82    5.59   0 
   6  -1   7    6.47    5.27   0 
  -8  -9  -8    8.12    5.02   0 
  -7 -10  -9   38.76    5.86   0 
  -7  -7  -7   66.82    5.26   0 
  -7  -6  -6  172.35    6.19   0 
  -7  -1  10   -1.70    6.57   0 
  -5  -9  -9    0.06    5.16   0 
  -5  -6  -7  450.52    8.83   0 
  -5  -5  -6 1183.33   11.19   0 
  -4  -9  -9   22.17    5.17   0 
  -4  -7  -8  172.18    7.20   0 
  -4   0  12  100.77    6.08   0 
  -3  -9  -9   39.67    5.49   0 
  -3  -2  -3  531.95   11.18   0 
  -2  -9  -9    3.48    6.22   0 
  -2  -7  -8  185.34    6.32   0 
  -2   1  10  347.29    8.41   0 
  -1   1  11    2.44    4.98   0 
   0  -8  -8   29.02    6.81   0 
   0  -6  -7   94.89    7.00   0 
   0   1  11   48.81    5.56   0 
   1  -5  -6 1028.07   13.08   0 
   2   1  10    7.03    4.98   0 
   3   1   5   27.39    7.15   0 
   3   1   8   43.88    6.47   0 
   4  -8  -5   73.18    9.31   0 
   4   0  10   -0.81    5.14   0 
   5  -1   2   66.15    7.19   0 
   5  -1  10    2.91    5.43   0 
   5   0   6  292.50    7.41   0 
 -10  -8  -6  155.76    6.77   0 
 -10  -7  -5   23.62    6.43   0 
 -10  -5  -2   15.60    6.22   0 
 -10  -4   0  175.89    9.54   0 
  -8  -3  -1    3.59    7.03   0 
  -7  -8  -8   39.90    5.27   0 
  -7  -2   0  476.34   12.68   0 
  -6  -3  -3   17.43    6.25   0 
  -5  -4  -5  132.46    6.08   0 
  -5  -2  -2  557.10   10.90   0 
  -5   0  10   51.76    6.00   0 
  -3   0  12   30.57    6.79   0 
  -3   1   6  229.05    7.71   0 
  -3   1   7   94.75    7.27   0 
  -3   1   8   16.96    5.61   0 
  -2   1   4  156.08    8.88   0 
  -1  -7  -8  317.85    7.49   0 
  -1   1  10   34.53    6.23   0 
   1  -9  -8  165.65    8.31   0 
   1   1  10   20.28    5.33   0 
   2  -8  -7   25.45    6.94   0 
   2   1   9  780.06    9.39   0 
   3   0  11  202.75    6.65   0 
   3   1   6  236.13    6.95   0 
   3   1   7  217.25    6.55   0 
   4  -5  -4  109.88   10.16   0 
   4   0   9   15.91    6.23   0 
   5  -1   9   11.33    6.06   0 
   6  -2   3    1.28    6.17   0 
   6  -2   8   30.02    5.75   0 
 -11  -7  -4   38.62    5.93   0 
  -9  -9  -8  182.05    8.03   0 
  -9  -7  -6  126.80    6.09   0 
  -9  -6  -5   58.81    7.03   0 
  -8  -4  -3   30.96    6.65   0 
  -7  -1   4   33.21   11.76   0 
  -7  -1   9    2.66    7.34   0 
  -5  -7  -8   19.31    4.93   0 
  -5  -1   0   30.17    9.37   0 
  -5   0   4   86.08   10.08   0 
  -5   0   9  325.80    8.90   0 
  -4  -8  -9  123.77    6.81   0 
  -4   0  11  177.77    6.80   0 
  -3  -8  -9   -2.92    5.97   0 
  -2   1   9   64.40    5.60   0 
  -1  -9  -9    1.20    5.45   0 
   0   1   3   57.22    8.22   0 
   2  -4  -5   17.66    6.81   0 
   2  -3  -4  425.04   10.87   0 
   2   1   4 2895.66   19.72   0 
   2   1   8   15.61    6.65   0 
   3  -7  -6   66.32    7.17   0 
   3  -5  -5  148.87    8.01   0 
   4  -7  -5  114.97    9.41   0 
   6  -2   4   56.14    6.69   0 
   6  -2   6   28.71    6.61   0 
   6  -2   7   38.22    5.67   0 
 -10  -6  -4   65.68    5.91   0 
  -9  -4  -2  104.75    7.25   0 
  -8  -7  -7   23.83    5.22   0 
  -8  -6  -6   26.90    6.59   0 
  -7  -9  -9   10.22    5.46   0 
  -7  -4  -4   46.56    5.87   0 
  -6  -7  -8   84.88    5.79   0 
  -6  -1  11   62.96    7.61   0 
  -5  -8  -9    4.29    5.09   0 
  -3  -5  -7 1640.37   13.63   0 
  -2  -8  -9   12.78    5.26   0 
  -2  -5  -7    8.03    5.13   0 
  -2  -4  -6   17.65    5.24   0 
  -2   0  12   19.74    5.62   0 
  -2   1   8   14.86    5.43   0 
  -1  -1  -2  350.12   12.78   0 
  -1   0  12   24.54    5.61   0 
  -1   1   9  330.73    7.54   0 
   0  -7  -8    2.59    6.63   0 
   0   0  12    6.62    5.41   0 
   0   1   9    3.51    5.13   0 
   1  -8  -8   51.59    7.08   0 
   1  -6  -7   59.04    6.86   0 
   2   0  11   77.80    5.89   0 
   2   1   5 1316.35   12.86   0 
   2   1   7  656.27    9.00   0 
   3   0  10  131.28    5.99   0 
   4  -1  10   46.82    5.93   0 
   4   0   8   23.97    5.26   0 
   5  -1   3   70.84    7.01   0 
   5  -1   8    3.54    5.22   0 
   6  -2   5   12.27    5.21   0 
 -11  -6  -3   38.87    7.37   0 
 -11  -5  -1   95.93    8.50   0 
 -11  -4   2   25.25   11.48   0 
  -7  -1   8   28.62    7.60   0 
  -6  -8  -9   -0.70    6.56   0 
  -6  -4  -5    9.45    5.75   0 
  -5   0   8   43.70    6.93   0 
  -4  -2  -3 2785.85   20.43   0 
  -4  -1  -1    6.51    7.41   0 
  -4   0  10   -1.60    5.57   0 
  -3  -4  -6 1150.76   11.33   0 
  -3   0  11   36.72    5.59   0 
  -2   1   6 1459.42   14.87   0 
  -2   1   7   77.43    5.80   0 
  -1  -8  -9   14.74    6.49   0 
  -1   1   4  616.85   12.51   0 
  -1   1   8    3.31    5.93   0 
   0  -9  -9   43.86    7.31   0 
   0  -4  -6  157.29    7.77   0 
   0   1   8  100.19    6.64   0 
   1   0  11  198.11    6.54   0 
   1   1   4  793.73   11.85   0 
   2  -5  -6   67.58    7.44   0 
   2  -1  12    3.45    5.48   0 
   2   1   6  208.02    6.80   0 
   3  -1  11   -4.12    5.12   0 
   3   0   9   24.73    5.22   0 
   4   0   5   33.58    6.57   0 
   4   0   6  172.84    6.60   0 
   4   0   7  166.16    6.26   0 
   5  -2   9    5.11    5.78   0 
   5  -1   6  420.65    9.27   0 
   5  -1   7   24.32    5.59   0 
   6  -3   2   18.32    7.84   0 
   6  -3   7   76.97    6.30   0 
 -10  -8  -7    5.92    6.79   0 
  -9  -5  -4    6.12    5.34   0 
  -8  -9  -9    0.59    5.41   0 
  -8  -5  -5    9.01    5.43   0 
  -7  -7  -8    6.30    6.10   0 
  -7  -6  -7  312.12    8.27   0 
  -6  -1  10   -4.70    7.12   0 
  -5  -9 -10    0.23    5.29   0 
  -5   0   5  996.75   16.52   0 
  -4  -9 -10    5.34    5.06   0 
  -4  -4  -6   11.21    5.15   0 
  -4  -1  12   81.22    7.38   0 
  -3  -9 -10    8.44    5.46   0 
  -2  -1  -2   48.55    8.17   0 
  -2   0  11  138.05    6.11   0 
  -1  -6  -8    1.69    5.00   0 
  -1   0  11   20.68    6.27   0 
  -1   1   7  881.48   11.41   0 
   0  -5  -7 1811.11   15.19   0 
   0  -3  -5 1827.42   16.01   0 
   0   1   4   25.78    6.81   0 
   1   1   7  358.99    7.54   0 
   2   0  10   19.82    4.91   0 
   3   0   2 5432.38   32.29   0 
   4  -2  -1   19.28   13.96   0 
   4  -1   9   19.33    5.20   0 
   5  -1   4   96.36    6.41   0 
   5  -1   5  110.27    6.45   0 
   6  -3   6   10.44    6.89   0 
 -11  -7  -5    6.10    6.53   0 
 -10  -7  -6   25.33    5.36   0 
 -10  -5  -3  142.59    8.02   0 
  -9  -8  -8   -0.49    6.71   0 
  -9  -3   0   37.35    7.88   0 
  -7  -8  -9   11.38    5.25   0 
  -7  -5  -6   99.25    6.71   0 
  -7  -1   5    9.57    9.15   0 
  -7  -1   7    1.93    6.45   0 
  -6  -9 -10   18.99    5.74   0 
  -5  -6  -8  388.01    7.46   0 
  -5  -5  -7   37.59    5.40   0 
  -5  -1  11   15.93    6.80   0 
  -5   0   6  782.69   13.15   0 
  -4   0   9  198.81    8.29   0 
  -3   0  10  188.91    6.94   0 
  -2  -7  -9    0.63    4.78   0 
  -1   1   5   71.94    6.77   0 
   0  -8  -9   28.05    6.94   0 
   0   1   5  125.14    6.88   0 
   0   1   6  902.00   11.12   0 
   0   1   7  337.54    7.60   0 
   1  -7  -8   67.02    7.07   0 
   1  -1  12   35.26    5.84   0 
   1   0  10   26.59    5.06   0 
   2  -1  11    6.08    5.25   0 
   3  -6  -6   18.44    6.47   0 
   3  -1  10   21.93    5.24   0 
   3   0   8    4.30    5.01   0 
   4  -6  -5   38.84    9.32   0 
   4  -2  10   16.17    5.59   0 
   4  -1   1  105.57    9.06   0 
   5  -2   1   18.75    7.62   0 
   5  -2   8    5.14    5.33   0 
   6  -5   0  168.14   12.93   0 
   6  -4   1  167.05   10.99   0 
   6  -3   3   19.17    6.52   0 
   6  -3   4  142.79    8.10   0 
   6  -3   5    0.27    6.51   0 
 -10  -4  -1   85.87    8.50   0 
 -10  -3   6   25.59   11.28   0 
  -9  -7  -7   55.02    5.65   0 
  -8  -2   9    0.26    6.58   0 
  -7  -3  -3  188.52    8.23   0 
  -7  -1   6  156.08    9.84   0 
  -6  -1   1   13.06   10.25   0 
  -5  -4  -6  889.80   10.82   0 
  -4  -3  -5 1019.11   11.31   0 
  -3  -1  12   -0.25    5.45   0 
  -2  -1  12   -3.79    6.71   0 
  -2   0  10  126.18    6.89   0 
  -1  -7  -9    5.13    6.55   0 
  -1  -1  12    7.32    5.11   0 
   0  -2  -4   94.79    8.53   0 
   0   0  10   13.52    5.19   0 
   2  -6  -7  226.65    8.55   0 
   2   0   9   41.07    5.33   0 
   3  -8  -7   20.40    7.82   0 
   4  -1   8    8.06    5.07   0 
   5  -2   7   63.46    7.01   0 
 -10  -6  -5   83.31    6.35   0 
 -10  -3   5   95.26   14.36   0 
  -9  -6  -6    5.55    5.49   0 
  -8  -8  -9   43.11    6.35   0 
  -8  -7  -8   90.93    6.12   0 
  -8  -4  -4   39.34    6.61   0 
  -8  -3  -2   73.38    7.36   0 
  -8  -2   1    8.14    9.26   0 
  -6  -6  -8  149.44    6.16   0 
  -6  -3  -4    3.67    5.09   0 
  -6  -2  -2   11.09    6.77   0 
  -6  -1   9    1.35    6.56   0 
  -5  -8 -10  104.11    6.37   0 
  -4  -8 -10   99.57    6.17   0 
  -4  -1  11   47.92    6.87   0 
  -4   0   8   55.64    7.11   0 
  -3  -8 -10   99.48    6.04   0 
  -1  -9 -10   -1.21    5.60   0 
  -1   0  10    1.33    5.03   0 
   1  -5  -7    6.78    7.13   0 
   1  -1  11    4.70    5.49   0 
   1   0   9  216.03    6.65   0 
   2  -8  -8   -1.47    6.92   0 
   2   0   8    1.76    6.53   0 
   3  -1   9   67.05    5.64   0 
   3   0   6  141.75    6.30   0 
   4  -2   9  282.99    7.20   0 
   4  -1   7   17.67    6.39   0 
   5  -7  -4    0.23   13.55   0 
   5  -3   8   24.47    5.72   0 
   5  -2   6   18.21    6.73   0 
   6  -4   2  187.94   10.12   0 
   6  -4   5    3.84    7.23   0 
 -11  -6  -4  137.41    8.16   0 
 -11  -5  -2   63.09    7.21   0 
  -9  -4  -3   15.79    6.56   0 
  -7  -4  -5    4.21    5.18   0 
  -7  -2  -1  157.70    9.00   0 
  -7  -2  10   51.20    7.55   0 
  -6  -5  -7  175.65    6.36   0 
  -5  -2  -3 1023.49   12.51   0 
  -5  -1  10   53.37    7.00   0 
  -3  -2  -4 1762.10   15.38   0 
  -3  -1  -2  309.96    9.58   0 
  -2  -8 -10    3.42    5.26   0 
  -2  -5  -8  703.19    9.90   0 
   0  -7  -9   15.89    6.61   0 
   2  -2  11   25.95    5.26   0 
   2  -1  10  132.36    6.02   0 
   3  -2  10  155.99    6.39   0 
   3   0   4  540.04    9.96   0 
   3   0   5 2631.33   17.32   0 
   5  -2   2  579.44   12.32   0 
   6  -4   3   21.50    6.65   0 
   6  -4   4   85.68    7.80   0 
 -11  -4   1  127.29   12.13   0 
  -8  -5  -6  867.34   10.51   0 
  -8  -2   8   59.39    7.09   0 
  -6  -4  -6   79.76    6.46   0 
  -6  -2  11   32.40    6.18   0 
  -5  -3  -5    1.01    5.19   0 
  -4  -6  -9  135.64    7.08   0 
  -4  -5  -8    0.18    5.44   0 
  -4   0   7  107.62    7.75   0 
  -3  -1  11    7.77    5.27   0 
  -2  -6  -9   42.22    5.25   0 
  -2  -4  -7  261.91    6.98   0 
  -2  -1  11   30.09    5.39   0 
  -2   0   9    5.03    4.97   0 
  -1  -8 -10    2.52    5.38   0 
  -1  -5  -8   62.93    5.54   0 
  -1  -4  -7   18.63    5.11   0 
  -1  -1  11    2.60    5.22   0 
  -1   0   9    0.91    5.25   0 
   0  -2  12   58.32    5.82   0 
   1  -8  -9    0.56    5.87   0 
   1  -6  -8   39.49    6.76   0 
   1   0   8   49.55    6.94   0 
   2   0   7   67.66    5.42   0 
   3  -7  -7   17.81    6.64   0 
   3  -4  -5  104.57    8.34   0 
   3  -1   8   -4.54    6.40   0 
   4  -3   9   18.04    5.76   0 
   4  -2   8  172.44    6.63   0 
   4  -1   2 1751.70   18.18   0 
   4  -1   6   73.97    5.73   0 
   5  -2   4  271.52    8.75   0 
   5  -2   5  133.57    6.53   0 
   6  -6   0    0.99   10.45   0 
   6  -5   1    3.00    8.70   0 
   6  -5   4   46.58    8.37   0 
 -10  -7  -7   34.97    5.57   0 
 -10  -5  -4   17.62    6.46   0 
  -9  -7  -8    5.30    5.26   0 
  -7  -5  -7  151.82    7.12   0 
  -6  -1   8    4.05    6.09   0 
  -5  -6  -9    2.43    6.26   0 
  -4  -7 -10  366.17    8.33   0 
  -4  -4  -7   10.02    5.08   0 
  -4  -1  10  228.25    8.26   0 
  -3  -2  12    2.60    5.53   0 
  -3   0   8  662.58    9.81   0 
  -2  -2  12   49.38    6.99   0 
  -1  -3  -6  751.85   10.30   0 
  -1  -2  12   10.56    5.63   0 
   1  -2  -4   80.58    6.97   0 
   1  -2  11   -4.75    5.07   0 
   1  -1  10    6.43    4.92   0 
   2  -7  -8   35.71    5.64   0 
   2  -4  -6  969.77   13.10   0 
   2  -1   9  215.26    6.50   0 
   3  -5  -6   89.77    7.95   0 
   3  -3  -4 1564.51   20.69   0 
   3  -3  10   71.22    6.97   0 
   4  -1   3  310.13    9.26   0 
   4  -1   4   55.83    6.77   0 
   4  -1   5    5.58    4.87   0 
   5  -4   7   39.28    7.20   0 
   5  -3   6    6.30    6.32   0 
   6  -5   2   62.46    8.49   0 
   6  -5   3   17.35    7.66   0 
 -10  -6  -6  164.60    7.78   0 
 -10  -4  -2    4.53    6.16   0 
  -9  -6  -7   15.91    6.28   0 
  -9  -3  -1   12.53    7.37   0 
  -5  -7 -10   64.45    5.66   0 
  -5  -5  -8   15.15    5.05   0 
  -5  -1   9  232.44    7.41   0 
  -4  -2  -4  122.09    6.81   0 
  -4   0   3 4015.38   39.32   0 
  -4   0   6  721.16   12.02   0 
  -3  -3  -6    7.27    5.09   0 
  -2   0   8   31.20    5.13   0 
  -1   0   8 1649.22   13.06   0 
   0  -8 -10    4.13    6.18   0 
   0  -5  -8   15.64    5.04   0 
   0  -4  -7    6.00    4.88   0 
   0   0   8 1779.35   13.54   0 
   1  -7  -9   41.49    6.86   0 
   1   0   7  774.84    9.75   0 
   2  -5  -7    3.54    6.23   0 
   2  -3  -5  945.22   13.74   0 
   2  -2  10   25.40    5.67   0 
   2   0   2 3102.70   26.17   0 
   2   0   6  518.27    8.76   0 
   3  -1   7    0.74    6.03   0 
   4  -7  -6  156.97   10.04   0 
   4  -4  -4    2.78    9.09   0 
   6  -6   1    4.07    9.09   0 
  -8  -7  -9   23.28    5.70   0 
  -8  -6  -8  461.77    9.17   0 
  -8  -4  -5  578.05   10.28   0 
  -7  -3  -4    1.19    5.41   0 
  -7  -2   9    5.73    6.57   0 
  -6  -7 -10    8.94    5.10   0 
  -6  -2  10    2.58    6.49   0 
  -6  -1   7  360.87    9.54   0 
  -5  -8 -11   46.84    5.81   0 
  -5  -4  -7   14.94    4.93   0 
  -4  -3  -6   24.48    5.17   0 
  -4   0   5  359.68   10.29   0 
  -3  -1  10  108.72    6.00   0 
  -3   0   7   50.87    6.00   0 
  -2  -1  10  103.16    5.56   0 
  -1  -1  10   23.75    5.06   0 
   0  -6  -9   24.13    6.54   0 
   0  -3  -6   28.74    5.77   0 
   0  -2  11   53.94    5.46   0 
   2  -1   8   82.13    6.64   0 
   2   0   5   -5.82    5.39   0 
   4  -5  -5   11.04    8.97   0 
   5  -3   0   30.75    8.61   0 
   5  -3   5   18.88    6.87   0 
 -11  -5  -3  119.17    7.83   0 
  -9  -5  -6    6.08    6.63   0 
  -9  -4  -4  316.72    9.25   0 
  -9  -3   8   18.91    7.21   0 
  -8  -3  -3  455.22   10.05   0 
  -7  -4  -6   13.53    5.71   0 
  -6  -5  -8   12.82    5.52   0 
  -6  -3  -5   12.87    5.10   0 
  -6  -2  -3   11.83    6.74   0 
  -4  -2  11   38.98    6.15   0 
  -4  -1  -2  208.59    8.38   0 
  -4  -1   9  144.66    7.42   0 
  -4   0   4   19.56    6.76   0 
  -2  -8 -11   17.15    5.37   0 
  -2  -2  -5 1081.35   11.89   0 
  -2  -1  -3   22.03    8.79   0 
  -2   0   7  809.87   11.01   0 
  -1  -2  -5 1475.53   13.99   0 
  -1  -2  11   25.42    5.54   0 
  -1  -1  -3 1884.22   19.31   0 
   1  -4  -7   10.24    6.41   0 
   1  -3  11  194.11    7.09   0 
   1  -2  10  149.38    6.08   0 
   1   0   6  980.64   10.91   0 
   2  -8  -9   29.34    7.28   0 
   2  -3  10   58.36    6.99   0 
   2   0   4  841.77   11.56   0 
   3  -6  -7  244.00    9.19   0 
   3  -3   9  157.58    6.48   0 
   3  -1   6  361.24    7.55   0 
   4  -4   8   10.83    6.90   0 
   4  -2   6  128.43    6.70   0 
   5  -3   4   38.22    6.63   0 
 -11  -4   0   26.76    9.75   0 
 -10  -5  -5   63.22    7.45   0 
  -8  -2   0   84.26    9.24   0 
  -7  -7 -10   41.63    5.39   0 
  -7  -6  -9  142.47    6.21   0 
  -5  -2  -4    2.70    6.40   0 
  -5  -1   8  150.06    6.60   0 
  -3  -6 -10  123.73    6.16   0 
  -3  -2  11   67.29    5.92   0 
  -3   0   6 1093.72   13.42   0 
  -2  -5  -9   73.00    5.76   0 
  -2  -4  -8   35.91    6.77   0 
  -2  -2  11    9.24    5.17   0 
  -1   0   7  642.75    9.39   0 
   0  -1  -3   58.79    8.38   0 
   1  -5  -8  190.02    7.17   0 
   2  -2   9    3.67    5.01   0 
   3  -1   0  977.37   22.16   0 
   4  -3  -3   48.95   14.11   0 
   4  -3   7  577.50    9.51   0 
   5  -3   1   12.92    7.38   0 
   5  -3   3  257.88    8.80   0 
 -10  -6  -7  109.38    7.38   0 
  -8  -3   9    0.22    6.67   0 
  -8  -2   6   10.31    8.11   0 
  -7  -5  -8    1.06    4.97   0 
  -7  -2  -2    1.69    6.14   0 
  -7  -2   8    2.07    6.36   0 
  -6  -1   6  262.94    9.46   0 
  -5  -3  -6  188.66    6.25   0 
  -4  -7 -11    5.42    5.14   0 
  -4  -4  -8   12.95    6.41   0 
  -3  -7 -11   15.77    6.50   0 
  -3  -1   9    4.70    4.95   0 
  -2  -6 -10   32.68    5.19   0 
  -2  -1   9   60.70    5.52   0 
  -2   0   0 5285.14   62.06   0 
   0  -3  11   87.97    5.90   0 
   0  -2  -5  261.30    8.32   0 
   0  -2  10   61.82    5.77   0 
   0   0   6 1540.66   13.58   0 
   1  -8 -10   61.46    6.51   0 
   1  -6  -9  186.99    8.30   0 
   1  -1   8   37.24    5.62   0 
   2  -4  10    7.33    6.80   0 
   3  -4   9   50.85    6.14   0 
   3  -2   7  232.66    7.71   0 
   4  -6  -6   54.85    8.64   0 
   4  -2   5   68.28    5.71   0 
   5  -4   5   38.11    5.95   0 
   5  -3   2    3.23    6.49   0 
 -10  -4  -3  150.49    8.30   0 
  -9  -6  -8    5.58    5.72   0 
  -9  -3  -2    9.66    6.33   0 
  -7  -3  10   18.06    6.01   0 
  -6  -2   9   38.36    5.63   0 
  -6  -1   0  273.70   12.58   0 
  -5  -7 -11    7.18    5.43   0 
  -5  -5  -9  399.98    7.62   0 
  -5  -3  11  129.65    7.60   0 
  -4  -2  10   43.22    6.98   0 
  -4  -1   8   27.53    6.72   0 
  -3  -3  -7  110.45    6.10   0 
  -3  -1  -3  260.76    8.52   0 
  -3   0   5  182.81    8.24   0 
  -2  -3  -7  439.47    8.22   0 
  -2   0   6  168.43    7.07   0 
  -1  -3  -7 2162.62   15.56   0 
  -1  -3  11   15.70    5.49   0 
  -1  -2  10  170.42    6.42   0 
  -1   0   6  359.63    8.89   0 
   1  -3  10   11.09    5.64   0 
   1  -2   9   24.41    5.23   0 
   2  -7  -9  219.51    8.79   0 
   2  -3   9   80.28    6.74   0 
   2  -2   8   14.09    6.61   0 
   3  -7  -8   16.59    6.90   0 
   3  -3   8   10.81    5.16   0 
   4  -4   7    3.31    5.62   0 
   4  -2   4   73.64    7.33   0 
   5  -5   5    1.36    7.21   0 
   5  -4   4   54.31    6.88   0 
 -11  -5  -4   23.95    7.29   0 
 -10  -3   1  145.57   14.13   0 
  -9  -4  -5   39.45    6.85   0 
  -9  -3   7   92.22    8.89   0 
  -8  -4  -6   -0.69    5.67   0 
  -8  -3  -4   81.25    7.00   0 
  -7  -4  -7  126.27    6.85   0 
  -7  -3  -5   52.07    5.79   0 
  -6  -6 -10    2.75    5.10   0 
  -6  -5  -9  335.01    8.46   0 
  -5  -1   7  606.04   11.22   0 
  -4  -3  11   68.90    7.39   0 
  -3  -2  10   16.80    5.40   0 
  -2  -3  11   43.48    5.60   0 
  -2  -2  10   -3.08    5.22   0 
  -1  -7 -11  390.99    9.41   0 
   0  -5  -9   62.84    6.10   0 
   0  -4  -8  301.77    7.29   0 
   0  -1   8    4.99    5.46   0 
   0   0   5 4389.88   22.61   0 
   1  -7 -10  283.19    9.35   0 
   2  -1   6   89.06    5.93   0 
   3  -2  -3  725.26   18.93   0 
   4  -5   7   10.57    7.10   0 
 -11  -4  -1   52.72    8.68   0 
 -10  -5  -6   16.24    6.83   0 
  -9  -5  -7    7.81    5.50   0 
  -8  -2   5  854.58   18.03   0 
  -6  -3  -6  841.36   10.05   0 
  -6  -3  10  125.23    8.00   0 
  -6  -1   5  258.71   10.48   0 
  -5  -1  -2  949.86   14.71   0 
  -4  -3  -7    8.17    5.15   0 
  -3  -3  11   12.63    5.47   0 
  -3  -1   8    0.41    4.79   0 
  -2  -1   8    5.62    6.04   0 
  -2   0   5  297.02    9.46   0 
  -1  -1   8   28.06    5.28   0 
  -1   0   5  130.97    8.33   0 
   0  -6 -10   12.30    5.43   0 
   0  -3  -7    6.61    5.16   0 
   0  -3  10   94.65    6.15   0 
   0  -2   9   54.48    5.51   0 
   1  -4  10   16.54    5.59   0 
   1  -1  -3  125.90   10.15   0 
   1  -1   7   17.16    5.33   0 
   1   0   2  240.05   11.07   0 
   1   0   3  297.67   10.07   0 
   2  -5  -8    3.05    6.36   0 
   2  -4  -7  857.30   11.85   0 
   2  -4   9  162.37    7.68   0 
   2  -1  -2    4.62   10.41   0 
   3  -5  -7    3.99    6.04   0 
   3  -4  -6    4.74    6.47   0 
   3  -4   8    7.29    5.50   0 
   3  -2   6  480.62    8.44   0 
   3  -1   1 1531.33   21.02   0 
   3  -1   3   11.52    5.92   0 
   4  -2   0  629.69   16.54   0 
   4  -2   3  395.43    9.76   0 
   5  -5   4   24.14    7.15   0 
   5  -4   3  556.52   11.01   0 
  -8  -2  -1  334.07   11.79   0 
  -7  -6 -10    4.46    5.04   0 
  -7  -2  -3   13.45    6.68   0 
  -7  -2   7   74.01    7.12   0 
  -6  -4  -8  390.70    7.54   0 
  -6  -2   8  115.55    7.56   0 
  -5  -3  -7   60.21    6.28   0 
  -4  -6 -11  113.39    5.97   0 
  -4  -5 -10  101.71    6.01   0 
  -4  -1  -3   63.28    6.55   0 
  -2  -5 -10  207.62    6.79   0 
  -2  -2  -6  988.97   10.96   0 
  -1  -4  11    6.27    5.35   0 
   1  -4  -8  323.52    8.71   0 
   1  -3   9    1.79    5.17   0 
   1  -2   8    2.66    4.95   0 
   2  -6  -9   60.34    7.06   0 
   2  -3   8   26.47    6.09   0 
   2  -2   7  281.86    6.92   0 
   3  -5   8   82.97    6.27   0 
   3  -3  -5  277.42   10.47   0 
   3  -1   2  449.42   10.49   0 
   4  -7  -7   17.15    9.33   0 
   4  -4   6   -1.57    5.37   0 
   4  -3   5   99.42    5.98   0 
   4  -2   2  434.48   10.61   0 
   5  -6   4   50.29    7.50   0 
   5  -4  -1   17.50   10.44   0 
 -10  -3   0   23.66    9.75   0 
  -9  -6  -9    6.91    5.59   0 
  -9  -3  -3   69.26    6.96   0 
  -8  -3   8    8.36    6.45   0 
  -7  -5  -9    4.47    5.43   0 
  -7  -3   9    7.51    5.42   0 
  -5  -5 -10  264.69    6.81   0 
  -5  -1   6   15.57    6.85   0 
  -4  -7 -12    5.40    5.38   0 
  -4  -4  -9    1.33    4.97   0 
  -4  -2   9   22.91    5.00   0 
  -4  -1   7    4.32    5.29   0 
  -3  -7 -12   38.20    5.45   0 
  -3  -2  -6  210.88    6.84   0 
  -3   0   3 4174.79   34.77   0 
  -2  -6 -11  332.06    7.55   0 
  -2  -4  -9    9.83    4.78   0 
  -2  -4  11   20.21    5.54   0 
  -2  -2   9  159.23    7.17   0 
  -2  -1  -4 2838.43   19.89   0 
  -1  -3  10  282.85    7.28   0 
   0  -7 -11   31.82    5.60   0 
   1  -5  -9  284.55    7.56   0 
   1  -1   6  380.03    8.77   0 
   2  -1   5 1203.38   12.39   0 
   3  -6  -8    2.87    6.37   0 
   3  -2   5    8.91    6.24   0 
   4  -5   6   44.30    5.83   0 
   5  -5   3    7.18    6.48   0 
   5  -4   2   44.85    7.02   0 
 -11  -5  -5    1.87    5.88   0 
 -11  -4  -2   99.29    9.34   0 
  -9  -4  -6  161.26    7.75   0 
  -9  -3   6    1.56    7.55   0 
  -8  -4  -7    7.91    5.35   0 
  -6  -6 -11   66.11    5.46   0 
  -6  -1  -1   97.57    8.99   0 
  -6  -1   4    7.05    8.12   0 
  -4  -4  11   21.74    5.54   0 
  -4  -2  -6   -0.48    6.15   0 
  -3  -4  11   80.31    5.94   0 
  -3  -3  -8   52.37    5.61   0 
  -3  -3  10   21.72    5.45   0 
  -3  -2   9    5.04    4.74   0 
  -3  -1  -4  597.50   11.20   0 
  -3  -1   7  112.81    6.83   0 
  -2  -3  10  114.47    5.98   0 
  -1  -6 -11   12.83    5.26   0 
   0  -4  10   22.42    5.51   0 
   0  -2  -6  816.16   10.90   0 
   0  -1  -4   33.08    8.22   0 
   1  -6 -10   33.35    5.61   0 
   1  -3  -7  751.32   10.33   0 
   3  -4   7   23.18    5.70   0 
   3  -3   6  111.84    6.99   0 
   4  -5  -6   20.81    9.08   0 
   4  -4   5    8.53    6.64   0 
   4  -3   4    5.76    6.56   0 
   5  -6   3    4.78    6.71   0 
   5  -4   0  328.06   12.14   0 
   5  -4   1  469.79   11.30   0 
 -11  -4   4   32.96   13.14   0 
 -10  -5  -7   12.84    7.08   0 
  -9  -5  -8   -5.52    5.58   0 
  -8  -5  -9   10.28    6.60   0 
  -7  -4  -8   96.43    5.97   0 
  -6  -5 -10    1.05    5.33   0 
  -6  -3  -7    2.85    4.78   0 
  -6  -3   9   12.54    6.55   0 
  -5  -2   8    4.06    6.32   0 
  -4  -3  -8   29.45    5.32   0 
  -3   0   2   88.41   12.23   0 
  -1  -7 -12    1.58    6.69   0 
  -1  -4  10   12.81    6.77   0 
  -1  -3  -8  111.06    5.90   0 
   0  -5  10   30.40    5.89   0 
   0  -4  -9   -1.42    5.07   0 
   0  -3   9    6.63    4.89   0 
   0  -2   8    7.82    5.17   0 
   1  -4   9   -2.57    5.12   0 
   2  -7 -10   32.50    7.07   0 
   2  -4   8    5.75    5.58   0 
   2  -2   6  311.90    8.10   0 
   2  -1   4  522.02    9.82   0 
   3  -7  -9  143.38    9.30   0 
   3  -5   7    3.08    7.07   0 
   4  -4  -5   92.78    9.54   0 
   5  -5   2  143.46    8.35   0 
 -10  -3  -1   27.84    8.95   0 
  -9  -4   8   39.56    7.17   0 
  -8  -4   9   -6.54    6.11   0 
  -8  -2  -2   23.41    7.57   0 
  -8  -2   4   97.88   11.48   0 
  -7  -2   6   49.12    7.61   0 
  -6  -4  -9    1.36    6.19   0 
  -6  -4  10   42.33    7.13   0 
  -6  -2  -5  165.86    6.91   0 
  -1  -3   9    0.57    6.14   0 
  -1  -2   8   90.61    5.44   0 
   0  -6 -11  123.65    6.60   0 
   0  -3  -8    7.27    5.14   0 
   0  -1   6  609.93    9.34   0 
   0   0   2 2487.19   27.83   0 
   1  -5   9    5.55    5.16   0 
   1  -3   8   11.67    5.37   0 
   1  -2   7   30.82    5.44   0 
   2  -5   8   -0.06    5.76   0 
   2  -3   7   21.56    5.54   0 
   4  -5   5   23.97    5.61   0 
   4  -3   3    0.50    6.89   0 
   5  -6   2    4.76    7.69   0 
 -11  -4  -3    6.24    8.01   0 
  -9  -3  -4  299.55    9.07   0 
  -8  -3   7    4.61    6.45   0 
  -7  -3   8   48.09    6.69   0 
  -7  -2  -4    8.29    5.78   0 
  -5  -6 -12   55.24    6.25   0 
  -5  -4  10   49.30    7.15   0 
  -5  -3   9  173.79    7.65   0 
  -4  -6 -12   30.83    5.73   0 
  -3  -6 -12   56.45    5.72   0 
  -3  -5 -11  292.89    7.13   0 
  -3  -2   8  396.09    8.89   0 
  -3   0   0 1032.78   25.18   0 
  -2  -6 -12    3.66    6.56   0 
  -2  -4 -10  134.49    6.13   0 
  -2  -4  10   99.19    6.18   0 
  -2  -2  -7   13.04    5.37   0 
  -2  -2   8  102.90    5.76   0 
  -2   0   3 3441.24   29.04   0 
  -1  -5  10    6.80    5.60   0 
   0  -4   9    3.30    5.07   0 
   1  -1   5    5.25    5.61   0 
   2  -4  -8   65.34    6.01   0 
   3  -5  -8  103.38    7.43   0 
   3  -4  -7   25.75    6.77   0 
   3  -4   6    5.69    5.07   0 
   4  -6   5   54.51    6.44   0 
   4  -4   4   34.89    6.66   0 
   5  -5   1  218.04   10.31   0 
  -9  -4  -7   32.12    7.00   0 
  -8  -4  -8   16.38    5.38   0 
  -8  -3  -6    4.93    6.77   0 
  -5  -5 -11    5.03    5.47   0 
  -5  -1   5  430.07   10.63   0 
  -4  -3   9    4.40    5.11   0 
  -3  -4  10   14.85    5.45   0 
  -3  -1   6 1429.69   14.16   0 
  -1  -5 -11    7.65    5.00   0 
  -1  -4 -10   27.90    5.11   0 
  -1  -1   6  352.04    8.33   0 
   0  -3   8    7.70    5.31   0 
   0  -2   7    6.77    5.43   0 
   1  -4  -9   24.18    5.24   0 
   1  -4   8   14.22    5.32   0 
   1  -1  -4  613.89   12.59   0 
   2  -4   7  113.31    5.90   0 
   2  -3  -7    9.25    7.12   0 
   2  -1   3  700.87   11.57   0 
   3  -3   5   27.83    5.42   0 
 -10  -4   6  163.94   10.76   0 
 -10  -3  -2   29.12    8.02   0 
  -7  -4   9    8.66    6.33   0 
  -6  -5 -11   14.98    5.28   0 
  -5  -4 -10    9.80    5.20   0 
  -3  -3  -9  520.14    8.46   0 
  -3  -1  -5   29.65    5.93   0 
  -2  -5  10    1.33    5.39   0 
  -2  -3  -9    8.22    5.13   0 
  -2  -1   6    1.13    5.55   0 
  -1  -4   9   -0.04    5.58   0 
  -1  -3  -9   47.10    6.38   0 
   0  -5   9   46.55    5.89   0 
   1  -6 -11    1.36    5.56   0 
   1  -3   7   39.50    5.35   0 
   1  -2   6  425.77    8.07   0 
   2  -3   6  132.74    6.12   0 
   2  -2   5  802.92   10.36   0 
   3  -6  -9  135.76    8.05   0 
   3  -6   6   11.90    7.00   0 
   3  -5   6    0.97    5.61   0 
   3  -3  -6    6.03    7.36   0 
   3  -2   3   31.76    7.25   0 
   4  -7  -8   42.08    8.81   0 
   5  -7   1    1.17    7.23   0 
   5  -6   1    5.21    6.67   0 
   5  -5  -2   17.28   11.86   0 
   5  -5   0   36.78    8.29   0 
 -11  -4  -4    2.78    6.65   0 
 -10  -4  -6   28.65    6.12   0 
  -9  -3  -5   88.93    7.16   0 
  -9  -3   5    3.24    8.08   0 
  -6  -5  10    5.20    5.47   0 
  -6  -4 -10   44.30    6.84   0 
  -6  -3   8   53.61    7.26   0 
  -6  -1   3    7.92    9.18   0 
  -5  -2   7  157.42    6.88   0 
  -5  -1  -4  923.37   12.56   0 
  -4  -3  -9   85.73    5.82   0 
  -3  -5  10   72.44    5.84   0 
  -1  -3   8  669.35    9.01   0 
  -1  -2   7  202.67    6.52   0 
  -1   0   2  937.51   20.25   0 
   0  -6   9   -3.07    5.61   0 
   0  -5 -11    1.08    5.28   0 
   0  -4 -10   22.40    5.34   0 
   0  -1  -5  123.96    6.91   0 
   1  -5   8    3.45    5.42   0 
   1  -1   4   14.74    5.74   0 
   2  -5   7  124.94    6.14   0 
   2  -1  -3 2239.21   26.25   0 
   3  -4   5  143.04    7.66   0 
   4  -6   4  115.76    7.11   0 
   4  -4   3   58.83    6.86   0 
   4  -3  -4  187.85   13.96   0 
   5  -5  -1  100.23   10.60   0 
 -10  -3  -3   59.22    8.56   0 
  -9  -4   7  206.88    9.03   0 
  -7  -2   5   29.68    7.74   0 
  -6  -2   6   19.95    6.93   0 
  -6  -1  -3   26.77    6.72   0 
  -5  -5  10   30.73    5.84   0 
  -5  -3  -9   42.98    5.51   0 
  -5  -2  -7   20.57    5.20   0 
  -4  -5  10   16.33    5.69   0 
  -4  -1  -5  152.55    6.60   0 
  -4  -1   5   74.76    7.71   0 
  -3   0  -1  756.36   16.15   0 
  -2  -5 -12   10.25    6.71   0 
  -2  -4   9   56.82    5.55   0 
  -2  -2  -8  457.84    8.25   0 
  -2  -2   7    6.84    6.09   0 
  -2   0  -2 3119.84   26.55   0 
  -2   0   2 3651.58   38.18   0 
  -1  -5   9   40.49    5.99   0 
   0  -6 -12    6.75    5.40   0 
   0  -4   8  155.05    6.27   0 
   0  -3  -9    8.12    5.67   0 
   1  -6   8   73.60    5.97   0 
   2  -6   7   60.26    6.28   0 
   2  -2  -6   11.42    6.81   0 
   2  -1   2  262.00    9.14   0 
   3  -3   4  590.87    9.91   0 
   4  -5  -7    1.06    7.83   0 
   5  -7   0   15.53    8.46   0 
   5  -6   0   72.49    8.73   0 
  -9  -4  -8   19.73    5.57   0 
  -8  -4  -9    5.99    5.83   0 
  -8  -3  -7    4.88    5.45   0 
  -8  -3   6    1.96    7.58   0 
  -8  -2  -4   72.58    7.18   0 
  -7  -3  -8   87.27    5.83   0 
  -7  -3   7  242.78    8.62   0 
  -5  -3   8    5.13    5.20   0 
  -4  -4 -11    6.66    5.42   0 
  -4  -4   9    2.22    4.89   0 
  -3  -4   9  233.90    7.05   0 
  -3  -2  -8   30.13    5.52   0 
  -2  -4 -11   26.16    5.42   0 
  -2  -3   8   15.35    5.20   0 
  -1  -1  -6  738.04    9.96   0 
  -1  -1   5   15.39    5.78   0 
  -1   0  -2  250.64   11.26   0 
   0  -3   7   91.27    6.37   0 
   0  -2   6    0.69    5.12   0 
   1  -4 -10    1.44    6.53   0 
   1  -4   7  241.78    7.04   0 
   1  -2  -7   15.72    5.42   0 
   2  -5 -10   20.04    5.76   0 
   2  -4  -9   45.97    6.04   0 
   2  -2   4 1097.09   12.63   0 
   3  -5   5   35.24    5.81   0 
   3  -2   2 2418.34   20.73   0 
   4  -6  -8   36.64    8.47   0 
   4  -5   3    6.96    6.62   0 
   4  -4  -6  807.52   16.17   0 
 -10  -4  -7   15.18    7.46   0 
  -9  -3  -6    2.00    6.85   0 
  -7  -4 -10   17.82    5.67   0 
  -5  -4 -11    4.28    5.15   0 
  -5  -1   4 1295.90   18.31   0 
  -4  -3   8  338.94    7.58   0 
  -4  -2  -8  330.59    7.50   0 
  -3  -3 -10   -0.79    4.98   0 
  -3  -3   8   93.68    6.03   0 
  -3  -1   5    8.68    7.23   0 
  -3   0  -2 5421.89   32.92   0 
  -2  -5   9  289.36    7.77   0 
  -2  -3 -10   19.24    5.34   0 
  -1  -6   9    7.06    5.58   0 
  -1  -4   8   45.76    5.56   0 
   0  -5   8  218.98    6.81   0 
   0  -2  -8  302.03    8.06   0 
   1  -5 -11   14.81    5.49   0 
   1  -3   6  148.59    6.36   0 
   1  -2   5  842.01   10.70   0 
   2  -6 -11   22.50    7.52   0 
   2  -5   6  184.10    7.82   0 
   2  -3  -8    2.68    5.82   0 
   3  -7   5   -1.34    5.66   0 
   3  -6   5    8.98    5.26   0 
   3  -5  -9    2.54    6.67   0 
   4  -7   3   76.69    7.72   0 
   4  -6   3    3.10    6.63   0 
   4  -4   2  250.63    9.22   0 
   5  -6  -1    8.11    8.16   0 
 -10  -3  -4  184.43    8.67   0 
  -8  -2   3  197.53   13.66   0 
  -6  -4 -11   20.37    5.45   0 
  -5  -2  -8    8.33    6.40   0 
  -4  -1  -6   48.54    5.37   0 
  -3  -5   9    4.84    5.71   0 
   0  -7   8   50.86    7.22   0 
   0  -6   8   -3.59    5.25   0 
   0  -4 -11    8.19    6.12   0 
   0  -1  -6  887.02   11.20   0 
   0  -1   4   34.24    6.27   0 
   1  -5   7   72.42    5.81   0 
   1  -1   3  719.58   12.03   0 
   2  -7   6   14.94    7.13   0 
   2  -6   6   15.18    6.58   0 
   3  -6 -10   10.79    6.80   0 
   3  -4   4   59.35    5.71   0 
   3  -3  -7  427.77   10.52   0 
   3  -3   3   10.31    6.73   0 
   4  -3   0   16.86    8.03   0 
   5  -6  -2    1.67    9.67   0 
 -10  -4   5  123.10    9.72   0 
  -9  -2  -1    4.03    8.96   0 
  -9  -2   0   61.22   12.30   0 
  -8  -3  -8    8.76    6.41   0 
  -8  -2  -5   47.56    7.10   0 
  -7  -3  -9   19.16    6.68   0 
  -7  -1  -1  194.30   10.03   0 
  -7  -1   0   40.83   10.62   0 
  -6  -5   9   86.05    6.58   0 
  -6  -4   8   91.83    7.55   0 
  -5  -5   9   27.41    5.33   0 
  -5  -3 -10    1.49    5.30   0 
  -4  -5   9   71.05    5.91   0 
  -3  -4 -12   34.66    6.65   0 
  -2  -6   9   16.97    5.28   0 
  -2  -4   8  240.01    6.99   0 
  -1  -5   8  113.33    7.26   0 
  -1  -3   7 1433.01   12.28   0 
  -1  -2   6   31.43    5.63   0 
  -1   0  -3  292.67   10.07   0 
   0  -4   7    6.02    5.18   0 
   0  -3 -10   16.92    5.07   0 
   1  -7   7   13.47    5.61   0 
   1  -6   7  101.67    6.13   0 
   2  -1  -4  158.16    9.23   0 
   3  -2  -5    4.46    6.72   0 
   4  -5   2   60.54    7.50   0 
   5  -7  -2   27.48   10.14   0 
   5  -6  -3  102.71   13.78   0 
 -11  -4   3  309.30   17.19   0 
 -10  -3  -5    3.11    7.18   0 
  -9  -4   6  186.81    9.44   0 
  -9  -3  -7    4.54    7.17   0 
  -9  -2  -2  118.71    8.96   0 
  -8  -5   8   74.73    6.31   0 
  -7  -1  -2  231.94    9.93   0 
  -6  -3 -10   -2.88    6.52   0 
  -5  -4   8   12.67    6.11   0 
  -5  -1  -6   81.40    6.74   0 
  -4  -4 -12    5.92    5.34   0 
  -4  -2  -9  417.87    7.83   0 
  -4  -2   6   50.22    7.01   0 
  -4   0  -1  698.54   15.47   0 
  -3  -6   9   41.54    5.86   0 
  -3  -4   8  112.70    6.21   0 
  -3   0  -3  349.39    9.40   0 
  -2  -4 -12    7.20    5.47   0 
  -2  -3   7  870.92   10.18   0 
  -2  -2   6   39.38    5.69   0 
  -1  -2  -9  791.54    9.74   0 
   1  -4   6  307.77    7.24   0 
   2  -5 -11   66.29    7.47   0 
   2  -4 -10  120.70    7.75   0 
   2  -4   5    4.38    5.06   0 
   2  -2   3  277.40    9.59   0 
   3  -7   4   36.47    7.20   0 
   3  -5   4  131.90    6.61   0 
   3  -2   1  154.80    8.88   0 
   4  -7   2  168.62    9.12   0 
   4  -5  -8   32.84    8.28   0 
   5  -7  -4    0.54   13.99   0 
   5  -7  -3   27.01   11.73   0 
  -9  -3   4  158.74   11.02   0 
  -9  -2  -3   32.12    7.79   0 
  -7  -3   6   25.17    6.82   0 
  -7  -2  -7   31.25    5.63   0 
  -7  -1  -3    4.09    7.62   0 
  -6  -6   9   -4.77    6.96   0 
  -6  -2  -8   63.55    5.81   0 
  -6  -2   5   94.57    7.57   0 
  -6  -1  -5    5.45    5.44   0 
  -5  -6   9   -0.84    6.46   0 
  -4  -6   9   18.38    5.31   0 
  -4  -4   8    2.68    4.75   0 
  -4  -3 -11   78.73    5.93   0 
  -4  -1   4  895.00   14.14   0 
  -4   0  -2 2343.46   21.56   0 
  -4   0   0  266.85   14.60   0 
  -3  -7   9    8.37    5.74   0 
  -3  -3 -11   17.35    5.74   0 
  -3  -3   7    6.24    4.91   0 
  -2  -5   8  163.50    7.70   0 
  -2  -3 -11   43.52    5.59   0 
  -1  -7   8   38.26    7.10   0 
  -1  -6   8   51.12    5.57   0 
  -1  -4 -12   27.20    5.74   0 
  -1  -1   4    9.12    6.27   0 
  -1   0  -4  575.96   10.49   0 
   0  -5   7   15.34    5.44   0 
   0  -3   6   30.86    5.49   0 
   0  -2  -9   31.54    5.14   0 
   0  -1  -7  334.09    8.60   0 
   0   0  -3 4530.69   29.61   0 
   1  -5 -12   55.99    5.88   0 
   1  -2   4  199.46    8.41   0 
   1  -1  -6  217.86    7.64   0 
   2  -5   5  141.14    7.37   0 
   2  -3  -9  127.41    7.36   0 
   2  -3   4 2220.79   16.00   0 
   3  -5 -10  203.17    8.64   0 
   3  -4  -9  120.93    7.82   0 
   4  -6  -9   51.64    8.81   0 
   4  -4  -7  177.37    9.69   0 
   4  -4   1   65.87    7.28   0 
   4  -3  -5   16.96    8.22   0 
  -9  -5   7   14.41    7.49   0 
  -8  -3  -9   -2.74    6.80   0 
  -8  -2  -6    4.09    5.28   0 
  -7  -2   4    6.49    7.24   0 
  -5  -3 -11   93.29    6.24   0 
  -4  -7   9   52.34    5.90   0 
  -4   0  -3  980.93   13.78   0 
  -3   0  -4  510.98    9.93   0 
  -1  -4   7  310.11    7.46   0 
   0  -6   7   78.02    5.80   0 
   1  -5   6  171.26    6.42   0 
   1  -3 -10    6.84    5.03   0 
   2  -7   5   14.73    7.02   0 
   2  -6   5    6.08    6.84   0 
   4  -3  -1  258.75   12.83   0 
 -10  -5   6   24.69    7.31   0 
 -10  -3  -6    4.23    7.59   0 
  -9  -3  -8    3.21    7.27   0 
  -9  -2  -4   -3.48    6.32   0 
  -8  -3   5   82.08    7.72   0 
  -7  -4   7    4.88    5.24   0 
  -7  -3 -10   18.11    5.98   0 
  -7  -2  -8  113.39    7.41   0 
  -6  -5   8   10.02    6.64   0 
  -6  -1  -6  143.41    7.68   0 
  -5  -1  -7  501.02    9.14   0 
  -3  -5   8  658.44    9.10   0 
  -3  -1  -8   47.50    5.32   0 
  -3  -1   4 1000.62   14.66   0 
  -2  -6   8    5.12    5.57   0 
  -2  -2 -10  456.22    8.07   0 
  -2  -1  -8    7.22    5.81   0 
  -2   0  -5    1.85    7.03   0 
  -1  -3   6  127.20    7.35   0 
  -1  -1  -8  167.52    6.62   0 
   0  -7   7    0.17    5.64   0 
   0   0  -4  219.10    8.75   0 
   1  -7   6  128.32    6.76   0 
   1  -6   6   29.22    5.43   0 
   3  -3  -8  383.57    9.75   0 
   3  -3   2    2.09    5.66   0 
   3  -2  -6  119.50    7.94   0 
   4  -5   1  106.44    7.62   0 
  -8  -6   8    6.35    6.00   0 
  -8  -2  -7    4.01    6.45   0 
  -6  -3 -11   14.23    5.49   0 
  -6  -3   6   32.72    6.95   0 
  -6  -2  -9    1.33    5.04   0 
  -5  -5   8    2.21    4.94   0 
  -4  -5   8   78.86    5.68   0 
  -4  -2 -10   43.11    5.73   0 
  -4  -1  -8  192.21    6.63   0 
  -4   0  -4  287.52    8.97   0 
  -3  -3 -12   76.92    5.98   0 
  -3   0  -5 2915.40   19.10   0 
  -2  -7   8   17.94    5.43   0 
  -2  -4 -13   42.98    6.05   0 
  -2  -4   7    9.88    5.21   0 
  -2  -3 -12  167.95    7.87   0 
  -1  -5   7   27.07    5.37   0 
  -1  -2   5  194.00    6.84   0 
  -1   0  -5  937.38   11.40   0 
   0  -4   6  141.66    6.57   0 
   1  -1   2 3840.97   28.46   0 
   2  -4 -11   47.51    7.35   0 
   2  -4   4  537.59    9.69   0 
   2  -2  -8  445.37    9.05   0 
   3  -8   3    1.48    6.04   0 
   3  -7   3    4.59    6.45   0 
   3  -5   3  120.76    6.29   0 
   4  -7   1   16.98    7.08   0 
   4  -6   1   78.51    7.69   0 
 -11  -3  -3    6.53    9.69   0 
 -11  -3  -2   29.84   10.12   0 
  -9  -2  -5   10.89    6.63   0 
  -8  -5   7   54.02    7.51   0 
  -8  -4   6   12.99    6.57   0 
  -7  -6   8   10.40    6.93   0 
  -7  -1  -5  166.13    7.93   0 
  -5  -2 -10  134.93    6.39   0 
  -5  -1   3 1038.40   18.76   0 
  -4  -3 -12   37.19    6.00   0 
  -3  -6   8  330.30    7.71   0 
  -3  -4   7  125.88    6.08   0 
  -1  -6   7  251.34    7.06   0 
  -1  -4 -13   19.16    5.99   0 
  -1  -3 -12    3.51    5.40   0 
   0  -2 -10  155.74    6.52   0 
   1  -4 -12   55.12    5.86   0 
   1  -4   5  119.33    6.01   0 
   1  -3 -11   23.04    6.76   0 
   2  -3 -10   12.06    5.69   0 
   2  -1  -6 1424.06   15.21   0 
   3  -6   3    4.30    5.54   0 
   3  -4 -10   23.20    6.87   0 
   3  -2   0   16.05    8.48   0 
   4  -5  -9   80.41    7.72   0 
   4  -4  -8   65.27    8.22   0 
   4  -4   0    4.86    6.55   0 
   4  -3  -6   98.18    9.02   0 
 -10  -4   4  132.45   10.53   0 
  -7  -2  -9    6.26    7.03   0 
  -6  -6   8    4.80    5.27   0 
  -6  -1  -7   26.72    5.52   0 
  -5  -6   8   48.95    6.89   0 
  -5  -4   7    8.58    5.31   0 
  -5  -3 -12    8.77    5.54   0 
  -5  -3   6   55.89    7.16   0 
  -5  -1  -8   80.91    5.76   0 
  -5   0  -2  164.22    8.91   0 
  -4  -6   8    6.04    5.20   0 
  -4  -4   7   18.67    5.43   0 
  -4   0  -5   31.07    5.59   0 
  -3  -7   8   41.48    5.64   0 
  -3  -1  -9  213.51    6.84   0 
  -2  -5   7  152.48    6.24   0 
  -2  -2 -11  195.00    6.63   0 
  -2  -2   5 2039.13   15.96   0 
  -2   0  -6  494.87    8.71   0 
  -1  -8   7  107.57    6.76   0 
  -1  -7   7   16.24    5.34   0 
  -1  -1  -9  268.98    8.33   0 
  -1   0  -6  943.85   10.89   0 
   0  -5   6  527.40    8.67   0 
   0  -3   5  376.26    8.12   0 
   0  -2   4    7.42    5.50   0 
   1  -5   5 1030.13   11.93   0 
   2  -8   4   54.96    6.30   0 
   2  -5   4   12.99    5.49   0 
   2  -3   3  551.97    9.91   0 
   2  -1   0 4879.67   48.63   0 
   3  -5 -11   45.70    6.35   0 
   3  -3  -9   32.72    6.97   0 
   3  -2  -7   38.50    6.89   0 
   4  -8   0   30.02    7.67   0 
  -9  -6   7   11.59    6.07   0 
  -9  -4   5    4.61    6.72   0 
  -9  -2  -6   58.59    8.03   0 
  -7  -1  -6   45.54    7.29   0 
  -5   0  -4    8.26    7.23   0 
  -4  -7   8   20.20    5.75   0 
  -4  -3   6    3.52    4.95   0 
  -4  -2 -11   -0.64    5.50   0 
  -3  -3   6   21.68    5.14   0 
  -3  -2   5  769.63   11.11   0 
  -1  -4   6  860.92   10.26   0 
   0  -8   6   88.68    6.63   0 
   0  -7   6    6.60    5.59   0 
   0  -6   6    3.04    5.27   0 
   0  -3 -12  134.83    6.48   0 
   1  -8   5   67.89    6.58   0 
   1  -7   5   13.32    6.52   0 
   1  -6   5   58.91    6.93   0 
   1  -3   4  329.69    8.26   0 
   1  -2 -10   -0.26    4.87   0 
   1  -2   3  385.88    9.42   0 
   1  -1  -8   -1.48    4.94   0 
   1   0  -4   77.10    7.33   0 
   1   0  -2  908.86   19.94   0 
   2  -7   4    2.18    5.55   0 
   2  -6   4    6.41    5.62   0 
   2  -2  -9   35.39    5.63   0 
   3  -8   2   44.92    8.00   0 
  -9  -5   6    7.84    7.59   0 
  -7  -7   8   23.89    6.04   0 
  -7  -5   7   55.81    6.26   0 
  -7  -3   5   43.56    7.04   0 
  -6  -7   8   50.62    6.10   0 
  -5  -7   8   14.08    5.49   0 
  -5  -2 -11   10.39    5.31   0 
  -4  -8   8   -2.72    5.80   0 
  -3  -5   7   52.28    5.71   0 
  -2  -8   7   -6.38    6.94   0 
  -2  -7   7    0.94    5.67   0 
  -2  -6   7  242.92    7.44   0 
  -2  -3 -13   -0.33    5.83   0 
  -2   0  -7   66.32    5.55   0 
  -1  -1   3 2392.76   21.30   0 
   0  -2 -11   30.86    5.33   0 
   0  -1  -9   12.16    5.37   0 
   2  -4 -12   18.53    7.28   0 
   3  -5   2   20.78    6.98   0 
   3  -3   1 1005.82   14.83   0 
   4  -5   0    9.08    6.60   0 
   4  -3  -7  636.31   12.81   0 
  -7  -2 -10    5.29    5.90   0 
  -6  -5   7    4.64    5.36   0 
  -5  -1  -9  566.90    9.07   0 
  -5   0  -5  177.39    7.30   0 
  -4  -5   7  172.77    6.98   0 
  -3  -2 -12   -4.43    5.06   0 
  -3  -1 -10    9.01    5.37   0 
  -3   0  -7   42.95    5.49   0 
  -2  -4   6  129.85    6.44   0 
  -2  -1 -10    4.70    5.18   0 
  -1  -5   6   38.71    5.70   0 
  -1  -3 -13   -1.21    5.47   0 
  -1  -3   5  579.70    9.26   0 
   0  -4   5  235.12    6.79   0 
   1  -3 -12   29.82    6.12   0 
   1   0  -5  128.25    7.57   0 
   2  -3 -11   54.33    6.04   0 
  -9   2   1    3.33    4.88   0 
  -7 -10  -8   18.71    5.93   0 
  -7  -9  -8    0.46    5.58   0 
  -7   2   0  293.63    6.73   0 
  -7   3   2   85.28    5.16   0 
  -7   4   5   10.71    4.50   0 
  -6  -1  -4    1.39    5.41   0 
  -5 -10  -7    3.05    5.91   0 
  -5  -7  -7   76.04    6.27   0 
  -5   4   4    6.48    4.33   0 
  -4   4   4    5.96    4.44   0 
  -3   2   0   19.13    5.22   0 
  -2 -11  -3   62.04    5.06   0 
  -2   4   5   21.33    4.41   0 
  -1 -10  -2    7.03    4.53   0 
  -1   1   0 2658.19   25.76   0 
  -1   4   7   14.32    4.63   0 
  -1   4   8  296.85    8.07   0 
  -1   4   9   24.03    4.84   0 
   0 -10   1    7.38    4.49   0 
   1  -6   0  307.55    6.69   0 
   2  -6   5    5.44    5.80   0 
   2  -6   6   13.46    6.31   0 
   2  -5   3   18.18    4.52   0 
   2  -5   8    0.90    5.05   0 
   2  -3  10   57.68    8.11   0 
 -10  -1  -3   15.96    5.20   0 
  -8   1  -1    1.32    5.75   0 
  -8   3   3   28.54    4.85   0 
  -7  -8  -8   38.54    8.34   0 
  -7   4   6    3.93    4.65   0 
  -6   2   0   90.82    5.90   0 
  -6   3   2    0.36    4.47   0 
  -6   4   5  530.94    8.28   0 
  -4 -11  -6   11.14    4.89   0 
  -3 -11  -5   -1.47    5.88   0 
  -3   4   5  103.84    6.08   0 
  -2 -10  -4  219.31    6.10   0 
  -2  -7  -5  275.60    7.70   0 
  -2   4  11   44.52    5.24   0 
  -1 -11  -1   68.71    5.40   0 
  -1  -9  -3   38.80    4.86   0 
   0  -9  -1    7.10    4.61   0 
   0   3  10   15.82    5.38   0 
   1  -7   0   28.58    4.71   0 
   1   1   3 1844.75   38.74   0 
   2  -6   4   -1.41    4.71   0 
   2  -6   7   57.14    6.90   0 
   2  -5   9   41.69    7.60   0 
   2  -1   3  791.40   14.38   0 
 -10  -3  -5   -3.16    5.66   0 
 -10  -2  -4   11.24    6.21   0 
  -9   0  -2    5.42    5.03   0 
  -8   2   1   72.94    5.06   0 
  -7   4   7   12.99    5.06   0 
  -6   4   6  121.07    5.75   0 
  -5 -11  -7    5.38    4.72   0 
  -5   2   0    9.33    4.32   0 
  -5   3   2   37.90    4.72   0 
  -5   4   5 1146.37   10.56   0 
  -3  -8  -6  203.94    7.08   0 
  -3  -7  -6  319.05    8.25   0 
  -2  -8  -5  157.62    5.68   0 
  -2  -6  -5  139.23    5.77   0 
  -2   4   7  946.64   10.41   0 
  -2   4  10  120.08    5.91   0 
  -1  -6  -4  670.02    8.92   0 
  -1   3  12   32.72    6.28   0 
   0  -8  -2  364.09    6.78   0 
   0   2  12   85.92    8.11   0 
   0   3   6   28.13    6.05   0 
   1  -9   2   64.70    6.35   0 
   1  -9   3   -2.93    5.12   0 
   1  -5  -1 1175.95   11.10   0 
   1   2   9  803.20   15.60   0 
   2  -6   3   13.38    4.67   0 
   2  -4  10    7.67    6.56   0 
 -10   0  -1   56.00    6.56   0 
  -9  -4  -6  162.02   10.07   0 
  -9   1   0   45.70    6.24   0 
  -8   3   4    3.02    4.79   0 
  -7   1  -1    2.25    5.96   0 
  -7   3   3    0.68    4.36   0 
  -6   4   7   59.96    5.17   0 
  -5  -6  -7  446.38   12.16   0 
  -5   4   6  125.94    5.54   0 
  -4   4   6  807.13    9.86   0 
  -4   4  11   57.00    5.57   0 
  -3   1  -1 1582.54   15.69   0 
  -3   4   6    6.30    4.43   0 
  -3   4  10   23.31    5.82   0 
  -2 -11  -4    2.94    4.56   0 
  -2  -9  -5  154.91    5.71   0 
  -2  -5  -5  769.09   11.52   0 
  -2   2   1 1047.22   12.34   0 
  -2   3   3  230.93    6.63   0 
  -2   4   8   69.22    5.17   0 
  -2   4   9   39.51    5.02   0 
  -1 -11  -2   13.71    5.03   0 
  -1 -10  -3   64.35    5.24   0 
  -1  -8  -4    5.90    4.67   0 
  -1  -5  -4  379.14    7.94   0 
  -1   3   4 3981.10   21.40   0 
   0 -10  -1    8.31    5.93   0 
   0   1  13   38.84    9.00   0 
   0   3   7    1.79    5.70   0 
   0   3   8    7.30    5.72   0 
   0   3   9   28.88    6.66   0 
   1  -8   0  115.23    5.41   0 
   1  -6  -1  211.11    6.04   0 
   1  -4  -1  523.44    8.30   0 
   1   2   6  155.94    9.33   0 
   2  -7   4    5.61    4.73   0 
   2  -7   5   15.04    4.86   0 
   2  -7   6   19.35    6.35   0 
   2  -2   2 1194.40   13.85   0 
  -9  -1  -3   34.39    5.04   0 
  -8   0  -2  120.09    7.00   0 
  -8   3   5   59.30    5.41   0 
  -7   2   1   30.68    4.76   0 
  -6 -11  -8   34.28    6.70   0 
  -6  -9  -8   62.68    6.43   0 
  -6   3   3   39.43    4.77   0 
  -6   4   8   52.93    5.04   0 
  -6   4   9   16.10    5.10   0 
  -5   4   7   57.94    5.19   0 
  -5   4   8   75.85    6.06   0 
  -5   4   9   13.88    5.93   0 
  -4  -9  -7  325.56    8.39   0 
  -4  -8  -7  293.54    8.14   0 
  -4   4  10   32.94    5.19   0 
  -3 -10  -6   19.81    5.09   0 
  -3  -6  -6   46.86    5.09   0 
  -3   4   7   24.32    4.92   0 
  -3   4   9  113.17    5.78   0 
  -2 -10  -5    2.41    5.78   0 
  -1  -9  -4    5.97    4.83   0 
  -1  -1  -2  339.00   22.69   0 
  -1   2  13  145.31    8.97   0 
  -1   3  11   19.64    6.03   0 
   0  -7  -3   47.78    5.02   0 
   0  -6  -3    9.35    4.66   0 
   1  -9   1   53.05    5.23   0 
   1  -7  -1   26.62    5.01   0 
   1   0  12   98.96   14.14   0 
   1   1  11   60.34   10.12   0 
   1   2   8  689.43   14.46   0 
   2  -7   3   34.38    5.30   0 
   2  -4   1  990.91   10.70   0 
   2  -2  11   19.18   11.07   0 
   2   0   4  844.03   20.36   0 
  -9  -3  -5   88.48    8.07   0 
  -9  -2  -4   -0.48    5.78   0 
  -9   2   3   34.02    5.31   0 
  -8   2   2   17.82    4.57   0 
  -8   3   6    3.24    5.17   0 
  -7   3   4    0.49    4.55   0 
  -6  -8  -8   55.01    7.70   0 
  -6   1  -1  216.09    6.45   0 
  -6   2   1   46.05    5.64   0 
  -5   3   3   53.12    5.08   0 
  -4 -10  -7  311.28    7.39   0 
  -4   1  -1   99.72    7.18   0 
  -4   3   3   53.83    5.10   0 
  -4   4   8   66.17    5.14   0 
  -4   4   9   11.84    4.94   0 
  -3   3   3  257.82    6.61   0 
  -2   3  12   14.21    6.56   0 
  -1 -11  -3   14.62    5.10   0 
  -1   2   2    7.34    6.52   0 
   1  -8  -1  267.20    7.15   0 
   1  -3  -1  146.13    6.65   0 
   1   2   7  452.62   12.25   0 
   2  -7   2    4.85    4.84   0 
   2  -3   1   41.41    5.71   0 
 -10  -1  -2    1.28    6.51   0 
  -8  -1  -3  317.47    8.52   0 
  -8   1   0   -0.33    4.51   0 
  -7   0  -2  140.87    7.09   0 
  -7   3   5   21.43    5.05   0 
  -6   3   4   42.70    4.92   0 
  -5   1  -1   74.47    5.18   0 
  -5   2   1   40.39    5.50   0 
  -4  -7  -7   59.59    6.27   0 
  -3   0  -2 5413.90   33.69   0 
  -3   2   1   18.54    5.03   0 
  -2 -11  -5   23.09    4.84   0 
  -2   3   4  413.92    8.00   0 
  -1 -10  -4    4.42    4.91   0 
  -1  -4  -4    3.95    5.16   0 
  -1   3   5  204.02    7.02   0 
  -1   3  10    7.04    5.95   0 
   0 -10  -2  239.99    6.62   0 
   0  -4  -3  636.18    9.91   0 
   0   2  11   33.44    7.44   0 
   2  -8   3   15.09    4.96   0 
   2  -8   4   58.52    5.31   0 
   2  -7   1    7.33    5.65   0 
   3  -3   6  105.48    7.49   0 
 -10  -6  -7  102.02   12.13   0 
 -10   0   0    6.52    6.05   0 
  -9   1   1  118.59    5.85   0 
  -9   2   4    1.02    4.75   0 
  -8  -4  -6    2.58    8.89   0 
  -8   2   3  241.59    7.52   0 
  -7  -7  -8    4.01    9.34   0 
  -7   2   2   51.36    5.05   0 
  -7   3   6   -2.81    4.86   0 
  -5   3   4  330.92    6.88   0 
  -4   2   1   16.39    5.14   0 
  -3   3   4 1556.42   13.05   0 
  -3   3  12    5.30    5.26   0 
  -2   3  11   52.54    6.59   0 
   0  -9  -3   46.81    4.95   0 
   1  -9  -1    0.04    4.60   0 
   1  -6  -2    7.74    4.68   0 
   1  -5  -2  229.41    6.64   0 
   2  -8   2   38.78    5.02   0 
   2  -5   0   12.46    4.46   0 
   3  -4   4   56.06    6.46   0 
   3  -4   6    6.89    5.91   0 
   3  -4   7   28.19    6.31   0 
   3  -3   5   28.22    6.41   0 
   3  -3   7   62.65    6.55   0 
 -10  -2  -3   98.22    7.36   0 
  -9   2   5    4.44    4.93   0 
  -8  -2  -4   77.56    6.43   0 
  -7   3   7   59.95    5.04   0 
  -7   3   8   -0.58    4.80   0 
  -6   0  -2  143.85    7.17   0 
  -6   3   5  203.95    5.99   0 
  -5 -11  -8   12.98    5.71   0 
  -5  -9  -8  104.22    6.90   0 
  -4   3   4  184.48    6.03   0 
  -3  -5  -6  656.09   12.04   0 
  -2  -9  -6   34.11    4.87   0 
  -2  -7  -6  125.55    7.20   0 
  -2   3   5  910.93   11.03   0 
  -1 -11  -4    6.69    4.87   0 
  -1  -9  -5   93.39    5.92   0 
  -1  -8  -5  791.11    9.13   0 
  -1  -7  -5 1650.75   12.70   0 
  -1   2  12  103.53    8.03   0 
  -1   3   8  163.55    7.36   0 
  -1   3   9  156.85    6.40   0 
   0 -10  -3   38.81    5.09   0 
   1 -10   0   -1.01    5.16   0 
   1  -8  -2  106.36    5.44   0 
   1  -4  -2  610.88    8.92   0 
   2  -8   1    9.69    5.12   0 
   2  -7   0   37.10    6.11   0 
   2  -4   0  261.31    7.01   0 
   2  -1   2  272.14   10.07   0 
   3  -5   5   37.31    5.38   0 
   3  -5   6    7.75    4.90   0 
   3  -2   5   12.62    6.70   0 
   3  -2   6  489.64   10.80   0 
   3  -2   7  222.88    9.26   0 
  -9   1   2   93.61    5.40   0 
  -8  -3  -5  171.62    8.90   0 
  -8   0  -1    7.64    5.72   0 
  -8   2   4   16.17    4.83   0 
  -7  -1  -3   -1.25    6.02   0 
  -6   2   2    8.00    4.40   0 
  -6   3   6   55.93    5.13   0 
  -6   3   7   19.16    5.72   0 
  -6   3   9   -0.46    5.62   0 
  -5  -8  -8    3.43    6.58   0 
  -5   3   5   13.33    4.73   0 
  -4  -6  -7   66.38    7.44   0 
  -4   0  -2 2367.31   19.96   0 
  -4   3  11    3.54    4.87   0 
  -3 -10  -7  375.54    7.50   0 
  -3  -9  -7    2.47    4.97   0 
  -3  -8  -7   24.16    5.87   0 
  -3  -1  -3  250.25   12.58   0 
  -2 -10  -6  644.08    8.84   0 
  -2   2   2 1706.88   14.81   0 
  -2   3  10   20.82    6.07   0 
  -1  -6  -5  118.03    5.50   0 
  -1  -2  -3 3027.30   30.59   0 
   0  -8  -4  161.32    5.97   0 
   0  -7  -4  375.02    7.01   0 
   0  -6  -4  192.35    5.90   0 
   0   2   4   90.14    7.00   0 
   1 -10  -1   84.82    5.65   0 
   2  -9   2   54.10    5.85   0 
   3  -6   4  161.92    7.31   0 
   3  -6   5    7.85    6.29   0 
   3  -6   6    8.83    6.72   0 
   3  -5   7    6.87    5.28   0 
   3  -4   3  205.75    6.70   0 
   3  -4   8    5.23    6.15   0 
   3  -3   8    4.75    6.09   0 
 -11  -2  -2    9.39    5.45   0 
 -10   0   1   60.38    6.79   0 
  -9  -1  -2   78.21    5.47   0 
  -7   2   3  164.96    5.82   0 
  -6  -7  -8   86.45    9.34   0 
  -6   3   8    5.57    4.81   0 
  -5   2   2  475.93    7.84   0 
  -5   3   6  216.31    6.33   0 
  -5   3  10    4.48    5.06   0 
  -4   3   5   15.66    4.67   0 
  -3 -11  -7   58.01    5.42   0 
  -3   3   5  286.04    6.52   0 
  -3   3  10   19.72    6.10   0 
  -2 -11  -6   -1.35    5.37   0 
  -2  -6  -6   77.76    6.55   0 
  -2   3   6  118.38    5.78   0 
  -2   3   9  127.40    6.81   0 
   0  -9  -4    6.84    4.50   0 
   0   1  12   49.04    8.67   0 
   0   2  10  151.38    8.11   0 
   1  -9  -2   20.88    5.26   0 
   1  -2  -1   13.87    7.03   0 
   2  -9   1   77.22    5.73   0 
   2  -8   0   34.04    4.86   0 
   2  -5  -1 1162.61   11.32   0 
   2  -3   0    2.84    5.46   0 
   3  -6   3   11.38    4.89   0 
   3  -5   8   82.91    7.30   0 
   3  -3   3   10.62    4.79   0 
   3  -2   4  220.36    8.09   0 
   3  -2   8  106.67    8.43   0 
 -10  -1  -1  237.08    7.04   0 
  -9   1   3   55.66    6.17   0 
  -8   2   5   10.71    4.90   0 
  -8   2   6   10.87    5.84   0 
  -7  -4  -6   15.70    9.13   0 
  -7  -2  -4    9.21    6.80   0 
  -7   2   4   15.18    5.60   0 
  -6  -1  -3   27.69    5.95   0 
  -6   2   3   30.01    5.74   0 
  -5   3   7  173.20    6.08   0 
  -5   3   8   16.48    4.51   0 
  -5   3   9   13.87    4.65   0 
  -4 -11  -8   -2.37    6.24   0 
  -4 -10  -8    9.74    6.76   0 
  -4  -9  -8    3.92    5.72   0 
  -4  -4  -6   13.13    9.91   0 
  -4   2   2  667.57    9.08   0 
  -4   3   7  617.30    9.35   0 
  -4   3   9   18.61    5.28   0 
  -3   3   6    1.61    4.34   0 
  -3   3   9   34.10    5.81   0 
  -2   3   7    7.07    4.44   0 
  -2   3   8    5.41    4.99   0 
  -1  -5  -5  148.59    6.25   0 
  -1   1  13   27.68    7.88   0 
  -1   2   3   11.67    5.84   0 
   0 -10  -4   11.88    5.04   0 
   0  -3  -3 1242.13   14.21   0 
   1 -10  -2  117.88    5.99   0 
   1  -7  -3    5.44    4.64   0 
   1  -6  -3   71.12    5.27   0 
   1   1  10   18.62    9.33   0 
   2  -9   0   20.70    5.92   0 
   2  -7  -1  362.69    7.30   0 
   3  -7   3    2.02    5.98   0 
   3  -7   4   36.21    5.45   0 
   3  -7   5    4.92    5.46   0 
   3  -6   2    8.04    4.63   0 
   3  -4   2  273.55    6.76   0 
   3  -4   9   49.06    8.15   0 
   3  -3   9  150.13    9.38   0 
 -11  -3  -3    9.75    6.23   0 
 -10  -4  -5  274.36    9.11   0 
  -9  -2  -3   29.73    6.21   0 
  -8  -9  -9    5.92    8.56   0 
  -8   1   2   15.71    4.90   0 
  -8   2   7   -1.56    4.93   0 
  -7   0  -1    0.21    5.59   0 
  -7   1   1  158.48    5.69   0 
  -6 -10  -9  164.24    8.16   0 
  -4   3   8  235.76    6.25   0 
  -3   1   0  937.46   12.23   0 
  -3   3   8  405.75    7.69   0 
  -2   2  12   50.12    7.14   0 
  -1   2  11    3.20    5.75   0 
   0   2   9   29.98    6.99   0 
   1  -9  -3   42.08    5.08   0 
   1  -5  -3 2182.00   14.53   0 
   1  -3  -2  729.82   10.46   0 
   2  -8  -1    5.98    4.76   0 
   2  -4  -1  367.20    7.43   0 
   3  -3   2    1.90    5.79   0 
   3  -2   3   30.83    6.28   0 
   3  -1   6  365.34   11.21   0 
  -9   1   4   12.97    4.85   0 
  -7  -9  -9    3.70    7.70   0 
  -7  -3  -5   54.29    7.68   0 
  -7   2   5  233.64    6.28   0 
  -6   2   4   30.39    5.87   0 
  -5  -7  -8   21.75    7.04   0 
  -5  -1  -3  163.49    7.86   0 
  -5   2   3   77.59    5.15   0 
  -4  -8  -8   43.64    6.05   0 
  -4  -1  -3   55.75    7.95   0 
  -4   2  12    5.27    6.34   0 
  -3  -3  -5  349.82   16.86   0 
  -3   2  12   40.99    7.11   0 
  -2 -10  -7    7.90    6.06   0 
  -1 -10  -6   28.83    6.16   0 
  -1  -9  -6  106.75    5.61   0 
  -1  -8  -6   -0.23    4.43   0 
   0  -9  -5   21.22    5.85   0 
   0  -8  -5    5.97    4.45   0 
   0  -7  -5   15.04    5.69   0 
   2  -9  -1  126.12    6.07   0 
   3  -8   3    1.24    5.20   0 
   3  -7   1   23.05    5.76   0 
   3  -6   1   22.10    4.68   0 
   3  -5   1    6.82    4.45   0 
   3  -4   1  252.57    6.54   0 
   3  -2   9   12.41    9.29   0 
   3  -1   5  200.70    9.54   0 
   3  -1   7    1.47    7.17   0 
 -11  -4  -4    4.34    7.17   0 
 -11  -2  -1    7.43    5.30   0 
 -10  -1   0   74.38    6.94   0 
  -9  -1  -1    3.08    6.15   0 
  -9   0   1   86.06    5.79   0 
  -9   1   5   13.70    4.99   0 
  -8   1   3  106.28    5.37   0 
  -7   2   6   57.29    5.04   0 
  -7   2   7   28.37    4.85   0 
  -7   2   8  120.26    5.89   0 
  -7   2   9   13.67    4.94   0 
  -6  -9  -9   79.31    8.01   0 
  -6  -2  -4  291.75   10.22   0 
  -6   1   1   -3.51    4.23   0 
  -4   2   3  183.99    6.14   0 
  -2  -5  -6  827.20   12.13   0 
  -2   2   3 3753.50   20.93   0 
  -1 -11  -6   21.17    6.31   0 
  -1  -7  -6  168.41    6.07   0 
  -1   1   1  375.78   12.51   0 
   0   2   6  890.52   13.24   0 
   1  -4  -3   46.63    5.32   0 
   2  -8  -2   61.21    5.20   0 
   2  -7  -2   11.09    4.89   0 
   2  -6  -2    9.95    5.03   0 
   2  -2   0  992.10   12.79   0 
   3  -8   2   45.47    5.67   0 
 -10   0   3   21.22    5.30   0 
  -9  -3  -4  297.20    9.21   0 
  -9   1   6    9.65    5.19   0 
  -7   1   2  296.03    6.92   0 
  -6   0  -1  100.96    5.66   0 
  -6   2   5   54.16    5.08   0 
  -5 -10  -9   11.62    6.37   0 
  -5   2   4  215.10    6.31   0 
  -5   2  11  149.16    6.29   0 
  -4   2  11   54.35    6.56   0 
  -3 -11  -8   13.03    5.14   0 
  -3 -10  -8    4.86    4.97   0 
  -3  -9  -8   84.81    6.55   0 
  -3  -6  -7   77.65    6.71   0 
  -3   2   3  685.51    9.57   0 
  -3   2  11  326.61    8.89   0 
  -1   2   4   74.13    6.43   0 
   0  -6  -5    2.65    4.34   0 
   0   1   2 6615.16   47.78   0 
   0   2   7  427.12   10.23   0 
   1  -9  -4   11.14    4.73   0 
   1  -8  -4  179.08    5.98   0 
   1  -7  -4   11.03    4.61   0 
   1  -6  -4   13.26    4.69   0 
   2  -9  -2   70.40    5.54   0 
   2  -3  -1 1195.17   12.09   0 
   2   0   3 3379.63   36.93   0 
   3  -7   0   15.66    4.85   0 
   3  -6   0  214.06    6.54   0 
   3  -5   0  247.72    6.38   0 
   3  -3   1  991.00   11.86   0 
   3  -1   4  462.10   11.27   0 
   3  -1   8    1.34    9.34   0 
 -11  -5  -5    3.84    7.53   0 
 -10   0   4    8.11    5.23   0 
  -9  -6  -7    6.12    9.68   0 
  -9   0   2    5.42    4.80   0 
  -8   1   4    7.34    4.76   0 
  -7  -1  -2  228.70    8.02   0 
  -6  -4  -6   76.10   12.68   0 
  -6   2   6  204.24    6.34   0 
  -6   2   7   16.25    4.73   0 
  -6   2   8   46.89    5.25   0 
  -6   2   9   17.85    5.04   0 
  -5  -5  -7   39.30   11.22   0 
  -5   1   1 1018.22   10.81   0 
  -5   2  10   20.04    5.17   0 
  -2  -7  -7   63.70    5.38   0 
  -1  -6  -6  199.27    7.03   0 
  -1  -4  -5   20.54    6.36   0 
  -1   1  12  138.66    8.55   0 
   0   1  11   55.11    7.95   0 
   1 -10  -4   78.21    5.61   0 
   2  -1   1  375.33   10.44   0 
   3  -8   0   88.68    5.65   0 
   3  -4   0  417.23    7.67   0 
   3  -3  10   72.04    9.96   0 
   3  -2   2 2390.18   18.22   0 
 -11  -3  -2   30.36    6.95   0 
 -11  -2   0    7.50    6.50   0 
 -10  -3  -3   64.69    7.01   0 
 -10  -1   1  184.50    7.46   0 
  -9  -4  -5   38.83    7.79   0 
  -8  -2  -3  172.98    7.65   0 
  -8   0   1  118.13    5.63   0 
  -8   1   5   25.19    4.88   0 
  -7   0   0   65.82    5.29   0 
  -7   1   3  716.93    9.14   0 
  -6  -3  -5   16.21    7.66   0 
  -6   1   2   17.80    5.14   0 
  -5  -9  -9    2.29    6.21   0 
  -5  -2  -4    3.34    7.17   0 
  -5   0  -1  109.89    6.43   0 
  -5   2   5    7.61    4.80   0 
  -5   2   9   30.64    5.21   0 
  -4  -7  -8  168.07    7.76   0 
  -4   2   4  248.30    6.60   0 
  -4   2  10  355.13    7.63   0 
  -3  -8  -8    2.56    6.11   0 
  -3   2   4  146.43    6.40   0 
  -3   2  10  176.54    7.92   0 
  -2   2  10   17.66    5.29   0 
  -1   2   5 1674.28   16.41   0 
   0  -5  -5  237.02    7.83   0 
   1   1   9  260.11   11.47   0 
   2  -8  -3  190.13    6.25   0 
   2  -7  -3  328.63    6.89   0 
   3  -7  -1   17.87    4.54   0 
   3  -6  -1   64.43    5.40   0 
   4  -6   5   51.69    7.12   0 
   4  -5   3    1.95    6.40   0 
   4  -5   4    7.01    5.18   0 
   4  -5   5   31.13    5.36   0 
   4  -5   6   44.80    7.13   0 
   4  -4   4   27.07    6.23   0 
   4  -4   5    5.59    5.91   0 
   4  -4   6    0.26    6.22   0 
 -10  -2  -1    0.00    6.23   0 
  -9  -5  -6    5.10    8.57   0 
  -9  -2  -2  114.73    7.28   0 
  -9  -1   0   12.34    6.21   0 
  -9   0   3   80.11    5.68   0 
  -8  -1  -1  475.89    9.33   0 
  -8   1   6   49.56    5.70   0 
  -8   1   7   28.55    5.41   0 
  -8   1   8    2.51    5.01   0 
  -5   2   6    6.11    4.66   0 
  -5   2   8    4.06    4.58   0 
  -4 -10  -9  146.52    8.20   0 
  -4  -2  -4  118.35   11.80   0 
  -4   1   1  132.82    6.54   0 
  -4   2   5  507.12    8.15   0 
  -4   2   9   43.05    6.23   0 
  -3  -4  -6 1133.11   19.09   0 
  -3   1   1 3676.98   22.43   0 
  -2   1   1 3734.57   24.84   0 
  -2   2   9   37.70    6.32   0 
  -1 -10  -7    3.52    5.27   0 
  -1  -9  -7   43.38    5.42   0 
  -1  -8  -7  241.05    7.81   0 
  -1   2   8 1032.10   13.16   0 
   0 -10  -6    9.70    5.16   0 
   0  -9  -6    3.59    5.15   0 
   0  -8  -6    3.50    4.69   0 
   1  -8  -5   74.65    6.25   0 
   2  -9  -3  126.28    5.88   0 
   3  -8  -1    9.84    5.09   0 
   4  -6   3    2.77    4.91   0 
   4  -5   7   15.70    6.91   0 
   4  -4   3   51.56    5.24   0 
   4  -4   7    5.38    6.10   0 
   4  -3   5  103.04    7.02   0 
   4  -3   6   30.58    6.25   0 
  -7   1   4  509.48    8.01   0 
  -4  -5  -7   42.42    8.93   0 
  -4   2   6   42.66    5.18   0 
  -4   2   7    4.41    4.65   0 
  -4   2   8   44.73    5.05   0 
  -3   2   5    2.82    4.91   0 
  -3   2   9   30.27    5.27   0 
  -2 -10  -8   -1.10    5.37   0 
  -2  -9  -8    4.28    6.30   0 
  -2  -6  -7   76.20    6.87   0 
  -2   1  12  131.63    8.03   0 
  -2   2   5 1462.73   14.52   0 
  -1   2   7   17.72    5.43   0 
   0  -7  -6    4.67    4.90   0 
   1 -10  -5    9.00    5.17   0 
   1  -9  -5   -2.82    4.80   0 
   1  -7  -5   87.02    5.64   0 
   1  -2  -2    9.65    6.96   0 
   1   0  11  202.53   12.27   0 
   1   1   4  796.44   22.18   0 
   2  -5  -3  389.71    7.37   0 
   3  -9  -1    2.94    5.32   0 
   3  -4  -1   92.35    6.66   0 
   3  -3   0 1083.96   11.69   0 
   3  -2   1  154.24    7.97   0 
   3  -1   3   12.17    6.28   0 
   4  -7   3   74.64    6.07   0 
   4  -6   2   79.94    5.89   0 
   4  -5   2   64.00    5.39   0 
   4  -3   4    6.64    5.24   0 
   4  -3   7  573.55   12.47   0 
 -11  -2   1   24.29    5.71   0 
 -10  -4  -4   12.93    6.37   0 
 -10  -1   2  148.21    6.20   0 
  -8  -3  -4   82.69    7.71   0 
  -8   0   2   49.06    5.73   0 
  -7  -8  -9   16.60   10.16   0 
  -7   0   1   53.48    6.16   0 
  -7   1   5   64.41    5.42   0 
  -7   1   8   29.31    6.30   0 
  -7   1   9   74.76    5.93   0 
  -6  -8  -9    2.41    8.07   0 
  -6  -1  -2  985.19   12.64   0 
  -6   1   3   54.92    5.31   0 
  -5   1   2  525.44    8.45   0 
  -4  -9  -9   22.79    6.60   0 
  -3  -7  -8  159.12    7.66   0 
  -3   0  -1  741.45   12.80   0 
  -3   1  12    7.75    5.56   0 
  -3   2   6  120.98    5.84   0 
  -3   2   7   37.80    5.03   0 
  -3   2   8   25.32    4.88   0 
  -2   2   6   12.29    5.16   0 
  -2   2   7 2298.26   16.10   0 
  -2   2   8  437.36    8.48   0 
  -1  -7  -7    5.01    6.33   0 
  -1  -5  -6  107.06    6.30   0 
  -1   1  11    7.47    7.27   0 
   0   0  12    4.73    8.49   0 
   1  -6  -5   30.22    4.89   0 
   2  -9  -4   53.94    6.87   0 
   2  -8  -4   24.74    5.11   0 
   2  -7  -4    7.16    5.00   0 
   2  -3  -2  123.14    6.05   0 
   3  -8  -2    8.84    5.26   0 
   3  -6  -2   51.12    5.39   0 
   4  -7   1   16.45    5.34   0 
   4  -6   1   83.77    5.69   0 
   4  -5   1  114.23    5.64   0 
   4  -4   8    1.81    7.38   0 
   4  -3   3    1.90    5.27   0 
 -11  -4  -3    2.71    5.69   0 
 -11  -3  -1    4.34    6.15   0 
  -9   0   5   -0.56    5.57   0 
  -9   0   6   33.15    5.35   0 
  -7  -2  -3   14.33    6.33   0 
  -7   1   6  922.52   10.33   0 
  -7   1   7  148.25    6.02   0 
  -6   1   4  883.22   10.63   0 
  -6   1  10   37.68    5.54   0 
  -5  -8  -9    6.74    7.43   0 
  -5   1  11    3.09    4.85   0 
  -3 -10  -9    6.09    6.72   0 
  -2  -8  -8   35.67    5.44   0 
   0  -6  -6    7.27    4.79   0 
   0  -3  -4  274.24    8.43   0 
   0  -2  -3 1427.49   18.32   0 
   0   1  10  283.50   10.09   0 
   1  -4  -4  133.75    6.40   0 
   1   1   8  168.66   10.29   0 
   2  -6  -4   38.68    5.03   0 
   3  -9  -2   62.54    6.01   0 
   4  -4   1   63.96    6.17   0 
   4  -3   2  481.47    9.81   0 
   4  -2   5   72.79    6.91   0 
   4  -2   6  134.66    8.15   0 
 -11  -2   2   20.95    5.23   0 
 -10  -3  -2   25.22    6.36   0 
 -10  -2   0  130.67    6.01   0 
 -10  -1   4  176.80    7.41   0 
  -9  -3  -3   70.78    6.72   0 
  -8  -1   0   34.04    6.65   0 
  -8   0   3   51.36    5.14   0 
  -7  -1  -1  200.88    7.48   0 
  -6   1   9  102.26    5.93   0 
  -5   1   3    0.75    4.66   0 
  -4   1   2 1232.17   12.09   0 
  -4   1  11   85.88    5.99   0 
  -3  -9  -9   33.48    6.59   0 
  -3   1  11   30.83    6.60   0 
  -2  -3  -5   56.07    8.46   0 
  -2   1  11   31.18    6.36   0 
   0 -10  -7    2.67    5.24   0 
   0  -9  -7  274.61    7.08   0 
   0  -4  -5 2142.73   17.30   0 
   1 -10  -6    6.88    6.35   0 
   1  -9  -6   71.29    5.31   0 
   1  -8  -6   53.76    6.03   0 
   3  -8  -3   11.50    6.23   0 
   3  -7  -3   -0.03    5.71   0 
   4  -8   0   32.48    6.58   0 
   4  -7   0   57.17    5.59   0 
   4  -5   0    5.04    4.78   0 
   4  -3   8   80.94    8.46   0 
   4  -2   4   77.84    6.49   0 
 -10  -5  -5   59.67    7.09   0 
 -10  -1   5   87.85    6.07   0 
  -9  -2  -1    2.74    5.02   0 
  -8  -2  -2   24.23    6.34   0 
  -8   0   4   57.95    5.09   0 
  -7   0   2  191.79    6.08   0 
  -6   1   5  121.59    5.62   0 
  -6   1   6   83.84    5.80   0 
  -6   1   7  339.31    7.30   0 
  -6   1   8   -1.22    4.83   0 
  -5   1  10   78.64    5.72   0 
  -4  -8  -9  122.12    7.60   0 
  -3  -5  -7 1704.02   19.14   0 
  -3   1   2  295.65    7.99   0 
  -2  -4  -6   16.43    7.22   0 
  -1  -9  -8  142.12    6.23   0 
  -1  -6  -7   36.56    6.59   0 
  -1   1   2 2881.03   25.27   0 
   0  -8  -7    2.00    4.95   0 
   1  -7  -6   46.38    6.00   0 
   1  -5  -5   98.99    5.59   0 
   1  -1  -1  374.29   12.75   0 
   2  -9  -5    8.12    6.12   0 
   2  -8  -5    9.67    5.93   0 
   3  -9  -3   32.05    5.67   0 
   3  -3  -1    2.60    5.02   0 
   3  -1   2  457.35   10.04   0 
   4  -7  -1   76.80    6.44   0 
   4  -2   3  378.92    9.29   0 
   4  -2   7    3.38    7.27   0 
 -11  -5  -4   20.95    6.51   0 
 -11  -3   0   72.77    6.49   0 
 -11  -2   3    7.25    5.42   0 
  -8   0   5   34.84    5.12   0 
  -8   0   6   31.97    6.53   0 
  -8   0   7   52.48    5.62   0 
  -8   0   8  204.62    6.77   0 
  -6   0   1   42.71    5.09   0 
  -5  -1  -2  961.52   12.95   0 
  -5   1   4  167.11    6.07   0 
  -4   1  10   66.99    5.80   0 
  -2 -10  -9   -1.29    6.74   0 
  -2  -7  -8  190.70    7.00   0 
  -2   1   2    1.96    6.69   0 
  -1  -8  -8  181.27    7.84   0 
   0  -7  -7  175.42    7.35   0 
   2  -7  -5   13.15    4.88   0 
   2  -1   0 5167.23   30.37   0 
   3  -2   0   21.23    5.83   0 
   4  -8  -1    7.82    5.13   0 
   4  -6  -1   10.82    4.83   0 
   4  -5  -1  432.74    8.86   0 
   4  -4   0    7.17    4.70   0 
   4  -3   1 1083.80   11.34   0 
  -9  -1   3   -0.47    4.89   0 
  -7   0   3   99.30    5.57   0 
  -7   0  10    8.65    5.19   0 
  -5   1   5  184.34    6.26   0 
  -5   1   8    3.70    4.59   0 
  -4   1   3  460.29    8.19   0 
  -3   1  10  111.65    6.42   0 
   0  -5  -6 1709.22   14.00   0 
   3  -8  -4    6.54    5.26   0 
   3  -5  -3    4.17    5.04   0 
   5  -6   3    5.46    5.32   0 
   5  -6   4   44.00    6.23   0 
   5  -5   3    5.86    5.20   0 
   5  -5   4   28.22    5.88   0 
;
_shelx_hkl_checksum              97498
loop_
_space_group_symop_operation_xyz
'x, y, z'
'-x, -y, -z'
loop_
_atom_site_label
_atom_site_type_symbol
_atom_site_fract_x
_atom_site_fract_y
_atom_site_fract_z
_atom_site_U_iso_or_equiv
_atom_site_adp_type
_atom_site_occupancy
_atom_site_site_symmetry_order
_atom_site_calc_flag
_atom_site_refinement_flags_posn
_atom_site_refinement_flags_adp
Si1 Si 0.37897(6) 0.35221(6) 0.19154(5) 0.02903(11) Uani 1 1 d . .
Cl11 Cl 0.36984(8) 0.57391(6) 0.16654(5) 0.04891(14) Uani 1 1 d . .
Cl12 Cl 0.61874(6) 0.19272(7) 0.17598(6) 0.04965(13) Uani 1 1 d . .
Cl13 Cl 0.23580(7) 0.37047(7) 0.03518(5) 0.04551(12) Uani 1 1 d . .
Si2 Si 0.24082(6) 0.03638(6) 0.29742(5) 0.03109(11) Uani 1 1 d . .
Cl21 Cl 0.24874(8) -0.16354(7) 0.42751(6) 0.05441(15) Uani 1 1 d . .
Cl22 Cl 0.02466(7) 0.14156(7) 0.18161(6) 0.05280(14) Uani 1 1 d . .
Cl23 Cl 0.43009(6) -0.05101(6) 0.17723(5) 0.04486(12) Uani 1 1 d . .
C1 C 0.2992(2) 0.2991(2) 0.35589(16) 0.0264(3) Uani 1 1 d . .
C2 C 0.2477(2) 0.17712(19) 0.39632(16) 0.0270(3) Uani 1 1 d . .
C3 C 0.1851(2) 0.1623(2) 0.52379(17) 0.0304(3) Uani 1 1 d . .
H3 H 0.150758 0.081009 0.551211 0.036 Uiso 1 1 calc R U
C4 C 0.1704(2) 0.2608(2) 0.61284(16) 0.0295(3) Uani 1 1 d . .
C5 C 0.2248(2) 0.3772(2) 0.57420(17) 0.0309(3) Uani 1 1 d . .
C6 C 0.2866(2) 0.3944(2) 0.44734(17) 0.0307(3) Uani 1 1 d . .
H6 H 0.322123 0.475060 0.421673 0.037 Uiso 1 1 calc R U
C7 C 0.0999(2) 0.2370(2) 0.74771(18) 0.0390(4) Uani 1 1 d . .
H7A H 0.188380 0.190614 0.819959 0.058 Uiso 1 1 calc R U
H7B H 0.053046 0.162557 0.750110 0.058 Uiso 1 1 calc R U
H7C H 0.012446 0.342277 0.760570 0.058 Uiso 1 1 calc R U
C8 C 0.2159(3) 0.4854(2) 0.66640(19) 0.0446(5) Uani 1 1 d . .
H8A H 0.100913 0.545514 0.689238 0.067 Uiso 1 1 calc R U
H8B H 0.254241 0.562706 0.620569 0.067 Uiso 1 1 calc R U
H8C H 0.286904 0.418305 0.749178 0.067 Uiso 1 1 calc R U
loop_
_atom_site_aniso_label
_atom_site_aniso_U_11
_atom_site_aniso_U_22
_atom_site_aniso_U_33
_atom_site_aniso_U_23
_atom_site_aniso_U_13
_atom_site_aniso_U_12
Si1 0.0323(2) 0.0328(2) 0.0239(2) -0.00368(18) 0.00317(17) -0.01801(19)
Cl11 0.0730(4) 0.0436(3) 0.0428(3) -0.0075(2) 0.0160(2) -0.0396(3)
Cl12 0.0320(2) 0.0526(3) 0.0551(3) -0.0025(2) 0.0104(2) -0.0169(2)
Cl13 0.0535(3) 0.0565(3) 0.0265(2) -0.0037(2) -0.00675(18) -0.0275(2)
Si2 0.0338(2) 0.0318(2) 0.0350(2) -0.01268(19) 0.00459(19) -0.0193(2)
Cl21 0.0833(4) 0.0407(3) 0.0552(3) -0.0127(2) 0.0141(3) -0.0419(3)
Cl22 0.0389(3) 0.0581(3) 0.0689(4) -0.0234(3) -0.0083(2) -0.0242(2)
Cl23 0.0438(3) 0.0419(2) 0.0521(3) -0.0223(2) 0.0153(2) -0.0187(2)
C1 0.0282(8) 0.0291(8) 0.0235(7) -0.0043(6) 0.0013(6) -0.0154(6)
C2 0.0276(8) 0.0267(7) 0.0280(8) -0.0065(6) 0.0008(6) -0.0136(6)
C3 0.0338(8) 0.0314(8) 0.0295(8) -0.0052(7) 0.0040(6) -0.0190(7)
C4 0.0291(8) 0.0312(8) 0.0252(8) -0.0043(6) 0.0020(6) -0.0125(7)
C5 0.0381(9) 0.0262(8) 0.0258(8) -0.0056(6) -0.0017(6) -0.0128(7)
C6 0.0414(9) 0.0281(8) 0.0264(8) -0.0037(6) -0.0008(7) -0.0202(7)
C7 0.0418(10) 0.0437(10) 0.0295(9) -0.0090(8) 0.0105(7) -0.0188(8)
C8 0.0729(14) 0.0358(9) 0.0291(9) -0.0106(8) 0.0042(9) -0.0274(10)
loop_
_atom_type_symbol
_atom_type_description
_atom_type_scat_dispersion_real
_atom_type_scat_dispersion_imag
_atom_type_scat_source
C C 0.0033 0.0016 'International Tables Vol C Tables 4.2.6.8 and 6.1.1.4'
H H 0.0000 0.0000 'International Tables Vol C Tables 4.2.6.8 and 6.1.1.4'
Cl Cl 0.1484 0.1585 'International Tables Vol C Tables 4.2.6.8 and 6.1.1.4'
Si Si 0.0817 0.0704 'International Tables Vol C Tables 4.2.6.8 and 6.1.1.4'
loop_
_geom_angle_atom_site_label_1
_geom_angle_atom_site_label_2
_geom_angle_atom_site_label_3
_geom_angle
C1 Si1 Cl12 113.04(6)
C1 Si1 Cl13 110.99(5)
Cl12 Si1 Cl13 109.67(3)
C1 Si1 Cl11 110.71(5)
Cl12 Si1 Cl11 106.11(3)
Cl13 Si1 Cl11 105.97(3)
C2 Si2 Cl23 115.89(6)
C2 Si2 Cl22 111.36(6)
Cl23 Si2 Cl22 107.93(3)
C2 Si2 Cl21 109.18(6)
Cl23 Si2 Cl21 105.73(3)
Cl22 Si2 Cl21 106.19(3)
C6 C1 C2 117.68(15)
C6 C1 Si1 114.73(12)
C2 C1 Si1 127.58(12)
C3 C2 C1 117.94(14)
C3 C2 Si2 113.51(12)
C1 C2 Si2 128.46(12)
C4 C3 C2 123.58(15)
C4 C3 H3 118.2
C2 C3 H3 118.2
C5 C4 C3 118.24(15)
C5 C4 C7 121.92(15)
C3 C4 C7 119.83(16)
C4 C5 C6 119.00(14)
C4 C5 C8 121.13(16)
C6 C5 C8 119.87(16)
C5 C6 C1 123.52(15)
C5 C6 H6 118.2
C1 C6 H6 118.2
C4 C7 H7A 109.5
C4 C7 H7B 109.5
H7A C7 H7B 109.5
C4 C7 H7C 109.5
H7A C7 H7C 109.5
H7B C7 H7C 109.5
C5 C8 H8A 109.5
C5 C8 H8B 109.5
H8A C8 H8B 109.5
C5 C8 H8C 109.5
H8A C8 H8C 109.5
H8B C8 H8C 109.5
loop_
_geom_bond_atom_site_label_1
_geom_bond_atom_site_label_2
_geom_bond_distance
Si1 C1 1.8610(17)
Si1 Cl12 2.0229(7)
Si1 Cl13 2.0244(7)
Si1 Cl11 2.0334(7)
Si2 C2 1.8653(16)
Si2 Cl23 2.0253(7)
Si2 Cl22 2.0270(8)
Si2 Cl21 2.0423(7)
C1 C6 1.400(2)
C1 C2 1.424(2)
C2 C3 1.402(2)
C3 C4 1.400(2)
C3 H3 0.9500
C4 C5 1.392(2)
C4 C7 1.510(2)
C5 C6 1.396(2)
C5 C8 1.511(2)
C6 H6 0.9500
C7 H7A 0.9800
C7 H7B 0.9800
C7 H7C 0.9800
C8 H8A 0.9800
C8 H8B 0.9800
C8 H8C 0.9800
loop_
_geom_torsion_atom_site_label_1
_geom_torsion_atom_site_label_2
_geom_torsion_atom_site_label_3
_geom_torsion_atom_site_label_4
_geom_torsion
Cl12 Si1 C1 C6 103.68(13)
Cl13 Si1 C1 C6 -132.61(12)
Cl11 Si1 C1 C6 -15.21(14)
Cl12 Si1 C1 C2 -77.71(15)
Cl13 Si1 C1 C2 46.00(16)
Cl11 Si1 C1 C2 163.39(13)
C6 C1 C2 C3 1.1(2)
Si1 C1 C2 C3 -177.45(13)
C6 C1 C2 Si2 177.47(13)
Si1 C1 C2 Si2 -1.1(2)
Cl23 Si2 C2 C3 -145.60(11)
Cl22 Si2 C2 C3 90.54(13)
Cl21 Si2 C2 C3 -26.39(14)
Cl23 Si2 C2 C1 37.93(17)
Cl22 Si2 C2 C1 -85.94(15)
Cl21 Si2 C2 C1 157.13(14)
C1 C2 C3 C4 0.1(3)
Si2 C2 C3 C4 -176.79(14)
C2 C3 C4 C5 -1.6(3)
C2 C3 C4 C7 179.41(17)
C3 C4 C5 C6 1.9(3)
C7 C4 C5 C6 -179.16(17)
C3 C4 C5 C8 -178.76(17)
C7 C4 C5 C8 0.2(3)
C4 C5 C6 C1 -0.7(3)
C8 C5 C6 C1 179.93(18)
C2 C1 C6 C5 -0.8(3)
Si1 C1 C6 C5 177.92(14)
