#------------------------------------------------------------------------------
#$Date: 2019-11-26 03:38:48 +0200 (Tue, 26 Nov 2019) $
#$Revision: 242524 $
#$URL: file:///home/coder/svn-repositories/cod/cif/4/13/25/4132568.cif $
#------------------------------------------------------------------------------
#
# This file is available in the Crystallography Open Database (COD),
# http://www.crystallography.net/
#
# All data on this site have been placed in the public domain by the
# contributors.
#
data_4132568
loop_
_publ_author_name
'Yuan, Shuai'
'Zhang, Peng'
'Zhang, Liangliang'
'Garcia-Esparza, Angel T'
'Sokaras, Dimosthenis'
'Qin, Jun-Sheng'
'Feng, Liang'
'Day, Gregory S.'
'Chen, Wenmiao'
'Drake, Hannah F.'
'Elumalai, Palani'
'Madrahimov, Sherzod T.'
'Sun, Daofeng'
'Zhou, Hong-Cai'
_publ_section_title
;
 Exposed Equatorial Positions of Metal Centers via Sequential Ligand
 Elimination and Installation in MOFs.
;
_journal_issue                   34
_journal_name_full               'Journal of the American Chemical Society'
_journal_page_first              10814
_journal_page_last               10819
_journal_paper_doi               10.1021/jacs.8b04886
_journal_volume                  140
_journal_year                    2018
_chemical_formula_moiety         'C12 H10 Cl2 N2 O4 Pd, 2(C2 H6 O S)'
_chemical_formula_sum            'C16 H22 Cl2 N2 O6 Pd S2'
_chemical_formula_weight         579.77
_space_group_crystal_system      triclinic
_space_group_IT_number           2
_space_group_name_Hall           '-P 1'
_space_group_name_H-M_alt        'P -1'
_atom_sites_solution_hydrogens   geom
_atom_sites_solution_primary     iterative
_audit_creation_date             2018-05-04
_audit_creation_method
;
Olex2 1.2
(compiled 2018.04.26 svn.r3504 for OlexSys, GUI svn.r5492)
;
_cell_angle_alpha                99.2697(18)
_cell_angle_beta                 101.0558(19)
_cell_angle_gamma                98.754(2)
_cell_formula_units_Z            1
_cell_length_a                   5.5954(4)
_cell_length_b                   8.3386(6)
_cell_length_c                   12.7456(8)
_cell_measurement_reflns_used    6736
_cell_measurement_temperature    110(2)
_cell_measurement_theta_max      27.569
_cell_measurement_theta_min      2.521
_cell_volume                     565.64(7)
_computing_cell_refinement       'SAINT v8.37A (Bruker, 2015)'
_computing_data_reduction        'SAINT v8.37A (Bruker, 2015)'
_computing_molecular_graphics    'Olex2 (Dolomanov et al., 2009)'
_computing_publication_material  'Olex2 (Dolomanov et al., 2009)'
_computing_structure_refinement  'XL (Sheldrick, 2008)'
_computing_structure_solution
;
Superflip (Palatinus & Chapuis, 2007;Palatinus & van der Lee, 2008;
Palatinus et al., 2012)
;
_diffrn_ambient_temperature      110.0
_diffrn_detector                 'Bruker APEX2 area detector'
_diffrn_detector_area_resol_mean 7.9
_diffrn_detector_type            'CCD area detector'
_diffrn_measured_fraction_theta_full 0.998
_diffrn_measured_fraction_theta_max 0.989
_diffrn_measurement_device       'three-circle diffractometer'
_diffrn_measurement_device_type  'Bruker SMART APEX2 area detector'
_diffrn_measurement_method       '\w and \f scans'
_diffrn_radiation_monochromator  'mirror optics'
_diffrn_radiation_probe          x-ray
_diffrn_radiation_type           MoK\a
_diffrn_radiation_wavelength     0.71073
_diffrn_reflns_av_R_equivalents  0.0195
_diffrn_reflns_av_unetI/netI     0.0219
_diffrn_reflns_Laue_measured_fraction_full 0.998
_diffrn_reflns_Laue_measured_fraction_max 0.989
_diffrn_reflns_limit_h_max       7
_diffrn_reflns_limit_h_min       -7
_diffrn_reflns_limit_k_max       10
_diffrn_reflns_limit_k_min       -10
_diffrn_reflns_limit_l_max       16
_diffrn_reflns_limit_l_min       -16
_diffrn_reflns_number            7643
_diffrn_reflns_point_group_measured_fraction_full 0.998
_diffrn_reflns_point_group_measured_fraction_max 0.989
_diffrn_reflns_theta_full        25.242
_diffrn_reflns_theta_max         27.569
_diffrn_reflns_theta_min         2.520
_diffrn_source                   'microfocus sealed X-ray tube'
_diffrn_source_type              'Incoatec I\ms'
_exptl_absorpt_coefficient_mu    1.275
_exptl_absorpt_correction_T_max  0.7456
_exptl_absorpt_correction_T_min  0.6323
_exptl_absorpt_correction_type   multi-scan
_exptl_crystal_colour            yellow
_exptl_crystal_colour_primary    yellow
_exptl_crystal_density_diffrn    1.702
_exptl_crystal_description       needle
_exptl_crystal_F_000             292
_exptl_crystal_size_max          0.12
_exptl_crystal_size_mid          0.05
_exptl_crystal_size_min          0.04
_refine_diff_density_max         0.385
_refine_diff_density_min         -0.865
_refine_diff_density_rms         0.140
_refine_ls_extinction_method     none
_refine_ls_goodness_of_fit_ref   1.244
_refine_ls_hydrogen_treatment    constr
_refine_ls_matrix_type           full
_refine_ls_number_parameters     136
_refine_ls_number_reflns         2590
_refine_ls_number_restraints     0
_refine_ls_restrained_S_all      1.244
_refine_ls_R_factor_all          0.0250
_refine_ls_R_factor_gt           0.0228
_refine_ls_shift/su_max          0.000
_refine_ls_shift/su_mean         0.000
_refine_ls_structure_factor_coef Fsqd
_refine_ls_weighting_details
'w=1/[\s^2^(Fo^2^)+(0.0266P)^2^+0.2841P] where P=(Fo^2^+2Fc^2^)/3'
_refine_ls_weighting_scheme      calc
_refine_ls_wR_factor_gt          0.0593
_refine_ls_wR_factor_ref         0.0605
_reflns_Friedel_coverage         0.000
_reflns_number_gt                2451
_reflns_number_total             2590
_reflns_threshold_expression     'I > 2\s(I)'
_cod_data_source_file            ja8b04886_si_002.cif
_cod_data_source_block           PdINA
_cod_database_code               4132568
_shelx_shelxl_version_number     2014/7
_shelx_space_group_comment
;
The symmetry employed for this shelxl refinement is uniquely defined
by the following loop, which should always be used as a source of
symmetry information in preference to the above space-group names.
They are only intended as comments.
;
_shelx_estimated_absorpt_t_max   0.951
_shelx_estimated_absorpt_t_min   0.862
_olex2_refinement_description
;
1. Fixed Uiso
 At 1.2 times of:
  All C(H) groups
 At 1.5 times of:
  All C(H,H,H) groups, All O(H) groups
2.a Aromatic/amide H refined with riding coordinates:
 C5(H5), C4(H4), C3(H3), C6(H6)
2.b Idealised Me refined as rotating group:
 C15(H15a,H15b,H15c), C25(H25a,H25b,H25c)
2.c Idealised tetrahedral OH refined as rotating group:
 O2(H2)
;
_shelx_res_file
;
    PdINA.res created by SHELXL-2014/7

TITL PdINA in P-1
CELL 0.71073 5.5954 8.3386 12.7456 99.2697 101.0558 98.7538
ZERR 1 0.0004 0.0006 0.0008 0.0018 0.0019 0.002
LATT 1
SFAC C H Cl N O Pd S
UNIT 16 22 2 2 6 1 2

L.S. 99
PLAN  5
SIZE 0.04 0.05 0.12
TEMP -163.15
fmap 2
acta
REM <olex2.extras>
REM <HklSrc "%.\\PdINA.hkl">
REM </olex2.extras>

WGHT    0.026600    0.284100
FVAR       0.89527
PD1   6    0.000000    0.000000    0.000000    10.50000    0.01101    0.01571 =
         0.01150    0.00437   -0.00012   -0.00060
CL1   3   -0.005254    0.276565    0.007166    11.00000    0.01799    0.01668 =
         0.02043    0.00567    0.00052    0.00023
S4    7    0.706164    0.608922    0.287326    11.00000    0.01721    0.01932 =
         0.02111    0.00355   -0.00165    0.00046
O3    5    0.843075    0.787306    0.324953    11.00000    0.02417    0.02128 =
         0.01654    0.00421   -0.00308   -0.00502
O1    5    1.069806    0.275424    0.414064    11.00000    0.01574    0.03695 =
         0.02019    0.00829   -0.00127   -0.00607
O2    5    0.817839    0.138323    0.500854    11.00000    0.01613    0.03170 =
         0.01333    0.00600   -0.00175   -0.00352
AFIX 147
H2    2    0.940561    0.167878    0.553859    11.00000   -1.50000
AFIX   0
N1    4    0.280275    0.056600    0.132858    11.00000    0.01281    0.01618 =
         0.01415    0.00506    0.00072    0.00029
C5    1    0.246833    0.012618    0.227065    11.00000    0.01306    0.01917 =
         0.01765    0.00653    0.00310    0.00024
AFIX  43
H5    2    0.091012   -0.048950    0.229294    11.00000   -1.20000
AFIX   0
C4    1    0.501753    0.141994    0.129415    11.00000    0.01537    0.01886 =
         0.01451    0.00464    0.00264    0.00083
AFIX  43
H4    2    0.524579    0.173178    0.063011    11.00000   -1.20000
AFIX   0
C15   1    0.544350    0.600368    0.151955    11.00000    0.02876    0.04183 =
         0.01726    0.00192   -0.00394   -0.01054
AFIX 137
H15A  2    0.456789    0.693463    0.150140    11.00000   -1.50000
H15B  2    0.424316    0.496077    0.126483    11.00000   -1.50000
H15C  2    0.662503    0.606835    0.104417    11.00000   -1.50000
AFIX   0
C3    1    0.696801    0.185716    0.219279    11.00000    0.01341    0.01819 =
         0.01647    0.00395    0.00298    0.00067
AFIX  43
H3    2    0.852484    0.244564    0.214590    11.00000   -1.20000
AFIX   0
C1    1    0.874040    0.193427    0.415617    11.00000    0.01664    0.01966 =
         0.01438    0.00221    0.00036    0.00334
C2    1    0.661936    0.142245    0.316980    11.00000    0.01351    0.01672 =
         0.01441    0.00289    0.00071    0.00359
C6    1    0.433299    0.054838    0.320229    11.00000    0.01666    0.02073 =
         0.01454    0.00536    0.00272    0.00155
AFIX  43
H6    2    0.405098    0.024198    0.386092    11.00000   -1.20000
AFIX   0
C25   1    0.450136    0.592621    0.350759    11.00000    0.03483    0.04343 =
         0.03432    0.00789    0.01470   -0.00829
AFIX 137
H25A  2    0.510384    0.618694    0.430132    11.00000   -1.50000
H25B  2    0.353615    0.479605    0.328585    11.00000   -1.50000
H25C  2    0.344920    0.670556    0.328614    11.00000   -1.50000
AFIX   0
HKLF 4

REM  PdINA in P-1
REM R1 =  0.0228 for    2451 Fo > 4sig(Fo)  and  0.0250 for all    2590 data
REM    136 parameters refined using      0 restraints

END

WGHT      0.0266      0.2841

REM Highest difference peak  0.385,  deepest hole -0.865,  1-sigma level  0.140
Q1    1   0.4673  0.5744  0.5352  11.00000  0.05    0.39
Q2    1   0.6903  0.5430  0.1189  11.00000  0.05    0.34
Q3    1   0.8573  0.4650  0.1841  11.00000  0.05    0.32
Q4    1   0.9909  0.4301  0.2473  11.00000  0.05    0.32
Q5    1   0.3605  0.2654  0.0122  11.00000  0.05    0.31
;
_shelx_res_checksum              66371
_shelx_hkl_file
;
  -1   0   0 1203.33 30.1769   1
  -1   0   0 1461.60 31.3186   2
   1   0   0 1444.51 30.3326   1
  -2   0   0 1220.23 29.9756   2
   2   0   0 1253.80 28.1818   1
   2   0   0 1181.55 29.9150   2
  -3   0   0 1549.09 36.6310   1
  -3   0   0 1521.25 39.0286   2
   3   0   0 1580.61 38.8397   2
  -4   0   0 1693.63 40.9731   1
  -4   0   0 1691.27 44.3495   2
   4   0   0 1695.78 40.2741   1
  -5   0   0 119.440 6.52564   1
  -5   0   0 118.943 8.47217   2
   5   0   0 111.644 6.22796   1
  -6   0   0 589.427 18.9001   1
  -6   0   0 600.393 23.4270   2
  -7   1   0 28.5100 5.11350   1
  -6   1   0 70.7711 8.95201   2
  -6   1   0 69.8795 6.65521   1
   5  -1   0 732.310 21.5037   1
  -5   1   0 757.528 22.2402   1
  -5   1   0 765.470 25.1446   2
   4  -1   0 589.232 17.0703   1
   4  -1   0 567.845 19.3346   2
  -4   1   0 580.643 19.4122   2
  -4   1   0 610.734 17.6557   1
   3  -1   0 176.102 7.99726   2
   3  -1   0 168.384 6.70747   1
  -3   1   0 172.538 6.86413   1
  -3   1   0 172.282 7.82870   2
   2  -1   0 406.775 12.5055   2
   2  -1   0 414.339 11.3277   1
  -2   1   0 389.356 12.0107   2
  -2   1   0 405.895 11.4033   1
   1  -1   0 2081.35 46.1285   1
   1  -1   0 2024.94 46.2752   2
   1  -1   0 2133.49 46.5843   2
   0  -1   0 1186.58 28.6323   1
   0  -1   0 1424.95 28.5740   2
  -1  -1   0 1214.17 26.3665   1
   1   1   0 1185.69 27.4686   2
   1   1   0 1201.18 26.3026   1
  -2  -1   0 258.423 9.03147   2
  -2  -1   0 264.900 7.33177   1
   2   1   0 261.076 7.08285   1
   2   1   0 259.018 8.68308   2
  -3  -1   0 240.502 7.60777   1
  -3  -1   0 229.873 9.65112   2
   3   1   0 236.930 7.29188   1
   3   1   0 224.611 9.14480   2
  -4  -1   0 154.104 6.28927   1
  -4  -1   0 142.594 8.42141   2
   4   1   0 153.081 5.97258   1
   4   1   0 134.511 7.67537   2
  -5  -1   0 227.450 8.95966   1
  -5  -1   0 225.339 12.0408   2
   5   1   0 225.785 8.62868   1
  -6  -1   0 314.674 16.3483   2
  -6  -1   0 293.289 11.3447   1
   7  -2   0 17.5771 6.17780   2
  -7   2   0 19.2187 5.05109   1
  -6   2   0 65.9670 6.95821   1
   5  -2   0 201.488 9.27057   1
  -5   2   0 209.391 10.8950   2
  -5   2   0 212.003 9.86068   1
   4  -2   0 61.3130 5.92736   2
   4  -2   0 59.8555 4.82244   1
  -4   2   0 61.5253 4.75690   1
  -4   2   0 58.0730 5.29629   2
   3  -2   0 734.666 20.0227   1
   3  -2   0 726.794 21.5428   2
  -3   2   0 728.594 20.1414   1
   2  -2   0 61.3950 3.61232   2
   2  -2   0 64.5210 4.02978   2
   2  -2   0 62.2883 3.60049   1
  -2   2   0 65.6705 3.70267   1
   1  -2   0 2968.96 63.7545   1
   1  -2   0 2895.94 63.1378   2
   1  -2   0 2749.93 61.7925   3
  -1   2   0 2822.34 63.3931   2
  -1   2   0 2877.88 63.6151   1
   0  -2   0 19.6158 1.41891   2
   0  -2   0 21.4022 1.16521   3
   0  -2   0 22.0078 1.55857   1
   0   2   0 18.3636 1.44639   1
   0   2   0 21.4242 1.04177   3
   0   2   0 20.5946 1.42611   2
  -1  -2   0 232.835 6.17546   1
  -1  -2   0 237.471 7.41181   2
   1   2   0 245.957 6.39396   1
   1   2   0 241.960 7.00010   2
   1   2   0 242.915 7.12289   3
  -2  -2   0 1.80863 0.59224   1
  -2  -2   0 2.69638 0.95658   2
   2   2   0 2.24005 0.64343   1
   2   2   0 2.90759 1.06976   2
  -3  -2   0 97.8153 6.06799   2
  -3  -2   0 105.791 4.19503   1
   3   2   0 99.7568 3.89289   1
   3   2   0 97.5600 5.41339   2
  -4  -2   0 1008.86 25.1003   1
  -4  -2   0 1018.49 30.1981   2
   4   2   0 1003.42 24.4933   1
  -5  -2   0 28.4031 4.99489   2
  -5  -2   0 27.1596 3.76870   1
   5   2   0 31.0251 3.87866   1
  -6  -2   0 26.9448 5.73221   2
   7  -3   0 328.928 17.7244   2
  -7   3   0 331.897 15.6381   1
   6  -3   0 37.6511 7.30384   2
  -6   3   0 32.0365 6.27112   1
   5  -3   0 772.013 25.0076   2
  -5   3   0 757.473 23.6548   1
   4  -3   0 2099.35 51.9843   2
   4  -3   0 2049.79 53.0707   2
   4  -3   0 2052.69 50.7759   1
  -4   3   0 2087.96 51.1786   1
   3  -3   0 986.006 26.5298   2
   3  -3   0 999.129 27.6142   2
   3  -3   0 968.054 26.1869   1
  -3   3   0 983.573 26.3498   1
   2  -3   0 148.361 6.11214   2
   2  -3   0 155.048 6.63281   1
  -2   3   0 144.582 6.36403   1
  -2   3   0 147.880 6.63150   2
   1  -3   0 2631.60 57.1685   3
   1  -3   0 2587.54 58.7983   2
   1  -3   0 2685.22 60.1955   1
  -1   3   0 2698.38 60.0002   1
   0  -3   0 1142.56 25.7550   3
   0  -3   0 1147.96 26.6482   2
   0  -3   0 1161.40 27.0968   1
   0   3   0 1130.03 25.3929   3
   0   3   0 1216.44 27.1586   1
   0   3   0 1091.30 27.3458   2
  -1  -3   0 370.995 9.59765   1
  -1  -3   0 353.164 9.39993   1
  -1  -3   0 361.783 10.6849   2
   1   3   0 354.246 9.92752   2
   1   3   0 351.112 9.90539   3
  -2  -3   0 2972.60 68.3797   2
  -2  -3   0 2931.43 64.5716   1
   2   3   0 2970.16 67.0418   3
   2   3   0 2936.90 66.5481   2
   2   3   0 2939.31 64.7844   1
  -3  -3   0 2758.83 65.9687   2
  -3  -3   0 2702.36 61.0409   1
   3   3   0 2711.31 63.3693   2
   3   3   0 2676.58 63.9157   3
   3   3   0 2780.52 60.3028   1
  -4  -3   0 520.878 14.0992   1
   4   3   0 526.502 13.8547   1
  -5  -3   0 135.717 9.95349   2
  -5  -3   0 141.083 5.98395   1
  -6  -3   0 241.402 15.0422   2
  -7   4   0 114.500 10.7603   1
   6  -4   0 77.9278 8.19281   2
  -6   4   0 57.9518 6.90649   1
   5  -4   0 1173.46 33.9455   2
  -5   4   0 1166.09 33.4547   1
   4  -4   0 523.888 17.5350   2
   4  -4   0 510.890 19.4445   1
  -4   4   0 528.889 17.7874   1
   3  -4   0 993.790 28.1083   2
   3  -4   0 995.616 24.2345   3
   3  -4   0 1013.10 26.8513   2
  -3   4   0 984.040 27.3068   1
   2  -4   0 1704.30 41.5709   1
   2  -4   0 1721.42 40.2765   2
   2  -4   0 1684.20 37.7970   3
  -2   4   0 1659.90 41.3891   2
  -2   4   0 1713.68 41.4779   1
   1  -4   0 5319.95 116.428   1
   1  -4   0 5152.67 112.732   3
   1  -4   0 5189.72 114.713   2
  -1   4   0 5261.48 115.873   2
  -1   4   0 5361.00 116.280   1
   0  -4   0 529.038 14.1685   2
   0  -4   0 550.799 15.9047   1
   0  -4   0 524.594 13.1281   3
   0   4   0 545.737 14.3604   2
   0   4   0 528.901 12.5716   3
   0   4   0 542.356 14.6521   1
  -1  -4   0 2358.97 55.5504   2
  -1  -4   0 2477.34 54.0926   1
  -1  -4   0 2435.33 54.1952   1
   1   4   0 2421.58 54.0502   3
   1   4   0 2354.39 54.4005   2
  -2  -4   0 1853.34 45.7021   2
  -2  -4   0 1866.88 41.9330   1
  -2  -4   0 1831.82 42.4157   1
   2   4   0 1882.29 43.9129   3
   2   4   0 1836.93 43.4256   2
  -3  -4   0 557.787 18.9400   2
  -3  -4   0 551.662 14.5137   1
   3   4   0 528.618 16.8143   3
  -4  -4   0 356.549 15.6072   2
  -5  -4   0 675.380 25.5919   2
   6  -5   0 49.8399 6.51002   3
   6  -5   0 54.7675 7.95846   2
  -6   5   0 63.0689 8.24315   1
   5  -5   0 6.43498 2.58130   3
  -5   5   0 0.65500 3.19872   1
   4  -5   0 125.547 7.48063   2
   4  -5   0 125.100 5.63943   3
  -4   5   0 133.248 8.17673   1
   3  -5   0 207.591 9.64236   1
   3  -5   0 238.885 9.32944   2
   3  -5   0 219.782 6.99087   3
  -3   5   0 241.594 10.1485   1
  -3   5   0 203.486 9.88261   2
   2  -5   0 9.28875 2.14703   1
   2  -5   0 6.21208 0.99160   3
   2  -5   0 7.01110 1.35209   2
  -2   5   0 5.76817 1.82462   1
  -2   5   0 4.88107 2.02036   2
   1  -5   0 585.376 15.9856   2
   1  -5   0 599.151 17.5716   1
  -1   5   0 585.903 17.1457   2
  -1   5   0 621.551 17.4613   1
   0  -5   0 1621.34 38.5243   2
   0  -5   0 1634.71 39.2313   1
   0   5   0 1668.12 39.1404   1
   0   5   0 1602.07 38.6935   2
   0   5   0 1645.97 36.1497   3
  -1  -5   0 125.567 5.34735   1
  -1  -5   0 124.738 6.06218   2
  -1  -5   0 122.119 5.06207   1
   1   5   0 113.642 5.37823   3
   1   5   0 126.455 5.40737   2
  -2  -5   0 9.64671 1.57590   1
  -2  -5   0 9.53018 1.66909   1
   2   5   0 5.54393 1.42406   2
   2   5   0 8.66360 2.00344   3
  -3  -5   0 109.197 4.51264   1
  -3  -5   0 116.634 8.08806   2
  -3  -5   0 109.699 4.37496   1
   3   5   0 102.261 6.52500   3
  -4  -5   0 219.106 12.8368   2
  -5  -5   0 -4.7665 4.86251   2
   6  -6   0 47.1660 6.70812   3
   6  -6   0 40.0294 5.63197   2
  -6   6   0 53.4546 9.24143   1
   5  -6   0 199.359 8.34541   3
   5  -6   0 195.745 10.6081   2
  -5   6   0 205.718 11.6450   1
   4  -6   0 101.892 6.94558   2
   4  -6   0 105.098 5.04965   3
  -4   6   0 114.219 7.79480   1
   3  -6   0 -1.9299 1.58932   2
   3  -6   0 1.20759 1.13192   3
  -3   6   0 6.06764 2.34944   1
   2  -6   0 10.4480 2.59031   1
   2  -6   0 12.7143 2.39554   2
   2  -6   0 16.0599 1.53266   3
  -2   6   0 16.6550 3.03054   1
  -2   6   0 11.5558 2.99182   2
   1  -6   0 1298.35 33.7262   1
   1  -6   0 1314.09 31.7663   2
  -1   6   0 1230.65 33.1049   2
  -1   6   0 1329.92 33.5244   1
   0  -6   0 92.2190 5.39012   1
   0  -6   0 94.6837 4.94388   2
   0   6   0 96.8835 3.26758   3
   0   6   0 90.5338 5.14722   2
   0   6   0 92.7445 5.13355   1
  -1  -6   0 7.09153 1.50310   1
  -1  -6   0 7.27824 1.87746   2
  -1  -6   0 10.5328 1.97440   1
   1   6   0 6.45024 1.42989   3
  -2  -6   0 275.500 8.65603   1
  -2  -6   0 283.816 9.20026   1
   2   6   0 269.188 9.57126   3
  -3  -6   0 232.739 7.56617   1
  -3  -6   0 225.827 7.36116   1
  -3  -6   0 252.793 12.5801   2
  -4  -6   0 65.5086 8.80906   2
   6  -7   0 641.064 19.0706   3
   6  -7   0 580.115 22.0905   2
  -6   7   0 623.077 23.4941   1
   5  -7   0 430.531 13.3827   3
   5  -7   0 452.115 16.8630   2
  -5   7   0 433.487 18.4962   1
   4  -7   0 204.044 9.83548   2
   4  -7   0 214.577 7.31818   3
  -4   7   0 211.580 11.2857   1
   3  -7   0 786.853 22.1469   2
   3  -7   0 758.621 18.4286   3
  -3   7   0 752.672 24.0641   1
   2  -7   0 1080.10 28.7612   2
  -2   7   0 1112.37 30.7236   1
   1  -7   0 255.811 10.8563   1
   1  -7   0 260.060 9.51046   2
  -1   7   0 272.065 10.9674   1
   0  -7   0 1022.43 26.7667   2
   0  -7   0 980.162 27.1348   1
   0  -7   0 1003.99 27.3942   1
  -1  -7   0 1169.72 29.6021   1
  -1  -7   0 1135.15 29.8947   1
  -1  -7   0 1192.74 31.9245   2
   1   7   0 1162.14 27.5172   3
  -2  -7   0 636.323 17.4480   1
  -2  -7   0 626.932 21.5329   2
  -2  -7   0 607.595 16.7394   1
   2   7   0 640.119 17.6760   3
  -3  -7   0 328.172 15.9934   2
  -4  -7   0 964.989 33.6586   2
   5  -8   0 228.433 11.2692   2
  -5   8   0 216.767 13.4837   1
   4  -8   0 497.833 13.7066   3
   4  -8   0 516.681 17.5352   2
  -4   8   0 534.735 20.2086   1
   3  -8   0 195.156 8.78493   2
  -3   8   0 187.367 10.5908   1
   2  -8   0 74.0105 5.05990   2
  -2   8   0 56.1962 6.10901   1
   1  -8   0 405.506 13.3735   2
  -1   8   0 383.913 14.6444   1
   0  -8   0 419.792 15.1932   1
   0  -8   0 465.256 15.2088   2
   0  -8   0 447.487 15.3492   1
  -1  -8   0 116.196 6.15213   1
  -1  -8   0 112.824 6.92181   1
  -1  -8   0 122.690 7.60903   2
  -2  -8   0 254.339 13.0111   2
  -2  -8   0 261.414 8.92698   1
  -3  -8   0 352.733 17.6333   2
   4  -9   0 2.07634 3.08051   2
  -4   9   0 5.53677 4.75702   1
   3  -9   0 4.46783 2.57906   2
  -3   9   0 2.37375 4.17967   1
   2  -9   0 87.2313 5.77740   2
  -2   9   0 72.0111 7.46842   1
   1  -9   0 82.6247 5.84553   2
   0  -9   0 65.2012 5.69845   2
   0  -9   0 65.7870 6.15640   1
  -1  -9   0 127.751 8.69268   2
  -1  -9   0 118.527 6.62018   1
  -2  -9   0 48.1754 7.89024   2
   3 -10   0 186.200 9.41164   2
  -3  10   0 201.511 12.4829   1
   2 -10   0 78.3193 6.30016   2
  -2  10   0 81.2128 9.20738   1
   1 -10   0 118.428 7.48353   2
   1 -10   0 124.368 8.90621   1
   0 -10   0 253.695 11.5074   1
   0 -10   0 265.333 12.1149   2
  -1 -10   0 245.531 19.0543   2
  -1 -10   1 -3.3735 3.85791   2
   0 -10   1 114.553 7.91841   2
   0 -10   1 95.2393 7.50319   1
   1 -10   1 335.245 13.1406   2
  -2  10  -1 51.6300 8.26181   1
   2 -10   1 40.1041 5.49248   2
  -3  10  -1 133.877 10.3716   1
   3 -10   1 121.033 7.78120   2
  -1  -9   1 35.6201 6.18012   2
  -1  -9   1 25.3628 4.25041   1
   0  -9   1 118.844 7.39315   2
   0  -9   1 127.894 7.41586   1
  -1   9  -1 4.90330 3.32350   1
   1  -9   1 6.71498 2.22731   2
  -2   9  -1 114.023 8.33521   1
   2  -9   1 107.519 6.34203   2
  -3   9  -1 75.2975 8.20107   1
   3  -9   1 84.1459 6.47727   2
  -4   9  -1 18.8001 5.04734   1
  -3  -8   1 111.994 10.3319   2
  -2  -8   1 855.702 22.0266   1
  -2  -8   1 896.465 28.3112   2
   1   8  -1 228.484 7.25209   3
  -1  -8   1 210.375 8.51551   1
  -1  -8   1 216.275 9.08990   1
  -1  -8   1 230.815 10.7587   2
   0   8  -1 264.783 7.39663   3
   0  -8   1 238.486 10.5834   1
   0  -8   1 268.467 10.5173   2
  -1   8  -1 677.141 21.1724   1
   1  -8   1 670.789 19.5723   2
  -2   8  -1 305.259 12.8806   1
   2  -8   1 298.528 8.95872   3
   2  -8   1 310.213 11.2683   2
  -3   8  -1 23.6727 4.31989   1
   3  -8   1 21.8249 2.84888   3
   3  -8   1 32.5952 4.15592   2
  -4   8  -1 101.603 9.32634   1
   4  -8   1 99.2429 5.14858   3
   4  -8   1 112.892 7.21156   2
  -5   8  -1 225.694 13.8921   1
   5  -8   1 223.205 11.4152   2
  -4  -7   1 348.130 17.7567   2
  -3  -7   1 711.915 25.4374   2
   2   7  -1 540.474 15.6268   3
  -2  -7   1 529.690 14.7605   1
  -2  -7   1 535.285 19.1712   2
  -2  -7   1 534.679 14.3009   1
   1   7  -1 251.748 7.82633   3
  -1  -7   1 238.087 8.80432   1
  -1  -7   1 241.561 10.7470   2
  -1  -7   1 255.161 9.28133   1
   0   7  -1 2109.35 48.1833   1
   0   7  -1 1725.72 45.4456   3
   0  -7   1 1984.13 48.1815   1
   0  -7   1 2107.11 47.9918   2
  -1   7  -1 349.443 9.35843   3
  -1   7  -1 356.395 12.8049   1
   1  -7   1 362.122 9.97512   3
   1  -7   1 355.131 11.5687   2
   1  -7   1 324.321 12.7761   1
  -2   7  -1 217.282 10.2018   1
   2  -7   1 229.485 8.91249   2
   2  -7   1 228.842 6.92569   3
  -3   7  -1 748.104 24.0314   1
   3  -7   1 757.548 21.7106   2
   3  -7   1 752.724 19.1180   3
  -4   7  -1 1073.71 32.9786   1
   4  -7   1 1123.81 27.1521   3
   4  -7   1 1128.90 30.8832   2
  -5   7  -1 83.4220 9.74130   1
   5  -7   1 106.187 8.16401   2
  -6   7  -1 211.184 13.6712   1
   6  -7   1 183.338 10.2617   3
   6  -7   1 174.768 11.7568   2
  -5  -6   1 60.7039 10.2877   2
  -4  -6   1 72.3794 8.09930   2
  -3  -6   1 -0.8534 2.75552   2
   2   6  -1 245.360 8.88560   3
  -2  -6   1 246.185 7.77716   1
  -2  -6   1 229.202 10.8452   2
  -2  -6   1 237.729 7.27879   1
   1   6  -1 306.534 10.5927   2
   1   6  -1 326.562 9.53996   3
  -1  -6   1 323.076 10.1675   1
  -1  -6   1 323.887 10.3701   1
  -1  -6   1 327.589 11.8022   2
   0   6  -1 7.95668 1.82923   2
   0   6  -1 7.10423 1.04797   3
   0   6  -1 5.99597 1.69685   1
   0  -6   1 4.06343 1.21159   2
   0  -6   1 8.30733 1.78999   1
   0  -6   1 5.99858 1.50044   3
  -1   6  -1 27.5980 3.79006   2
  -1   6  -1 24.0500 3.48334   1
  -1   6  -1 29.5294 2.03165   3
   1  -6   1 34.1433 3.76995   1
   1  -6   1 29.9882 2.64854   2
   1  -6   1 27.1458 2.15934   3
  -2   6  -1 466.213 15.7556   1
  -2   6  -1 437.761 15.7880   2
   2  -6   1 474.009 11.8420   3
   2  -6   1 450.757 15.6936   1
   2  -6   1 483.637 14.0832   2
  -3   6  -1 399.119 15.0540   1
   3  -6   1 406.010 11.1093   3
   3  -6   1 406.670 13.6183   2
  -4   6  -1 237.517 11.6359   1
   4  -6   1 248.184 10.8433   2
   4  -6   1 240.096 8.47027   3
  -5   6  -1 222.988 12.6222   1
   5  -6   1 231.963 11.4487   2
  -6   6  -1 12.0460 5.13482   1
   6  -6   1 8.78537 3.96187   3
   6  -6   1 12.5008 4.93264   2
  -5  -5   1 134.953 11.4965   2
  -4  -5   1 6.01157 3.56589   2
   3   5  -1 545.412 17.0532   3
   2   5  -1 378.997 11.9432   2
   2   5  -1 395.208 12.1511   3
  -2  -5   1 344.591 10.9486   1
  -2  -5   1 405.750 14.1420   2
  -2  -5   1 406.908 10.4752   1
   1   5  -1 3.73990 1.08447   3
   1   5  -1 2.82311 1.17033   2
  -1  -5   1 2.76890 1.13192   1
  -1  -5   1 4.45333 1.25901   2
  -1  -5   1 3.10039 0.97545   1
   0   5  -1 197.104 5.57476   3
   0   5  -1 187.138 7.14379   1
   0   5  -1 180.112 6.94319   2
   0  -5   1 187.941 6.30383   3
   0  -5   1 192.775 7.29818   1
   0  -5   1 190.089 6.89868   2
  -1   5  -1 862.507 22.8936   1
  -1   5  -1 825.355 19.7952   3
  -1   5  -1 867.557 22.7388   2
   1  -5   1 853.343 19.8166   3
   1  -5   1 868.322 23.0568   1
   1  -5   1 817.384 21.3252   2
  -2   5  -1 2.20135 1.88420   2
  -2   5  -1 7.09048 1.94823   1
   2  -5   1 4.64229 1.19976   2
   2  -5   1 5.15642 1.82267   1
   2  -5   1 3.25970 0.85252   3
  -3   5  -1 51.2224 4.60277   1
   3  -5   1 38.9652 4.82203   1
   3  -5   1 48.9609 4.17569   2
   3  -5   1 54.7438 3.09102   3
  -4   5  -1 714.946 23.2347   1
   4  -5   1 701.976 21.9326   2
   4  -5   1 728.213 19.2429   3
  -5   5  -1 125.283 8.88789   1
   5  -5   1 122.021 8.40850   2
  -6   5  -1 170.196 11.3586   1
   6  -5   1 171.594 9.23022   3
   6  -5   1 153.925 10.5209   2
  -6  -4   1 147.976 13.6312   2
  -5  -4   1 968.896 32.5937   2
  -4  -4   1 1512.88 42.6082   2
   3   4  -1 1031.08 28.0185   3
  -3  -4   1 1072.21 30.3692   2
   2   4  -1 181.354 7.18751   3
  -2  -4   1 186.489 8.14178   2
  -2  -4   1 183.785 5.40510   1
   1   4  -1 3181.37 68.7610   2
   1   4  -1 3040.25 69.4246   3
  -1  -4   1 3153.40 68.0050   1
  -1  -4   1 2795.39 68.7591   1
  -1  -4   1 3234.38 70.0300   2
   0   4  -1 3876.36 85.2292   2
   0   4  -1 3913.32 85.5314   1
   0   4  -1 3887.41 83.6729   3
   0  -4   1 3733.88 85.0360   2
   0  -4   1 3909.36 85.6953   1
  -1   4  -1 238.373 6.56746   3
  -1   4  -1 245.363 8.36537   2
  -1   4  -1 244.912 8.60151   1
   1  -4   1 213.054 7.51191   3
   1  -4   1 238.499 7.50747   2
   1  -4   1 250.869 8.72631   1
  -2   4  -1 977.870 26.1769   2
  -2   4  -1 1002.94 26.2448   1
   2  -4   1 983.323 23.0270   3
   2  -4   1 988.983 26.2545   1
   2  -4   1 1000.36 25.1123   2
  -3   4  -1 910.749 25.6133   1
   3  -4   1 906.848 22.5499   3
   3  -4   1 901.345 26.1738   2
   3  -4   1 922.715 25.0205   2
   3  -4   1 925.054 25.6077   1
  -4   4  -1 475.271 16.6801   1
   4  -4   1 478.633 14.3530   3
   4  -4   1 480.722 16.5281   2
  -5   4  -1 372.867 15.0868   1
   5  -4   1 382.433 15.4927   2
  -6   4  -1 432.016 17.7879   1
   6  -4   1 446.099 18.4427   2
  -6  -3   1 268.365 15.8793   2
  -5  -3   1 766.628 26.8661   2
  -4  -3   1 202.195 10.6715   2
   3   3  -1 157.791 7.03308   2
   3   3  -1 151.190 7.24347   3
  -3  -3   1 154.287 8.04522   2
   2   3  -1 390.463 11.5211   2
   2   3  -1 392.555 11.8586   3
  -2  -3   1 374.420 12.5647   2
   1   3  -1 3247.22 72.1809   2
   1   3  -1 3318.92 72.3492   3
  -1  -3   1 3298.65 73.1174   2
  -1  -3   1 3277.77 71.2725   1
  -1  -3   1 3248.40 71.2088   1
   0   3  -1 1482.25 32.9927   3
   0   3  -1 1483.98 33.9618   2
   0  -3   1 1482.20 33.8932   2
   0  -3   1 1553.56 34.3864   1
   0  -3   1 1467.28 33.3660   3
  -1   3  -1 1964.77 47.7178   2
  -1   3  -1 2146.87 47.5609   1
  -1   3  -1 2077.69 45.4409   3
   1  -3   1 2049.54 47.5440   1
   1  -3   1 2089.34 45.0889   3
   1  -3   1 2052.81 46.3309   2
  -2   3  -1 848.652 22.6600   2
  -2   3  -1 858.325 22.5713   1
   2  -3   1 846.307 20.2837   3
   2  -3   1 857.632 22.0568   2
   2  -3   1 846.753 22.3693   1
  -3   3  -1 313.127 11.4214   1
   3  -3   1 326.809 12.2845   2
   3  -3   1 305.043 11.1713   1
   3  -3   1 320.729 11.4558   2
  -4   3  -1 319.258 12.3556   1
   4  -3   1 314.522 13.5574   2
   4  -3   1 324.897 12.7666   2
   4  -3   1 304.271 11.9579   1
  -5   3  -1 1406.79 38.4392   1
   5  -3   1 1422.42 39.6642   2
  -6   3  -1 515.606 19.0257   1
   6  -3   1 508.459 20.6279   2
  -7   3  -1 228.135 13.4394   1
   7  -3   1 297.433 21.9500   2
  -6  -2   1 12.6091 5.11209   2
   5   2  -1 36.0934 3.57535   1
  -5  -2   1 26.4091 5.54328   2
  -5  -2   1 32.7978 3.40247   1
   4   2  -1 32.1971 2.45949   1
  -4  -2   1 30.3353 2.48103   1
  -4  -2   1 27.2119 4.19992   2
   3   2  -1 557.867 13.2185   1
   3   2  -1 534.945 16.2768   2
  -3  -2   1 529.881 17.3492   2
  -3  -2   1 554.760 13.5818   1
   2   2  -1 201.868 7.20068   2
   2   2  -1 192.799 7.20642   3
  -2  -2   1 201.439 7.74991   2
   1   2  -1 0.36271 0.47779   2
   1   2  -1 1.50590 0.65277   3
  -1  -2   1 0.16572 0.46498   2
   0   2  -1 6253.40 129.580   1
   0   2  -1 6011.02 129.336   2
   0   2  -1 5863.81 128.813   3
   0  -2   1 5938.83 128.989   3
  -1   2  -1 215.187 7.01303   1
  -1   2  -1 232.989 7.01378   2
   1  -2   1 217.116 5.83364   3
   1  -2   1 224.229 7.03857   1
   1  -2   1 223.657 6.84229   2
  -2   2  -1 62.0224 3.57186   1
   2  -2   1 56.0550 3.51659   2
   2  -2   1 59.4036 3.47443   1
   2  -2   1 60.1217 3.78950   2
  -3   2  -1 343.406 11.6311   1
   3  -2   1 347.242 12.5805   2
   3  -2   1 338.667 11.3969   1
  -4   2  -1 694.528 21.8317   2
  -4   2  -1 700.093 20.7881   1
   4  -2   1 681.709 20.0551   1
   4  -2   1 692.614 22.2544   2
  -5   2  -1 145.326 9.12541   2
  -5   2  -1 145.900 8.14456   1
  -6   2  -1 119.623 8.55238   1
  -7   2  -1 229.578 12.1794   1
   7  -2   1 193.586 15.7191   2
  -6  -1   1 34.9710 4.81587   1
  -6  -1   1 35.5904 5.93528   2
   5   1  -1 533.525 15.3008   1
  -5  -1   1 547.825 15.7942   1
  -5  -1   1 520.707 20.1484   2
   4   1  -1 1613.77 36.5780   1
   4   1  -1 1487.37 40.2004   2
  -4  -1   1 1560.75 41.7275   2
  -4  -1   1 1587.30 37.0792   1
   3   1  -1 816.286 22.8155   2
   3   1  -1 847.265 19.9388   1
  -3  -1   1 833.435 20.2925   1
  -3  -1   1 822.265 23.5565   2
   2   1  -1 776.756 17.3130   1
   2   1  -1 738.337 19.5303   2
  -2  -1   1 740.324 17.4369   1
   1   1  -1 2235.18 48.7770   3
   1   1  -1 2160.91 48.6582   2
  -1  -1   1 2202.27 48.9669   2
   0   1  -1 1160.65 25.5603   3
   0   1  -1 1222.08 25.8553   1
   0   1  -1 1158.81 25.5785   2
   0  -1   1 1147.78 25.5821   3
  -1   1  -1 85.6967 3.43556   1
   1  -1   1 87.1396 3.57945   2
  -2   1  -1 1730.68 39.8554   1
  -2   1  -1 1749.29 40.6755   2
   2  -1   1 1632.62 41.9832   2
   2  -1   1 1755.91 39.6709   1
  -3   1  -1 1860.29 44.8732   1
  -3   1  -1 1874.27 46.3521   2
   3  -1   1 1942.84 46.6105   2
   3  -1   1 1905.80 44.4884   1
  -4   1  -1 132.405 6.64401   1
  -4   1  -1 134.508 7.77126   2
   4  -1   1 115.199 7.70916   2
   4  -1   1 132.588 6.49024   1
  -5   1  -1 28.5402 4.49063   1
  -5   1  -1 21.6921 4.26122   2
   5  -1   1 28.9618 4.49597   1
  -6   1  -1 286.110 15.3106   2
  -7   1  -1 63.0102 8.50296   1
  -7   1  -1 45.2779 10.3568   2
  -7   0   1 113.472 14.5197   2
  -6   0   1 1019.09 33.0475   2
  -6   0   1 980.504 27.4653   1
   5   0  -1 1326.27 33.5717   1
  -5   0   1 1334.72 34.2075   1
  -5   0   1 1387.74 38.9555   2
   4   0  -1 1176.00 29.1073   1
  -4   0   1 1176.37 33.0024   2
  -4   0   1 1197.84 29.7033   1
   3   0  -1 3425.24 76.8101   1
   3   0  -1 3511.19 79.7709   2
  -3   0   1 3525.88 80.1696   2
  -3   0   1 3406.33 77.0880   1
   2   0  -1 3541.12 77.1788   1
   2   0  -1 3538.62 79.0824   2
  -2   0   1 3469.94 77.2637   1
  -2   0   1 3577.35 79.2767   2
   1   0  -1 142.457 3.95019   1
   1   0  -1 136.675 4.55348   2
  -1   0   1 136.498 4.57221   2
  -1   0  -1 3777.99 80.8077   1
  -1   0  -1 3757.18 81.3963   2
   1   0   1 3664.86 81.2391   2
   1   0   1 3699.84 80.7209   1
  -2   0  -1 2758.47 61.0889   1
  -2   0  -1 2723.72 62.4995   2
   2   0   1 2728.74 60.7461   1
  -3   0  -1 1422.12 36.8358   2
  -3   0  -1 1453.92 34.6837   1
   3   0   1 1450.62 34.2424   1
  -4   0  -1 2940.87 71.5559   2
  -4   0  -1 3028.48 68.4108   1
   4   0   1 2839.67 70.3988   2
   4   0   1 2997.61 67.5248   1
  -5   0  -1 240.369 12.2696   2
  -5   0  -1 214.658 9.42591   1
   5   0   1 214.237 9.10829   1
  -6   0  -1 141.623 8.21502   1
  -6   0  -1 133.347 11.3316   2
  -7   1   1 169.258 10.1029   1
  -7   1   1 206.897 13.6899   2
  -6   1   1 1.25575 2.99381   1
  -6   1   1 3.47571 4.25244   2
   5  -1  -1 184.521 8.42553   1
  -5   1   1 188.121 8.63423   1
  -5   1   1 191.922 11.4364   2
   4  -1  -1 609.424 19.8479   2
   4  -1  -1 606.143 17.3207   1
  -4   1   1 582.742 17.3665   1
  -4   1   1 590.827 19.5282   2
   3  -1  -1 73.0541 4.05939   1
   3  -1  -1 72.4155 4.94668   2
  -3   1   1 74.5563 4.02715   1
  -3   1   1 66.6737 4.63620   2
   2  -1  -1 29.5355 2.22252   1
   2  -1  -1 33.6945 2.93908   2
  -2   1   1 29.9409 2.43253   2
  -2   1   1 29.3228 2.14229   1
   1  -1  -1 2729.62 58.6597   1
   1  -1  -1 2624.14 58.6409   2
  -1   1   1 2634.51 58.5759   1
   0  -1  -1 963.848 21.7167   2
   0   1   1 980.264 21.7563   2
   0   1   1 1004.33 22.3028   1
  -1  -1  -1 37.8334 1.80831   1
   1   1   1 38.7764 2.09387   2
   1   1   1 37.4813 1.81594   1
  -2  -1  -1 916.342 24.1247   2
  -2  -1  -1 949.679 22.3096   1
   2   1   1 946.847 22.0693   1
   2   1   1 927.920 23.5697   2
  -3  -1  -1 1782.11 40.4760   1
  -3  -1  -1 1720.63 43.3691   2
   3   1   1 1701.85 40.5291   1
   3   1   1 1700.83 42.2268   2
  -4  -1  -1 879.810 27.1186   2
  -4  -1  -1 899.517 23.6888   1
   4   1   1 906.368 22.9776   1
  -5  -1  -1 35.8406 6.19857   2
  -5  -1  -1 38.5321 4.25017   1
   5   1   1 50.1026 4.60619   1
  -6  -1  -1 432.455 19.4179   2
  -6  -1  -1 391.328 14.3062   1
   7  -2  -1 7.08287 5.71397   2
  -7   2   1 -1.2538 4.51142   1
   5  -2  -1 284.915 11.4573   1
  -5   2   1 277.795 13.6234   2
  -5   2   1 304.630 11.9803   1
   4  -2  -1 7.91978 2.22240   1
   4  -2  -1 3.01033 2.55695   2
  -4   2   1 9.17487 2.07981   1
   3  -2  -1 168.809 7.10065   1
   3  -2  -1 172.696 8.13028   2
   3  -2  -1 158.975 7.38050   2
  -3   2   1 167.443 7.06251   1
   2  -2  -1 827.429 23.2547   1
   2  -2  -1 911.208 22.9905   2
   2  -2  -1 845.399 22.1525   2
  -2   2   1 881.439 22.1036   1
   1  -2  -1 9999.99 215.496   1
   0  -2  -1 831.047 19.0223   1
   0  -2  -1 784.394 18.9514   1
   0  -2  -1 755.503 18.8574   2
   0   2   1 784.042 18.3895   2
  -1  -2  -1 507.248 12.6590   1
  -1  -2  -1 514.200 13.6744   2
   1   2   1 513.438 12.8460   1
   1   2   1 528.365 13.1019   2
  -2  -2  -1 82.0862 4.64421   2
  -2  -2  -1 83.3632 3.47149   1
   2   2   1 80.6131 4.11007   2
   2   2   1 86.7621 3.48332   1
  -3  -2  -1 41.2666 4.07026   2
  -3  -2  -1 38.4401 2.67457   1
   3   2   1 41.7290 3.60624   2
   3   2   1 34.0905 2.94846   1
  -4  -2  -1 9.20991 2.86879   2
  -4  -2  -1 8.67523 1.70682   1
   4   2   1 7.20599 1.87619   1
  -5  -2  -1 492.548 15.2044   1
  -5  -2  -1 488.467 19.5598   2
   5   2   1 485.497 14.6350   1
  -6  -2  -1 29.6821 5.99298   2
   7  -3  -1 467.071 20.7197   2
  -7   3   1 482.402 18.8988   1
   6  -3  -1 492.251 19.8435   2
  -6   3   1 490.621 18.0974   1
   5  -3  -1 342.193 14.4165   2
  -5   3   1 329.582 13.4041   1
   4  -3  -1 572.657 20.1102   2
   4  -3  -1 593.328 19.1980   2
   4  -3  -1 587.602 18.4500   1
  -4   3   1 606.399 18.7369   1
   3  -3  -1 1643.25 41.6748   1
   3  -3  -1 1753.46 43.2816   2
   3  -3  -1 1714.38 42.0181   2
  -3   3   1 1689.32 41.7914   1
   2  -3  -1 983.447 24.7248   2
   2  -3  -1 995.123 25.3887   1
  -2   3   1 952.853 25.2946   2
  -1   3   1 6110.95 133.715   1
  -1   3   1 6120.14 133.594   2
   0  -3  -1 3690.07 79.4412   2
   0  -3  -1 3817.56 80.2707   1
   0   3   1 3361.24 80.5503   2
  -1  -3  -1 313.058 8.89241   1
  -1  -3  -1 319.526 9.84882   2
   1   3   1 314.994 9.07497   2
  -2  -3  -1 141.737 6.75152   2
  -2  -3  -1 144.025 5.05522   1
   2   3   1 147.667 5.32065   1
   2   3   1 139.768 5.77103   2
  -3  -3  -1 672.051 17.0349   1
  -3  -3  -1 660.067 20.8403   2
   3   3   1 626.328 18.5761   2
   3   3   1 651.749 17.4224   1
  -4  -3  -1 603.047 21.9972   2
  -4  -3  -1 621.464 16.9077   1
   4   3   1 627.208 16.5530   1
  -5  -3  -1 131.809 10.1719   2
  -5  -3  -1 145.834 6.63405   1
  -6  -3  -1 234.831 15.0178   2
  -7   4   1 175.404 11.5518   1
   6  -4  -1 278.832 13.9431   2
  -6   4   1 278.036 13.4207   1
   5  -4  -1 791.431 25.4926   2
  -5   4   1 826.337 25.9788   1
   4  -4  -1 1552.47 39.4749   2
   4  -4  -1 1399.27 39.2150   1
  -4   4   1 1531.36 39.5536   1
   3  -4  -1 256.710 10.6099   1
   3  -4  -1 271.160 10.1905   2
   3  -4  -1 274.170 11.2222   2
  -3   4   1 262.707 10.5422   1
   2  -4  -1 38.4593 3.84173   1
   2  -4  -1 45.3763 3.23553   2
  -2   4   1 56.0899 3.97661   1
  -2   4   1 45.0412 3.89237   2
   1  -4  -1 3583.15 81.3333   2
   1  -4  -1 3742.67 83.2807   1
  -1   4   1 3712.01 83.0587   1
  -1   4   1 3709.71 82.6078   2
   0  -4  -1 678.168 18.1957   1
   0  -4  -1 675.748 17.3868   2
   0   4   1 687.732 17.5778   2
  -1  -4  -1 425.977 12.0410   1
  -1  -4  -1 440.234 13.4093   1
  -1  -4  -1 432.918 13.1608   2
   1   4   1 425.669 11.7269   3
   1   4   1 440.882 12.2425   2
  -2  -4  -1 1730.16 40.0700   1
  -2  -4  -1 1746.14 43.2647   2
  -2  -4  -1 1749.51 39.8094   1
   2   4   1 1690.75 40.7744   2
   2   4   1 1731.82 41.2963   3
  -3  -4  -1 2540.16 61.8698   2
  -3  -4  -1 2508.48 56.1304   1
   3   4   1 2379.91 58.8395   3
  -4  -4  -1 73.6529 4.25923   1
  -4  -4  -1 73.6511 6.95271   2
   4   4   1 76.4787 4.95874   1
  -5  -4  -1 358.099 17.6865   2
   6  -5  -1 317.484 14.9621   2
  -6   5   1 325.650 15.4238   1
   5  -5  -1 178.085 9.97684   2
  -5   5   1 201.745 10.6039   1
   4  -5  -1 3.87866 1.79843   3
  -4   5   1 2.25398 2.30350   1
   3  -5  -1 18.7010 2.99762   1
   3  -5  -1 27.8942 2.19763   3
  -3   5   1 20.1911 3.55805   2
   2  -5  -1 158.237 7.80127   1
   2  -5  -1 160.068 6.61634   2
   2  -5  -1 162.550 4.56813   3
  -2   5   1 172.315 8.09936   2
  -2   5   1 169.020 7.85649   1
   1  -5  -1 142.378 6.83917   1
   1  -5  -1 147.660 5.79204   2
  -1   5   1 131.152 6.51002   2
  -1   5   1 150.518 6.85283   1
   0  -5  -1 25.8329 2.37996   2
   0  -5  -1 24.0566 2.86840   1
   0  -5  -1 28.0816 2.80374   1
   0   5   1 29.3587 2.80370   2
  -1  -5  -1 1270.08 30.8088   1
  -1  -5  -1 1278.13 32.0117   2
  -1  -5  -1 1267.19 30.6021   1
   1   5   1 1176.69 30.2115   3
   1   5   1 1266.37 30.6481   2
  -2  -5  -1 430.527 12.3838   1
  -2  -5  -1 448.355 15.5297   2
  -2  -5  -1 441.754 12.7720   1
   2   5   1 445.082 13.5266   3
  -3  -5  -1 105.432 4.91460   1
  -3  -5  -1 109.767 5.09484   1
  -3  -5  -1 113.325 7.78604   2
   3   5   1 114.282 6.76559   3
  -4  -5  -1 154.460 6.23276   1
  -4  -5  -1 173.890 11.0875   2
  -5  -5  -1 42.9180 7.00775   2
   6  -6  -1 123.488 8.14511   3
   6  -6  -1 107.224 9.88434   2
  -6   6   1 155.225 10.8729   1
   5  -6  -1 69.6631 6.95230   2
   5  -6  -1 53.7457 5.06592   3
  -5   6   1 82.4665 7.48602   1
   4  -6  -1 375.394 13.8218   2
   4  -6  -1 355.535 10.6368   3
  -4   6   1 361.474 14.6843   1
   3  -6  -1 176.836 5.52748   3
   3  -6  -1 177.567 7.97933   2
  -3   6   1 174.418 9.00878   1
   2  -6  -1 320.758 10.1898   2
   2  -6  -1 249.770 11.1245   1
  -2   6   1 289.868 11.3056   1
  -2   6   1 250.050 11.1980   2
   1  -6  -1 113.958 5.35539   2
   1  -6  -1 128.060 6.65658   1
  -1   6   1 111.573 6.26560   1
  -1   6   1 106.578 6.37643   2
   0  -6  -1 682.796 19.9598   1
   0  -6  -1 701.049 20.1160   1
   0  -6  -1 732.252 19.4567   2
   0   6   1 671.891 19.4366   2
  -1  -6  -1 96.9907 5.90836   2
  -1  -6  -1 87.9001 5.24216   1
  -1  -6  -1 88.9718 4.86831   1
   1   6   1 96.7245 4.23875   3
  -2  -6  -1 133.209 7.90468   2
  -2  -6  -1 128.260 5.55905   1
  -2  -6  -1 131.309 6.16759   1
   2   6   1 129.520 6.12090   3
  -3  -6  -1 217.430 8.66042   1
  -3  -6  -1 226.420 7.89451   1
  -3  -6  -1 241.126 12.4527   2
  -4  -6  -1 46.7079 8.56671   2
   6  -7  -1 235.774 10.2184   3
   6  -7  -1 218.848 12.2434   2
  -6   7   1 227.655 13.5664   1
   5  -7  -1 665.478 18.3311   3
   5  -7  -1 658.970 21.8858   2
  -5   7   1 678.653 23.9661   1
   4  -7  -1 404.987 11.1402   3
   4  -7  -1 395.695 14.4691   2
  -4   7   1 395.454 16.2821   1
   3  -7  -1 133.485 6.91623   2
   3  -7  -1 128.037 4.31342   3
  -3   7   1 130.462 8.02551   1
  -2   7   1 2439.62 59.9731   1
   1  -7  -1 1479.31 35.9428   2
   1  -7  -1 1346.56 37.6461   1
  -1   7   1 1517.34 37.9837   1
   0  -7  -1 36.9790 4.04674   1
   0  -7  -1 36.9654 5.22266   2
   0  -7  -1 38.8753 4.84996   1
  -1  -7  -1 644.712 20.1065   2
  -1  -7  -1 625.187 18.2088   1
  -1  -7  -1 611.964 18.5792   1
   1   7   1 634.362 15.8402   3
  -2  -7  -1 714.728 20.1177   1
  -2  -7  -1 716.835 19.6358   1
  -2  -7  -1 744.852 24.2047   2
   2   7   1 734.555 19.7413   3
  -3  -7  -1 244.104 13.6385   2
  -4  -7  -1 99.8389 10.9982   2
   5  -8  -1 51.3066 6.87246   2
  -5   8   1 47.4897 8.83642   1
   4  -8  -1 36.1393 5.14784   2
  -4   8   1 29.1516 4.98180   1
   3  -8  -1 236.638 9.63581   2
  -3   8   1 215.045 11.5997   1
   2  -8  -1 592.368 18.1237   2
  -2   8   1 609.740 20.3640   1
   1  -8  -1 106.039 6.02186   2
   0  -8  -1 225.086 9.96311   1
   0  -8  -1 219.604 9.71435   2
  -1  -8  -1 233.579 9.52336   1
  -1  -8  -1 255.550 11.5254   2
  -1  -8  -1 220.685 9.89936   1
  -2  -8  -1 145.707 6.71552   1
  -2  -8  -1 153.631 10.3142   2
  -3  -8  -1 181.816 12.8164   2
   4  -9  -1 58.2353 6.31864   2
  -4   9   1 83.3092 9.50184   1
   3  -9  -1 2.70282 2.67148   2
  -3   9   1 4.37477 3.98428   1
   2  -9  -1 3.24776 2.26764   2
  -2   9   1 8.48728 3.72513   1
   1  -9  -1 215.342 9.65956   2
   1  -9  -1 219.826 11.0345   1
   0  -9  -1 -0.4399 3.31776   1
   0  -9  -1 1.90802 2.49417   2
  -1  -9  -1 4.28530 3.49739   2
  -2  -9  -1 96.3297 8.86398   2
   3 -10  -1 107.538 7.23092   2
  -3  10   1 124.933 10.8140   1
   2 -10  -1 249.539 10.9904   2
   1 -10  -1 68.2943 6.29689   2
   1 -10  -1 75.2326 7.67576   1
   0 -10  -1 58.8848 6.75509   1
   0 -10  -1 61.5586 6.90272   2
  -1 -10   2 219.546 12.0328   2
   0 -10   2 29.5029 5.79161   1
   0 -10   2 38.1419 5.94895   2
  -1  10  -2 136.437 9.67497   1
   1 -10   2 150.725 8.18628   2
  -2  10  -2 244.105 12.8982   1
   2 -10   2 242.071 10.6907   2
  -3  10  -2 18.2640 4.91252   1
   3 -10   2 13.6183 3.28623   2
  -2  -9   2 53.1779 7.62969   2
  -1  -9   2 -1.3383 2.46409   1
  -1  -9   2 2.95271 2.93443   2
   0  -9   2 114.744 7.23558   2
  -1   9  -2 -0.8157 3.04998   1
   1  -9   2 4.85471 2.30529   3
   1  -9   2 6.16263 2.14065   2
  -2   9  -2 6.40297 3.52524   1
   2  -9   2 3.76803 2.21413   3
   2  -9   2 2.72358 2.11773   2
  -3   9  -2 9.53691 4.09888   1
   3  -9   2 0.50786 2.41248   2
  -4   9  -2 202.727 12.5957   1
   4  -9   2 196.580 9.81009   2
  -3  -8   2 56.6073 8.65894   2
   2   8  -2 116.564 7.61345   3
  -2  -8   2 113.534 4.89523   1
  -2  -8   2 137.462 9.10166   2
   1   8  -2 445.975 12.5641   3
  -1  -8   2 471.517 14.1276   1
  -1  -8   2 473.805 16.6932   2
  -1  -8   2 430.004 13.9943   1
   0   8  -2 249.883 10.3834   1
   0   8  -2 259.456 7.59916   3
   0  -8   2 226.158 10.1311   1
   0  -8   2 257.755 10.2525   2
   0  -8   2 260.432 9.26221   3
  -1   8  -2 83.1247 6.34227   1
  -1   8  -2 92.0518 4.22942   3
   1  -8   2 87.2964 4.73787   3
   1  -8   2 85.2708 5.29246   2
  -2   8  -2 820.457 25.2959   1
   2  -8   2 817.957 20.6681   3
   2  -8   2 836.172 23.0526   2
  -3   8  -2 369.878 15.5792   1
   3  -8   2 370.092 13.0237   2
   3  -8   2 352.637 10.6595   3
  -4   8  -2 201.675 11.9735   1
   4  -8   2 164.736 7.05636   3
   4  -8   2 194.288 9.38197   2
  -5   8  -2 86.3946 10.7726   1
   5  -8   2 96.2150 6.52104   3
   5  -8   2 82.1584 7.87713   2
  -4  -7   2 139.194 11.5842   2
  -3  -7   2 564.351 21.7725   2
   2   7  -2 667.477 18.2950   3
  -2  -7   2 632.890 16.4875   1
  -2  -7   2 664.405 22.0099   2
  -2  -7   2 638.523 16.2250   1
   1   7  -2 364.133 10.4906   3
  -1  -7   2 348.590 11.4108   1
  -1  -7   2 372.701 11.4852   1
   0   7  -2 907.092 21.2788   3
   0   7  -2 899.120 24.2514   1
   0  -7   2 900.888 24.0805   2
   0  -7   2 850.435 24.0684   1
   0  -7   2 883.561 22.7612   3
  -1   7  -2 2140.11 52.1377   1
  -1   7  -2 2189.56 48.1583   3
   1  -7   2 2127.52 50.2802   2
   1  -7   2 2058.78 52.2186   1
   1  -7   2 2165.61 48.7589   3
  -2   7  -2 742.729 23.1481   1
   2  -7   2 751.593 18.8819   3
   2  -7   2 794.727 21.2804   2
  -3   7  -2 243.637 11.7221   1
   3  -7   2 228.838 7.54020   3
   3  -7   2 235.093 9.52989   2
  -4   7  -2 969.363 30.2946   1
   4  -7   2 967.534 24.3901   3
   4  -7   2 963.242 27.5701   2
  -5   7  -2 501.957 20.5631   1
   5  -7   2 513.190 15.6133   3
   5  -7   2 500.378 18.1703   2
  -6   7  -2 111.616 18.9521   1
   6  -7   2 96.6569 7.97069   3
   6  -7   2 73.7065 9.47954   2
  -5  -6   2 37.4572 6.44806   2
  -4  -6   2 95.5136 9.21769   2
  -3  -6   2 482.253 18.7149   2
   2   6  -2 13.9441 2.18640   3
  -2  -6   2 10.1169 2.50077   2
  -2  -6   2 9.54928 1.41896   1
   1   6  -2 650.982 16.6180   3
   1   6  -2 627.713 17.7217   2
  -1  -6   2 624.875 18.8766   2
  -1  -6   2 642.516 17.0708   1
   0   6  -2 832.588 22.2263   1
   0   6  -2 851.061 19.9347   3
   0   6  -2 816.241 22.2150   2
   0  -6   2 842.461 22.0727   2
   0  -6   2 816.214 22.2622   1
   0  -6   2 848.975 21.1953   3
  -1   6  -2 47.6790 2.81434   3
  -1   6  -2 56.9043 4.80051   2
  -1   6  -2 48.8204 4.18920   1
   1  -6   2 52.2437 3.44934   2
   1  -6   2 45.7579 4.03681   1
   1  -6   2 47.2558 2.86564   3
  -2   6  -2 11.9275 2.67157   1
  -2   6  -2 5.24346 2.67406   2
   2  -6   2 11.3293 1.71855   3
   2  -6   2 11.4081 2.25357   2
   2  -6   2 12.2695 2.82362   1
  -3   6  -2 140.695 8.26635   1
   3  -6   2 145.005 7.19497   2
   3  -6   2 143.622 5.51778   3
  -4   6  -2 90.2302 7.57030   1
   4  -6   2 90.6849 5.10198   3
   4  -6   2 89.8273 6.61223   2
  -5   6  -2 0.15078 4.03596   1
   5  -6   2 1.48179 3.31746   2
   5  -6   2 6.95626 2.74805   3
  -6   6  -2 207.925 13.3088   1
   6  -6   2 183.300 9.65452   3
   6  -6   2 182.340 11.8941   2
  -5  -5   2 197.403 13.2296   2
  -4  -5   2 84.1187 7.65485   2
   3   5  -2 72.5471 5.30986   3
  -3  -5   2 71.2833 6.21249   2
   2   5  -2 360.899 11.5358   3
   2   5  -2 348.463 11.2639   2
  -2  -5   2 376.567 13.4310   2
   1   5  -2 714.388 18.0830   3
   1   5  -2 692.694 18.5569   2
   1   5  -2 715.187 17.8297   1
  -1  -5   2 736.180 18.0063   1
  -1  -5   2 681.209 19.6068   2
  -1  -5   2 721.636 19.1034   3
   0   5  -2 156.081 6.24383   2
   0   5  -2 149.889 6.16857   1
   0  -5   2 152.257 6.24129   1
   0  -5   2 156.313 5.62906   3
   0  -5   2 156.775 6.00386   2
  -1   5  -2 94.2046 4.16090   3
  -1   5  -2 105.901 5.58290   1
  -1   5  -2 107.926 5.59851   2
   1  -5   2 104.702 5.59936   1
   1  -5   2 105.254 4.63928   2
   1  -5   2 107.159 3.89524   3
  -2   5  -2 185.020 8.18893   1
  -2   5  -2 173.756 8.29238   2
   2  -5   2 182.079 8.23450   1
   2  -5   2 183.751 7.05574   2
   2  -5   2 175.203 5.71596   3
  -3   5  -2 69.0871 5.64560   1
   3  -5   2 75.8039 5.52097   1
   3  -5   2 75.0075 5.09818   2
   3  -5   2 76.6990 3.81290   3
   4  -5   2 13.2965 2.63617   2
   4  -5   2 18.5264 3.06302   3
  -5   5  -2 309.198 14.1768   1
   5  -5   2 306.234 13.6968   2
   5  -5   2 326.559 11.6556   3
  -6   5  -2 113.333 9.79135   1
   6  -5   2 107.643 9.17367   2
   6  -5   2 79.2179 7.52770   3
  -6  -4   2 380.075 18.6807   2
  -5  -4   2 246.419 13.6573   2
  -4  -4   2 357.183 15.4845   2
   3   4  -2 2429.83 59.4407   2
   3   4  -2 2580.16 60.5558   3
  -3  -4   2 2661.38 63.1863   2
   2   4  -2 447.885 13.4064   3
   2   4  -2 431.937 12.9022   2
  -2  -4   2 475.176 14.8948   2
   1   4  -2 703.470 16.7991   1
   1   4  -2 711.923 17.6516   3
   1   4  -2 691.395 17.6227   2
  -1  -4   2 691.560 18.2194   3
  -1  -4   2 673.268 18.5203   2
  -1  -4   2 695.635 16.8076   1
   0   4  -2 1607.21 35.5108   3
   0   4  -2 1577.40 36.5894   2
   0   4  -2 1575.57 36.8358   1
   0  -4   2 1567.43 36.4761   2
   0  -4   2 1587.15 36.9387   1
   0  -4   2 1580.91 36.0929   3
  -1   4  -2 2062.63 46.7278   2
  -1   4  -2 1965.85 44.7493   3
  -1   4  -2 2047.15 47.1688   1
   1  -4   2 1967.96 45.5058   2
   1  -4   2 2017.94 47.0542   1
   1  -4   2 1990.05 44.4618   3
  -2   4  -2 1283.87 32.8821   2
  -2   4  -2 1287.51 33.0356   1
   2  -4   2 1282.49 32.8722   1
   2  -4   2 1298.26 29.9173   3
   2  -4   2 1344.28 31.8352   2
  -3   4  -2 2655.63 63.6414   1
   3  -4   2 2682.53 62.7039   2
   3  -4   2 2628.89 63.2343   1
   3  -4   2 2673.53 60.0685   3
   3  -4   2 2667.83 64.2975   2
  -4   4  -2 1566.53 41.6188   1
   4  -4   2 1612.93 38.4880   3
   4  -4   2 1561.10 41.1465   2
  -5   4  -2 62.1822 6.67360   1
   5  -4   2 61.6544 5.24748   3
   5  -4   2 65.1294 6.35618   2
  -6   4  -2 310.505 14.8558   1
   6  -4   2 311.728 12.7677   3
   6  -4   2 314.617 15.0199   2
  -6  -3   2 65.4862 9.58304   2
  -5  -3   2 288.008 14.2283   2
  -4  -3   2 1271.05 36.2871   2
   3   3  -2 404.214 12.9889   2
   3   3  -2 394.140 13.2546   3
  -3  -3   2 400.094 14.4701   2
   2   3  -2 523.268 14.4689   2
   2   3  -2 530.147 14.9060   3
  -2  -3   2 514.260 15.6468   2
   1   3  -2 3031.48 64.9531   1
   1   3  -2 3031.74 66.4718   3
  -1  -3   2 2974.86 66.9383   2
  -1  -3   2 2948.32 66.8276   3
  -1  -3   2 2986.35 64.9130   1
   0   3  -2 1618.02 36.3274   2
   0   3  -2 1599.83 35.7715   3
   0  -3   2 1599.99 36.6471   1
   0  -3   2 1614.70 36.2919   2
   0  -3   2 1612.90 36.0837   3
  -1   3  -2 695.805 16.5231   3
  -1   3  -2 679.857 18.0767   1
  -1   3  -2 696.803 17.6908   2
   1  -3   2 682.104 16.9755   2
   1  -3   2 693.378 16.2027   3
  -2   3  -2 2843.93 65.4977   1
   2  -3   2 2857.20 64.7790   2
   2  -3   2 2920.69 65.4262   1
   2  -3   2 2770.22 62.9303   3
  -3   3  -2 3991.66 90.2450   1
   3  -3   2 4036.30 91.1714   2
   3  -3   2 3871.42 89.8195   2
   3  -3   2 3893.00 87.5369   3
   3  -3   2 3892.72 89.6016   1
  -4   3  -2 246.608 10.7101   1
   4  -3   2 243.052 11.5988   2
   4  -3   2 262.532 11.2268   2
   4  -3   2 234.715 10.1536   1
   5  -3   2 12.8108 3.36246   2
  -6   3  -2 614.964 22.2938   1
   6  -3   2 658.304 24.1240   2
  -6  -2   2 435.105 19.7420   2
   5   2  -2 136.949 5.81381   1
  -5  -2   2 131.376 9.26473   2
  -5  -2   2 141.679 5.47263   1
   4   2  -2 14.8655 1.84893   1
  -4  -2   2 18.8245 3.83138   2
   3   2  -2 18.7941 2.83853   2
   3   2  -2 19.4790 2.89625   3
  -3  -2   2 20.6063 3.09436   2
   2   2  -2 1416.86 34.1592   2
   2   2  -2 1458.19 34.4586   3
  -2  -2   2 1444.95 35.1668   2
   1   2  -2 37.3044 2.02563   2
   1   2  -2 35.4635 2.13460   3
  -1  -2   2 38.6054 2.38300   3
  -1  -2   2 34.5877 2.16227   2
   0   2  -2 13.4286 1.33917   1
   0   2  -2 16.0350 1.13895   3
   0   2  -2 17.1923 1.20827   2
   0  -2   2 16.7465 1.36459   1
   0  -2   2 21.0152 1.30835   3
   0  -2   2 20.1769 1.19619   2
  -1   2  -2 347.131 9.70829   2
  -1   2  -2 343.157 8.99887   3
  -1   2  -2 345.205 9.96628   1
   1  -2   2 340.721 8.71252   3
   1  -2   2 359.239 9.97540   1
   1  -2   2 328.863 10.0640   2
  -2   2  -2 20.0807 2.26520   1
   2  -2   2 21.3164 2.59569   2
   2  -2   2 20.3873 2.15790   1
   2  -2   2 20.9899 2.20787   2
   2  -2   2 16.5230 1.68839   3
  -3   2  -2 2.44213 1.28379   1
   3  -2   2 1.20236 1.60587   2
   3  -2   2 4.61362 1.61931   1
  -4   2  -2 276.412 11.1485   1
  -4   2  -2 282.353 11.9409   2
   4  -2   2 277.623 12.1981   2
   4  -2   2 275.374 10.7289   1
  -5   2  -2 30.9669 5.17735   2
  -5   2  -2 18.7653 3.17863   1
  -6   2  -2 11.4555 3.83450   1
  -6  -1   2 321.876 16.0503   2
  -6  -1   2 310.031 10.7909   1
   5   1  -2 125.525 5.87376   1
  -5  -1   2 123.607 8.72348   2
  -5  -1   2 131.318 5.90278   1
   4   1  -2 517.367 13.7456   1
   4   1  -2 496.717 16.9659   2
  -4  -1   2 512.177 17.9986   2
  -4  -1   2 512.949 13.9604   1
   3   1  -2 267.233 9.76249   3
   3   1  -2 255.021 9.88245   2
   3   1  -2 270.584 7.57180   1
  -3  -1   2 269.267 10.4089   2
  -3  -1   2 267.634 7.70426   1
   2   1  -2 569.109 17.3256   2
   2   1  -2 622.464 16.2053   3
   2   1  -2 617.900 14.0112   1
  -2  -1   2 609.143 16.7382   2
  -2  -1   2 596.463 14.0022   1
   1   1  -2 2475.11 52.5829   2
   1   1  -2 2366.67 51.1886   1
  -1  -1   2 2282.06 53.7056   3
  -1  -1   2 2410.11 52.8365   2
   0   1  -2 2088.84 47.1270   3
   0   1  -2 2109.16 46.7537   2
   0   1  -2 2294.19 47.5804   1
   0  -1   2 2270.28 47.5218   1
   0  -1   2 2104.81 47.2024   3
  -1   1  -2 78.9429 3.29202   2
  -1   1  -2 77.4654 3.43666   1
   1  -1   2 78.7580 3.31954   2
   1  -1   2 67.4527 3.11513   3
   1  -1   2 79.3493 3.36249   1
  -2   1  -2 1.83378 0.88804   1
  -2   1  -2 1.34138 0.85204   2
   2  -1   2 3.43715 1.16685   1
  -3   1  -2 592.883 18.0494   2
  -3   1  -2 600.257 17.1092   1
   3  -1   2 590.424 16.6819   1
   3  -1   2 587.758 17.9865   2
  -4   1  -2 1095.83 29.1170   1
  -4   1  -2 1093.62 30.9404   2
   4  -1   2 1093.12 28.3766   1
   4  -1   2 1051.73 30.4189   2
  -5   1  -2 85.6740 6.15661   1
  -5   1  -2 84.4772 7.44213   2
  -6   1  -2 569.919 22.6314   2
  -6   1  -2 574.160 19.8101   1
  -7   0   2 65.2716 11.1809   2
  -6   0   2 341.635 12.3626   1
  -6   0   2 342.956 16.8143   2
   5   0  -2 865.997 23.4940   1
  -5   0   2 910.048 28.9113   2
  -5   0   2 898.612 24.0623   1
   4   0  -2 1194.59 29.1869   1
   4   0  -2 1190.38 32.6771   2
  -4   0   2 1170.04 29.4279   1
  -4   0   2 1199.25 33.1023   2
   3   0  -2 4.40049 1.12846   1
   3   0  -2 3.27046 1.55990   2
  -3   0   2 3.89633 1.52414   2
   2   0  -2 6327.85 137.528   3
   2   0  -2 6417.36 138.260   2
   2   0  -2 6119.22 136.348   1
  -2   0   2 6643.57 138.492   2
  -2   0   2 6057.64 136.254   1
   1   0  -2 8491.65 168.763   3
   1   0  -2 8474.77 169.025   2
   1   0  -2 7829.88 168.404   1
   1   0  -2 7175.09 168.245   1
  -1   0   2 8040.02 168.891   2
  -1   0   2 7108.91 168.556   3
   0   0  -2 414.203 9.36312   3
   0   0   2 397.967 9.83177   1
  -1   0  -2 3781.23 87.6251   1
  -1   0  -2 4027.02 86.9632   2
   1   0   2 4055.00 86.7006   1
   1   0   2 4061.57 86.7900   2
  -2   0  -2 3956.43 86.2898   2
  -2   0  -2 4025.15 85.1805   1
   2   0   2 3412.89 86.7564   2
   2   0   2 3970.21 84.8005   1
  -3   0  -2 1947.06 45.2402   1
  -3   0  -2 1900.51 47.0579   2
   3   0   2 1916.02 44.5561   1
   3   0   2 1873.20 46.2944   2
  -4   0  -2 305.737 12.9847   2
  -4   0  -2 305.628 11.0840   1
   4   0   2 304.080 10.5179   1
   4   0   2 282.384 11.9129   2
  -5   0  -2 2299.29 58.0804   2
  -5   0  -2 2170.33 53.7567   1
   5   0   2 2095.35 52.3744   1
  -6   0  -2 708.438 26.4360   2
  -7   1   2 58.6551 7.24993   1
  -7   1   2 69.8188 9.87133   2
  -6   1   2 228.432 12.6636   2
  -6   1   2 194.826 9.49255   1
   5  -1  -2 193.427 8.62422   1
  -5   1   2 206.137 8.86308   1
   4  -1  -2 282.222 9.93398   1
   4  -1  -2 269.844 11.8060   2
  -4   1   2 271.008 11.5731   2
  -4   1   2 273.305 9.94137   1
   3  -1  -2 1072.03 28.5026   2
   3  -1  -2 1066.52 26.4284   1
  -3   1   2 1071.66 26.4674   1
  -3   1   2 1024.12 27.9419   2
   2  -1  -2 535.629 14.1559   1
   2  -1  -2 548.446 15.2357   2
  -2   1   2 528.848 14.0311   1
  -2   1   2 506.617 14.7045   2
   1  -1  -2 1397.72 31.6685   1
   1  -1  -2 1418.86 30.7119   3
   1  -1  -2 1353.95 31.3159   2
  -1   1   2 1393.92 31.6297   1
  -1   1   2 1345.39 30.7245   3
  -1   1   2 1382.23 31.5433   2
   0  -1  -2 893.759 20.5071   1
   0  -1  -2 864.160 19.5655   2
   0  -1  -2 861.048 19.3126   3
   0   1   2 888.942 19.2744   3
   0   1   2 907.154 20.6012   1
   0   1   2 844.820 19.5861   2
  -1  -1  -2 2020.62 44.9810   2
   1   1   2 1983.51 44.4257   2
   1   1   2 1974.02 44.4022   1
  -2  -1  -2 1321.80 32.7853   2
  -2  -1  -2 1350.17 31.2398   1
   2   1   2 1312.67 31.9647   2
   2   1   2 1321.43 30.9320   1
  -3  -1  -2 377.368 11.5968   1
  -3  -1  -2 373.895 13.4755   2
   3   1   2 384.595 11.2464   1
   3   1   2 367.454 12.6045   2
  -4  -1  -2 90.3949 6.69728   2
  -4  -1  -2 93.5664 5.39546   1
   4   1   2 91.1259 5.14215   1
  -5  -1  -2 131.395 7.07151   1
  -5  -1  -2 130.154 9.59098   2
   5   1   2 122.820 7.12768   1
  -6  -1  -2 74.9389 9.67563   2
  -6  -1  -2 53.1513 6.78018   1
   7  -2  -2 113.193 11.8146   2
  -7   2   2 134.181 9.12068   1
  -6   2   2 28.9323 5.55635   1
   5  -2  -2 271.896 11.3123   1
  -5   2   2 300.184 11.6292   1
   4  -2  -2 1058.04 30.3941   2
   4  -2  -2 1024.60 27.7843   1
  -4   2   2 1050.10 27.8710   1
   3  -2  -2 2.71098 1.40611   1
   3  -2  -2 2.19269 1.35327   2
   3  -2  -2 4.49265 1.94509   2
  -3   2   2 2.19968 1.20979   1
   2  -2  -2 450.781 13.0077   1
   2  -2  -2 429.260 12.8002   2
   2  -2  -2 450.234 13.4821   2
  -2   2   2 434.279 12.7666   1
   1  -2  -2 432.157 11.2766   2
   1  -2  -2 448.920 12.2843   1
  -1   2   2 430.167 11.6756   2
  -1   2   2 439.352 12.1111   1
   0  -2  -2 18.5422 1.27083   2
   0  -2  -2 16.8059 1.54538   1
  -1  -2  -2 0.65919 0.61510   2
  -1  -2  -2 1.22776 0.61097   1
   1   2   2 -0.0575 0.70052   1
   1   2   2 1.54200 0.67219   2
  -2  -2  -2 611.943 17.8910   2
  -2  -2  -2 633.517 16.2526   1
   2   2   2 637.238 16.8924   2
   2   2   2 622.261 16.0332   1
  -3  -2  -2 1079.36 30.0232   2
  -3  -2  -2 1105.96 27.0388   1
   3   2   2 1079.81 26.4611   1
   3   2   2 1068.11 28.2089   2
  -4  -2  -2 711.607 23.5420   2
  -4  -2  -2 710.995 19.8457   1
   4   2   2 702.557 19.1219   1
  -5  -2  -2 4.58909 2.51097   1
  -5  -2  -2 4.89023 3.75707   2
   5   2   2 0.86158 2.85588   1
  -6  -2  -2 274.063 16.0180   2
   7  -3  -2 84.8599 10.7302   2
  -7   3   2 85.5481 8.83886   1
   6  -3  -2 847.254 28.2674   2
  -6   3   2 835.222 26.0721   1
   5  -3  -2 906.944 27.9860   2
  -5   3   2 913.089 26.7862   1
   4  -3  -2 192.377 10.1523   2
   4  -3  -2 193.233 8.94912   1
   4  -3  -2 189.920 9.19206   2
  -4   3   2 186.775 8.76405   1
   3  -3  -2 698.538 21.2357   2
   3  -3  -2 702.192 20.2048   2
   3  -3  -2 706.550 20.4388   1
  -3   3   2 704.514 20.1385   1
   2  -3  -2 2419.21 55.9942   1
   2  -3  -2 2449.94 55.0379   2
  -2   3   2 2331.45 55.5141   1
  -2   3   2 2377.88 55.7847   2
   1  -3  -2 235.867 8.20682   1
   1  -3  -2 226.292 6.99249   2
  -1   3   2 227.143 7.99273   1
  -1   3   2 225.232 7.60029   2
   0  -3  -2 231.917 7.87382   1
   0  -3  -2 228.534 8.68540   1
   0  -3  -2 241.801 7.18860   2
   0   3   2 247.423 7.37128   2
  -1  -3  -2 2742.75 62.2305   1
  -1  -3  -2 2729.63 63.0115   2
   1   3   2 2829.36 62.0532   2
   1   3   2 2838.76 62.7643   1
  -2  -3  -2 1724.79 39.7641   1
  -2  -3  -2 1702.76 42.2302   2
   2   3   2 1694.12 40.2365   2
   2   3   2 1732.24 40.0579   1
  -3  -3  -2 896.005 22.5626   1
  -3  -3  -2 876.207 26.0282   2
   3   3   2 851.376 23.5426   2
   3   3   2 873.150 22.2392   1
  -4  -3  -2 259.083 12.8095   2
  -4  -3  -2 245.627 9.24352   1
   4   3   2 246.553 9.05865   1
  -5  -3  -2 748.940 26.8941   2
  -5  -3  -2 730.861 20.9621   1
  -6  -3  -2 223.453 15.2822   2
  -7   4   2 215.349 12.1661   1
   6  -4  -2 317.842 15.1975   2
  -6   4   2 322.026 14.1168   1
   5  -4  -2 94.5824 7.31832   2
  -5   4   2 73.9438 8.02660   1
   4  -4  -2 307.330 12.2546   2
   4  -4  -2 283.894 12.5803   1
  -4   4   2 320.831 12.4027   1
   3  -4  -2 2025.83 49.8375   1
   3  -4  -2 2042.93 50.4937   2
   3  -4  -2 2036.33 48.6927   2
  -3   4   2 1949.60 49.1742   1
   2  -4  -2 3073.64 69.9818   2
   2  -4  -2 3108.75 71.8857   1
  -2   4   2 3066.31 71.5185   2
  -2   4   2 3136.26 71.5506   1
   1  -4  -2 787.242 21.3450   1
   1  -4  -2 767.966 19.5569   2
  -1   4   2 779.973 20.6516   2
  -1   4   2 797.813 21.2157   1
   0  -4  -2 2678.06 60.5035   1
   0  -4  -2 2650.17 60.4767   1
   0  -4  -2 2570.47 59.2019   2
   0   4   2 2638.93 59.4604   2
  -1  -4  -2 662.501 18.2998   2
  -1  -4  -2 645.997 17.4317   1
  -1  -4  -2 672.112 17.7406   1
   1   4   2 652.435 17.1854   2
   1   4   2 656.899 16.7410   3
  -2  -4  -2 707.997 21.1805   2
  -2  -4  -2 721.590 18.7089   1
   2   4   2 716.917 19.1162   1
   2   4   2 705.492 19.0282   2
  -3  -4  -2 1373.31 32.9457   1
  -3  -4  -2 1330.93 37.3022   2
   3   4   2 1336.88 32.8859   1
  -4  -4  -2 1291.42 38.2224   2
  -4  -4  -2 1279.33 32.0715   1
   4   4   2 1284.62 32.0093   1
  -5  -4  -2 168.957 12.1904   2
   6  -5  -2 14.0985 4.56324   2
  -6   5   2 7.75345 4.14742   1
   5  -5  -2 90.9749 7.42212   2
  -5   5   2 109.218 7.77015   1
   4  -5  -2 58.6303 5.49354   2
  -4   5   2 58.3986 5.61838   1
   3  -5  -2 4.88167 1.76421   2
   3  -5  -2 9.04506 2.88149   1
   3  -5  -2 5.62551 1.23489   3
  -3   5   2 5.90842 1.96007   1
  -3   5   2 4.01467 2.63433   2
   2  -5  -2 2707.24 62.7538   2
   2  -5  -2 2752.39 65.3436   1
  -2   5   2 2724.59 65.0466   2
  -2   5   2 2802.52 65.0638   1
   1  -5  -2 429.141 12.2237   2
   1  -5  -2 406.439 13.7444   1
  -1   5   2 410.055 13.2713   2
  -1   5   2 416.107 13.5810   1
   0  -5  -2 92.4019 5.11322   1
   0  -5  -2 90.0262 5.10600   1
   0  -5  -2 92.8856 4.59191   2
   0   5   2 98.6611 4.91720   2
  -1  -5  -2 3.44847 1.40522   2
  -1  -5  -2 0.70051 1.40278   1
  -1  -5  -2 -0.3600 1.16985   1
   1   5   2 0.99300 1.28530   2
   1   5   2 0.53348 1.25981   3
  -2  -5  -2 318.033 10.3724   1
  -2  -5  -2 303.967 9.92760   1
  -2  -5  -2 305.855 12.3208   2
   2   5   2 297.397 10.3843   3
  -3  -5  -2 26.5365 3.01313   1
  -3  -5  -2 27.1353 5.25487   2
  -3  -5  -2 27.1627 3.38775   1
   3   5   2 20.2007 3.58164   3
  -4  -5  -2 8.49294 3.83401   2
  -4  -5  -2 -2.4264 2.24562   1
  -5  -5  -2 249.635 15.5266   2
   6  -6  -2 267.475 13.5850   2
   6  -6  -2 263.242 11.2401   3
  -6   6   2 268.595 13.7788   1
   5  -6  -2 142.647 8.95652   2
   5  -6  -2 129.242 6.68341   3
  -5   6   2 136.421 9.36866   1
   4  -6  -2 2.11061 2.37745   2
  -4   6   2 6.87693 2.88907   1
   3  -6  -2 141.020 7.02281   2
   3  -6  -2 134.953 4.36505   3
  -3   6   2 135.575 7.90181   1
   2  -6  -2 869.821 25.9248   1
   2  -6  -2 924.739 23.5798   2
  -2   6   2 863.132 27.7018   2
  -2   6   2 891.439 25.6273   1
   1  -6  -2 6.42462 1.41215   2
   1  -6  -2 6.56883 2.57681   1
  -1   6   2 6.45279 2.27754   2
   0  -6  -2 96.6245 5.56964   1
   0  -6  -2 96.3253 5.12895   2
   0  -6  -2 86.3101 5.64445   1
   0   6   2 92.8866 5.40519   2
  -1  -6  -2 318.644 10.9173   1
  -1  -6  -2 318.461 11.2618   1
  -1  -6  -2 322.521 12.1125   2
  -2  -6  -2 256.381 9.52704   1
  -2  -6  -2 245.383 8.88864   1
  -2  -6  -2 256.017 11.5871   2
   2   6   2 244.196 9.18339   3
  -3  -6  -2 43.6976 6.82478   2
  -3  -6  -2 32.3205 3.76682   1
  -4  -6  -2 289.077 16.2318   2
   6  -7  -2 192.817 11.9256   2
  -6   7   2 196.515 12.2420   1
   5  -7  -2 287.919 13.0113   2
   5  -7  -2 302.748 10.1292   3
  -5   7   2 314.397 14.5028   1
   4  -7  -2 721.722 21.8709   2
   4  -7  -2 692.126 17.3967   3
  -4   7   2 705.482 23.7535   1
   3  -7  -2 166.413 7.75204   2
  -3   7   2 158.418 9.00859   1
   2  -7  -2 148.238 7.29038   2
  -2   7   2 160.502 8.72267   1
   1  -7  -2 1035.57 29.4481   1
   1  -7  -2 1023.75 32.3385   2
   0  -7  -2 1067.14 30.2794   1
   0  -7  -2 1163.81 30.5272   1
   0  -7  -2 1120.88 29.8149   2
  -1  -7  -2 520.386 15.8001   1
  -1  -7  -2 474.547 16.1706   1
  -1  -7  -2 520.423 17.3910   2
  -2  -7  -2 1034.19 27.8117   1
  -2  -7  -2 1057.61 27.2851   1
  -2  -7  -2 1085.68 31.7752   2
   2   7   2 1022.63 28.9613   3
  -3  -7  -2 696.199 25.6550   2
  -4  -7  -2 106.922 12.6998   2
   5  -8  -2 234.616 11.4656   2
  -5   8   2 208.895 13.1226   1
   4  -8  -2 26.2319 5.26920   2
  -4   8   2 20.5696 4.56395   1
   3  -8  -2 173.311 8.34515   2
  -3   8   2 158.488 9.98546   1
   2  -8  -2 323.124 11.7878   2
  -2   8   2 324.513 13.7262   1
   1  -8  -2 202.520 11.7175   1
   1  -8  -2 233.262 9.36484   2
   0  -8  -2 148.084 7.98950   1
   0  -8  -2 139.395 7.51997   2
  -1  -8  -2 550.728 17.3456   1
  -1  -8  -2 552.748 19.1096   2
  -2  -8  -2 440.895 14.3055   1
  -2  -8  -2 480.061 18.9182   2
  -3  -8  -2 47.9965 9.44844   2
   4  -9  -2 7.01896 3.40148   2
  -4   9   2 -3.1751 4.83314   1
   3  -9  -2 447.097 15.7017   2
  -3   9   2 449.305 18.2257   1
   2  -9  -2 -0.7153 2.22856   2
   1  -9  -2 9.07328 2.65231   2
   1  -9  -2 14.5166 3.57708   1
   0  -9  -2 121.833 7.65192   2
   0  -9  -2 103.698 7.66023   1
  -1  -9  -2 -0.5105 3.49425   2
  -2  -9  -2 51.8041 9.26738   2
   3 -10  -2 169.889 10.6379   2
   2 -10  -2 188.012 9.32044   2
   2 -10  -2 159.289 11.0636   1
   1 -10  -2 165.437 10.2094   1
   1 -10  -2 153.049 8.54085   2
   0 -10  -2 24.4396 4.56844   1
   0 -10  -2 19.2958 3.98909   2
  -1 -10   3 196.657 11.5710   2
   0 -10   3 131.768 8.21893   2
  -1  10  -3 44.7867 7.36441   1
   1 -10   3 58.5554 5.72970   2
  -2  10  -3 330.992 14.6653   1
   2 -10   3 305.563 12.2872   2
  -3  10  -3 123.799 11.0392   1
   3 -10   3 121.820 7.32345   2
  -2  -9   3 95.6871 9.06839   2
  -1  -9   3 1.88502 2.49103   1
  -1  -9   3 11.6986 3.35150   2
   0   9  -3 -4.6330 2.81404   1
   0  -9   3 2.51878 2.21489   2
   0  -9   3 2.41469 2.87439   3
  -1   9  -3 138.673 8.86963   1
   1  -9   3 151.942 7.49512   2
   1  -9   3 151.184 7.10161   3
  -2   9  -3 61.0297 7.43154   1
   2  -9   3 50.2366 4.65986   3
   2  -9   3 60.3859 4.90030   2
  -3   9  -3 7.93054 4.86276   1
   3  -9   3 7.43494 2.50500   3
   3  -9   3 8.48322 2.73250   2
  -4   9  -3 77.7741 10.0820   1
   4  -9   3 58.3136 6.40597   2
   4  -9   3 49.1713 8.84950   3
  -3  -8   3 1132.04 36.1803   2
  -2  -8   3 141.572 9.36651   2
   1   8  -3 395.258 11.6341   3
  -1  -8   3 421.704 15.2943   2
  -1  -8   3 377.892 12.4825   1
  -1  -8   3 396.516 12.5820   1
   0   8  -3 680.474 17.0828   3
   0   8  -3 683.753 20.0001   1
   0  -8   3 683.035 20.0475   2
   0  -8   3 619.527 19.6412   1
   0  -8   3 674.921 18.8985   3
  -1   8  -3 265.105 8.50245   3
  -1   8  -3 261.773 11.3310   1
   1  -8   3 264.893 9.24863   3
   1  -8   3 264.350 9.95148   2
  -2   8  -3 61.6469 6.39578   1
   2  -8   3 48.9257 4.30029   2
   2  -8   3 56.6113 3.99103   3
  -3   8  -3 560.871 20.2744   1
   3  -8   3 562.980 15.4737   3
   3  -8   3 554.833 17.3681   2
  -4   8  -3 369.655 16.6803   1
   4  -8   3 339.249 11.3384   3
   4  -8   3 367.948 13.6713   2
  -5   8  -3 24.6498 6.01769   1
   5  -8   3 22.9349 4.02979   3
   5  -8   3 17.8692 4.49867   2
  -4  -7   3 529.041 22.5494   2
  -3  -7   3 498.896 19.9715   2
   2   7  -3 1134.75 28.3997   3
  -2  -7   3 1096.81 32.3327   2
   1   7  -3 983.108 24.4049   3
  -1  -7   3 1014.19 26.5527   3
  -1  -7   3 981.353 25.0676   1
  -1  -7   3 985.200 27.8644   2
   0   7  -3 177.210 7.94026   1
   0   7  -3 188.633 6.21308   3
   0  -7   3 176.056 7.84370   1
   0  -7   3 185.522 7.38806   3
   0  -7   3 184.719 7.76212   2
  -1   7  -3 619.454 15.8946   3
  -1   7  -3 598.614 18.7866   1
   1  -7   3 622.750 17.2974   2
   1  -7   3 612.790 16.3451   3
   1  -7   3 576.560 18.6321   1
  -2   7  -3 905.023 26.7497   1
   2  -7   3 900.740 22.4890   3
   2  -7   3 930.665 24.3548   2
  -3   7  -3 770.457 24.8411   1
   3  -7   3 779.496 19.9552   3
   3  -7   3 796.322 22.2781   2
  -4   7  -3 85.3902 8.83148   1
   4  -7   3 96.1638 5.32312   3
   4  -7   3 92.7790 6.57614   2
  -5   7  -3 534.484 21.3777   1
   5  -7   3 565.312 16.8049   3
   5  -7   3 550.151 19.3084   2
  -5  -6   3 19.0051 6.05813   2
  -4  -6   3 5.10350 3.99285   2
  -3  -6   3 314.742 14.3289   2
   2   6  -3 23.1382 3.47633   3
  -2  -6   3 23.0944 3.87580   2
   1   6  -3 1.40167 1.34975   3
   1   6  -3 3.35573 1.31840   1
   1   6  -3 3.49500 1.75086   2
  -1  -6   3 -0.0027 1.54375   3
  -1  -6   3 -0.5540 1.48171   2
   0   6  -3 64.8112 4.44114   1
   0   6  -3 70.9737 3.34708   3
   0   6  -3 67.4337 4.50398   2
   0  -6   3 73.1274 4.32458   1
   0  -6   3 67.0370 3.94359   2
   0  -6   3 67.3821 3.84773   3
  -1   6  -3 875.462 24.3406   2
  -1   6  -3 896.991 24.5195   1
  -1   6  -3 880.729 21.6994   3
   1  -6   3 911.855 22.8638   2
   1  -6   3 896.366 21.8376   3
   1  -6   3 863.202 24.3041   1
  -2   6  -3 4.34574 2.55047   2
  -2   6  -3 6.71832 2.28355   1
   2  -6   3 4.31455 1.33687   3
   2  -6   3 7.63541 2.29547   1
   2  -6   3 3.54920 1.29767   2
  -3   6  -3 248.149 11.5426   1
   3  -6   3 254.351 8.26045   3
   3  -6   3 245.302 9.78012   2
  -4   6  -3 205.755 10.9578   1
   4  -6   3 201.713 7.99224   3
   4  -6   3 210.420 9.76949   2
  -5   6  -3 49.0856 7.95993   1
   5  -6   3 53.0777 6.73362   2
   5  -6   3 61.1947 5.52150   3
  -6   6  -3 17.9563 5.69291   1
   6  -6   3 14.8837 4.28879   3
  -5  -5   3 63.6673 8.87690   2
  -4  -5   3 236.799 12.6684   2
  -3  -5   3 3.73999 2.35808   2
   2   5  -3 -0.9030 1.31257   2
   2   5  -3 5.94548 1.65730   3
  -2  -5   3 1.71963 1.55870   2
   1   5  -3 1025.81 24.3112   1
   1   5  -3 1006.97 25.1169   2
   1   5  -3 1030.73 24.8176   3
  -1  -5   3 962.927 26.1512   2
  -1  -5   3 1020.31 24.2470   1
  -1  -5   3 1043.37 26.0118   3
   0   5  -3 851.706 21.8858   2
   0   5  -3 860.677 22.1393   1
   0   5  -3 866.962 20.6028   3
   0  -5   3 847.370 22.0256   1
   0  -5   3 875.807 21.7809   2
   0  -5   3 856.539 21.4651   3
  -1   5  -3 130.710 6.23775   2
  -1   5  -3 134.317 6.47178   1
  -1   5  -3 129.655 4.85327   3
   1  -5   3 129.417 5.28810   2
   1  -5   3 133.722 4.78462   3
   1  -5   3 136.972 6.32504   1
  -2   5  -3 155.849 7.78554   2
  -2   5  -3 159.455 7.78436   1
   2  -5   3 159.894 6.42843   2
   2  -5   3 173.471 7.96172   1
   2  -5   3 153.522 5.49803   3
  -3   5  -3 979.415 27.7960   1
   3  -5   3 987.388 26.0721   2
   3  -5   3 903.629 27.4779   2
   3  -5   3 961.047 23.7667   3
  -4   5  -3 5.30701 2.88069   1
   4  -5   3 -1.7793 2.19789   2
   4  -5   3 -0.0879 1.81919   3
  -5   5  -3 12.1195 4.07778   1
   5  -5   3 11.4946 2.92050   3
   5  -5   3 10.8329 3.45037   2
  -6   5  -3 197.580 12.3995   1
   6  -5   3 200.219 10.3228   3
   6  -5   3 217.298 12.1134   2
  -6  -4   3 528.972 23.2345   2
  -5  -4   3 648.227 24.3545   2
  -4  -4   3 774.931 25.6417   2
   3   4  -3 448.337 14.7001   3
   3   4  -3 458.688 14.2655   2
  -3  -4   3 467.146 16.4753   2
   2   4  -3 3878.20 87.2630   3
   2   4  -3 3823.12 86.4536   2
  -2  -4   3 3966.52 88.9620   2
   1   4  -3 2384.62 53.6487   1
   1   4  -3 2390.92 54.4659   2
   1   4  -3 2489.58 54.7659   3
  -1  -4   3 2444.94 55.7175   2
  -1  -4   3 2465.66 55.6747   3
  -1  -4   3 2383.72 53.4993   1
   0   4  -3 2042.41 44.2659   2
   0   4  -3 1675.70 43.9052   3
   0   4  -3 1973.30 44.6194   1
   0  -4   3 1955.90 44.0529   2
   0  -4   3 1961.06 43.9524   3
   0  -4   3 2026.76 44.6828   1
  -1   4  -3 2091.43 49.7341   1
  -1   4  -3 2110.23 47.6878   3
  -1   4  -3 2163.52 49.1965   2
   1  -4   3 2171.10 49.8017   1
   1  -4   3 2141.23 47.3892   3
   1  -4   3 2078.22 47.9401   2
  -2   4  -3 971.462 26.4852   1
  -2   4  -3 976.503 26.2393   2
   2  -4   3 1000.79 23.6074   3
   2  -4   3 1001.86 25.0265   2
   2  -4   3 991.521 26.3523   1
  -3   4  -3 435.628 15.0886   1
   3  -4   3 439.571 14.2093   2
   3  -4   3 420.030 12.3220   3
   3  -4   3 424.798 15.2819   2
  -4   4  -3 623.343 20.5617   1
   4  -4   3 605.115 19.6696   2
   4  -4   3 603.173 17.3901   3
  -5   4  -3 1110.14 33.0628   1
   5  -4   3 1147.36 30.1186   3
   5  -4   3 1104.86 32.8769   2
  -6   4  -3 282.002 14.5338   1
   6  -4   3 279.661 14.2954   2
   6  -4   3 283.790 12.2190   3
  -6  -3   3 255.557 14.8836   2
  -5  -3   3 128.024 8.96367   2
  -4  -3   3 954.044 29.0833   2
   3   3  -3 1711.97 41.2944   2
   3   3  -3 1686.04 41.7461   3
  -3  -3   3 1695.50 43.3174   2
   2   3  -3 582.191 16.3478   3
   2   3  -3 598.375 15.9838   2
  -2  -3   3 600.933 17.1130   3
  -2  -3   3 599.847 17.2942   2
   1   3  -3 617.936 14.7047   1
   1   3  -3 636.520 16.0534   3
   1   3  -3 628.799 15.5265   2
  -1  -3   3 624.958 16.3001   2
  -1  -3   3 632.243 16.5616   3
  -1  -3   3 623.548 14.5653   1
   0   3  -3 2086.13 46.2563   2
   0   3  -3 2147.05 46.9610   1
   0   3  -3 2069.90 46.0657   3
   0  -3   3 2130.44 46.8471   1
   0  -3   3 2043.77 46.3527   3
   0  -3   3 1995.04 46.1377   2
  -1   3  -3 412.664 12.1614   1
  -1   3  -3 407.329 11.5450   2
   1  -3   3 402.449 10.8052   2
   1  -3   3 404.054 10.4524   3
  -2   3  -3 138.479 6.47747   1
   2  -3   3 135.313 6.39636   2
   2  -3   3 140.390 5.89870   2
   2  -3   3 134.741 5.00558   3
   2  -3   3 147.482 6.41511   1
  -3   3  -3 720.725 21.2793   1
   3  -3   3 740.323 21.8545   2
   3  -3   3 729.354 20.8447   1
   3  -3   3 716.876 19.0365   3
   3  -3   3 717.447 20.8440   2
  -4   3  -3 1250.10 33.9856   1
   4  -3   3 1177.00 34.4349   2
   4  -3   3 1272.90 31.6390   3
   4  -3   3 1252.17 34.0374   2
  -5   3  -3 195.294 10.7710   1
   5  -3   3 214.381 11.2004   2
   5  -3   3 227.194 9.67694   3
  -6   3  -3 538.316 20.3050   1
   6  -3   3 549.284 18.8009   3
   6  -3   3 539.287 21.2860   2
   5   2  -3 59.8181 3.31093   1
  -5  -2   3 49.6267 6.38752   2
  -4  -2   3 574.540 19.6931   2
   3   2  -3 448.525 14.1346   3
   3   2  -3 444.786 14.0575   2
  -3  -2   3 444.427 15.0450   2
   2   2  -3 365.810 11.0795   3
   2   2  -3 356.029 10.7431   2
  -2  -2   3 361.204 11.4852   2
   1   2  -3 102.003 3.61953   2
   1   2  -3 101.576 3.06735   1
   1   2  -3 106.107 4.05927   3
  -1  -2   3 100.723 2.96736   1
  -1  -2   3 100.892 3.91477   2
  -1  -2   3 101.396 4.25556   3
   0   2  -3 8.15983 1.10443   1
   0   2  -3 10.3041 0.94458   2
   0  -2   3 6.93030 0.91823   3
   0  -2   3 7.38014 0.75057   2
   0  -2   3 8.98432 1.06294   1
  -1   2  -3 5.17271 0.87396   3
  -1   2  -3 4.94850 1.05542   1
  -1   2  -3 4.83302 1.04978   2
   1  -2   3 6.41450 0.92675   3
   1  -2   3 4.65174 1.05444   1
  -2   2  -3 2653.95 61.6973   1
   2  -2   3 2759.16 61.5252   1
   2  -2   3 2647.51 61.2487   2
   2  -2   3 2616.15 59.8773   3
   2  -2   3 2750.98 61.8778   2
  -3   2  -3 151.255 7.15123   1
   3  -2   3 159.130 7.08968   1
   3  -2   3 142.457 6.06112   3
   3  -2   3 150.805 7.57544   2
  -4   2  -3 99.1536 6.27767   1
  -4   2  -3 93.0781 6.41686   2
   4  -2   3 90.8978 6.81087   2
   4  -2   3 95.6317 6.17896   1
  -5   2  -3 331.705 14.6468   2
  -6   2  -3 173.822 10.8750   1
  -6  -1   3 353.142 11.3571   1
  -6  -1   3 368.697 17.4188   2
   5   1  -3 315.270 10.0585   1
  -5  -1   3 311.181 9.88898   1
  -5  -1   3 306.545 14.3208   2
   4   1  -3 166.550 5.91867   1
   4   1  -3 162.875 8.65110   2
  -4  -1   3 166.654 5.89244   1
  -4  -1   3 170.825 9.02534   2
   3   1  -3 891.254 24.1778   3
   3   1  -3 924.673 24.7497   2
   3   1  -3 928.133 21.5691   1
  -3  -1   3 899.879 25.2474   2
  -3  -1   3 927.397 21.5455   1
   2   1  -3 1271.80 28.5536   1
   2   1  -3 1266.95 28.5062   1
  -2  -1   3 1282.29 31.1751   2
   1   1  -3 142.301 4.70903   3
   1   1  -3 133.698 4.27799   2
   1   1  -3 130.644 3.84936   1
  -1  -1   3 131.213 3.92277   1
  -1  -1   3 130.255 4.48189   2
  -1  -1   3 133.686 4.74145   3
   0   1  -3 1396.14 30.1342   2
   0   1  -3 1424.99 30.9147   3
   0   1  -3 1422.36 31.4514   1
   0  -1   3 1456.23 31.4585   1
   0  -1   3 1260.45 29.9954   2
  -1   1  -3 5208.46 112.600   1
  -1   1  -3 5249.19 111.942   2
  -1   1  -3 5101.23 111.748   3
   1  -1   3 5094.84 112.367   1
   1  -1   3 5123.32 111.887   2
  -2   1  -3 3824.36 87.5600   1
  -2   1  -3 4007.42 87.9083   2
   2  -1   3 3967.15 87.4011   1
   2  -1   3 3903.61 86.5764   3
  -3   1  -3 105.089 5.56250   1
  -3   1  -3 102.527 5.99065   2
   3  -1   3 105.368 6.05074   2
   3  -1   3 102.765 5.45302   1
  -4   1  -3 143.063 8.16893   2
  -4   1  -3 141.964 7.30018   1
   4  -1   3 137.077 7.01770   1
   4  -1   3 131.486 7.71286   2
  -5   1  -3 223.140 11.9345   2
  -5   1  -3 223.043 10.6067   1
  -6   1  -3 13.8929 4.99619   2
  -6   1  -3 18.3337 4.43928   1
  -7   0   3 731.572 28.2144   2
  -6   0   3 253.573 10.0943   1
  -6   0   3 303.247 15.3890   2
   5   0  -3 768.901 20.6769   1
  -5   0   3 703.025 28.2360   2
  -5   0   3 782.932 20.8756   1
   4   0  -3 1930.47 44.3012   1
   4   0  -3 1876.75 47.9633   2
   4   0  -3 1849.41 46.6876   3
  -4   0   3 1868.57 48.1518   2
  -4   0   3 1922.69 44.3685   1
   3   0  -3 2302.77 50.9389   1
   3   0  -3 2262.77 53.5348   2
   3   0  -3 2244.85 52.5207   3
  -3   0   3 2177.34 53.4492   2
  -3   0   3 2206.94 50.6813   1
   2   0  -3 1625.29 37.1631   2
   2   0  -3 1615.61 35.7466   1
  -2   0   3 1568.32 37.0272   2
  -2   0   3 1433.41 36.0693   1
   1   0  -3 5309.23 114.037   3
   1   0  -3 5233.06 114.087   1
   1   0  -3 5466.70 114.175   2
  -1   0   3 5270.98 114.314   3
  -1   0   3 5072.22 113.976   2
  -1   0   3 5319.88 114.318   1
   0   0  -3 3788.93 83.2411   3
   0   0  -3 3942.23 84.1507   1
   0   0   3 3941.02 84.1222   1
   0   0   3 3790.10 83.3003   3
  -1   0  -3 875.296 21.3035   1
  -1   0  -3 876.779 21.0595   2
   1   0   3 876.148 20.7641   2
   1   0   3 877.786 20.6281   3
   1   0   3 899.203 21.2677   1
  -2   0  -3 2863.81 65.9421   1
  -2   0  -3 2961.67 66.7969   2
   2   0   3 2896.68 66.1623   2
   2   0   3 2971.45 65.7332   1
  -3   0  -3 2905.45 66.2211   1
  -3   0  -3 2843.59 67.7602   2
   3   0   3 2913.26 65.6151   1
   3   0   3 2814.40 66.8140   2
  -4   0  -3 74.0913 5.20325   1
  -4   0  -3 72.0027 6.55595   2
   4   0   3 68.5254 5.59979   2
   4   0   3 78.9910 5.12892   1
  -5   0  -3 425.806 15.4981   1
  -5   0  -3 436.264 17.9646   2
  -6   0  -3 727.214 26.8506   2
  -6   0  -3 697.565 23.0525   1
  -7   1   3 87.5579 6.94975   1
  -7   1   3 71.6052 10.1593   2
   6  -1  -3 156.261 8.92428   1
  -6   1   3 156.906 8.02114   1
  -6   1   3 158.816 11.0649   2
   5  -1  -3 411.142 14.0846   1
  -5   1   3 432.320 14.0582   1
   4  -1  -3 2.71961 2.19244   3
   4  -1  -3 4.83197 1.77289   1
   4  -1  -3 3.25025 2.58942   2
  -4   1   3 4.27183 1.46079   1
  -4   1   3 2.97290 1.88613   2
   3  -1  -3 272.842 9.21432   1
   3  -1  -3 269.925 9.49396   3
   3  -1  -3 274.463 10.6781   2
  -3   1   3 265.717 8.96443   1
  -3   1   3 263.376 10.0789   2
   2  -1  -3 3162.05 68.8802   2
   2  -1  -3 2963.77 67.2370   3
   2  -1  -3 2952.00 67.7377   1
  -2   1   3 3038.21 67.6598   1
   1  -1  -3 291.772 8.33316   1
   1  -1  -3 276.872 7.10904   3
   1  -1  -3 274.231 8.24147   1
   1  -1  -3 269.614 7.51590   2
  -1   1   3 267.023 7.76366   2
  -1   1   3 269.447 7.30132   3
   0  -1  -3 250.799 6.37749   3
   0  -1  -3 247.928 6.40933   2
   0   1   3 271.902 6.52756   2
   0   1   3 253.105 7.59170   1
   0   1   3 251.333 6.36172   3
  -1  -1  -3 12.0218 1.47161   2
  -1  -1  -3 9.74070 1.33241   1
   1   1   3 11.1261 1.23024   2
   1   1   3 12.3578 1.55073   1
   1   1   3 10.4210 1.20112   3
  -2  -1  -3 729.348 20.3303   2
  -2  -1  -3 757.592 19.4338   1
   2   1   3 750.029 19.5093   2
   2   1   3 757.149 19.1755   1
  -3  -1  -3 392.409 12.2280   1
  -3  -1  -3 379.416 13.7096   2
   3   1   3 385.318 11.7695   1
   3   1   3 364.375 12.5722   2
  -4  -1  -3 200.321 10.2961   2
  -4  -1  -3 196.981 8.61611   1
   4   1   3 200.317 8.18678   1
  -5  -1  -3 1165.36 35.3939   2
  -5  -1  -3 1150.32 31.3960   1
   5   1   3 1120.59 30.2414   1
  -6  -1  -3 136.892 9.04900   1
  -6  -1  -3 162.690 12.4845   2
   7  -2  -3 160.911 13.1489   2
  -7   2   3 149.556 9.25160   1
   6  -2  -3 42.9257 7.37309   2
  -6   2   3 40.1047 5.37993   1
   5  -2  -3 1.96744 2.73608   1
  -5   2   3 8.82823 2.23781   1
   4  -2  -3 91.4611 6.08394   2
   4  -2  -3 89.3919 5.77833   1
   4  -2  -3 81.0304 7.03362   2
  -4   2   3 89.6008 5.31890   1
   3  -2  -3 1830.99 43.8179   1
   3  -2  -3 1840.47 42.9424   3
   3  -2  -3 1778.64 44.1618   2
   3  -2  -3 1798.95 45.1704   2
  -3   2   3 1831.88 43.5270   1
   2  -2  -3 165.530 6.83148   2
   2  -2  -3 163.301 6.63086   1
   2  -2  -3 163.033 5.49774   3
   2  -2  -3 153.349 6.16769   2
  -2   2   3 154.846 6.33234   1
   1  -2  -3 8.10553 1.06191   2
   1  -2  -3 6.96639 0.69925   3
   1  -2  -3 7.99245 1.45546   1
  -1   2   3 9.87536 0.91111   3
  -1   2   3 6.35592 1.27324   2
   0  -2  -3 240.312 7.77428   1
   0  -2  -3 244.457 6.76298   2
   0   2   3 236.066 7.87582   1
   0   2   3 249.798 6.88683   2
   0   2   3 235.092 5.95474   3
  -1  -2  -3 125.904 4.92567   1
  -1  -2  -3 124.349 5.03232   2
   1   2   3 118.900 4.59917   2
  -2  -2  -3 11.0071 2.18520   2
  -2  -2  -3 6.13277 1.21227   1
   2   2   3 7.41462 1.41257   1
   2   2   3 4.49436 1.21182   2
  -3  -2  -3 315.397 10.5817   1
  -3  -2  -3 314.060 12.4648   2
   3   2   3 300.322 10.8666   2
   3   2   3 303.843 10.0705   1
  -4  -2  -3 980.800 29.9294   2
  -4  -2  -3 1014.56 26.5658   1
   4   2   3 932.181 25.3311   1
  -5  -2  -3 18.3582 3.41223   1
  -5  -2  -3 26.4566 5.02376   2
  -6  -2  -3 24.1005 6.39424   2
   7  -3  -3 173.886 12.6281   2
  -7   3   3 148.736 9.91434   1
   6  -3  -3 204.802 12.1352   2
  -6   3   3 187.354 10.2511   1
   5  -3  -3 795.702 25.5416   2
  -5   3   3 817.358 24.3879   1
   4  -3  -3 907.307 25.9765   1
   4  -3  -3 895.175 27.6700   2
   4  -3  -3 913.524 26.3002   2
  -4   3   3 920.433 25.7717   1
   3  -3  -3 400.588 14.4329   2
   3  -3  -3 409.721 13.8713   1
   3  -3  -3 415.247 13.4870   2
   3  -3  -3 409.754 12.1798   3
  -3   3   3 398.894 13.3163   1
   2  -3  -3 3331.61 74.7540   1
   2  -3  -3 3301.49 73.2143   2
   2  -3  -3 3232.40 71.2361   3
  -2   3   3 3221.65 74.2069   1
  -2   3   3 3184.88 74.1378   2
   1  -3  -3 1975.12 44.7925   1
   1  -3  -3 1803.05 42.5379   2
   1  -3  -3 1862.50 44.7359   1
  -1   3   3 1910.71 43.7042   2
   0  -3  -3 1710.45 40.7873   1
   0  -3  -3 1801.03 41.0391   1
   0  -3  -3 1704.88 39.4759   2
   0   3   3 1732.66 39.6604   2
  -1  -3  -3 1563.38 37.4910   2
  -1  -3  -3 1543.69 37.0582   1
   1   3   3 1597.57 36.3915   2
   1   3   3 1598.67 37.5528   1
  -2  -3  -3 1934.11 45.3686   1
  -2  -3  -3 1986.29 47.5875   2
   2   3   3 1889.11 45.1462   2
   2   3   3 1970.33 45.4993   1
  -3  -3  -3 340.036 13.6396   2
  -3  -3  -3 346.766 11.2582   1
   3   3   3 321.560 11.2901   2
   3   3   3 332.172 10.9327   1
  -4  -3  -3 143.851 9.52007   2
  -4  -3  -3 157.657 7.41924   1
   4   3   3 142.439 7.23066   1
  -5  -3  -3 510.388 16.6322   1
  -5  -3  -3 507.778 21.2107   2
   7  -4  -3 154.938 17.2125   2
  -7   4   3 134.246 10.0952   1
   6  -4  -3 709.219 24.7461   2
  -6   4   3 709.196 23.6378   1
   5  -4  -3 805.955 25.3690   2
  -5   4   3 803.931 25.3323   1
   4  -4  -3 91.5967 6.16374   2
  -4   4   3 94.7474 6.45416   1
   3  -4  -3 819.054 22.4837   2
   3  -4  -3 793.810 23.6266   1
  -3   4   3 805.449 23.2443   1
   2  -4  -3 1845.32 45.2040   1
   2  -4  -3 1833.87 43.0113   2
  -2   4   3 1837.28 44.7663   1
  -2   4   3 1816.53 44.6709   2
   1  -4  -3 246.832 9.57930   1
   1  -4  -3 256.702 9.55810   1
   1  -4  -3 244.009 7.92232   2
  -1   4   3 256.447 8.92890   2
   0  -4  -3 1288.28 31.6870   1
   0  -4  -3 1232.87 31.3745   1
   0  -4  -3 1254.85 30.1370   2
   0   4   3 1267.72 30.3531   2
  -1  -4  -3 3375.62 76.0188   2
  -1  -4  -3 3361.20 75.3779   1
   1   4   3 3276.55 74.4908   2
  -2  -4  -3 1292.76 34.0371   2
  -2  -4  -3 1256.12 31.4782   1
   2   4   3 1296.92 32.0545   1
   2   4   3 1269.08 31.3496   2
  -3  -4  -3 122.341 5.99009   1
  -3  -4  -3 111.723 7.84910   2
   3   4   3 120.501 6.52621   1
  -4  -4  -3 871.931 28.7300   2
  -4  -4  -3 836.109 23.4954   1
  -5  -4  -3 525.185 22.3378   2
   6  -5  -3 19.8902 4.62708   2
   5  -5  -3 -0.6289 3.91653   3
   5  -5  -3 1.35794 2.93951   2
  -5   5   3 2.79374 2.91815   1
   4  -5  -3 211.972 8.66631   3
   4  -5  -3 178.685 13.1460   2
  -4   5   3 221.291 12.0828   1
   3  -5  -3 15.9640 3.01783   2
   3  -5  -3 11.3860 3.04722   1
   3  -5  -3 12.0900 1.90022   3
  -3   5   3 14.7275 2.86690   1
  -3   5   3 13.5555 3.10736   2
   2  -5  -3 92.6313 4.69660   2
   2  -5  -3 84.8240 5.92706   1
  -2   5   3 88.6473 5.66638   1
  -2   5   3 92.8670 5.96169   2
   1  -5  -3 49.2924 4.06713   1
   1  -5  -3 54.7767 3.31475   2
   1  -5  -3 44.9977 4.17962   1
  -1   5   3 48.2199 4.00648   2
   0  -5  -3 438.762 14.2647   1
   0  -5  -3 441.503 13.1387   2
   0  -5  -3 446.725 14.1733   1
   0   5   3 445.661 13.3760   2
  -1  -5  -3 46.4084 3.56104   1
  -1  -5  -3 48.9698 4.09712   2
  -1  -5  -3 44.6865 3.79232   1
   1   5   3 47.3666 3.04502   3
   1   5   3 44.2969 3.56615   2
  -2  -5  -3 263.411 11.3619   2
  -2  -5  -3 253.103 9.21536   1
  -2  -5  -3 262.260 9.54321   1
   2   5   3 245.210 9.37333   3
  -3  -5  -3 21.9155 3.50433   1
   3   5   3 32.8012 5.28739   3
  -4  -5  -3 47.7988 8.02275   2
  -4  -5  -3 49.0544 4.87204   1
  -5  -5  -3 46.4432 7.57047   2
   6  -6  -3 45.4654 8.40828   2
  -6   6   3 29.6873 5.43580   1
   5  -6  -3 123.794 6.55038   3
   5  -6  -3 133.795 8.96736   2
  -5   6   3 133.850 9.38098   1
   4  -6  -3 147.632 7.08874   3
   4  -6  -3 136.981 7.72499   2
   4  -6  -3 132.615 5.40906   3
  -4   6   3 143.064 9.04656   1
   3  -6  -3 199.567 8.52703   2
  -3   6   3 199.190 11.2276   1
   2  -6  -3 340.444 11.3031   2
  -2   6   3 344.016 13.1254   1
   1  -6  -3 201.398 9.27055   1
   1  -6  -3 189.118 9.01960   1
   1  -6  -3 207.711 7.69313   2
  -1   6   3 186.031 8.73549   2
   0  -6  -3 0.63888 1.60431   1
   0  -6  -3 0.25404 2.10527   1
  -1  -6  -3 240.249 10.1275   2
  -1  -6  -3 240.784 9.69640   1
  -1  -6  -3 239.227 9.26906   1
   1   6   3 222.497 8.59109   3
  -2  -6  -3 750.176 23.6156   2
  -2  -6  -3 719.838 20.2591   1
  -2  -6  -3 713.714 20.7783   1
   2   6   3 712.939 19.8501   3
  -3  -6  -3 43.6422 6.98407   2
  -3  -6  -3 36.9953 4.16197   1
  -4  -6  -3 59.7106 9.41776   2
   6  -7  -3 295.408 15.7127   2
  -6   7   3 275.941 14.9867   1
   5  -7  -3 82.9352 7.58427   2
   5  -7  -3 93.4174 5.91123   3
  -5   7   3 83.5261 9.06915   1
   4  -7  -3 321.273 12.5971   2
  -4   7   3 322.967 14.3326   1
   3  -7  -3 2810.25 66.0289   2
  -3   7   3 2799.93 69.1835   1
   2  -7  -3 359.527 12.2221   2
   1  -7  -3 219.948 10.4126   1
   1  -7  -3 217.012 8.94903   2
   0  -7  -3 786.960 22.4300   2
   0  -7  -3 786.604 23.3126   1
  -1  -7  -3 730.481 22.2761   1
  -1  -7  -3 756.945 21.7515   1
  -1  -7  -3 764.398 23.1922   2
  -2  -7  -3 153.099 7.30938   1
  -2  -7  -3 160.417 9.62732   2
  -3  -7  -3 513.272 21.3966   2
   5  -8  -3 72.1957 6.94262   2
  -5   8   3 45.1793 8.97274   1
   4  -8  -3 186.319 9.21592   2
  -4   8   3 164.312 10.9313   1
   3  -8  -3 311.562 11.8828   2
  -3   8   3 309.495 14.2390   1
   2  -8  -3 64.7769 7.20505   1
   2  -8  -3 71.2422 5.08643   2
   1  -8  -3 287.591 10.8810   2
   1  -8  -3 276.569 12.4363   1
   0  -8  -3 135.274 7.56093   2
  -1  -8  -3 142.989 7.53436   1
  -1  -8  -3 131.772 8.83492   2
  -2  -8  -3 74.3300 5.62679   1
  -2  -8  -3 88.2884 8.56114   2
   4  -9  -3 71.1164 6.63120   2
  -4   9   3 63.0094 9.32052   1
   3  -9  -3 43.9300 5.43089   2
   2  -9  -3 57.9423 7.57279   1
   2  -9  -3 58.3819 5.53691   2
   1  -9  -3 2.69495 3.28552   1
   1  -9  -3 3.71693 2.39522   2
   0  -9  -3 9.92571 3.16263   2
   0  -9  -3 3.80650 3.30321   1
  -1  -9  -3 304.858 14.4255   2
  -1  -9  -3 318.475 12.4397   1
   2 -10  -3 41.5213 6.32253   1
   2 -10  -3 43.6059 5.79460   2
   1 -10  -3 181.789 9.59398   2
   1 -10  -3 166.622 10.9738   1
  -1 -10   4 49.5651 7.24166   2
   0  10  -4 341.850 21.1792   1
   0 -10   4 391.315 14.7848   2
  -1  10  -4 79.2999 8.74692   1
   1 -10   4 105.083 6.84764   2
  -2  10  -4 5.39524 4.81277   1
   2 -10   4 6.04184 2.84445   2
  -3  10  -4 314.528 15.4728   1
   3 -10   4 281.208 11.8238   2
  -3  -9   4 -4.5453 5.33061   2
  -2  -9   4 40.1580 7.53509   2
  -1  -9   4 68.5019 4.86700   1
  -1  -9   4 89.5263 7.25085   2
   0   9  -4 114.029 7.54051   1
   0  -9   4 127.304 7.25674   2
   0  -9   4 119.325 8.31321   1
   0  -9   4 118.530 7.22049   3
  -1   9  -4 3.42178 3.43021   1
   1  -9   4 7.77831 2.60842   3
   1  -9   4 4.49745 1.95856   2
  -2   9  -4 20.5587 4.36298   1
   2  -9   4 21.5865 4.03011   2
   2  -9   4 30.4458 4.36403   3
  -3   9  -4 45.0513 8.30738   1
   3  -9   4 23.4610 4.96052   2
   3  -9   4 32.5884 4.56301   3
  -4   9  -4 11.5775 5.72688   1
   4  -9   4 11.8375 3.42936   3
   4  -9   4 8.17541 3.45049   2
  -4  -8   4 35.7293 7.44394   2
  -3  -8   4 279.518 15.0502   2
  -2  -8   4 400.512 16.5089   2
   1   8  -4 90.9457 4.81253   3
  -1  -8   4 98.4327 6.63758   3
  -1  -8   4 82.3731 5.16409   1
  -1  -8   4 82.9372 6.59350   2
   0   8  -4 609.854 16.5078   3
   0   8  -4 629.965 19.0217   1
   0  -8   4 637.422 18.4680   3
   0  -8   4 612.285 18.8885   1
   0  -8   4 658.836 19.2104   2
  -1   8  -4 1092.57 27.3720   3
  -1   8  -4 1101.50 30.9030   1
   1  -8   4 1136.15 29.2125   2
   1  -8   4 1137.82 28.4478   3
  -2   8  -4 37.6656 5.98741   1
   2  -8   4 26.4572 3.66567   2
   2  -8   4 23.8036 3.44690   3
  -3   8  -4 55.7422 7.29638   1
   3  -8   4 73.0102 4.80063   3
   3  -8   4 66.7957 5.21468   2
  -4   8  -4 314.981 15.7270   1
   4  -8   4 318.926 10.9979   3
   4  -8   4 335.208 12.7917   2
  -5   8  -4 271.778 15.5428   1
   5  -8   4 286.599 10.9256   3
   5  -8   4 263.070 12.6754   2
  -4  -7   4 527.917 22.3478   2
  -3  -7   4 353.789 16.1222   2
   2   7  -4 84.9066 5.86644   3
  -2  -7   4 84.9293 6.64168   2
   1   7  -4 1059.44 26.0273   1
   1   7  -4 1026.00 25.5458   3
  -1  -7   4 1040.21 27.6432   3
  -1  -7   4 1010.88 28.4377   2
  -1  -7   4 1012.73 25.6908   1
   0   7  -4 1391.17 35.3349   1
   0   7  -4 1394.91 32.9612   3
   0  -7   4 1384.96 34.4311   3
   0  -7   4 1394.56 35.2680   1
   0  -7   4 1436.96 35.1521   2
  -1   7  -4 604.509 19.0910   1
  -1   7  -4 623.882 16.5238   3
   1  -7   4 597.884 18.9893   1
   1  -7   4 615.176 16.8291   3
   1  -7   4 634.635 17.4881   2
  -2   7  -4 346.567 13.8792   1
   2  -7   4 349.934 11.6394   2
   2  -7   4 357.712 10.7753   3
  -3   7  -4 1259.46 36.1987   1
   3  -7   4 1306.44 33.1577   2
   3  -7   4 1281.20 31.1086   3
  -4   7  -4 403.477 17.0673   1
   4  -7   4 398.546 14.4097   2
   4  -7   4 370.773 13.9873   3
  -5   7  -4 343.497 16.8434   1
   5  -7   4 380.879 14.9226   2
   5  -7   4 351.882 12.5330   3
  -5  -6   4 170.364 13.0367   2
  -4  -6   4 240.433 13.4857   2
  -3  -6   4 -0.5147 2.90832   2
   2   6  -4 500.491 15.1603   3
  -2  -6   4 522.178 17.6176   2
   1   6  -4 142.570 5.58686   3
   1   6  -4 136.801 5.49441   1
   1   6  -4 130.667 6.04765   2
  -1  -6   4 138.990 6.65575   3
  -1  -6   4 117.763 6.44410   2
   0   6  -4 11.7422 2.14409   2
   0   6  -4 12.7422 2.16231   1
   0  -6   4 9.89999 2.00365   3
   0  -6   4 11.3358 2.01365   1
   0  -6   4 15.1155 2.21456   2
  -1   6  -4 162.278 6.02092   3
  -1   6  -4 156.818 7.61222   1
  -1   6  -4 164.238 7.76292   2
   1  -6   4 158.881 7.53494   1
   1  -6   4 163.986 6.39781   2
   1  -6   4 154.379 6.01546   3
  -2   6  -4 615.284 20.1009   2
  -2   6  -4 672.596 20.6278   1
   2  -6   4 670.679 18.0724   2
   2  -6   4 675.912 17.0892   3
   2  -6   4 626.925 19.9603   1
   3  -6   4 44.7033 4.18878   2
   3  -6   4 48.6092 3.42603   3
  -4   6  -4 50.0513 6.43437   1
   4  -6   4 32.1918 4.71960   3
   4  -6   4 37.4419 5.23557   2
  -5   6  -4 350.692 16.5423   1
   5  -6   4 340.663 14.4274   2
   5  -6   4 354.132 12.4452   3
  -6   6  -4 16.2284 6.00412   1
   6  -6   4 15.0685 5.58969   2
   6  -6   4 21.7541 4.35380   3
  -5  -5   4 61.9891 8.38342   2
  -4  -5   4 503.453 19.6867   2
  -3  -5   4 1273.92 35.7733   2
   2   5  -4 12.1981 2.18243   3
   2   5  -4 10.0139 1.88150   2
  -2  -5   4 17.4154 3.24339   3
   1   5  -4 5.11265 1.26321   3
   1   5  -4 3.10271 1.10060   1
   1   5  -4 3.57860 1.23475   2
  -1  -5   4 5.18599 1.48405   3
  -1  -5   4 2.17543 1.28716   2
  -1  -5   4 2.16453 0.98934   1
   0   5  -4 379.696 10.3584   3
   0   5  -4 373.227 11.5307   1
   0   5  -4 360.329 11.0653   2
   0  -5   4 373.231 10.9859   2
   0  -5   4 363.028 10.9968   3
   0  -5   4 376.944 11.3966   1
  -1   5  -4 173.284 6.11902   3
  -1   5  -4 170.959 7.53914   1
  -1   5  -4 170.240 7.32955   2
   1  -5   4 168.575 5.95027   3
   1  -5   4 173.207 7.38229   1
   1  -5   4 174.765 6.27187   2
  -2   5  -4 20.4068 3.36499   1
  -2   5  -4 16.3777 2.88931   2
   2  -5   4 23.9633 2.50691   2
   2  -5   4 20.6275 3.46979   1
   2  -5   4 21.2030 2.01491   3
  -3   5  -4 115.418 7.45953   1
   3  -5   4 121.328 7.45613   2
   3  -5   4 120.822 5.28682   3
   3  -5   4 117.577 6.25752   2
  -4   5  -4 218.174 11.2973   1
   4  -5   4 222.007 8.63715   3
   4  -5   4 220.908 10.0693   2
  -5   5  -4 -1.6797 3.60180   1
   5  -5   4 -0.4419 2.70089   3
  -6   5  -4 11.7265 5.58213   1
   6  -5   4 6.87853 4.83422   2
   6  -5   4 17.2751 4.06879   3
  -6  -4   4 147.345 12.0568   2
  -5  -4   4 486.455 20.2539   2
  -4  -4   4 1692.54 46.1387   2
   3   4  -4 214.329 9.10975   3
   3   4  -4 234.592 9.02802   2
  -3  -4   4 253.611 10.8996   2
   2   4  -4 926.477 23.6033   2
   2   4  -4 953.897 24.5574   3
  -2  -4   4 970.179 25.7749   2
  -2  -4   4 940.076 25.4416   3
   1   4  -4 1422.63 33.0695   1
   1   4  -4 1440.51 33.4567   2
   1   4  -4 1459.76 33.9381   3
  -1  -4   4 1474.40 34.9063   3
  -1  -4   4 1441.92 34.6121   2
  -1  -4   4 1425.23 32.7198   1
   0   4  -4 2312.15 51.4792   1
   0   4  -4 2238.49 50.1890   3
   0   4  -4 2288.21 50.6509   2
   0  -4   4 2211.80 50.7169   3
   0  -4   4 2176.84 50.3838   2
  -1   4  -4 254.990 7.85779   3
  -1   4  -4 253.623 9.23468   1
  -1   4  -4 259.266 8.72395   2
   1  -4   4 249.142 8.94137   1
   1  -4   4 255.144 7.63853   3
   1  -4   4 249.917 7.67486   2
  -2   4  -4 3307.17 76.2628   1
   2  -4   4 3273.28 72.8543   3
   2  -4   4 3208.12 75.6428   1
   2  -4   4 3352.65 74.0656   2
  -3   4  -4 867.315 25.4680   1
   3  -4   4 878.161 25.5466   2
   3  -4   4 830.665 24.6362   1
   3  -4   4 892.830 24.1767   2
   3  -4   4 902.564 22.4496   3
   4  -4   4 216.330 8.36465   3
   4  -4   4 204.001 9.72082   2
  -5   4  -4 465.759 18.0980   1
   5  -4   4 469.394 15.3915   3
   5  -4   4 450.254 17.5038   2
  -6   4  -4 658.895 24.3201   1
   6  -4   4 708.332 21.6243   3
   6  -4   4 651.524 24.0909   2
  -6  -3   4 396.649 18.9681   2
  -5  -3   4 178.564 10.7633   2
  -4  -3   4 3.26928 2.33435   2
   3   3  -4 441.364 13.7484   2
   3   3  -4 428.486 14.0223   3
  -3  -3   4 440.808 15.2101   2
   2   3  -4 2019.93 46.7800   3
   2   3  -4 1984.80 45.8429   2
  -2  -3   4 1983.45 47.4612   2
  -2  -3   4 1992.93 47.5311   3
   1   3  -4 879.005 20.3566   1
   1   3  -4 883.898 21.4322   3
  -1  -3   4 868.490 20.1266   1
  -1  -3   4 848.087 21.8748   3
  -1  -3   4 876.051 21.5497   2
   0   3  -4 2085.16 45.8127   2
   0   3  -4 2053.53 45.9502   3
   0   3  -4 2149.14 46.9977   1
   0  -3   4 2022.06 46.2672   3
   0  -3   4 2118.93 46.7257   1
   0  -3   4 1928.49 45.6050   2
  -1   3  -4 2440.26 56.1606   1
  -1   3  -4 2474.01 54.5855   3
  -1   3  -4 2429.49 55.1334   2
   1  -3   4 2375.97 54.1069   3
   1  -3   4 2539.89 56.0910   1
   1  -3   4 2371.06 54.0868   2
  -2   3  -4 2257.49 52.6193   1
   2  -3   4 2130.39 49.7244   3
   2  -3   4 2199.14 50.9459   2
   2  -3   4 2263.22 52.1657   2
   2  -3   4 2166.64 51.9423   1
  -3   3  -4 101.283 6.27188   1
   3  -3   4 111.536 6.31934   1
   3  -3   4 114.775 6.65117   2
   3  -3   4 111.534 5.06451   3
   3  -3   4 105.246 5.84216   2
  -4   3  -4 1102.38 31.2236   1
   4  -3   4 1122.46 30.9732   2
   4  -3   4 1037.56 31.0774   2
   4  -3   4 1118.04 28.6062   3
  -5   3  -4 657.516 22.4577   1
   5  -3   4 680.373 22.9487   2
   5  -3   4 655.038 20.1056   3
  -6   3  -4 111.173 9.91544   1
   6  -3   4 112.080 8.20213   3
   6  -3   4 127.158 10.5923   2
  -6  -2   4 -6.9017 4.36618   2
  -5  -2   4 3.84564 3.12146   2
   4   2  -4 82.4050 5.83196   2
  -4  -2   4 84.3902 6.31462   2
   3   2  -4 537.435 15.8936   2
   3   2  -4 515.660 15.9419   3
  -3  -2   4 532.221 16.9128   2
   2   2  -4 61.7120 3.40289   2
   2   2  -4 58.9338 3.70688   3
  -2  -2   4 60.5613 3.74247   2
  -2  -2   4 61.5145 3.80481   3
   1   2  -4 1613.47 36.1101   3
   1   2  -4 1588.36 35.0719   1
   1   2  -4 1516.84 35.0242   2
  -1  -2   4 1543.26 34.9421   1
  -1  -2   4 1576.96 36.5667   3
  -1  -2   4 1588.40 36.0236   2
   0   2  -4 872.542 20.1643   3
   0   2  -4 892.111 20.8856   1
   0   2  -4 877.102 19.4757   2
   0  -2   4 872.018 20.7033   1
   0  -2   4 876.607 20.3494   3
   0  -2   4 754.864 19.2286   2
  -1   2  -4 125.156 5.39366   1
  -1   2  -4 137.685 4.83256   3
   1  -2   4 133.565 4.56010   3
   1  -2   4 138.240 5.49642   1
   1  -2   4 135.528 5.00128   2
   1  -2   4 126.415 5.01713   2
  -2   2  -4 22.6691 2.58417   1
   2  -2   4 19.7377 2.28339   2
   2  -2   4 25.8107 2.77227   2
   2  -2   4 27.0203 2.73862   1
   2  -2   4 25.0557 2.02850   3
  -3   2  -4 395.798 13.5798   1
   3  -2   4 399.148 13.6838   2
   3  -2   4 392.141 12.0487   3
   3  -2   4 385.676 13.0779   1
  -4   2  -4 143.758 8.15851   2
  -4   2  -4 142.322 7.98152   1
   4  -2   4 128.612 8.05883   2
   4  -2   4 141.007 6.80517   3
  -5   2  -4 5.85818 3.30733   2
  -5   2  -4 -1.2326 2.99615   1
   5  -2   4 -4.1627 2.64190   3
  -6   2  -4 50.1651 7.77754   1
   6  -2   4 37.9728 6.59396   3
  -7  -1   4 55.2167 8.82907   2
  -6  -1   4 159.494 6.65938   1
  -6  -1   4 182.178 12.0205   2
   5   1  -4 1321.06 31.4894   1
  -5  -1   4 1294.75 37.9099   2
  -5  -1   4 1314.03 31.4624   1
   4   1  -4 620.334 15.8750   1
   4   1  -4 591.954 19.3507   2
  -4  -1   4 608.118 20.1459   2
  -4  -1   4 621.742 15.7353   1
   3   1  -4 314.323 11.1399   2
   3   1  -4 324.474 8.97863   1
   3   1  -4 306.964 10.8823   3
  -3  -1   4 316.703 11.5804   2
   2   1  -4 2963.04 66.0739   2
   2   1  -4 2978.94 64.2802   1
   2   1  -4 2920.86 64.3877   1
   2   1  -4 2880.67 65.9474   3
  -2  -1   4 2946.17 66.5891   2
  -2  -1   4 2925.09 66.6059   3
   1   1  -4 996.820 23.2193   1
   1   1  -4 1037.49 23.7828   3
   1   1  -4 981.871 22.9671   2
  -1  -1   4 1003.27 23.3449   1
  -1  -1   4 1009.19 23.4464   2
  -1  -1   4 1031.54 24.2020   3
   0   1  -4 16.3713 1.26817   3
   0   1  -4 15.1848 1.39605   1
   0  -1   4 16.1253 1.28690   3
   0  -1   4 13.9921 1.36074   1
  -1   1  -4 7.87835 1.32151   3
  -1   1  -4 8.08410 1.47318   1
   1  -1   4 8.76805 1.13947   3
   1  -1   4 9.24293 1.43824   1
   1  -1   4 8.13485 1.21380   2
  -2   1  -4 1418.61 33.5006   2
  -2   1  -4 1354.05 33.5960   1
   2  -1   4 1234.45 34.2830   2
   2  -1   4 1451.27 33.5456   1
   2  -1   4 1383.14 32.2939   3
  -3   1  -4 194.412 8.38284   1
  -3   1  -4 199.746 8.74213   2
   3  -1   4 203.410 8.60338   2
   3  -1   4 196.097 7.62059   3
   3  -1   4 196.216 8.20405   1
  -4   1  -4 206.124 10.1920   2
  -4   1  -4 205.868 9.43753   1
   4  -1   4 188.709 9.27344   2
   4  -1   4 193.587 8.80023   1
  -5   1  -4 850.732 27.6057   2
  -5   1  -4 826.483 32.1407   1
  -6   1  -4 177.647 10.8929   1
  -6   1  -4 196.308 12.6489   2
   6  -1   4 189.111 10.1627   3
  -7   0   4 334.116 17.6709   2
  -6   0   4 565.712 21.9313   2
  -6   0   4 541.930 16.5285   1
   5   0  -4 894.622 23.8923   1
  -5   0   4 905.161 23.7465   1
   4   0  -4 323.562 10.5458   1
   4   0  -4 328.813 12.3585   3
   4   0  -4 341.257 13.3361   2
  -4   0   4 322.136 12.9229   2
  -4   0   4 334.285 10.4270   1
   3   0  -4 3734.59 84.3318   2
   3   0  -4 3716.56 83.2808   3
   3   0  -4 3665.51 81.8825   1
  -3   0   4 3692.82 81.5847   1
  -3   0   4 3604.50 84.1953   2
   2   0  -4 81.9742 4.20910   2
   2   0  -4 82.3681 3.76798   1
   2   0  -4 87.9702 4.07363   3
   2   0  -4 79.7837 3.63317   1
  -2   0   4 82.3661 4.12839   2
  -2   0   4 79.6120 4.05256   3
   1   0  -4 2051.62 44.5236   2
   1   0  -4 2007.90 45.0460   1
   1   0  -4 2013.44 44.5654   3
  -1   0   4 1970.06 44.9468   3
  -1   0   4 1986.04 45.2264   1
   0   0  -4 1934.65 42.2729   3
   0   0  -4 1924.00 43.3845   1
   0   0   4 1939.41 42.4075   3
   0   0   4 1878.52 43.3178   1
  -1   0  -4 6929.55 146.691   2
   1   0   4 6484.85 146.004   2
   1   0   4 6916.96 147.407   1
  -2   0  -4 486.059 14.4193   2
  -2   0  -4 476.584 14.1315   1
   2   0   4 490.334 13.9608   1
   2   0   4 478.152 13.3914   3
   2   0   4 497.798 13.9494   2
  -3   0  -4 1161.93 30.2854   1
  -3   0  -4 1170.91 31.4089   2
   3   0   4 1166.23 30.4084   2
   3   0   4 1188.62 29.8002   1
  -4   0  -4 2143.47 54.6592   2
  -4   0  -4 2217.02 52.9880   1
   4   0   4 2146.96 56.1113   2
   4   0   4 2079.27 51.4216   1
  -5   0  -4 647.685 20.9111   1
  -5   0  -4 627.216 22.9617   2
  -6   0  -4 466.041 18.0064   1
  -6   0  -4 469.370 20.9090   2
  -7   1   4 80.3204 9.87212   2
   6  -1  -4 -3.2676 3.51831   1
  -6   1   4 3.09070 3.76548   2
   5  -1  -4 197.592 8.99833   1
  -5   1   4 205.861 8.67810   1
   4  -1  -4 376.311 13.0492   3
   4  -1  -4 380.059 12.5320   1
   4  -1  -4 361.988 14.3945   2
  -4   1   4 366.634 12.0549   1
  -4   1   4 373.734 13.8814   2
   3  -1  -4 15.2019 3.10159   2
   3  -1  -4 15.7336 2.52236   3
   3  -1  -4 19.6864 2.61124   1
  -3   1   4 10.9823 2.03081   2
  -3   1   4 13.4867 1.99171   1
   2  -1  -4 23.6430 2.60625   1
   2  -1  -4 22.9942 2.10226   3
   2  -1  -4 21.3144 2.52471   2
   2  -1  -4 26.1874 2.25450   2
  -2   1   4 19.7876 2.04782   3
   1  -1  -4 1480.82 32.9680   3
   1  -1  -4 1554.70 34.8746   1
   1  -1  -4 1472.13 33.2359   2
  -1   1   4 1483.44 34.9798   1
  -1   1   4 1481.12 33.7702   2
  -1   1   4 1427.34 33.4788   3
   0  -1  -4 2859.45 60.8364   3
   0  -1  -4 2869.14 62.5276   1
   0  -1  -4 2763.92 60.6234   2
   0   1   4 2628.92 60.5842   2
   0   1   4 2854.43 62.8797   1
  -1  -1  -4 2126.48 47.5721   2
  -1  -1  -4 2105.18 47.9628   1
   1   1   4 2125.04 46.6334   2
   1   1   4 2036.33 47.8320   1
   1   1   4 2084.49 46.7565   3
  -2  -1  -4 825.066 21.9152   1
  -2  -1  -4 842.282 22.6498   2
   2   1   4 854.464 21.5486   2
   2   1   4 844.902 21.7580   1
  -3  -1  -4 227.629 9.92687   2
  -3  -1  -4 223.045 8.82351   1
   3   1   4 228.220 8.61739   1
   3   1   4 212.737 8.64774   2
  -4  -1  -4 15.0336 3.35491   2
  -4  -1  -4 18.1636 3.65388   1
   4   1   4 16.9920 2.84781   1
  -5  -1  -4 174.007 11.2691   2
  -5  -1  -4 156.163 8.92209   1
  -6  -1  -4 308.415 17.1435   2
  -6  -1  -4 306.915 14.0882   1
   7  -2  -4 4.99277 5.59078   2
  -7   2   4 3.11229 4.30145   1
   6  -2  -4 214.221 12.8895   2
  -6   2   4 219.668 10.3907   1
   5  -2  -4 210.378 9.91799   1
   5  -2  -4 213.444 14.5602   2
  -5   2   4 199.344 9.14800   1
   4  -2  -4 -1.9029 2.70250   2
   4  -2  -4 2.33354 2.00127   2
   4  -2  -4 2.60469 2.23781   3
   4  -2  -4 0.97557 2.05893   1
  -4   2   4 -1.2063 1.70720   1
   3  -2  -4 337.469 11.6710   2
   3  -2  -4 324.433 12.2376   2
   3  -2  -4 335.853 11.6136   1
   3  -2  -4 341.419 10.7239   3
  -3   2   4 324.790 11.1680   1
   2  -2  -4 886.564 22.7921   2
   2  -2  -4 857.005 21.7523   2
   2  -2  -4 835.380 20.4598   3
   2  -2  -4 845.659 22.5885   1
   1  -2  -4 120.761 3.42325   3
   1  -2  -4 123.320 5.36265   1
   1  -2  -4 125.252 5.44559   1
   1  -2  -4 117.794 4.14418   2
  -1   2   4 112.842 3.77018   3
  -1   2   4 120.717 4.70227   2
   0  -2  -4 1.22956 0.80346   1
   0  -2  -4 1.07272 0.52801   2
   0   2   4 -0.0893 0.97141   1
   0   2   4 1.52360 0.59368   2
   0   2   4 0.93243 0.46733   3
  -1  -2  -4 2525.19 56.7744   1
  -1  -2  -4 2478.71 56.4142   2
   1   2   4 2483.30 55.3034   2
   1   2   4 2474.01 55.2179   3
   1   2   4 2477.75 56.8618   1
  -2  -2  -4 114.047 5.35230   1
  -2  -2  -4 116.248 6.06844   2
   2   2   4 120.854 5.15805   2
   2   2   4 123.574 5.62398   1
  -3  -2  -4 562.993 18.5385   2
  -3  -2  -4 562.972 16.7526   1
   3   2   4 542.508 16.4985   2
   3   2   4 551.025 16.1854   1
  -4  -2  -4 139.983 7.42653   1
   4   2   4 144.540 7.34467   1
  -5  -2  -4 98.1057 9.44976   2
  -5  -2  -4 102.966 7.23623   1
   7  -3  -4 425.764 19.6630   2
  -7   3   4 407.151 16.5029   1
   6  -3  -4 455.632 18.6586   2
  -6   3   4 416.829 16.3744   1
   5  -3  -4 144.876 8.82133   2
  -5   3   4 127.199 7.97811   1
   4  -3  -4 1362.08 36.5970   1
   4  -3  -4 1393.15 36.7132   2
   4  -3  -4 1400.02 34.9533   3
   4  -3  -4 1345.29 38.0250   2
  -4   3   4 1419.37 36.3184   1
   3  -3  -4 1996.05 50.5089   2
   3  -3  -4 2048.06 49.1336   2
   3  -3  -4 2043.51 47.2721   3
   3  -3  -4 2045.69 50.0065   1
  -3   3   4 2108.80 49.7250   1
   2  -3  -4 485.804 11.6820   3
   2  -3  -4 464.186 13.2058   2
   2  -3  -4 452.548 14.5600   1
  -2   3   4 445.540 14.0487   2
  -2   3   4 456.872 14.2515   1
   1  -3  -4 561.067 16.3232   1
   1  -3  -4 566.237 16.3898   1
   1  -3  -4 552.223 14.2717   2
  -1   3   4 557.595 15.2970   2
   0  -3  -4 843.953 21.8706   1
   0  -3  -4 838.141 20.3031   2
   0   3   4 832.175 20.4219   2
   0   3   4 780.662 18.6517   3
   0   3   4 852.322 22.3390   1
  -1  -3  -4 735.437 19.7789   2
  -1  -3  -4 723.890 19.6702   1
   1   3   4 749.972 20.1302   1
   1   3   4 739.947 18.0608   3
   1   3   4 756.950 18.6957   2
  -2  -3  -4 531.701 15.6390   1
  -2  -3  -4 548.325 17.1072   2
   2   3   4 542.445 15.8264   1
   2   3   4 529.443 14.9362   2
  -3  -3  -4 907.484 27.2800   2
  -3  -3  -4 936.572 24.8313   1
   3   3   4 889.145 24.2523   1
  -4  -3  -4 1017.38 27.7557   1
  -4  -3  -4 1023.91 31.6001   2
   4   3   4 966.100 26.9389   1
  -5  -3  -4 138.917 11.3162   2
  -5  -3  -4 130.471 8.21259   1
   7  -4  -4 47.3986 9.57807   2
  -7   4   4 31.2688 5.72112   1
   6  -4  -4 179.787 10.9137   2
  -6   4   4 153.216 10.1996   1
   5  -4  -4 301.169 13.2336   2
   5  -4  -4 289.785 12.2020   3
  -5   4   4 295.003 12.9288   1
   4  -4  -4 1116.17 30.8878   2
   4  -4  -4 1133.21 28.9688   3
  -4   4   4 1132.65 31.3373   1
   3  -4  -4 334.967 12.8564   1
   3  -4  -4 338.292 11.6545   2
   3  -4  -4 309.138 11.1966   3
  -3   4   4 334.730 12.4143   1
   2  -4  -4 1302.12 31.1357   2
   2  -4  -4 1275.28 33.5183   1
  -2   4   4 1257.34 32.8477   2
   1  -4  -4 763.859 19.5291   2
   1  -4  -4 788.391 21.9104   1
   1  -4  -4 790.766 21.9666   1
  -1   4   4 763.414 20.8131   2
   0  -4  -4 199.923 8.10874   1
   0  -4  -4 194.729 8.15647   1
   0  -4  -4 203.930 7.11833   2
   0   4   4 203.368 7.27078   2
  -1  -4  -4 481.165 14.6352   1
  -1  -4  -4 504.294 15.0625   2
   1   4   4 490.535 12.6809   3
   1   4   4 482.170 15.3584   1
   1   4   4 496.582 13.8247   2
  -2  -4  -4 2536.48 59.3837   1
  -2  -4  -4 2578.27 61.7249   2
   2   4   4 2534.67 58.5757   2
   2   4   4 2545.92 59.8828   1
  -3  -4  -4 949.816 25.3920   1
   3   4   4 913.988 25.4707   1
  -4  -4  -4 546.508 21.3599   2
  -4  -4  -4 548.583 17.4584   1
  -5  -4  -4 719.979 27.3776   2
   6  -5  -4 122.336 9.54266   2
  -6   5   4 122.342 9.70776   1
   5  -5  -4 3.25724 3.07066   2
   5  -5  -4 8.05261 3.87779   3
  -5   5   4 8.42107 3.23360   1
   4  -5  -4 16.3383 3.07577   3
   4  -5  -4 11.6791 5.02325   2
  -4   5   4 12.4783 3.04998   1
   3  -5  -4 819.743 22.1629   2
  -3   5   4 819.998 23.8431   1
  -3   5   4 718.719 23.9461   2
   2  -5  -4 19.6121 3.22258   1
  -2   5   4 12.8482 2.68931   2
   1  -5  -4 11.1443 1.95651   2
   1  -5  -4 8.72678 1.67348   1
   1  -5  -4 5.60817 2.37208   1
  -1   5   4 8.36941 2.00571   2
   0  -5  -4 335.356 10.8493   2
   0  -5  -4 344.414 12.2594   1
   0  -5  -4 329.054 11.8826   1
   0   5   4 331.436 11.0530   2
  -1  -5  -4 494.225 15.4698   1
  -1  -5  -4 512.357 16.0533   2
  -1  -5  -4 517.481 15.8815   1
   1   5   4 496.155 12.8450   3
   1   5   4 492.848 14.6414   2
  -2  -5  -4 27.7138 4.25471   2
  -2  -5  -4 22.2580 3.26220   1
  -3  -5  -4 88.9911 5.77292   1
  -3  -5  -4 100.162 8.02009   2
   3   5   4 79.6233 7.67282   1
  -4  -5  -4 297.158 11.5952   1
  -4  -5  -4 309.047 16.0900   2
   6  -6  -4 61.7409 8.64787   2
  -6   6   4 46.0438 8.52516   1
   5  -6  -4 33.6660 6.06131   2
  -5   6   4 29.9730 4.93686   1
   4  -6  -4 370.097 10.4758   3
   4  -6  -4 383.679 11.7569   3
   4  -6  -4 381.852 14.0625   2
  -4   6   4 375.224 15.2481   1
   3  -6  -4 143.839 8.47418   2
  -3   6   4 150.560 8.61085   1
   2  -6  -4 19.0444 2.92001   2
   2  -6  -4 26.9082 4.46440   1
   1  -6  -4 549.539 18.1983   1
   1  -6  -4 540.774 20.2689   1
   1  -6  -4 567.666 16.0991   2
   0  -6  -4 901.368 24.9217   1
   0  -6  -4 817.927 24.6956   1
   0  -6  -4 869.113 23.4265   2
  -1  -6  -4 25.1000 4.41431   2
  -1  -6  -4 22.2584 3.42966   1
  -1  -6  -4 33.0940 4.43749   1
  -2  -6  -4 25.3494 3.75498   1
  -2  -6  -4 26.2466 3.45892   1
  -2  -6  -4 29.6363 5.22934   2
   2   6   4 22.3714 3.11881   3
  -3  -6  -4 294.772 14.7256   2
  -3  -6  -4 260.465 10.5955   1
  -4  -6  -4 2.75096 5.28998   2
  -6   7   4 309.139 17.0524   1
   5  -7  -4 426.828 16.4377   2
  -5   7   4 421.164 17.9449   1
   4  -7  -4 83.9398 6.35647   2
  -4   7   4 69.5891 7.45358   1
   3  -7  -4 393.282 13.3106   2
  -3   7   4 361.557 15.1211   1
   2  -7  -4 772.894 24.6385   1
   2  -7  -4 755.595 21.3825   2
   1  -7  -4 541.147 16.3732   2
   0  -7  -4 490.912 16.7656   1
   0  -7  -4 474.172 15.6692   2
  -1  -7  -4 1398.47 37.7224   2
  -1  -7  -4 1386.99 36.2935   1
  -2  -7  -4 112.121 8.35746   2
  -2  -7  -4 82.8198 5.93856   1
   2   7   4 90.6968 4.69103   3
  -3  -7  -4 120.719 10.9796   2
   5  -8  -4 23.2587 4.41214   2
  -5   8   4 20.5728 5.47730   1
   4  -8  -4 179.488 9.33464   2
  -4   8   4 184.230 11.3614   1
   3  -8  -4 204.419 9.42401   2
   2  -8  -4 16.6675 3.67724   1
   1  -8  -4 63.2332 6.75014   1
   1  -8  -4 73.7217 5.38122   2
   0  -8  -4 475.052 16.7986   1
   0  -8  -4 460.882 16.1770   2
  -1  -8  -4 384.386 14.2574   1
  -1  -8  -4 398.525 15.9947   2
  -2  -8  -4 -0.7667 3.14468   1
  -2  -8  -4 3.07184 4.01107   2
   4  -9  -4 223.321 10.8285   2
   3  -9  -4 22.0489 3.94780   2
   3  -9  -4 20.3291 4.80677   1
   2  -9  -4 23.3755 4.55979   2
   2  -9  -4 14.1991 4.19558   1
   1  -9  -4 55.5119 5.35545   2
   1  -9  -4 54.8806 7.04501   1
   0  -9  -4 2.51089 2.93878   2
   0  -9  -4 -3.7951 3.42200   1
  -1  -9  -4 13.6715 4.02877   2
  -1 -10   5 12.2672 4.27041   2
   0  10  -5 193.334 17.1372   1
   0 -10   5 205.131 10.2942   2
  -1  10  -5 245.867 12.6464   1
   1 -10   5 252.802 10.8145   2
   2 -10   5 31.5010 5.39533   2
  -3  10  -5 7.66622 5.79156   1
   3 -10   5 12.7318 3.45155   2
  -3  -9   5 74.3968 10.6357   2
  -2  -9   5 60.2163 7.71041   2
  -1  -9   5 0.43693 3.09325   2
  -1  -9   5 9.88516 3.58954   3
   0   9  -5 62.8105 6.00709   1
   0  -9   5 48.8761 5.92677   3
   0  -9   5 52.6630 5.24169   2
  -1   9  -5 8.28091 3.70048   1
   1  -9   5 7.91756 2.80295   3
   1  -9   5 4.80794 2.14997   2
  -2   9  -5 -1.4642 3.57231   1
   2  -9   5 0.12403 2.53666   3
  -3   9  -5 209.534 12.6917   1
   3  -9   5 201.449 9.33750   2
  -4   9  -5 70.5140 10.7499   1
   4  -9   5 70.2956 6.68342   3
   4  -9   5 79.2490 6.95484   2
  -4  -8   5 414.059 19.8745   2
  -3  -8   5 90.8902 9.48439   2
  -2  -8   5 363.283 15.4493   2
   1   8  -5 548.556 16.1375   1
  -1  -8   5 536.590 15.6792   1
  -1  -8   5 574.493 18.1647   3
  -1  -8   5 566.362 18.8204   2
   0   8  -5 84.2034 5.96343   1
   0   8  -5 72.6104 4.44671   3
   0  -8   5 70.8973 5.18568   2
   0  -8   5 71.7790 5.49185   3
   0  -8   5 68.6898 5.59443   1
  -1   8  -5 252.932 10.1021   3
  -1   8  -5 261.821 11.5736   1
   1  -8   5 253.716 9.66277   2
   1  -8   5 260.913 9.64273   3
  -2   8  -5 1168.37 34.0016   1
   2  -8   5 1212.14 30.1697   3
   2  -8   5 1226.64 31.0805   2
  -3   8  -5 279.191 13.9693   1
   3  -8   5 299.619 11.1275   2
   3  -8   5 290.554 10.2555   3
  -4   8  -5 128.620 11.0128   1
   4  -8   5 136.193 7.01554   3
   4  -8   5 146.022 8.30224   2
   5  -8   5 276.235 12.3038   2
   5  -8   5 259.956 11.0108   3
  -4  -7   5 385.089 18.4205   2
  -3  -7   5 1027.31 32.3875   2
  -2  -7   5 389.921 14.6130   3
  -2  -7   5 366.982 14.7827   2
   1   7  -5 957.457 24.4946   3
   1   7  -5 984.115 24.7129   1
  -1  -7   5 925.304 26.8867   2
  -1  -7   5 972.872 24.4202   1
  -1  -7   5 1002.50 26.7940   3
   0   7  -5 874.522 24.1601   1
   0   7  -5 880.333 22.1628   3
   0  -7   5 849.499 23.6865   1
   0  -7   5 911.288 23.8502   2
   0  -7   5 878.191 23.6398   3
  -1   7  -5 915.365 25.7177   1
  -1   7  -5 889.512 22.9454   3
   1  -7   5 923.913 23.6004   2
   1  -7   5 909.560 23.3456   3
   1  -7   5 846.792 25.0176   1
  -2   7  -5 296.067 10.6952   3
  -2   7  -5 294.632 12.9062   1
   2  -7   5 320.269 10.1806   3
   2  -7   5 313.567 10.6035   2
  -3   7  -5 498.864 18.7541   1
   3  -7   5 492.427 15.6197   2
   3  -7   5 506.750 14.6371   3
  -4   7  -5 637.764 23.3641   1
   4  -7   5 631.652 19.8971   2
   4  -7   5 626.371 18.1370   3
  -5   7  -5 199.355 13.4404   1
   5  -7   5 221.305 9.73873   3
   5  -7   5 222.982 11.0742   2
  -5  -6   5 29.2158 6.22123   2
  -4  -6   5 210.406 12.6959   2
  -3  -6   5 2.88563 2.78477   2
   2   6  -5 -3.3210 2.00710   3
  -2  -6   5 3.49794 2.07077   2
  -2  -6   5 3.76848 2.24675   3
   1   6  -5 1080.47 27.2352   2
   1   6  -5 1089.29 26.7456   3
   1   6  -5 1118.54 26.6669   1
  -1  -6   5 999.816 28.2360   2
  -1  -6   5 1121.02 28.6332   3
  -1  -6   5 1070.16 26.4057   1
   0   6  -5 396.577 11.4235   3
   0   6  -5 390.677 12.5656   2
   0   6  -5 397.104 12.9225   1
   0  -6   5 400.225 12.5896   1
   0  -6   5 416.270 12.3737   2
   0  -6   5 398.656 12.4677   3
  -1   6  -5 304.970 11.3933   2
  -1   6  -5 321.293 11.7462   1
  -1   6  -5 293.141 9.62371   3
   1  -6   5 313.143 9.85939   2
   1  -6   5 300.403 11.2585   1
   1  -6   5 318.004 9.84044   3
  -2   6  -5 87.5281 5.34143   3
  -2   6  -5 89.5063 6.51690   1
  -2   6  -5 74.3215 6.71644   2
   2  -6   5 91.8544 4.47154   3
   2  -6   5 92.7150 4.70830   2
  -3   6  -5 203.270 10.3789   1
   3  -6   5 198.173 7.54830   3
   3  -6   5 193.917 8.40911   2
  -4   6  -5 7.90440 3.72721   1
   4  -6   5 10.8732 3.10183   2
  -5   6  -5 24.6031 5.13421   1
   5  -6   5 24.4713 4.41877   2
  -5  -5   5 128.144 10.2452   2
  -4  -5   5 -0.1721 3.16001   2
  -3  -5   5 29.5035 4.46048   2
   2   5  -5 558.430 15.8244   2
   2   5  -5 570.587 16.5084   3
  -2  -5   5 572.112 17.8883   3
  -2  -5   5 601.275 18.2703   2
   1   5  -5 287.823 9.24171   3
   1   5  -5 291.206 9.00280   1
   1   5  -5 302.173 9.34237   2
  -1  -5   5 292.227 10.2798   3
  -1  -5   5 286.785 10.0870   2
  -1  -5   5 300.255 8.74061   1
   0   5  -5 170.010 5.91617   3
   0   5  -5 163.135 6.43034   2
   0   5  -5 168.285 6.90488   1
   0  -5   5 161.524 6.10784   2
   0  -5   5 167.930 6.60573   1
   0  -5   5 167.052 6.50553   3
  -1   5  -5 109.625 4.82852   3
  -1   5  -5 106.916 6.00072   1
  -1   5  -5 120.026 5.98176   2
   1  -5   5 106.800 4.68138   3
   1  -5   5 104.320 4.56365   2
   1  -5   5 110.634 5.84080   1
  -2   5  -5 272.063 9.63561   3
  -2   5  -5 283.225 11.3916   1
  -2   5  -5 261.438 10.7195   2
   2  -5   5 285.901 9.26205   2
   2  -5   5 286.109 8.84154   3
   2  -5   5 263.104 10.7224   1
  -3   5  -5 3.46149 2.28518   1
   3  -5   5 5.75366 2.94550   2
   3  -5   5 2.35010 1.78477   2
   3  -5   5 3.62540 1.54240   3
  -4   5  -5 426.029 17.0336   1
   4  -5   5 442.880 15.9672   2
   4  -5   5 440.794 13.7214   3
  -5   5  -5 183.696 11.7924   1
   5  -5   5 197.535 10.4560   2
   5  -5   5 203.579 9.23815   3
   6  -5   5 27.3752 4.89114   3
   6  -5   5 25.4470 5.71072   2
  -6  -4   5 534.603 23.0781   2
  -5  -4   5 391.402 17.5537   2
  -4  -4   5 739.023 27.5995   2
   3   4  -5 1429.95 37.4757   3
   3   4  -5 1500.16 36.6590   2
  -3  -4   5 1555.76 39.8311   2
   2   4  -5 522.147 15.3082   3
   2   4  -5 522.797 14.4286   2
  -2  -4   5 532.137 16.3019   2
  -2  -4   5 535.349 16.4183   3
   1   4  -5 1721.42 40.2767   3
   1   4  -5 1753.94 39.6268   1
   1   4  -5 1715.21 39.5883   2
  -1  -4   5 1768.37 40.8744   2
  -1  -4   5 1746.71 39.3154   1
  -1  -4   5 1707.88 41.2268   3
   0   4  -5 3094.31 69.1198   1
   0   4  -5 3128.81 67.9729   3
   0   4  -5 3074.12 67.9441   2
   0  -4   5 3062.28 68.5322   3
   0  -4   5 3098.16 68.8368   1
   0  -4   5 2906.40 67.6312   2
  -1   4  -5 1844.53 43.2945   3
  -1   4  -5 1872.42 45.2533   1
  -1   4  -5 1927.29 44.1934   2
   1  -4   5 1924.53 45.0695   1
   1  -4   5 1871.87 42.6931   2
   1  -4   5 1871.45 43.0779   3
  -2   4  -5 815.001 23.1514   1
   2  -4   5 813.094 22.7329   1
   2  -4   5 802.302 22.4013   2
   2  -4   5 805.561 20.2902   3
   2  -4   5 790.711 20.7721   2
  -3   4  -5 1924.55 48.5867   1
   3  -4   5 1914.28 44.7847   3
   3  -4   5 1878.20 47.9991   2
   3  -4   5 1919.19 46.4547   2
  -4   4  -5 1274.24 36.1105   1
   4  -4   5 1276.33 34.5757   2
   4  -4   5 1276.98 32.6361   3
  -5   4  -5 108.994 8.99320   1
   5  -4   5 131.507 7.14024   3
   5  -4   5 108.531 8.51476   2
  -6   4  -5 318.183 16.2573   1
   6  -4   5 323.060 13.2120   3
   6  -4   5 302.612 15.2085   2
  -6  -3   5 111.017 11.0332   2
  -5  -3   5 1469.50 42.5224   2
  -4  -3   5 1031.94 30.6226   2
   3   3  -5 56.5941 4.18349   2
   3   3  -5 48.4863 4.26263   3
  -3  -3   5 57.6361 4.64129   2
   2   3  -5 1235.77 29.7109   2
   2   3  -5 1237.78 30.7421   3
  -2  -3   5 1267.67 31.4588   2
  -2  -3   5 1250.99 31.7445   3
   1   3  -5 1157.23 27.3232   1
   1   3  -5 1163.34 27.8469   3
   1   3  -5 1161.18 26.8281   2
  -1  -3   5 1181.72 27.0043   1
  -1  -3   5 1171.05 28.7181   3
  -1  -3   5 1166.82 27.8133   2
   0   3  -5 493.902 12.7428   3
   0   3  -5 502.219 13.6783   1
   0   3  -5 504.593 12.3591   2
   0  -3   5 498.938 13.5570   1
   0  -3   5 491.705 13.1183   3
   0  -3   5 445.178 11.9820   2
  -1   3  -5 739.835 20.1844   1
  -1   3  -5 737.253 18.6302   3
  -1   3  -5 733.550 18.8725   2
   1  -3   5 763.931 19.9290   1
   1  -3   5 720.872 17.7551   2
   1  -3   5 737.124 18.3192   3
  -2   3  -5 2506.46 59.1757   1
   2  -3   5 2466.93 58.5319   1
   2  -3   5 2498.53 57.0739   2
   2  -3   5 2479.26 56.3232   3
   2  -3   5 2518.89 58.2421   2
  -3   3  -5 225.415 10.0116   1
   3  -3   5 216.498 9.46895   1
   3  -3   5 224.676 9.73932   2
   3  -3   5 226.244 9.23680   2
   3  -3   5 229.913 8.18113   3
   4  -3   5 94.6797 7.15410   3
   4  -3   5 113.005 7.07033   2
   4  -3   5 102.148 8.11802   2
  -5   3  -5 451.332 17.9287   1
   5  -3   5 462.930 18.1264   2
   5  -3   5 468.828 15.6431   3
  -6   3  -5 492.342 20.0832   1
   6  -3   5 486.293 17.3824   3
   6  -3   5 502.067 20.3827   2
  -6  -2   5 154.951 11.6780   2
  -5  -2   5 164.352 10.2475   2
   4   2  -5 6.00396 2.55125   2
  -4  -2   5 1.05760 2.24462   2
   3   2  -5 242.481 9.10916   2
   3   2  -5 240.559 9.24428   3
  -3  -2   5 249.888 10.0747   2
   2   2  -5 9.52559 1.72500   2
   2   2  -5 10.4017 1.12963   1
  -2  -2   5 11.0671 1.99311   3
  -2  -2   5 6.71786 1.32647   2
   1   2  -5 9.92720 1.28205   1
   1   2  -5 9.62478 0.98446   2
   1   2  -5 10.9918 1.50595   3
  -1  -2   5 8.42149 1.41327   2
  -1  -2   5 10.8750 1.35038   1
  -1  -2   5 9.32686 1.55865   3
   0   2  -5 200.664 6.09861   3
   0   2  -5 196.751 5.30501   2
   0   2  -5 196.818 6.71437   1
   0  -2   5 197.747 6.28858   3
   0  -2   5 185.052 5.03324   2
   0  -2   5 191.089 7.17364   1
  -1   2  -5 1996.35 47.1913   1
  -1   2  -5 2026.85 45.8706   3
   1  -2   5 2069.13 47.0921   1
   1  -2   5 2020.05 45.5420   3
   1  -2   5 2032.19 45.7108   2
   1  -2   5 1978.09 45.1029   2
  -2   2  -5 192.790 8.04069   1
   2  -2   5 196.141 6.80732   3
   2  -2   5 198.163 7.29454   2
   2  -2   5 192.736 7.87423   1
   2  -2   5 192.623 7.52273   2
  -3   2  -5 -1.9495 1.48647   1
   3  -2   5 -0.3292 1.84656   1
   3  -2   5 1.53020 1.23794   3
   3  -2   5 1.64173 1.86352   2
  -4   2  -5 130.466 7.91056   1
   4  -2   5 134.280 7.76513   2
   4  -2   5 130.243 9.87751   3
  -5   2  -5 93.5585 7.76547   1
   5  -2   5 95.7857 6.47722   3
  -6   2  -5 22.5400 5.29305   1
   6  -2   5 38.1268 6.73047   3
  -7  -1   5 272.696 16.8063   2
   6   1  -5 5.65590 4.59524   1
  -6  -1   5 10.1139 4.89851   2
   5   1  -5 141.739 6.22059   1
   5   1  -5 131.230 5.99692   1
  -5  -1   5 131.990 9.03535   2
   4   1  -5 646.003 20.2147   3
   4   1  -5 712.093 17.6449   1
   4   1  -5 670.958 17.4508   1
   4   1  -5 670.017 20.8955   2
  -4  -1   5 684.906 21.7567   2
   3   1  -5 373.181 12.6065   2
   3   1  -5 388.272 10.8258   1
   3   1  -5 374.657 12.4075   3
   3   1  -5 404.506 10.6799   1
  -3  -1   5 385.022 13.2081   2
   2   1  -5 310.743 9.56281   2
   2   1  -5 305.427 8.62328   1
   2   1  -5 322.740 9.89079   3
   2   1  -5 314.243 8.90235   1
  -2  -1   5 302.846 10.1591   3
  -2  -1   5 303.997 9.86139   2
   1   1  -5 3116.33 69.2644   2
   1   1  -5 3232.27 70.4562   1
   1   1  -5 3179.22 70.4079   3
  -1  -1   5 3205.08 69.8292   2
  -1  -1   5 3233.29 71.1053   3
  -1  -1   5 3211.81 70.6067   1
   0   1  -5 1831.41 40.7735   3
   0   1  -5 1784.48 41.6786   1
   0  -1   5 1836.98 40.9913   3
  -1   1  -5 514.185 14.6232   1
  -1   1  -5 525.214 13.7246   3
   1  -1   5 514.091 13.3307   3
   1  -1   5 514.272 13.0469   2
   1  -1   5 524.648 14.4984   1
  -2   1  -5 567.834 15.9192   2
  -2   1  -5 553.258 16.4053   1
   2  -1   5 560.277 16.1771   1
   2  -1   5 559.236 14.9982   3
   2  -1   5 557.075 15.6073   2
  -3   1  -5 1287.89 33.6773   2
  -3   1  -5 1291.23 33.6441   1
   3  -1   5 1310.72 32.0494   3
   3  -1   5 1277.43 32.9408   1
   3  -1   5 1274.12 33.0831   2
  -4   1  -5 135.045 7.90870   1
  -4   1  -5 143.081 8.48006   2
   4  -1   5 144.657 8.30342   3
   4  -1   5 123.322 7.44210   2
  -5   1  -5 135.121 10.0131   2
  -5   1  -5 131.360 8.99044   1
   5  -1   5 139.153 7.84135   3
  -6   1  -5 327.398 16.6816   2
  -6   1  -5 316.239 15.2391   1
   6  -1   5 317.237 13.6000   3
  -7   0   5 131.814 12.2852   2
  -6   0   5 455.198 19.3254   2
  -6   0   5 430.041 13.8115   1
   5   0  -5 691.005 19.5341   1
  -5   0   5 692.715 19.0910   1
   4   0  -5 551.305 15.6283   1
   4   0  -5 533.777 18.0005   2
  -4   0   5 519.742 17.8535   2
   3   0  -5 1802.25 42.6983   3
   3   0  -5 1808.02 43.6696   2
   3   0  -5 1785.07 41.6676   1
   3   0  -5 1787.74 41.8235   1
  -3   0   5 1726.73 43.4272   2
   2   0  -5 6058.87 130.795   3
   2   0  -5 5920.30 130.537   1
   2   0  -5 6019.70 130.814   1
   2   0  -5 6128.34 131.248   2
  -2   0   5 5779.88 130.944   2
  -2   0   5 6027.87 131.399   3
   1   0  -5 3756.21 80.5116   2
   1   0  -5 3683.54 80.7617   3
   1   0  -5 3702.67 81.7332   1
   1   0  -5 3734.98 80.2269   2
  -1   0   5 3669.59 81.4097   3
  -1   0   5 3668.97 81.9748   1
   0   0  -5 509.585 12.5277   3
   0   0  -5 499.712 13.6734   1
   0   0   5 506.277 13.7366   1
   0   0   5 507.493 12.7034   3
  -1   0  -5 4672.59 100.515   2
  -1   0  -5 4531.35 101.724   1
   1   0   5 4558.28 100.246   3
   1   0   5 4666.32 101.700   1
   1   0   5 4568.71 99.6787   2
  -2   0  -5 2037.11 47.9835   2
  -2   0  -5 1994.96 48.0759   1
   2   0   5 2015.24 46.6668   3
   2   0   5 2091.04 47.9308   1
   2   0   5 2018.62 47.0244   2
  -3   0  -5 840.329 23.8668   1
  -3   0  -5 862.596 24.6356   2
   3   0   5 879.597 22.9639   3
   3   0   5 868.269 23.5291   1
   3   0   5 833.609 23.3442   2
  -4   0  -5 918.554 27.9980   2
  -4   0  -5 916.667 26.9029   1
   4   0   5 950.740 25.9803   3
  -5   0  -5 844.107 26.4502   1
  -5   0  -5 830.048 28.4153   2
   5   0   5 905.581 25.8538   3
  -6   0  -5 34.2839 5.33414   1
  -6   0  -5 29.8063 7.03388   2
   6   0   5 40.7506 5.38473   3
   6  -1  -5 363.848 15.2283   1
  -6   1   5 367.446 13.2468   1
  -6   1   5 387.299 17.0526   2
   5  -1  -5 11.3282 3.09992   1
  -5   1   5 7.60430 2.05039   1
  -5   1   5 10.5508 5.81423   2
   4  -1  -5 476.721 16.7937   2
   4  -1  -5 461.586 14.6708   1
   4  -1  -5 448.238 15.0660   3
  -4   1   5 458.030 14.2021   1
  -4   1   5 457.243 15.9904   2
   3  -1  -5 1671.88 40.5781   1
   3  -1  -5 1673.13 40.1095   3
   3  -1  -5 1704.79 41.9904   2
   3  -1  -5 1674.69 40.6347   1
   2  -1  -5 89.2717 4.56667   1
   2  -1  -5 88.0734 4.58121   2
   2  -1  -5 95.0040 4.72429   1
   2  -1  -5 84.1082 4.40224   3
   2  -1  -5 88.0955 4.25177   2
  -2   1   5 91.8134 4.25417   3
   1  -1  -5 66.2000 2.58653   2
   1  -1  -5 66.7503 2.70148   3
   1  -1  -5 67.9550 3.66913   1
  -1   1   5 63.5733 2.99786   2
  -1   1   5 69.3500 3.03477   3
  -1   1   5 63.7711 3.76335   1
   0  -1  -5 185.843 6.75387   1
   0  -1  -5 185.071 5.52172   3
   0  -1  -5 192.350 5.24490   2
   0   1   5 183.956 5.49484   3
   0   1   5 189.149 6.95763   1
   0   1   5 177.825 5.10952   2
  -1  -1  -5 537.428 14.2748   2
  -1  -1  -5 522.657 14.9432   1
   1   1   5 536.220 13.2367   2
   1   1   5 530.124 13.6274   3
   1   1   5 534.754 15.0209   1
  -2  -1  -5 0.17767 1.03518   1
  -2  -1  -5 1.44709 1.40899   2
   2   1   5 0.04268 0.97171   3
   2   1   5 0.91855 1.06978   2
  -3  -1  -5 945.716 25.8403   1
  -3  -1  -5 936.020 26.8396   2
   3   1   5 959.328 24.9494   3
   3   1   5 920.706 24.9796   2
   3   1   5 931.335 25.1752   1
  -4  -1  -5 601.793 21.0238   2
  -4  -1  -5 602.595 19.2588   1
  -5  -1  -5 20.2253 3.66574   1
  -5  -1  -5 23.0847 5.54101   2
  -6  -1  -5 5.18016 6.73410   2
  -6  -1  -5 4.57235 5.01597   1
   6   1   5 2.96488 7.48042   3
   6  -2  -5 96.7132 9.38972   2
  -6   2   5 78.3450 6.61496   1
   5  -2  -5 184.961 9.39840   1
   5  -2  -5 192.852 12.6990   2
  -5   2   5 196.808 9.00275   1
   4  -2  -5 391.026 13.4313   3
   4  -2  -5 389.833 14.0129   1
   4  -2  -5 403.694 14.5946   2
   4  -2  -5 420.998 15.8207   2
  -4   2   5 409.575 13.6558   1
   3  -2  -5 251.485 10.0030   1
   3  -2  -5 266.580 10.6073   2
   3  -2  -5 262.955 8.86925   3
   3  -2  -5 253.653 9.65956   2
   2  -2  -5 252.390 9.37852   1
   2  -2  -5 250.597 8.25059   2
   2  -2  -5 243.990 9.13985   1
   2  -2  -5 253.676 9.12531   2
   2  -2  -5 261.160 7.52362   3
  -2   2   5 242.493 7.77671   3
   1  -2  -5 47.0035 2.30980   2
   1  -2  -5 48.3353 3.29858   1
   1  -2  -5 46.0372 1.94459   3
  -1   2   5 46.1847 2.81092   2
  -1   2   5 41.5500 2.75549   3
   0  -2  -5 146.001 4.80101   2
   0  -2  -5 149.058 6.15378   1
   0   2   5 145.599 6.27003   1
   0   2   5 138.284 4.75661   2
   0   2   5 138.117 4.39724   3
  -1  -2  -5 84.2394 4.24259   2
  -1  -2  -5 85.9736 4.50867   1
   1   2   5 83.2449 3.52528   3
   1   2   5 86.8459 3.57452   2
   1   2   5 86.2092 4.85693   1
  -2  -2  -5 762.491 21.0319   1
  -2  -2  -5 766.920 21.7229   2
   2   2   5 773.942 19.7781   2
   2   2   5 759.519 20.9739   1
   2   2   5 767.522 19.8970   3
  -3  -2  -5 141.564 7.94591   2
  -3  -2  -5 138.899 7.03153   1
   3   2   5 133.500 6.55879   2
   3   2   5 137.286 7.00813   1
  -4  -2  -5 32.6655 4.63634   1
  -4  -2  -5 27.2635 4.34533   2
  -5  -2  -5 218.757 13.3899   2
  -5  -2  -5 216.684 10.9080   1
  -7   3   5 60.9820 8.31361   1
   6  -3  -5 837.254 27.6766   2
  -6   3   5 789.926 25.0621   1
   5  -3  -5 267.842 12.4928   2
  -5   3   5 270.839 11.6580   1
   4  -3  -5 226.485 8.99590   3
   4  -3  -5 209.474 11.1206   2
   4  -3  -5 213.487 10.2884   1
   4  -3  -5 215.732 9.77494   2
  -4   3   5 220.392 9.65459   1
   3  -3  -5 814.537 21.9568   2
   3  -3  -5 739.407 22.9740   2
   3  -3  -5 791.208 23.0482   1
   3  -3  -5 795.326 20.0900   3
  -3   3   5 801.030 22.4908   1
   2  -3  -5 1696.34 39.0465   2
   2  -3  -5 1680.49 37.0782   3
   2  -3  -5 1651.74 41.3195   1
  -2   3   5 1619.77 40.3398   2
   1  -3  -5 1193.98 28.4448   2
   1  -3  -5 1245.88 31.3227   1
   1  -3  -5 1200.67 31.0363   1
  -1   3   5 1237.44 29.7792   2
   0  -3  -5 2745.27 62.0227   2
   0  -3  -5 2770.07 64.1564   1
   0   3   5 2717.77 62.1488   2
   0   3   5 2886.05 64.8417   1
  -1  -3  -5 2361.04 54.4639   1
  -1  -3  -5 2293.46 53.8975   2
   1   3   5 2375.56 54.8863   1
   1   3   5 2230.69 51.7059   3
   1   3   5 2342.86 52.4961   2
  -2  -3  -5 156.303 7.77751   2
  -2  -3  -5 153.442 7.01253   1
   2   3   5 153.037 7.38518   1
   2   3   5 147.864 6.05365   2
   2   3   5 154.544 6.21725   3
  -3  -3  -5 340.568 12.0690   1
  -3  -3  -5 309.684 13.3811   2
   3   3   5 309.066 11.7291   1
  -4  -3  -5 872.691 28.7404   2
  -4  -3  -5 892.071 25.7777   1
  -5  -3  -5 507.037 22.0281   2
  -5  -3  -5 522.386 18.4350   1
   6  -4  -5 90.0011 9.40786   2
  -6   4   5 119.472 8.58060   1
   5  -4  -5 111.063 8.12958   2
   5  -4  -5 107.514 7.99500   3
  -5   4   5 113.957 7.90632   1
   4  -4  -5 1180.31 29.7397   3
   4  -4  -5 1171.60 31.7983   2
  -4   4   5 1167.95 32.4755   1
   3  -4  -5 527.724 15.8433   2
   3  -4  -5 499.250 14.5086   3
   3  -4  -5 505.945 17.5233   1
  -3   4   5 540.368 17.2063   1
   2  -4  -5 622.498 16.8840   2
   2  -4  -5 626.394 19.4551   1
   2  -4  -5 638.522 19.5580   1
  -2   4   5 614.322 18.6450   2
   1  -4  -5 1635.08 40.8643   1
   1  -4  -5 1665.91 40.8359   1
   1  -4  -5 1614.25 37.7958   2
  -1   4   5 1583.85 39.2816   2
   0  -4  -5 3947.91 88.7335   1
   0  -4  -5 3920.77 88.4993   1
   0  -4  -5 3779.86 86.2867   2
   0   4   5 3879.82 86.6389   2
  -1  -4  -5 135.428 6.48313   1
  -1  -4  -5 130.481 6.38401   2
   1   4   5 133.359 7.13229   1
   1   4   5 134.562 5.62836   2
   1   4   5 139.076 4.79645   3
  -2  -4  -5 118.306 6.17188   1
  -2  -4  -5 118.094 7.09463   2
   2   4   5 112.792 5.17341   3
   2   4   5 112.418 6.87552   1
   2   4   5 100.686 5.19603   2
  -3  -4  -5 882.813 25.1123   1
  -3  -4  -5 914.012 28.1210   2
   3   4   5 889.230 25.4061   1
  -4  -4  -5 256.537 11.1079   1
  -4  -4  -5 272.857 14.4360   2
  -5  -4  -5 111.520 11.4897   2
   6  -5  -5 14.8013 4.62628   2
  -6   5   5 12.6668 4.41731   1
   5  -5  -5 202.777 10.4891   2
   5  -5  -5 198.689 10.0312   3
  -5   5   5 206.790 10.7772   1
   4  -5  -5 23.6343 4.20851   2
   4  -5  -5 20.8415 3.08803   3
  -4   5   5 17.2333 3.32247   1
   3  -5  -5 9.80959 2.13950   2
   2  -5  -5 223.262 14.8749   1
   2  -5  -5 182.595 9.44619   1
   2  -5  -5 198.972 7.54382   2
  -2   5   5 194.623 9.13834   2
   1  -5  -5 4.74722 2.11285   1
   1  -5  -5 4.42298 1.41400   2
  -1   5   5 7.57076 2.16391   2
   0  -5  -5 3.26903 1.29999   2
   0  -5  -5 2.83498 2.07588   1
   0  -5  -5 4.07417 1.71440   1
   0   5   5 3.52443 1.64015   2
  -1  -5  -5 167.031 7.73701   1
  -1  -5  -5 155.295 7.84487   1
  -1  -5  -5 171.212 7.98590   2
   1   5   5 168.385 5.40681   3
   1   5   5 162.207 6.90112   2
  -2  -5  -5 51.8167 4.69338   1
   2   5   5 53.7080 3.59890   3
  -3  -5  -5 16.3093 3.02163   1
  -3  -5  -5 20.2760 4.29644   2
  -4  -5  -5 14.8816 3.78508   1
   6  -6  -5 68.0878 9.14297   2
  -6   6   5 68.3074 9.16285   1
   5  -6  -5 80.1874 7.35055   2
  -5   6   5 77.1734 8.03991   1
   4  -6  -5 148.953 8.78114   3
   4  -6  -5 138.554 7.90377   2
  -4   6   5 149.749 9.27706   1
   3  -6  -5 392.588 16.0419   2
   2  -6  -5 0.18070 1.44693   2
   2  -6  -5 -2.2750 2.68921   1
   1  -6  -5 4.57808 2.14555   1
   1  -6  -5 3.09232 1.35352   2
   0  -6  -5 298.932 11.9150   1
   0  -6  -5 307.128 10.9949   2
  -1  -6  -5 552.849 17.5540   1
  -1  -6  -5 540.805 18.3374   2
  -2  -6  -5 12.9224 3.32345   2
   2   6   5 13.6272 2.10046   3
  -3  -6  -5 459.845 19.3008   2
  -3  -6  -5 443.706 15.6213   1
   3   6   5 449.478 14.1874   3
   5  -7  -5 533.540 18.6249   2
  -5   7   5 512.271 20.4320   1
   4  -7  -5 758.660 22.7787   2
   3  -7  -5 134.749 7.17457   2
   3  -7  -5 128.133 9.32638   1
   2  -7  -5 452.670 17.2877   1
   2  -7  -5 454.131 14.5665   2
   1  -7  -5 975.356 28.7094   1
   1  -7  -5 952.067 25.8429   2
   0  -7  -5 493.240 17.3242   1
   0  -7  -5 514.671 16.5591   2
  -1  -7  -5 184.440 10.3912   1
  -1  -7  -5 204.830 10.1850   2
  -2  -7  -5 1031.16 29.3021   1
  -2  -7  -5 1066.83 32.6815   2
  -3  -7  -5 563.548 23.3855   2
   5  -8  -5 92.4052 7.95412   2
  -5   8   5 89.6902 12.5066   1
   4  -8  -5 58.8609 6.01280   2
   3  -8  -5 165.159 8.33195   2
   3  -8  -5 144.067 10.6897   1
   2  -8  -5 314.208 14.1658   1
   2  -8  -5 306.815 11.7955   2
   1  -8  -5 228.568 11.7156   1
   1  -8  -5 232.716 9.89841   2
   0  -8  -5 63.0232 6.22654   1
   0  -8  -5 81.9475 6.43167   2
  -1  -8  -5 103.343 8.53311   2
  -1  -8  -5 109.356 7.52403   1
  -2  -8  -5 89.1554 6.97417   1
  -2  -8  -5 69.7830 8.97217   2
   4  -9  -5 63.8566 7.83819   2
   3  -9  -5 2.83882 4.60812   1
   3  -9  -5 6.25385 2.98251   2
   2  -9  -5 2.94270 2.62334   2
   1  -9  -5 99.2215 8.20661   1
   1  -9  -5 87.2764 6.83471   2
   0  -9  -5 190.583 10.5318   2
   0  -9  -5 196.761 10.8079   1
  -1 -10   6 405.185 16.7869   3
  -1 -10   6 427.614 17.2866   2
   0 -10   6 -3.4916 4.47453   3
   0 -10   6 -3.7980 3.28490   2
  -1  10  -6 42.4709 8.11967   1
   1 -10   6 35.1996 6.58081   3
   1 -10   6 22.0830 3.54401   2
  -2  10  -6 326.810 15.3653   1
   2 -10   6 280.129 13.0811   3
   2 -10   6 319.274 12.0961   2
  -3  -9   6 20.4113 6.23398   2
  -2  -9   6 94.8570 9.03843   2
  -1  -9   6 277.824 12.6770   2
  -1  -9   6 255.066 12.1052   3
   0   9  -6 8.72391 3.25466   1
   0  -9   6 2.18351 3.16733   3
   0  -9   6 4.88297 2.56961   2
  -1   9  -6 83.6943 7.77280   1
   1  -9   6 72.6028 6.36964   3
   1  -9   6 81.8725 5.59732   2
  -2   9  -6 11.4181 4.61093   1
  -3   9  -6 -6.9775 4.95790   1
   3  -9   6 3.63344 3.05974   3
   3  -9   6 -1.3615 2.84806   2
   4  -9   6 30.4279 4.35965   2
   4  -9   6 33.7141 5.02212   3
  -4  -8   6 486.839 21.9153   2
  -3  -8   6 238.936 13.9504   2
  -2  -8   6 107.351 8.12326   2
  -2  -8   6 108.066 8.39573   3
   1   8  -6 1620.49 39.2586   1
  -1  -8   6 1661.79 42.0217   3
  -1  -8   6 1564.75 40.4803   1
  -1  -8   6 1642.08 42.5945   2
   0   8  -6 539.037 17.3688   1
   0  -8   6 538.631 16.9568   3
   0  -8   6 565.287 17.2024   2
   0  -8   6 507.675 16.4932   1
  -1   8  -6 6.26875 2.99024   1
   1  -8   6 9.92519 2.60401   3
   1  -8   6 11.1654 2.04787   2
  -2   8  -6 205.102 11.0234   1
   2  -8   6 205.956 8.39019   3
   2  -8   6 202.975 8.37253   2
  -3   8  -6 705.809 24.4317   1
   3  -8   6 680.409 19.6104   3
   3  -8   6 697.213 20.2069   2
  -4   8  -6 35.1429 6.34234   1
   4  -8   6 43.6096 5.27986   3
   4  -8   6 41.7635 5.95712   2
  -4  -7   6 228.906 14.2382   2
  -3  -7   6 180.137 11.0033   2
  -2  -7   6 592.192 19.8924   3
  -2  -7   6 565.862 19.6518   2
   1   7  -6 589.662 16.5842   1
  -1  -7   6 558.816 18.2797   2
  -1  -7   6 606.214 18.6404   3
  -1  -7   6 579.891 16.0965   1
   0   7  -6 277.191 9.16210   3
   0   7  -6 261.530 10.5629   1
   0   7  -6 279.084 11.7199   2
   0  -7   6 267.146 10.1355   1
   0  -7   6 271.357 10.4084   3
   0  -7   6 275.279 9.98242   2
  -1   7  -6 680.791 20.8806   1
  -1   7  -6 667.853 20.9171   2
  -1   7  -6 646.188 18.2270   3
   1  -7   6 620.772 19.8666   1
   1  -7   6 683.542 18.8076   3
   1  -7   6 702.640 18.6863   2
   2  -7   6 1186.94 29.8492   3
   2  -7   6 1198.22 30.1620   2
  -3   7  -6 430.172 17.2487   1
   3  -7   6 406.753 14.3893   3
   3  -7   6 427.683 13.8592   2
  -4   7  -6 265.072 14.1694   1
   4  -7   6 243.529 9.66742   3
   4  -7   6 233.734 10.3631   2
  -5   7  -6 400.387 18.6515   1
   5  -7   6 401.777 15.6529   2
   5  -7   6 397.148 14.2128   3
  -5  -6   6 -2.8572 5.16363   2
  -4  -6   6 82.9884 8.36429   2
  -3  -6   6 89.1439 7.50027   2
  -2  -6   6 3.84445 2.32278   3
  -2  -6   6 6.07833 2.14076   2
   1   6  -6 16.0907 2.53399   2
   1   6  -6 21.0311 2.91825   3
   1   6  -6 15.0186 2.98120   1
  -1  -6   6 20.7392 3.19516   2
  -1  -6   6 18.0194 3.30056   3
  -1  -6   6 20.4436 2.62009   1
   0   6  -6 421.176 13.2328   2
   0   6  -6 426.887 13.8456   1
   0   6  -6 430.402 12.3889   3
   0  -6   6 429.935 13.4267   3
   0  -6   6 418.044 13.3194   1
   0  -6   6 433.455 12.9236   2
  -1   6  -6 619.482 19.1036   1
  -1   6  -6 597.804 18.2540   2
  -1   6  -6 600.290 16.8036   3
   1  -6   6 637.135 16.7051   2
   1  -6   6 616.891 16.9617   3
   1  -6   6 599.721 18.4830   1
  -2   6  -6 45.6135 4.55307   3
  -2   6  -6 39.7183 5.05247   1
   2  -6   6 38.0738 3.25821   2
   2  -6   6 38.1756 3.23934   3
  -3   6  -6 478.027 17.9330   1
   3  -6   6 486.135 14.3716   3
   3  -6   6 472.383 14.9416   2
  -4   6  -6 148.399 10.4179   1
   4  -6   6 146.765 8.05129   2
   4  -6   6 143.927 7.10664   3
  -5   6  -6 -3.5301 4.82650   1
   5  -6   6 -2.2430 3.95745   2
  -5  -5   6 456.370 19.9085   2
  -4  -5   6 283.011 13.7296   2
  -3  -5   6 1.70990 2.35018   2
   2   5  -6 695.743 18.4867   2
   2   5  -6 666.862 19.1542   3
  -2  -5   6 714.992 20.9427   2
  -2  -5   6 703.901 20.8869   3
   1   5  -6 465.278 13.6356   3
   1   5  -6 485.636 13.5134   1
   1   5  -6 500.362 13.5429   2
  -1  -5   6 480.924 14.8553   3
  -1  -5   6 471.324 14.3671   2
   0   5  -6 96.4874 5.22688   1
   0   5  -6 106.206 4.96356   2
   0   5  -6 94.2310 4.41078   3
   0  -5   6 89.6442 4.27161   2
   0  -5   6 104.443 5.13944   1
   0  -5   6 97.0682 4.91647   3
  -1   5  -6 100.610 4.80918   3
  -1   5  -6 100.642 5.63944   2
  -1   5  -6 104.264 6.09693   1
   1  -5   6 93.6305 4.60156   3
   1  -5   6 101.241 4.31499   2
   1  -5   6 91.5946 5.48775   1
  -2   5  -6 880.528 25.5115   1
  -2   5  -6 860.690 23.3125   3
   2  -5   6 856.596 24.7901   1
   2  -5   6 885.069 22.2855   3
   2  -5   6 878.087 22.3362   2
   3  -5   6 58.0802 5.97577   2
   3  -5   6 67.3652 4.87705   2
   3  -5   6 66.4379 4.14978   3
  -4   5  -6 2.10540 3.28137   1
   4  -5   6 2.40130 2.13605   3
   4  -5   6 -0.5375 2.70867   2
  -5   5  -6 27.8122 5.29028   1
   5  -5   6 36.5505 6.35657   2
   5  -5   6 39.1078 5.37304   3
  -6  -4   6 697.339 27.2496   2
  -5  -4   6 561.561 21.8084   2
   3   4  -6 1085.45 28.3527   2
  -3  -4   6 1143.71 31.4309   2
  -3  -4   6 1143.99 31.3516   3
   2   4  -6 3982.40 88.8812   3
   2   4  -6 3873.65 87.4030   2
  -2  -4   6 3970.60 89.9836   2
  -2  -4   6 3983.02 90.5186   3
   1   4  -6 970.966 23.8812   1
   1   4  -6 987.656 23.4245   2
   1   4  -6 960.198 24.2385   3
  -1  -4   6 979.875 25.4572   3
  -1  -4   6 997.093 24.6033   2
  -1  -4   6 974.664 23.5832   1
   0   4  -6 116.253 4.66782   2
   0   4  -6 118.393 4.70937   3
   0   4  -6 111.106 5.33410   1
   0  -4   6 109.155 5.01758   1
   0  -4   6 99.0311 4.10984   2
   0  -4   6 112.885 5.02305   3
  -1   4  -6 2012.16 47.3735   3
  -1   4  -6 2086.10 49.5134   1
  -1   4  -6 2053.68 47.8722   2
   1  -4   6 2061.92 46.2727   2
   1  -4   6 2060.69 47.1917   3
   1  -4   6 2070.72 49.0424   1
  -2   4  -6 465.837 14.3902   3
  -2   4  -6 485.088 16.1114   1
   2  -4   6 472.372 13.4281   3
   2  -4   6 490.256 15.1287   2
   2  -4   6 475.337 13.4486   2
   2  -4   6 456.514 15.2876   1
  -3   4  -6 354.295 14.0699   1
   3  -4   6 359.200 12.2908   2
   3  -4   6 358.448 11.4401   3
   3  -4   6 355.552 13.5303   2
  -4   4  -6 800.772 25.7342   1
   4  -4   6 813.238 24.0985   2
   4  -4   6 798.186 22.2552   3
  -5   4  -6 794.959 27.2925   1
   5  -4   6 839.626 23.9394   3
   5  -4   6 818.488 25.9611   2
  -6   4  -6 138.310 12.3912   1
   6  -4   6 142.912 11.3720   2
   6  -4   6 149.007 9.75660   3
  -6  -3   6 33.9214 6.16126   2
  -5  -3   6 32.4595 6.14853   2
  -4  -3   6 549.155 19.2380   2
   3   3  -6 412.751 13.1045   2
  -3  -3   6 431.963 14.8361   2
  -3  -3   6 426.323 14.9395   3
   2   3  -6 714.085 16.7949   1
   2   3  -6 703.721 19.0196   3
   2   3  -6 694.554 17.7693   2
  -2  -3   6 687.513 19.3109   2
  -2  -3   6 690.081 16.8660   1
  -2  -3   6 703.939 20.0811   3
   1   3  -6 1605.70 36.5674   2
   1   3  -6 1595.24 37.9100   3
   1   3  -6 1676.77 37.7111   1
  -1  -3   6 1635.09 37.6650   2
  -1  -3   6 1640.20 39.0699   3
  -1  -3   6 1635.62 37.4628   1
   0   3  -6 322.767 8.66113   2
   0   3  -6 320.597 10.2020   1
   0   3  -6 322.715 9.35025   3
   0  -3   6 326.982 9.76838   3
   0  -3   6 299.992 8.76856   2
   0  -3   6 319.979 9.95597   1
  -1   3  -6 51.7472 3.22712   3
  -1   3  -6 50.1017 3.74610   1
   1  -3   6 48.7525 2.37871   2
   1  -3   6 49.5780 2.90701   3
   1  -3   6 52.5558 3.81806   1
  -2   3  -6 659.032 19.8623   1
   2  -3   6 653.072 17.3617   3
   2  -3   6 651.587 17.5420   2
   2  -3   6 670.828 18.6579   2
  -3   3  -6 1924.37 48.5404   1
   3  -3   6 1953.25 46.8023   2
   3  -3   6 1905.62 45.2606   3
   3  -3   6 1882.38 47.4218   2
  -4   3  -6 442.569 16.7598   1
   4  -3   6 449.676 14.4591   3
   4  -3   6 450.122 15.9467   2
  -5   3  -6 240.620 12.4187   1
   5  -3   6 248.273 10.5544   3
   5  -3   6 229.325 12.0575   2
  -6   3  -6 268.492 14.4494   1
   6  -3   6 266.644 12.0046   3
   6  -3   6 289.269 14.9808   2
  -6  -2   6 20.2727 5.04739   2
  -5  -2   6 142.359 9.50602   2
   4   2  -6 5.01604 2.31171   2
   4   2  -6 3.01645 1.21481   1
  -4  -2   6 -0.2232 2.08906   2
   3   2  -6 8.68614 1.68742   1
   3   2  -6 6.86861 1.93371   2
   3   2  -6 5.57747 1.27812   1
   3   2  -6 7.45467 2.05290   3
  -3  -2   6 7.59678 1.91645   2
  -3  -2   6 5.48329 1.79893   3
   2   2  -6 813.202 21.0715   3
   2   2  -6 813.257 19.3462   1
   2   2  -6 802.005 20.0936   2
  -2  -2   6 814.916 21.2634   2
  -2  -2   6 803.417 19.7508   1
  -2  -2   6 790.822 21.8895   3
   1   2  -6 560.582 13.2036   2
   1   2  -6 562.186 14.6469   1
   1   2  -6 573.772 14.7637   3
  -1  -2   6 555.223 14.5866   1
  -1  -2   6 559.466 15.4461   3
  -1  -2   6 550.201 14.0816   2
   0   2  -6 50.4184 2.72038   3
   0   2  -6 47.2904 3.10732   1
   0  -2   6 48.9342 3.08061   1
   0  -2   6 49.7015 1.74096   2
   0  -2   6 48.8454 2.80983   3
  -1   2  -6 386.837 12.4394   1
  -1   2  -6 386.627 11.2047   3
   1  -2   6 391.298 10.6700   2
   1  -2   6 385.552 10.0322   2
   1  -2   6 401.734 12.3058   1
   1  -2   6 397.785 11.0355   3
  -2   2  -6 938.026 25.3798   1
   2  -2   6 927.899 23.5715   2
   2  -2   6 913.544 23.1339   3
   2  -2   6 914.577 23.8222   2
   2  -2   6 938.459 24.9962   1
  -3   2  -6 113.610 6.84151   1
   3  -2   6 98.5595 6.35440   1
   3  -2   6 121.015 6.60240   2
   3  -2   6 121.030 5.61969   3
  -4   2  -6 4.03883 2.44970   1
   4  -2   6 3.49389 2.05132   3
  -5   2  -6 226.266 11.9886   1
   5  -2   6 225.986 10.2371   3
  -6   2  -6 10.0093 5.49021   1
   6  -2   6 19.5729 4.50357   3
   6  -2   6 7.56997 5.72894   2
  -7  -1   6 321.281 17.6406   2
  -6  -1   6 1040.29 33.6447   2
   5   1  -6 210.736 7.89187   1
   5   1  -6 201.140 7.56165   1
  -5  -1   6 210.045 11.3740   2
   4   1  -6 377.808 12.3609   1
   4   1  -6 360.505 10.7628   1
   4   1  -6 354.853 13.5624   2
  -4  -1   6 355.662 13.9590   2
   3   1  -6 1524.79 34.8591   1
   3   1  -6 1520.81 35.3270   1
   3   1  -6 1505.06 37.0736   2
   3   1  -6 1472.40 36.8636   3
  -3  -1   6 1520.58 38.0050   3
  -3  -1   6 1440.57 37.5006   2
   2   1  -6 372.162 11.0248   3
   2   1  -6 349.908 10.0822   1
   2   1  -6 359.210 10.5599   2
  -2  -1   6 359.072 10.8731   2
  -2  -1   6 357.264 10.6594   1
  -2  -1   6 353.569 11.5418   3
   1   1  -6 577.280 15.1078   1
   1   1  -6 576.243 13.2485   2
  -1  -1   6 562.566 13.6798   2
  -1  -1   6 585.272 15.4509   3
  -1  -1   6 566.544 15.3448   1
   0   1  -6 2307.03 51.2345   3
   0   1  -6 2272.47 52.5320   1
   0  -1   6 2319.95 51.6534   3
   0  -1   6 2287.45 52.5127   1
  -1   1  -6 2319.51 51.5395   3
  -1   1  -6 2218.43 52.7590   1
   1  -1   6 2258.18 51.0367   3
   1  -1   6 2284.20 52.6375   1
   1  -1   6 2248.18 50.1470   2
  -2   1  -6 3.00031 1.38435   1
  -2   1  -6 2.38874 1.41678   2
   2  -1   6 4.26480 1.26571   2
   2  -1   6 4.92643 1.31518   3
   2  -1   6 3.59069 1.41797   1
  -3   1  -6 546.816 17.0310   2
  -3   1  -6 530.175 17.2622   1
   3  -1   6 532.427 15.4753   3
   3  -1   6 510.359 16.1100   2
   3  -1   6 506.219 16.5324   1
  -4   1  -6 337.675 14.1781   2
   4  -1   6 358.821 12.4988   3
  -5   1  -6 151.306 10.5106   2
  -5   1  -6 134.368 9.11105   1
   5  -1   6 139.138 8.15289   3
  -6   1  -6 14.0686 5.73048   2
  -6   1  -6 6.40232 5.07795   1
  -7   0   6 414.761 19.4891   2
   6   0  -6 493.157 16.0484   1
  -6   0   6 491.664 20.0869   2
   5   0  -6 1151.60 30.4803   1
   5   0  -6 1226.69 30.7279   1
   4   0  -6 1036.46 29.6369   2
   4   0  -6 1033.22 28.4173   3
   4   0  -6 1073.26 27.3279   1
   4   0  -6 1071.26 27.0886   1
  -4   0   6 1076.51 29.8676   2
   3   0  -6 380.217 12.2578   3
   3   0  -6 397.326 13.1288   2
   3   0  -6 390.273 11.7677   1
   3   0  -6 392.074 12.0185   1
  -3   0   6 374.559 12.7224   2
   2   0  -6 1388.38 32.1232   3
   2   0  -6 1344.75 32.2977   1
   2   0  -6 1347.64 32.3083   2
   2   0  -6 1328.68 32.4550   1
  -2   0   6 1322.16 32.0902   2
  -2   0   6 1369.98 32.9726   3
   1   0  -6 1640.24 35.7990   2
   1   0  -6 1615.75 36.9217   3
   1   0  -6 1625.83 38.1895   1
   1   0  -6 1639.62 36.2820   2
  -1   0   6 1608.24 37.6675   3
  -1   0   6 1644.61 38.5206   1
   0   0  -6 3338.93 75.9665   1
   0   0  -6 3378.74 74.2699   3
   0   0   6 3426.97 76.0560   1
   0   0   6 3405.81 74.5908   3
  -1   0  -6 199.269 6.71839   2
  -1   0  -6 201.640 7.73798   1
  -1   0  -6 206.793 7.09536   3
   1   0   6 205.659 6.63716   3
   1   0   6 202.412 5.83580   2
   1   0   6 201.292 7.77200   1
  -2   0  -6 1740.68 42.7427   1
  -2   0  -6 1721.21 41.9272   2
   2   0   6 1755.96 40.8915   3
   2   0   6 1738.30 40.7621   2
   2   0   6 1779.66 42.4919   1
  -3   0  -6 701.005 20.9965   2
  -3   0  -6 703.155 20.8129   1
   3   0   6 658.178 20.0711   1
   3   0   6 695.503 19.1867   3
   3   0   6 674.786 19.4821   2
  -4   0  -6 447.157 17.0958   2
  -4   0  -6 439.876 16.6066   1
   4   0   6 481.573 15.3783   3
  -5   0  -6 805.194 27.6727   2
  -5   0  -6 822.927 25.9768   1
   5   0   6 810.707 24.4593   3
   5  -1  -6 84.0038 6.44352   1
   4  -1  -6 1.23966 2.06819   1
   4  -1  -6 5.39056 1.91917   1
   4  -1  -6 7.19382 2.47175   3
   4  -1  -6 8.31448 3.07467   2
   3  -1  -6 225.775 9.04833   1
   3  -1  -6 244.760 9.30241   2
   3  -1  -6 242.098 9.09397   1
   3  -1  -6 249.242 8.74052   3
   3  -1  -6 252.518 10.0227   2
   2  -1  -6 1545.90 37.1077   1
   2  -1  -6 1528.86 35.2585   3
   2  -1  -6 1488.15 36.7275   1
   2  -1  -6 1522.65 35.6959   2
   2  -1  -6 1555.06 36.6496   2
  -2   1   6 1496.21 36.1218   3
   1  -1  -6 4.91053 0.79348   2
   1  -1  -6 2.62662 1.04890   1
   1  -1  -6 4.77167 0.94016   3
  -1   1   6 4.37675 1.29779   1
  -1   1   6 4.51771 0.93063   2
  -1   1   6 5.44352 1.09592   3
   0  -1  -6 223.786 8.09372   1
   0  -1  -6 222.841 6.63953   3
   0  -1  -6 220.919 6.14604   2
   0   1   6 219.642 8.19248   1
   0   1   6 213.077 6.58770   3
   0   1   6 219.739 6.02007   2
  -1  -1  -6 1124.36 28.8115   1
  -1  -1  -6 1145.44 27.5789   2
   1   1   6 1140.02 26.2101   2
   1   1   6 1155.57 27.0122   3
   1   1   6 1136.26 28.8424   1
  -2  -1  -6 165.526 7.38773   2
  -2  -1  -6 164.337 7.42558   1
   2   1   6 176.496 6.42618   2
   2   1   6 172.236 7.58964   1
   2   1   6 167.787 6.43004   3
  -3  -1  -6 38.4349 4.06814   1
  -3  -1  -6 37.6961 4.48413   2
   3   1   6 38.2055 3.71811   2
   3   1   6 40.6451 4.49683   1
   3   1   6 34.3420 3.43982   3
  -4  -1  -6 477.688 18.1655   2
  -4  -1  -6 463.837 17.0246   1
   4   1   6 477.838 15.7114   3
  -5  -1  -6 533.114 19.4410   1
  -5  -1  -6 520.099 21.3730   2
   5   1   6 539.061 18.2061   3
   7  -2  -6 94.0189 11.2950   2
   6  -2  -6 3.50180 4.13056   2
   5  -2  -6 -4.1377 3.31789   1
   5  -2  -6 -1.3130 2.92153   2
  -5   2   6 -1.6674 2.05405   1
   4  -2  -6 455.902 15.6531   1
   4  -2  -6 453.296 16.8431   2
   4  -2  -6 433.900 14.3612   3
   4  -2  -6 464.997 15.8207   2
   3  -2  -6 552.368 16.4605   2
   3  -2  -6 544.510 17.2425   1
   3  -2  -6 575.962 15.5506   3
   3  -2  -6 555.209 17.1536   1
   3  -2  -6 544.590 17.5944   2
   2  -2  -6 201.233 6.96813   2
   2  -2  -6 205.306 8.00219   2
   2  -2  -6 208.009 8.26889   1
   2  -2  -6 193.002 8.35361   1
  -2   2   6 194.395 6.87675   3
   1  -2  -6 44.0358 3.40736   1
   1  -2  -6 44.1288 2.22811   2
   1  -2  -6 40.9287 2.05285   3
  -1   2   6 39.3752 2.35221   3
  -1   2   6 44.0468 2.78718   2
  -1   2   6 41.7702 3.65283   1
   0  -2  -6 1481.78 34.0064   3
   0  -2  -6 1527.16 36.5531   1
   0  -2  -6 1509.11 34.0289   2
   0   2   6 1542.39 36.9536   1
   0   2   6 1428.52 33.6549   3
   0   2   6 1443.93 33.9499   2
  -1  -2  -6 6.32256 1.35530   1
  -1  -2  -6 9.74715 1.94090   2
   1   2   6 6.80852 1.38285   2
   1   2   6 8.91570 1.51593   3
   1   2   6 6.76493 2.02850   1
  -2  -2  -6 172.289 7.70506   1
  -2  -2  -6 174.865 8.02073   2
   2   2   6 177.215 6.62890   3
   2   2   6 169.189 6.36370   2
   2   2   6 167.691 7.85144   1
  -3  -2  -6 337.099 12.7380   1
  -3  -2  -6 351.742 13.8453   2
   3   2   6 320.417 12.1601   1
   3   2   6 346.266 11.5925   3
   3   2   6 335.731 11.3431   2
  -4  -2  -6 67.6500 7.10311   2
  -4  -2  -6 66.6870 7.90650   1
   4   2   6 47.4027 5.04478   3
  -5  -2  -6 55.5933 9.90252   2
  -5  -2  -6 72.9169 7.74458   1
   5   2   6 64.4387 6.73382   3
   7  -3  -6 210.853 13.8679   2
  -7   3   6 214.416 11.2547   1
   6  -3  -6 199.950 12.0067   2
  -6   3   6 177.335 9.74339   1
   5  -3  -6 1046.02 30.6755   2
  -5   3   6 1038.97 30.0625   1
   4  -3  -6 846.128 24.2833   2
   4  -3  -6 837.052 26.1670   1
   4  -3  -6 828.347 22.4210   3
   4  -3  -6 806.536 25.7952   2
   3  -3  -6 561.621 14.8012   3
   3  -3  -6 519.902 17.5922   1
   3  -3  -6 545.359 17.8398   2
   3  -3  -6 550.432 16.2841   2
   3  -3  -6 546.125 17.7598   1
   2  -3  -6 1607.55 37.4118   2
   2  -3  -6 1620.39 40.4318   1
   2  -3  -6 1632.84 40.2780   1
   2  -3  -6 1576.88 35.6192   3
  -2   3   6 1542.88 39.0138   2
   1  -3  -6 817.165 19.9386   2
   1  -3  -6 840.561 22.9317   1
   1  -3  -6 789.539 22.6629   1
   1  -3  -6 791.709 18.6733   3
  -1   3   6 844.957 21.3364   2
   0  -3  -6 504.344 15.6384   1
   0  -3  -6 517.390 13.8087   2
   0   3   6 511.171 16.1760   1
   0   3   6 514.246 13.8845   2
   0   3   6 505.968 12.6415   3
  -1  -3  -6 648.190 18.2349   2
  -1  -3  -6 647.772 18.9516   1
   1   3   6 682.054 17.0590   2
   1   3   6 655.194 16.3833   3
   1   3   6 624.376 19.1239   1
  -2  -3  -6 2100.05 50.9975   2
  -2  -3  -6 2079.51 50.2002   1
   2   3   6 2058.44 47.8694   2
   2   3   6 2055.19 47.7722   3
   2   3   6 2021.43 50.0977   1
  -3  -3  -6 336.058 14.3532   2
  -3  -3  -6 358.279 13.1322   1
   3   3   6 341.641 11.7560   3
  -4  -3  -6 134.324 9.48618   1
  -4  -3  -6 160.664 10.7227   2
   4   3   6 145.471 7.74304   3
  -5  -3  -6 69.0585 8.42969   1
  -5  -3  -6 80.9781 10.7130   2
   5   3   6 81.2684 7.41038   3
   6  -4  -6 437.604 18.0539   2
  -6   4   6 427.900 16.8589   1
   5  -4  -6 191.897 10.2188   2
   5  -4  -6 187.657 9.79372   3
  -5   4   6 205.698 10.2751   1
   4  -4  -6 163.299 8.22869   2
   4  -4  -6 158.935 7.19927   3
   3  -4  -6 1070.68 27.7861   2
   3  -4  -6 1069.69 30.3607   1
   2  -4  -6 250.236 8.33447   2
   2  -4  -6 225.888 10.1932   1
   2  -4  -6 248.470 10.4394   1
  -2   4   6 241.958 9.83246   2
   1  -4  -6 173.351 8.31157   1
   1  -4  -6 178.509 8.21403   1
   1  -4  -6 174.044 6.34789   2
  -1   4   6 169.231 7.36068   2
   0  -4  -6 805.305 23.1169   1
   0  -4  -6 817.696 21.2433   2
   0   4   6 813.820 21.4072   2
   0   4   6 840.564 19.0595   3
  -1  -4  -6 1397.93 35.1040   2
  -1  -4  -6 1393.00 35.5443   1
   1   4   6 1383.84 31.8709   3
   1   4   6 1346.22 36.0785   1
   1   4   6 1381.52 33.3819   2
  -2  -4  -6 212.876 9.33774   1
  -2  -4  -6 218.031 10.2101   2
   2   4   6 214.408 7.60952   3
   2   4   6 205.703 9.99334   1
  -3  -4  -6 746.327 22.8250   1
  -3  -4  -6 773.155 25.4021   2
   3   4   6 775.910 21.3306   3
  -4  -4  -6 800.990 28.3146   2
  -4  -4  -6 773.480 24.4488   1
   4   4   6 810.969 23.3165   3
   6  -5  -6 13.4759 4.66583   2
  -6   5   6 8.51842 4.34433   1
   5  -5  -6 57.9662 6.33336   2
  -5   5   6 61.7423 6.52700   1
   4  -5  -6 40.8405 4.73583   2
   4  -5  -6 54.4700 4.28362   3
   3  -5  -6 6.83681 1.82484   2
   2  -5  -6 3.51062 2.15237   1
   2  -5  -6 5.90538 1.42613   2
   1  -5  -6 659.510 17.7660   2
   1  -5  -6 684.869 20.7026   1
  -1   5   6 612.206 19.1945   2
   0  -5  -6 119.334 6.78120   1
   0  -5  -6 119.702 5.79483   2
   0   5   6 113.680 5.96444   2
  -1  -5  -6 63.8755 4.92972   1
  -1  -5  -6 57.4146 5.02095   2
   1   5   6 62.2138 3.03333   3
  -2  -5  -6 222.852 11.1872   2
  -2  -5  -6 228.427 9.93144   1
   2   5   6 230.343 7.87939   3
  -3  -5  -6 178.919 11.2884   2
  -3  -5  -6 168.095 10.2194   1
   3   5   6 180.536 7.94878   3
  -4  -5  -6 53.3625 5.80790   1
  -4  -5  -6 56.0041 10.1607   2
   4   5   6 63.6432 6.10721   3
   6  -6  -6 111.938 9.58507   2
  -6   6   6 129.689 10.3231   1
   5  -6  -6 214.751 10.8908   2
   4  -6  -6 4.09546 3.52578   1
   4  -6  -6 -1.2417 2.32018   2
   3  -6  -6 290.970 13.5534   1
   3  -6  -6 301.041 10.9319   2
   2  -6  -6 620.896 20.7579   1
   2  -6  -6 591.340 17.3757   2
   1  -6  -6 546.302 21.3504   1
   1  -6  -6 610.584 17.0040   2
   0  -6  -6 13.2687 3.72400   1
  -1  -6  -6 192.591 9.53771   2
  -2  -6  -6 55.1064 6.89381   2
  -2  -6  -6 51.7523 5.50229   1
   2   6   6 68.0883 3.86552   3
  -3  -6  -6 28.9274 5.73584   2
  -3  -6  -6 18.3346 3.99084   1
   5  -7  -6 143.882 9.23201   2
   4  -7  -6 465.598 19.5111   1
   4  -7  -6 471.273 16.0879   2
   3  -7  -6 632.627 19.2053   2
   3  -7  -6 639.350 22.9549   1
   2  -7  -6 159.708 9.94107   1
   2  -7  -6 167.787 7.68957   2
   1  -7  -6 683.128 20.0204   2
   1  -7  -6 693.024 22.6124   1
   0  -7  -6 846.065 24.5674   2
   0  -7  -6 850.728 25.8726   1
  -1  -7  -6 73.0875 6.91691   2
  -1  -7  -6 89.1085 6.58228   1
  -2  -7  -6 251.478 13.6461   2
  -2  -7  -6 255.106 11.2113   1
   4  -8  -6 80.4380 10.0975   1
   4  -8  -6 96.9607 7.09296   2
   3  -8  -6 -4.9196 4.06052   1
   3  -8  -6 0.84516 2.53910   2
   2  -8  -6 57.1152 5.31473   2
   2  -8  -6 46.2621 6.45888   1
   1  -8  -6 276.986 11.2047   2
   1  -8  -6 257.714 12.8332   1
   0  -8  -6 90.1658 7.09978   2
   0  -8  -6 78.5828 7.27828   1
  -1  -8  -6 67.4396 6.94212   1
  -1  -8  -6 67.4850 7.49061   2
   3  -9  -6 43.8122 5.94084   2
   3  -9  -6 27.3064 5.48638   1
   2  -9  -6 8.64820 4.56251   1
   2  -9  -6 11.5577 3.01621   2
   1  -9  -6 -2.0608 2.96045   2
   1  -9  -6 -4.6212 4.06804   1
   0  -9  -6 77.0012 7.61036   1
   0  -9  -6 50.4655 7.52378   2
  -1 -10   7 272.176 13.6426   2
  -1 -10   7 280.396 14.0759   3
   0 -10   7 134.437 8.63606   2
   0 -10   7 113.330 9.88856   3
  -1  10  -7 48.6345 8.79997   1
   1 -10   7 50.1064 7.53717   3
   1 -10   7 38.7724 5.61536   2
  -2  10  -7 95.4813 10.7790   1
   2 -10   7 117.186 7.04650   2
   2 -10   7 84.3980 8.24420   3
  -2  -9   7 16.4227 4.42289   2
  -2  -9   7 28.2768 5.76435   3
  -1  -9   7 67.6922 7.40781   3
  -1  -9   7 54.8398 6.68940   2
   0   9  -7 11.7571 3.79493   1
   0  -9   7 6.73387 2.78135   2
  -1   9  -7 39.2356 7.40293   1
   1  -9   7 47.5570 4.67128   2
   1  -9   7 38.9354 5.82429   3
  -2   9  -7 248.070 13.4851   1
   2  -9   7 251.788 10.5069   3
   2  -9   7 250.726 9.98889   2
  -3   9  -7 23.5639 5.79192   1
   3  -9   7 19.7909 3.68247   3
   3  -9   7 27.4935 5.12278   2
  -3  -8   7 401.110 18.2712   2
  -2  -8   7 422.220 16.2868   3
  -2  -8   7 388.448 16.2098   2
   1   8  -7 29.4523 4.62953   1
  -1  -8   7 33.2581 5.09275   2
   0   8  -7 559.168 17.8727   1
   0  -8   7 514.268 16.7529   1
   0  -8   7 555.596 17.9736   3
   0  -8   7 566.349 17.5008   2
   1  -8   7 660.837 19.9410   2
   1  -8   7 628.903 20.7796   3
  -2   8  -7 163.535 10.2031   1
   2  -8   7 159.111 7.22501   2
   2  -8   7 159.689 7.55894   3
  -3   8  -7 526.198 20.7256   1
   3  -8   7 516.545 16.3495   3
   3  -8   7 540.606 16.4445   2
  -4   8  -7 287.809 15.4690   1
   4  -8   7 283.993 11.0301   3
   4  -8   7 256.436 10.9837   2
  -4  -7   7 272.136 15.3514   2
  -3  -7   7 336.574 15.4612   2
  -2  -7   7 1245.83 34.5876   3
  -2  -7   7 1263.22 35.3127   2
   1   7  -7 825.952 21.7237   1
  -1  -7   7 793.209 20.9697   1
  -1  -7   7 821.472 23.7032   3
  -1  -7   7 764.461 23.2065   2
   0   7  -7 464.839 15.3073   2
   0   7  -7 481.091 15.7794   1
   0  -7   7 508.352 15.0730   2
   0  -7   7 487.737 15.6834   3
   0  -7   7 465.037 15.0737   1
  -1   7  -7 176.358 9.49164   1
  -1   7  -7 186.909 9.47639   2
   1  -7   7 178.881 7.91015   3
   1  -7   7 181.439 7.25301   2
  -2   7  -7 1002.09 29.6999   1
   2  -7   7 947.368 27.3323   3
   2  -7   7 1012.59 25.6337   2
  -3   7  -7 712.973 24.4613   1
   3  -7   7 692.144 19.7683   3
   3  -7   7 686.680 19.8138   2
  -4   7  -7 321.356 16.1248   1
   4  -7   7 325.174 12.3932   2
   4  -7   7 339.099 12.0332   3
   5  -7   7 260.139 11.3006   3
   5  -7   7 259.980 12.1037   2
  -5  -6   7 69.0536 9.96750   2
  -4  -6   7 7.20008 3.99399   2
  -3  -6   7 71.4410 6.96281   3
  -3  -6   7 91.4210 7.31937   2
   2   6  -7 1851.24 46.3529   2
  -2  -6   7 1897.01 48.0484   3
  -2  -6   7 1943.80 48.3328   2
   1   6  -7 1.38160 1.77411   2
   1   6  -7 3.04527 3.06105   3
   1   6  -7 3.77681 1.76639   1
  -1  -6   7 1.79786 1.71076   2
  -1  -6   7 4.07307 1.63144   1
  -1  -6   7 1.24781 2.04304   3
   0   6  -7 46.4841 3.59231   3
   0   6  -7 48.7880 4.42997   1
   0   6  -7 54.3307 4.49207   2
   0  -6   7 48.1879 4.00767   3
   0  -6   7 48.7857 4.01693   1
   0  -6   7 51.9458 3.53251   2
  -1   6  -7 194.817 7.63200   3
  -1   6  -7 197.804 9.07807   2
  -1   6  -7 199.882 9.56841   1
   1  -6   7 217.457 7.36490   2
   1  -6   7 199.793 9.01561   1
   1  -6   7 209.546 8.05020   3
  -2   6  -7 110.501 7.89648   2
  -2   6  -7 127.911 8.26315   1
   2  -6   7 128.587 5.97196   3
   2  -6   7 133.124 5.61171   2
  -3   6  -7 25.8154 4.69648   1
   3  -6   7 35.3065 3.65143   3
   3  -6   7 35.7007 3.95998   2
  -4   6  -7 176.276 11.6157   1
   4  -6   7 178.917 8.26296   3
   4  -6   7 187.584 8.96227   2
  -5   6  -7 246.414 15.0309   1
   5  -6   7 255.387 12.3727   2
   5  -6   7 271.146 11.1292   3
  -5  -5   7 40.8589 8.45297   2
  -4  -5   7 203.900 11.5729   2
  -3  -5   7 100.966 6.95083   2
  -3  -5   7 99.7531 7.64972   3
   2   5  -7 148.773 6.16741   2
  -2  -5   7 146.135 4.97749   1
  -2  -5   7 155.300 7.99465   3
  -2  -5   7 156.342 7.71232   2
   1   5  -7 106.565 4.83850   2
   1   5  -7 100.442 5.10579   3
   1   5  -7 104.583 5.18223   1
  -1  -5   7 105.411 5.31863   2
  -1  -5   7 105.319 5.92400   3
  -1  -5   7 103.458 4.79618   1
   0   5  -7 283.249 9.27656   3
   0   5  -7 279.580 9.31925   2
   0   5  -7 284.580 10.3405   1
   0  -5   7 294.945 10.0299   1
   0  -5   7 266.861 8.74582   2
   0  -5   7 292.864 10.0057   3
  -1   5  -7 61.6958 4.77439   2
  -1   5  -7 60.3249 4.01800   3
  -1   5  -7 57.4232 4.97693   1
   1  -5   7 59.1345 3.88851   3
   1  -5   7 60.2234 4.52431   1
   1  -5   7 61.0218 3.18809   2
  -2   5  -7 156.189 8.55226   1
   2  -5   7 143.191 7.54490   2
   2  -5   7 146.250 5.87658   2
   2  -5   7 153.479 6.35686   3
  -3   5  -7 153.593 9.31744   1
   3  -5   7 160.566 7.12302   2
   3  -5   7 154.413 6.83913   3
   3  -5   7 156.688 8.76200   2
  -4   5  -7 82.6094 8.33594   1
   4  -5   7 82.7450 8.30980   2
   4  -5   7 104.233 5.92460   3
  -5   5  -7 45.1583 8.66076   1
   5  -5   7 39.3440 6.91722   2
   5  -5   7 36.6288 5.69496   3
  -6  -4   7 231.937 14.9532   2
  -5  -4   7 1025.21 33.0322   2
  -4  -4   7 248.887 14.0810   2
   3   4  -7 119.718 5.82885   2
  -3  -4   7 128.063 7.20949   2
  -3  -4   7 119.205 7.41703   3
   2   4  -7 849.910 21.0294   2
   2   4  -7 861.877 20.4161   1
   2   4  -7 809.265 22.2711   3
  -2  -4   7 848.709 23.9351   3
  -2  -4   7 835.683 20.2575   1
  -2  -4   7 841.017 23.1553   2
   1   4  -7 2175.51 48.8306   2
   1   4  -7 2200.99 50.1244   1
   1   4  -7 2158.95 50.1499   3
  -1  -4   7 2173.51 49.7042   1
  -1  -4   7 2183.20 50.0746   2
  -1  -4   7 2153.93 51.5393   3
   0   4  -7 1187.93 29.1691   1
   0   4  -7 1119.88 27.5152   3
   0  -4   7 1148.35 28.4620   1
   0  -4   7 1086.27 26.4570   2
   0  -4   7 1120.13 28.1972   3
  -1   4  -7 1854.89 43.9671   3
  -1   4  -7 1931.41 46.2659   1
  -1   4  -7 1886.93 44.0486   2
   1  -4   7 1849.31 43.7668   3
   1  -4   7 1841.53 42.2696   2
   1  -4   7 1887.82 45.5069   1
  -2   4  -7 3130.57 73.4626   3
  -2   4  -7 3307.78 75.9423   1
   2  -4   7 3232.81 71.7023   2
   2  -4   7 3069.52 74.6238   1
   2  -4   7 3270.41 73.9704   2
   2  -4   7 3179.69 72.1696   3
  -3   4  -7 311.561 15.6109   1
   3  -4   7 356.296 11.7740   2
   3  -4   7 339.647 13.0004   2
  -4   4  -7 175.318 10.2363   1
   4  -4   7 163.738 8.61384   2
   4  -4   7 178.218 7.96624   3
  -5   4  -7 884.024 29.5749   1
   5  -4   7 886.718 27.6007   2
   5  -4   7 930.143 25.9705   3
  -6  -3   7 547.074 22.9468   2
  -5  -3   7 49.5496 6.98592   2
  -4  -3   7 127.160 7.83083   2
   3   3  -7 1171.10 29.6803   2
  -3  -3   7 1207.41 32.0327   2
   2   3  -7 456.140 12.3253   2
   2   3  -7 460.655 12.1784   1
   2   3  -7 447.088 13.6628   3
  -2  -3   7 456.746 14.7936   3
  -2  -3   7 460.481 13.9072   2
  -2  -3   7 456.266 12.3416   1
   1   3  -7 260.116 7.22074   2
   1   3  -7 253.101 8.53071   3
   1   3  -7 267.919 8.63488   1
  -1  -3   7 263.520 8.07611   2
  -1  -3   7 266.674 8.46579   1
  -1  -3   7 261.556 9.34350   3
   0   3  -7 2307.96 52.7656   1
   0   3  -7 2269.78 51.3548   3
   0   3  -7 2282.56 50.1425   2
   0  -3   7 2292.47 52.3719   1
   0  -3   7 2218.14 49.6601   2
   0  -3   7 2187.38 51.8223   3
  -1   3  -7 2530.55 59.0040   1
  -1   3  -7 2481.84 57.0052   3
   1  -3   7 2484.05 56.3810   2
   1  -3   7 2506.39 58.4164   1
   1  -3   7 2516.13 56.7572   3
   1  -3   7 2459.39 54.9162   2
  -2   3  -7 151.479 7.74295   1
   2  -3   7 144.353 7.34288   1
   2  -3   7 152.977 6.21729   3
   2  -3   7 163.057 6.92068   2
   2  -3   7 157.992 6.03353   2
  -3   3  -7 283.377 12.1374   1
   3  -3   7 268.167 10.8754   2
   3  -3   7 287.388 10.4606   2
   3  -3   7 277.652 9.91561   3
  -4   3  -7 383.770 15.8895   1
   4  -3   7 401.868 13.5785   3
   4  -3   7 403.723 14.7289   2
  -5   3  -7 416.966 17.6793   1
   5  -3   7 399.137 16.5278   2
   5  -3   7 406.179 14.8432   3
  -6  -2   7 -1.5756 4.40653   2
  -5  -2   7 87.3718 7.87926   2
   4   2  -7 152.271 5.23857   1
   4   2  -7 145.719 7.73106   2
   4   2  -7 154.349 5.75962   1
  -4  -2   7 153.460 8.46240   2
   3   2  -7 771.738 21.0704   2
   3   2  -7 767.010 21.6816   3
   3   2  -7 800.104 19.6717   1
   3   2  -7 790.906 19.1987   1
  -3  -2   7 779.553 22.5077   2
  -3  -2   7 805.327 23.1775   3
   2   2  -7 0.14138 0.83776   1
   2   2  -7 2.27492 1.34767   3
  -2  -2   7 2.04467 1.13852   2
  -2  -2   7 0.86271 1.41027   3
   1   2  -7 26.1185 2.25540   1
   1   2  -7 24.3323 1.37761   2
   1   2  -7 29.2450 2.46066   3
  -1  -2   7 27.8641 2.51725   3
  -1  -2   7 22.8913 2.23192   1
  -1  -2   7 21.0445 1.70664   2
   0   2  -7 150.327 6.31797   1
   0   2  -7 146.362 5.47620   3
   0  -2   7 149.700 5.74373   3
   0  -2   7 147.648 6.16060   1
  -1   2  -7 137.795 5.71643   3
  -1   2  -7 137.062 6.54525   1
   1  -2   7 143.727 6.46454   1
   1  -2   7 149.614 5.58454   3
   1  -2   7 137.193 4.81376   2
   1  -2   7 138.284 4.33461   2
  -2   2  -7 72.6036 5.05135   1
   2  -2   7 75.1835 4.03276   3
   2  -2   7 80.8320 4.10456   2
   2  -2   7 71.8981 4.19105   2
   2  -2   7 74.8802 5.26315   1
  -3   2  -7 100.121 6.82968   1
   3  -2   7 107.456 5.95400   2
   3  -2   7 92.3641 5.75446   2
   3  -2   7 105.884 5.35036   3
  -4   2  -7 8.65267 2.81238   1
   4  -2   7 6.78294 2.20221   3
  -5   2  -7 10.6665 4.22109   1
   5  -2   7 9.47200 4.15920   2
   5  -2   7 10.1273 3.08291   3
  -6  -1   7 354.179 16.8465   2
   5   1  -7 443.719 12.9415   1
   5   1  -7 427.338 13.3389   1
  -5  -1   7 436.482 17.8573   2
   4   1  -7 76.0887 6.24784   2
   4   1  -7 86.7315 4.37452   1
   4   1  -7 74.6411 4.64941   1
  -4  -1   7 78.0611 5.98804   2
   3   1  -7 1568.06 37.7830   3
   3   1  -7 1541.68 36.0020   1
   3   1  -7 1529.44 37.5879   2
   3   1  -7 1514.93 36.3945   1
  -3  -1   7 1463.42 37.9822   2
  -3  -1   7 1558.63 39.0003   3
   2   1  -7 1982.46 46.1275   3
   2   1  -7 1997.63 45.3285   2
   2   1  -7 2001.16 45.7409   1
  -2  -1   7 2022.63 46.4869   1
  -2  -1   7 1923.41 45.7349   2
  -2  -1   7 1999.05 47.3653   3
   1   1  -7 44.3120 2.75119   3
   1   1  -7 45.9209 3.11159   1
  -1  -1   7 44.3949 3.08676   3
  -1  -1   7 52.4869 3.33207   1
   0   1  -7 2.56358 0.97059   3
   0   1  -7 3.89497 1.09750   1
   0  -1   7 3.60445 0.99981   3
   0  -1   7 3.10547 1.18804   1
  -1   1  -7 1683.65 40.7793   1
  -1   1  -7 1673.19 39.1863   3
   1  -1   7 1643.85 37.0848   2
   1  -1   7 1697.50 40.5790   1
   1  -1   7 1640.62 37.4256   2
   1  -1   7 1677.12 38.8119   3
  -2   1  -7 904.488 25.3201   1
  -2   1  -7 922.381 23.6346   2
   2  -1   7 901.418 23.1428   3
   2  -1   7 909.923 24.9689   1
   2  -1   7 918.513 22.9983   2
  -3   1  -7 189.354 9.33274   1
  -3   1  -7 194.416 8.85705   2
   3  -1   7 193.771 8.20924   2
   3  -1   7 180.442 7.70868   3
  -4   1  -7 520.243 18.9078   1
  -4   1  -7 523.283 18.6747   2
   4  -1   7 540.625 16.7066   3
  -5   1  -7 473.703 19.1101   2
  -5   1  -7 480.785 18.8843   1
   5  -1   7 487.983 16.7421   3
  -7   0   7 342.475 17.5428   2
   6   0  -7 302.340 11.7953   1
  -6   0   7 339.124 15.3319   2
   5   0  -7 119.933 6.21995   1
   5   0  -7 103.278 6.95387   1
   4   0  -7 780.242 21.4702   1
   4   0  -7 736.860 22.1195   3
   4   0  -7 771.141 23.3915   2
   4   0  -7 771.754 21.0128   1
  -4   0   7 806.050 23.4875   2
   3   0  -7 2275.99 53.6756   2
   3   0  -7 2248.64 52.9338   1
   3   0  -7 2264.50 52.8966   3
   3   0  -7 2278.47 52.5930   1
  -3   0   7 2272.95 54.1272   3
  -3   0   7 2212.53 53.3833   2
   2   0  -7 1259.68 29.9367   3
   2   0  -7 1247.00 30.6053   1
   2   0  -7 1263.42 30.0255   2
   2   0  -7 1240.09 29.6880   2
  -2   0   7 1243.51 31.0333   3
  -2   0   7 1229.91 31.2683   1
   1   0  -7 572.561 14.6327   3
   1   0  -7 575.728 16.1346   1
  -1   0   7 579.729 16.3602   1
  -1   0   7 577.685 15.5576   3
   0   0  -7 3325.91 74.1521   1
   0   0  -7 3189.81 71.9336   3
   0   0   7 3241.78 72.4359   3
   0   0   7 3289.35 74.1263   1
  -1   0  -7 1951.49 46.1307   1
  -1   0  -7 1953.07 44.5720   3
  -1   0  -7 1813.26 44.4455   2
   1   0   7 1939.21 43.9744   3
   1   0   7 1936.42 45.9543   1
   1   0   7 1908.33 42.3020   2
  -2   0  -7 1545.37 39.2430   1
  -2   0  -7 1542.79 37.8687   2
   2   0   7 1545.73 36.9195   3
   2   0   7 1552.28 38.9094   1
   2   0   7 1576.72 36.5035   2
  -3   0  -7 1420.53 37.1033   1
  -3   0  -7 1402.44 36.6420   2
   3   0   7 1403.87 34.7385   3
   3   0   7 1360.86 34.7059   2
  -4   0  -7 1126.12 32.5042   1
  -4   0  -7 1101.26 32.7358   2
   4   0   7 1165.19 30.3715   3
  -5   0  -7 29.4092 5.25285   1
   5   0   7 29.6417 4.32826   3
   7  -1  -7 130.644 13.0543   2
   6  -1  -7 9.57285 3.70459   1
   6  -1  -7 19.5028 4.87522   2
   5  -1  -7 284.888 12.2356   1
   5  -1  -7 306.664 11.8952   1
   4  -1  -7 133.634 7.28632   1
   4  -1  -7 126.154 6.88916   3
   4  -1  -7 133.291 8.43669   2
   4  -1  -7 132.700 7.54954   2
   4  -1  -7 133.718 6.86570   1
   3  -1  -7 14.3471 2.72795   1
   3  -1  -7 15.4283 2.73218   1
   3  -1  -7 11.6104 2.63892   2
   3  -1  -7 12.7665 2.38694   2
   3  -1  -7 16.5543 2.91712   3
  -3   1   7 14.3399 2.68798   3
   2  -1  -7 649.184 18.5493   1
   2  -1  -7 663.754 18.8550   1
   2  -1  -7 678.541 16.9548   3
   2  -1  -7 661.787 18.0561   2
   2  -1  -7 678.638 17.0708   2
  -2   1   7 645.467 17.8853   3
   1  -1  -7 1321.22 30.4121   2
   1  -1  -7 1404.00 33.9587   1
   1  -1  -7 1373.09 31.2833   3
  -1   1   7 1369.90 32.3006   3
  -1   1   7 1381.10 34.3171   1
   0  -1  -7 294.242 7.99983   2
   0  -1  -7 303.468 8.68196   3
   0  -1  -7 299.435 10.3807   1
   0   1   7 311.131 7.89723   2
   0   1   7 291.771 10.4949   1
   0   1   7 289.921 8.72527   3
  -1  -1  -7 131.575 6.38309   1
  -1  -1  -7 126.818 5.36366   2
   1   1   7 125.592 6.50657   1
   1   1   7 128.002 5.02803   3
   1   1   7 138.633 4.46272   2
  -2  -1  -7 1002.26 27.8322   1
  -2  -1  -7 1040.46 27.4222   2
   2   1   7 1024.33 27.7367   1
   2   1   7 1039.43 25.8676   3
   2   1   7 1061.61 25.3263   2
  -3  -1  -7 27.6745 4.19121   1
  -3  -1  -7 20.7300 4.17512   2
   3   1   7 18.3566 3.42192   2
   3   1   7 25.8242 3.23242   3
  -4  -1  -7 33.0213 5.54252   1
   4   1   7 30.3016 4.30733   3
  -5  -1  -7 9.76041 4.33944   1
  -5  -1  -7 12.2939 5.46438   2
   5   1   7 13.2076 3.51599   3
   7  -2  -7 164.617 13.3355   2
   7  -2  -7 161.002 12.6900   1
   6  -2  -7 423.092 16.6403   1
   6  -2  -7 434.424 18.2978   2
   5  -2  -7 0.58950 2.76651   1
   5  -2  -7 4.33714 3.26160   2
   4  -2  -7 34.3849 5.15706   1
   4  -2  -7 28.6226 4.18474   1
   4  -2  -7 21.6986 4.00721   2
   4  -2  -7 23.7150 3.85374   3
   4  -2  -7 27.2802 4.09169   2
   3  -2  -7 240.658 9.77216   1
   3  -2  -7 233.717 10.1092   2
   3  -2  -7 231.867 10.0077   1
   3  -2  -7 242.066 9.07126   2
   3  -2  -7 241.942 8.29529   3
   2  -2  -7 162.708 7.63422   1
   2  -2  -7 157.382 7.27799   1
   2  -2  -7 160.811 5.41007   3
   2  -2  -7 162.065 5.86419   2
   2  -2  -7 158.243 6.97038   2
  -2   2   7 151.416 6.12064   3
   1  -2  -7 41.0448 2.63297   3
   1  -2  -7 42.6053 3.61088   1
   1  -2  -7 43.0955 2.29274   2
  -1   2   7 52.1344 3.10592   2
  -1   2   7 42.4333 4.02292   1
  -1   2   7 45.2920 2.66624   3
   0  -2  -7 112.835 4.33944   2
   0  -2  -7 113.966 5.92492   1
   0  -2  -7 112.013 4.55366   3
   0   2   7 110.271 4.31056   2
   0   2   7 117.245 6.28664   1
   0   2   7 108.072 4.27993   3
  -1  -2  -7 253.731 9.87899   1
  -1  -2  -7 242.450 8.78422   2
   1   2   7 245.247 10.1086   1
   1   2   7 248.886 7.82704   3
   1   2   7 258.290 7.62200   2
  -2  -2  -7 72.6015 5.23796   2
  -2  -2  -7 70.3947 4.99285   1
   2   2   7 71.5356 3.85878   2
   2   2   7 73.8707 5.56275   1
   2   2   7 69.2856 4.09620   3
  -3  -2  -7 12.8779 3.29062   2
  -3  -2  -7 9.09946 2.58814   1
   3   2   7 13.6842 2.23278   3
   3   2   7 11.2381 2.13095   2
  -4  -2  -7 339.281 14.0670   1
  -4  -2  -7 332.014 15.4656   2
   4   2   7 333.180 12.4170   3
  -5  -2  -7 54.2316 10.6494   2
  -5  -2  -7 71.4187 8.48105   1
   5   2   7 60.9375 6.59990   3
   6  -3  -7 116.612 10.0794   1
   6  -3  -7 122.455 9.92785   2
   5  -3  -7 257.766 12.1099   2
   5  -3  -7 273.308 12.6425   1
   4  -3  -7 874.979 23.5902   3
   4  -3  -7 852.896 27.4902   2
   4  -3  -7 899.406 25.3809   2
   4  -3  -7 925.619 26.7944   1
   3  -3  -7 955.053 24.7736   2
   3  -3  -7 920.589 26.6627   2
   3  -3  -7 954.818 23.0568   3
   3  -3  -7 895.615 26.7412   1
   3  -3  -7 959.474 26.9532   1
   2  -3  -7 80.4399 5.66816   1
   2  -3  -7 81.2302 5.44098   1
   2  -3  -7 85.7757 4.17215   2
   2  -3  -7 85.3011 3.34623   3
  -2   3   7 85.7726 5.15889   2
  -2   3   7 82.1115 3.96892   3
   1  -3  -7 1815.95 44.4932   1
   1  -3  -7 1765.98 44.3722   1
   1  -3  -7 1743.96 39.8518   3
   1  -3  -7 1781.15 40.8189   2
  -1   3   7 1815.86 42.4580   2
  -1   3   7 1839.58 40.6933   3
   0  -3  -7 1101.64 26.4414   2
   0  -3  -7 1115.82 29.0252   1
   0   3   7 1092.73 25.3423   3
   0   3   7 1056.29 26.3568   2
   0   3   7 1045.04 29.2975   1
  -1  -3  -7 98.0018 5.98952   1
  -1  -3  -7 105.010 5.56643   2
   1   3   7 107.225 4.73128   2
   1   3   7 105.235 4.30383   3
   1   3   7 100.273 6.49935   1
  -2  -3  -7 642.040 20.1519   2
  -2  -3  -7 649.799 19.9439   1
   2   3   7 632.713 17.3919   2
   2   3   7 658.733 17.5226   3
  -3  -3  -7 1018.82 30.3675   2
   3   3   7 996.409 28.2988   3
  -4  -3  -7 640.449 21.7471   1
  -4  -3  -7 648.472 23.8249   2
   4   3   7 672.369 19.9869   3
   6  -4  -7 180.278 11.5182   2
   5  -4  -7 377.131 13.8436   3
   5  -4  -7 405.529 15.5690   2
   5  -4  -7 412.342 16.9510   1
   4  -4  -7 237.052 11.7736   1
   4  -4  -7 246.207 10.3789   2
   4  -4  -7 245.274 8.93794   3
   3  -4  -7 667.153 21.4679   1
   3  -4  -7 667.416 16.4529   3
   3  -4  -7 650.956 21.1407   2
   3  -4  -7 681.847 18.8963   2
   2  -4  -7 839.607 24.6928   1
   2  -4  -7 858.140 21.4227   2
  -2   4   7 798.162 23.3952   2
   1  -4  -7 887.919 28.9939   1
   1  -4  -7 938.500 26.4198   1
   1  -4  -7 951.293 23.2109   2
  -1   4   7 935.139 24.8321   2
   0  -4  -7 117.537 6.75224   1
   0  -4  -7 118.448 5.56990   2
   0   4   7 112.329 5.54772   2
   0   4   7 121.323 4.19581   3
  -1  -4  -7 1418.12 36.5400   2
  -1  -4  -7 1449.97 37.4575   1
   1   4   7 1428.76 34.8685   2
   1   4   7 1466.94 33.4452   3
  -2  -4  -7 663.686 20.9224   1
  -2  -4  -7 686.995 21.8130   2
   2   4   7 669.969 17.9948   3
  -3  -4  -7 273.717 13.5708   2
  -3  -4  -7 282.084 11.9703   1
  -4  -4  -7 99.1592 8.78417   1
   4   4   7 130.837 7.55294   3
   6  -5  -7 58.1843 10.9862   1
   6  -5  -7 48.5102 8.14301   2
   5  -5  -7 0.53939 3.01176   2
   5  -5  -7 3.34460 3.94398   1
   4  -5  -7 70.8428 5.69819   2
   4  -5  -7 67.9303 4.63034   3
   4  -5  -7 80.4781 7.46424   1
   3  -5  -7 346.215 14.3807   1
   3  -5  -7 337.062 11.6907   2
   2  -5  -7 17.6247 4.44745   1
   2  -5  -7 13.7778 2.25713   2
  -2   5   7 9.86695 3.06013   2
   1  -5  -7 31.8694 2.89265   2
  -1   5   7 31.3010 4.53380   2
   0  -5  -7 230.224 10.1741   1
   0  -5  -7 229.180 8.93313   2
   0   5   7 211.842 8.81984   2
  -1  -5  -7 191.366 9.11057   2
   1   5   7 196.473 6.27755   3
  -2  -5  -7 1.23594 3.35590   2
  -2  -5  -7 -2.3123 2.42496   1
   2   5   7 1.31109 1.67092   3
  -3  -5  -7 56.0085 6.34184   1
  -3  -5  -7 41.1322 6.84105   2
   3   5   7 46.5292 4.55811   3
   6  -6  -7 24.3876 6.71895   1
   5  -6  -7 224.527 13.1991   1
   5  -6  -7 182.518 10.4508   2
   4  -6  -7 199.833 9.19362   2
   4  -6  -7 190.919 11.8081   1
   3  -6  -7 5.54364 1.99275   2
   3  -6  -7 5.96643 3.07975   1
   2  -6  -7 73.5033 6.60651   1
   2  -6  -7 59.2706 4.45561   2
   1  -6  -7 457.164 14.2048   2
   1  -6  -7 437.770 16.4084   1
   0  -6  -7 56.3328 5.37505   1
  -1  -6  -7 65.0212 5.84680   1
  -1  -6  -7 69.7678 6.33468   2
   1   6   7 74.1009 3.16852   3
  -2  -6  -7 398.250 16.9828   2
  -2  -6  -7 383.854 14.8791   1
   2   6   7 400.159 11.8809   3
  -3  -6  -7 95.7976 10.3960   2
  -3  -6  -7 95.0354 8.25035   1
   5  -7  -7 108.710 10.9861   1
   5  -7  -7 99.7617 7.97827   2
   4  -7  -7 189.971 11.9409   1
   4  -7  -7 164.764 8.73462   2
   3  -7  -7 359.881 12.9915   2
   3  -7  -7 364.249 16.2025   1
   2  -7  -7 754.765 21.7421   2
   2  -7  -7 773.066 25.4233   1
   1  -7  -7 162.894 9.48679   1
   1  -7  -7 173.153 8.09622   2
   0  -7  -7 292.064 12.8585   1
   0  -7  -7 308.082 12.4248   2
  -1  -7  -7 755.813 24.7265   2
  -1  -7  -7 762.314 24.0543   1
  -2  -7  -7 248.824 11.7625   1
  -2  -7  -7 274.649 14.6945   2
   4  -8  -7 232.198 13.7108   1
   4  -8  -7 221.200 10.8112   2
   3  -8  -7 110.602 10.2640   1
   3  -8  -7 120.589 7.46481   2
   2  -8  -7 105.287 9.23609   1
   2  -8  -7 121.272 7.18129   2
   1  -8  -7 93.2144 6.85289   2
   1  -8  -7 87.3856 8.09596   1
   0  -8  -7 146.290 9.30425   1
   0  -8  -7 125.083 8.99011   2
  -1  -8  -7 2.94627 3.95082   1
  -1  -8  -7 2.36133 4.17614   2
   0 -10   8 50.6660 7.18792   2
  -1  10  -8 106.392 11.3204   1
   1 -10   8 109.329 9.06783   3
   1 -10   8 117.104 7.50087   2
  -1  -9   8 43.5116 6.62169   2
  -1  -9   8 34.0910 5.51251   3
   0   9  -8 33.3124 5.25202   1
   0  -9   8 39.0832 6.16422   3
   0  -9   8 33.4588 5.32809   2
  -1   9  -8 -7.2485 4.09274   1
   1  -9   8 4.37230 2.48083   2
   1  -9   8 2.93869 3.28876   3
  -2   9  -8 51.8121 9.15429   1
   2  -9   8 41.7932 4.75985   2
   2  -9   8 40.6522 5.89073   3
  -3   9  -8 90.8401 10.9155   1
   3  -9   8 104.327 7.60424   3
   3  -9   8 87.2378 6.41817   2
  -3  -8   8 271.830 14.5333   2
  -2  -8   8 1165.85 33.5289   3
  -2  -8   8 1135.01 33.7250   2
   1   8  -8 181.845 8.81256   1
  -1  -8   8 197.242 9.58707   2
  -1  -8   8 189.980 9.95766   3
   0   8  -8 218.195 10.3556   1
   0  -8   8 213.293 10.0381   3
  -1   8  -8 862.562 26.2758   1
   1  -8   8 851.358 24.3246   3
  -2   8  -8 588.792 21.2743   1
   2  -8   8 574.742 17.8148   3
   2  -8   8 580.445 16.9862   2
  -3   8  -8 7.21111 4.63967   1
   3  -8   8 3.04564 3.00390   3
   3  -8   8 2.62666 2.61299   2
  -4   8  -8 309.383 16.6344   1
   4  -8   8 296.114 11.7664   3
   4  -8   8 289.140 11.4908   2
  -4  -7   8 359.910 17.2429   2
  -3  -7   8 400.743 16.7695   3
  -3  -7   8 408.714 16.9585   2
  -2  -7   8 351.335 17.4262   2
  -2  -7   8 378.284 14.7586   3
   1   7  -8 207.636 8.75263   1
  -1  -7   8 196.307 7.92663   1
  -1  -7   8 210.954 9.29248   2
  -1  -7   8 200.892 9.73427   3
   0   7  -8 1218.99 32.4913   2
   0   7  -8 1329.82 33.7558   1
   0  -7   8 1244.26 32.4311   1
   0  -7   8 1314.10 32.0999   2
   0  -7   8 1168.97 39.6449   3
  -1   7  -8 801.920 24.2514   2
  -1   7  -8 839.890 25.2218   1
   1  -7   8 855.050 21.7661   2
   1  -7   8 767.511 28.5094   3
  -2   7  -8 370.028 15.4009   1
   2  -7   8 363.850 12.3692   3
   2  -7   8 350.583 11.4533   2
  -3   7  -8 49.8923 8.06734   1
   3  -7   8 50.3114 4.54456   2
   3  -7   8 45.0146 4.88773   3
  -4   7  -8 441.800 19.4918   1
   4  -7   8 445.839 15.0014   2
   4  -7   8 456.641 15.2220   3
  -5  -6   8 118.392 11.6618   2
  -4  -6   8 16.7682 4.08629   2
  -3  -6   8 6.05680 3.17028   3
  -3  -6   8 0.24765 2.97033   2
   2   6  -8 1.17149 2.06721   2
   2   6  -8 -0.4275 1.65244   1
  -2  -6   8 3.34693 1.56688   1
  -2  -6   8 -2.3648 2.49912   3
   1   6  -8 298.490 10.3105   1
   1   6  -8 283.030 9.85349   2
  -1  -6   8 296.202 11.5270   3
  -1  -6   8 295.413 10.7678   2
  -1  -6   8 290.861 9.76707   1
   0   6  -8 14.0108 2.72980   1
   0  -6   8 10.3735 2.45963   1
   0  -6   8 11.3434 2.36408   3
  -1   6  -8 91.9133 6.62262   1
  -1   6  -8 97.2462 6.70928   2
   1  -6   8 94.6525 4.42003   2
   1  -6   8 91.1220 5.25685   3
  -2   6  -8 708.822 22.8704   1
   2  -6   8 685.490 18.4784   2
   2  -6   8 700.331 19.8011   3
  -3   6  -8 2.81159 3.47066   1
   3  -6   8 1.40927 2.01915   2
   3  -6   8 3.47497 1.97944   3
  -4   6  -8 7.23123 4.77005   1
   4  -6   8 7.29002 3.12408   2
  -5   6  -8 231.297 20.4159   1
   5  -6   8 205.086 10.8560   2
   5  -6   8 207.279 10.0200   3
  -5  -5   8 -6.4113 4.59789   2
  -4  -5   8 79.2187 7.72983   2
  -3  -5   8 843.257 25.4830   2
  -3  -5   8 821.327 25.6294   3
   2   5  -8 258.909 8.24242   1
   2   5  -8 252.594 8.53761   2
  -2  -5   8 258.083 11.0997   3
  -2  -5   8 257.789 8.02652   1
  -2  -5   8 263.775 10.4166   2
   1   5  -8 0.78756 1.39925   2
   1   5  -8 0.63913 1.70089   1
  -1  -5   8 -0.8470 1.36029   2
  -1  -5   8 -0.7869 1.53752   1
  -1  -5   8 -0.4186 1.90659   3
   0   5  -8 210.656 8.07529   3
   0   5  -8 235.522 9.43241   1
   0   5  -8 232.702 8.22812   2
   0  -5   8 244.477 7.67839   2
   0  -5   8 227.166 8.91273   3
   0  -5   8 225.161 8.73121   1
  -1   5  -8 799.481 23.2707   1
  -1   5  -8 773.832 21.2723   2
   1  -5   8 778.377 20.9775   3
   1  -5   8 773.700 19.3048   2
   1  -5   8 756.400 22.2666   1
  -2   5  -8 197.535 10.1747   1
   2  -5   8 188.213 7.66358   3
   2  -5   8 184.138 6.66229   2
   2  -5   8 184.586 8.55410   2
  -3   5  -8 88.8292 7.73821   1
   3  -5   8 86.3742 5.29069   3
   3  -5   8 81.1585 7.99326   2
   3  -5   8 98.6957 5.48010   2
  -4   5  -8 274.018 13.5066   1
   4  -5   8 223.909 15.5019   2
   4  -5   8 260.102 10.3242   3
  -5   5  -8 152.484 12.2269   1
   5  -5   8 150.640 9.67169   2
   5  -5   8 159.003 8.62577   3
  -6  -4   8 126.504 11.7935   2
  -5  -4   8 281.224 14.1548   2
  -4  -4   8 1167.79 34.1445   2
   3   4  -8 3283.47 76.1195   2
  -3  -4   8 3468.82 79.9212   2
   2   4  -8 267.209 8.28482   2
   2   4  -8 268.037 8.42123   1
  -2  -4   8 252.474 10.6227   3
  -2  -4   8 256.112 9.64601   2
   1   4  -8 1145.75 26.6279   2
   1   4  -8 1137.70 28.4298   1
   1   4  -8 1094.51 28.0744   3
  -1  -4   8 1170.64 27.8863   2
  -1  -4   8 1133.54 28.0905   1
  -1  -4   8 1142.82 29.7627   3
   0   4  -8 1224.12 28.0564   2
   0   4  -8 1165.38 30.2784   1
   0   4  -8 1158.98 28.8214   3
   0  -4   8 1148.65 29.6761   1
   0  -4   8 1174.87 29.6865   3
   0  -4   8 1185.34 27.4049   2
  -1   4  -8 538.627 15.8341   3
  -1   4  -8 571.432 17.9020   1
   1  -4   8 554.547 13.9523   2
   1  -4   8 553.326 17.0571   1
   1  -4   8 563.514 15.9406   3
  -2   4  -8 593.746 19.4475   1
   2  -4   8 586.338 17.3840   2
   2  -4   8 594.337 16.6483   3
   2  -4   8 579.159 15.5330   2
  -3   4  -8 1661.05 44.4175   1
   3  -4   8 1602.12 42.0054   2
   3  -4   8 1688.43 40.4136   2
   3  -4   8 1657.00 40.2489   3
  -4   4  -8 530.091 20.0550   1
   4  -4   8 515.975 17.2613   2
   4  -4   8 528.794 16.4434   3
  -5   4  -8 83.3910 9.29155   1
   5  -4   8 87.1464 8.07654   2
   5  -4   8 79.2672 6.88961   3
  -6  -3   8 189.116 13.1546   2
  -5  -3   8 330.744 15.1549   2
  -4  -3   8 54.6147 5.39824   2
   3   3  -8 948.888 22.8847   1
   3   3  -8 924.051 24.2507   2
   3   3  -8 968.020 22.6589   1
  -3  -3   8 949.934 26.5482   2
  -3  -3   8 948.699 27.4076   3
   2   3  -8 761.302 20.8861   3
   2   3  -8 789.624 19.2097   2
   2   3  -8 786.264 19.9040   1
  -2  -3   8 787.020 22.4847   3
  -2  -3   8 788.249 20.1309   1
  -2  -3   8 784.960 21.0765   2
   1   3  -8 149.229 6.23147   1
   1   3  -8 148.227 4.60514   2
   1   3  -8 143.526 5.91296   3
  -1  -3   8 142.798 6.60815   3
  -1  -3   8 148.254 6.04154   1
  -1  -3   8 151.507 5.34009   2
   0   3  -8 53.2886 4.06725   1
   0   3  -8 52.5973 3.39650   3
   0   3  -8 51.1964 2.69847   2
   0  -3   8 49.7166 3.66133   1
   0  -3   8 57.7257 2.29726   2
   0  -3   8 57.5239 3.59555   3
  -1   3  -8 1223.61 30.6552   3
  -1   3  -8 1263.01 32.6533   1
   1  -3   8 1296.59 30.7183   3
   1  -3   8 1233.52 28.2038   2
   1  -3   8 1241.28 29.4480   2
   1  -3   8 1227.24 32.0176   1
  -2   3  -8 366.137 13.6035   1
   2  -3   8 353.792 11.2930   3
   2  -3   8 349.625 10.3848   2
   2  -3   8 344.502 11.3131   2
  -3   3  -8 188.657 9.90202   1
   3  -3   8 186.973 7.69864   3
   3  -3   8 190.457 8.00368   2
   3  -3   8 174.294 8.34186   2
  -4   3  -8 365.943 15.6955   1
   4  -3   8 368.787 13.9412   2
   4  -3   8 367.887 12.9969   3
  -5   3  -8 476.255 19.4767   1
   5  -3   8 464.637 16.2415   3
   5  -3   8 477.058 18.1217   2
  -6  -2   8 114.416 10.9936   2
   5   2  -8 68.4519 3.86209   1
  -5  -2   8 79.3820 7.17073   2
   4   2  -8 8.85796 2.76654   2
   4   2  -8 12.6631 2.29995   1
  -4  -2   8 6.32238 2.53638   2
   3   2  -8 123.098 6.61692   3
   3   2  -8 145.257 5.85220   1
   3   2  -8 140.292 6.28486   2
   3   2  -8 145.376 5.52134   1
  -3  -2   8 148.412 7.78211   3
  -3  -2   8 138.301 6.90500   2
   2   2  -8 21.1556 1.96036   2
   2   2  -8 16.8050 2.21617   1
   2   2  -8 16.6101 2.74287   3
  -2  -2   8 14.7665 2.48876   1
  -2  -2   8 22.8252 3.00886   3
  -2  -2   8 17.0412 2.24890   2
   1   2  -8 1.11515 1.10180   3
   1   2  -8 0.62851 1.05435   1
  -1  -2   8 0.32838 1.15459   1
  -1  -2   8 -0.6772 1.17170   3
   0   2  -8 1094.13 27.7766   1
   0   2  -8 1045.80 26.0350   3
   0  -2   8 1065.56 27.4698   1
   0  -2   8 1081.58 26.7443   3
  -1   2  -8 689.493 20.1541   1
  -1   2  -8 677.485 18.4895   3
   1  -2   8 706.815 18.3605   3
   1  -2   8 703.397 16.5558   2
   1  -2   8 678.354 19.7337   1
  -2   2  -8 119.618 6.99575   1
   2  -2   8 114.059 5.12270   2
   2  -2   8 123.352 5.54258   3
   2  -2   8 123.804 5.48968   2
  -3   2  -8 57.1954 5.44494   1
   3  -2   8 55.0596 4.55161   2
   3  -2   8 40.2049 3.83985   3
   3  -2   8 46.6589 4.45462   2
  -4   2  -8 425.834 17.2213   1
   4  -2   8 446.969 14.8725   3
   4  -2   8 462.485 16.3388   2
  -5   2  -8 6.38332 4.31743   1
   5  -2   8 10.9646 4.62543   2
   5  -2   8 -1.5357 3.37140   3
  -6  -1   8 61.4140 8.72723   2
   5   1  -8 420.747 12.5750   1
   5   1  -8 406.166 13.3291   1
  -5  -1   8 407.452 17.6426   2
   4   1  -8 454.056 13.2246   1
   4   1  -8 452.197 13.8086   1
   4   1  -8 431.577 15.4150   2
  -4  -1   8 449.324 15.9188   2
   3   1  -8 124.442 5.45408   1
   3   1  -8 118.818 6.29729   3
   3   1  -8 123.943 5.84328   1
   3   1  -8 122.031 6.11422   2
  -3  -1   8 118.690 6.73032   3
  -3  -1   8 116.526 6.01329   2
   2   1  -8 618.135 16.8700   3
   2   1  -8 619.537 15.8025   2
   2   1  -8 635.087 17.0792   1
  -2  -1   8 612.776 18.0141   3
  -2  -1   8 611.100 16.1912   2
  -2  -1   8 635.080 17.6741   1
   1   1  -8 3350.50 76.7912   1
   1   1  -8 3402.34 75.4499   3
  -1  -1   8 3464.70 77.1379   1
  -1  -1   8 3377.22 76.7757   3
   0   1  -8 1187.22 28.4291   3
   0   1  -8 1193.24 30.2692   1
   0  -1   8 1161.62 30.0234   1
   0  -1   8 1214.46 29.0734   3
  -1   1  -8 566.626 17.1823   1
  -1   1  -8 551.812 15.6103   3
   1  -1   8 554.509 16.9352   1
   1  -1   8 560.996 15.2649   3
  -2   1  -8 682.898 18.1994   2
  -2   1  -8 657.117 20.3392   1
   2  -1   8 652.084 17.2236   2
   2  -1   8 661.172 18.0377   3
  -3   1  -8 224.048 9.62986   2
  -3   1  -8 232.355 11.6366   1
   3  -1   8 226.164 8.69102   3
   3  -1   8 214.389 8.74864   2
  -4   1  -8 177.050 10.3601   1
  -4   1  -8 200.134 10.3487   2
   4  -1   8 199.971 8.88013   3
  -5   1  -8 181.230 11.8637   2
  -5   1  -8 183.620 11.5765   1
   5  -1   8 170.663 9.45370   3
   6   0  -8 723.285 21.4238   1
  -6   0   8 754.213 26.0009   2
   5   0  -8 352.039 12.0289   1
   5   0  -8 309.275 12.2527   1
   4   0  -8 1368.29 37.0465   2
   4   0  -8 1388.45 35.6644   1
   4   0  -8 1453.28 35.2896   1
  -4   0   8 1418.67 37.1659   2
   3   0  -8 812.817 22.6151   1
   3   0  -8 829.190 22.1378   3
   3   0  -8 836.236 22.6620   2
   3   0  -8 826.898 22.0988   1
  -3   0   8 819.654 23.3588   3
   2   0  -8 1794.11 40.9540   2
   2   0  -8 1757.20 42.3037   1
   2   0  -8 1784.09 40.5236   2
   2   0  -8 1766.71 41.1083   3
  -2   0   8 1784.30 43.1648   1
  -2   0   8 1726.89 42.4657   3
   1   0  -8 614.484 17.3730   1
   1   0  -8 601.150 15.5766   3
  -1   0   8 618.512 16.7843   3
  -1   0   8 603.482 17.6116   1
   0   0  -8 1193.76 30.1201   1
   0   0  -8 1164.79 27.9447   3
   0   0   8 1201.63 28.5230   3
   0   0   8 1133.50 29.9997   1
  -1   0  -8 1609.02 39.0155   3
  -1   0  -8 1638.38 40.8319   1
  -1   0  -8 1631.74 38.0216   2
   1   0   8 1674.93 36.4007   2
   1   0   8 1657.64 38.5905   3
   1   0   8 1646.79 40.7597   1
  -2   0  -8 510.498 16.9241   1
  -2   0  -8 516.407 15.3535   2
   2   0   8 507.875 14.7496   3
   2   0   8 521.066 13.8563   2
  -3   0  -8 300.027 12.0844   2
  -3   0  -8 315.566 13.1684   1
   3   0   8 311.940 10.7570   2
   3   0   8 317.168 11.1093   3
  -4   0  -8 927.094 28.7027   2
  -4   0  -8 943.456 29.0245   1
   4   0   8 968.187 26.4654   3
  -5   0  -8 662.501 24.0136   1
  -5   0  -8 690.433 25.0949   2
   5   0   8 676.247 21.3900   3
   6  -1  -8 18.7689 3.92046   1
   6  -1  -8 15.7606 4.82895   2
   5  -1  -8 4.74398 2.70112   1
   5  -1  -8 12.4632 3.44237   1
   4  -1  -8 1193.44 31.0987   1
   4  -1  -8 1167.08 30.5822   3
   4  -1  -8 1160.22 32.5573   2
   4  -1  -8 1130.77 31.4024   1
   4  -1  -8 1198.29 31.8715   2
   3  -1  -8 348.501 12.6367   1
   3  -1  -8 371.245 12.7118   2
   3  -1  -8 353.195 11.7749   2
   3  -1  -8 349.799 11.2661   3
   3  -1  -8 363.028 12.3867   1
  -3   1   8 351.111 12.2152   3
   2  -1  -8 474.116 12.7650   2
   2  -1  -8 477.587 15.0004   1
   2  -1  -8 483.620 13.1152   3
   2  -1  -8 493.832 14.0774   2
  -2   1   8 485.779 14.3289   3
   1  -1  -8 100.211 4.09487   3
   1  -1  -8 96.0500 3.97713   2
   1  -1  -8 96.9209 3.13585   2
   1  -1  -8 92.6626 5.28513   1
  -1   1   8 95.8805 5.65550   1
  -1   1   8 95.8119 4.53639   3
   0  -1  -8 532.081 13.2625   2
   0  -1  -8 545.587 16.4251   1
   0  -1  -8 522.932 14.1202   3
   0   1   8 543.997 13.0296   2
   0   1   8 515.460 14.3395   3
   0   1   8 540.561 16.6023   1
  -1  -1  -8 16.1764 2.29645   2
  -1  -1  -8 9.43871 2.19227   1
   1   1   8 15.7295 2.03924   3
   1   1   8 12.3726 2.54649   1
   1   1   8 14.7659 1.54888   2
  -2  -1  -8 158.820 7.41012   2
  -2  -1  -8 167.232 8.22251   1
   2   1   8 158.850 6.56559   3
   2   1   8 161.987 5.98236   2
  -3  -1  -8 652.762 20.5718   2
  -3  -1  -8 632.321 20.6933   1
   3   1   8 609.930 17.9578   2
   3   1   8 632.875 18.3596   3
  -4  -1  -8 183.496 11.1009   2
  -4  -1  -8 176.932 10.2757   1
   4   1   8 198.590 8.77557   3
  -5  -1  -8 12.3951 5.90850   2
  -5  -1  -8 7.36896 4.71606   1
   5   1   8 11.2571 3.95238   3
   6  -2  -8 8.85874 4.29066   1
   6  -2  -8 17.3902 5.33527   2
   5  -2  -8 107.486 7.77249   1
   5  -2  -8 108.811 8.22703   2
   4  -2  -8 206.993 10.9063   2
   4  -2  -8 223.312 8.95525   3
   4  -2  -8 212.795 11.9957   1
   4  -2  -8 210.145 9.72903   1
   4  -2  -8 219.327 9.77443   2
   3  -2  -8 44.2243 3.48565   3
   3  -2  -8 41.5352 4.96406   2
   3  -2  -8 42.4177 3.89649   2
   3  -2  -8 33.0881 4.18614   1
   3  -2  -8 38.6692 4.66386   1
  -3   2   8 43.3622 3.74373   3
   2  -2  -8 64.4614 5.00357   1
   2  -2  -8 62.2549 4.44008   2
   2  -2  -8 66.9137 3.38936   2
   2  -2  -8 62.2516 4.75987   1
   2  -2  -8 68.6859 3.29440   3
  -2   2   8 62.5574 3.86805   3
   1  -2  -8 142.202 4.74310   2
   1  -2  -8 140.490 6.98408   1
   1  -2  -8 148.671 5.06120   3
  -1   2   8 151.472 5.78857   2
  -1   2   8 142.879 5.56076   3
  -1   2   8 129.433 7.24937   1
   0  -2  -8 65.0047 3.34597   2
   0  -2  -8 71.4316 3.78134   3
   0  -2  -8 67.2997 4.76751   1
   0   2   8 65.5457 5.14130   1
   0   2   8 67.1570 4.02817   2
   0   2   8 64.3689 3.46133   3
  -1  -2  -8 559.410 16.0695   2
  -1  -2  -8 551.522 17.5758   1
   1   2   8 537.311 18.5491   1
   1   2   8 577.047 14.5449   2
   1   2   8 561.943 15.0256   3
  -2  -2  -8 394.244 13.8255   2
  -2  -2  -8 370.917 13.9959   1
   2   2   8 386.119 11.3360   2
   2   2   8 402.944 12.0526   3
  -3  -2  -8 75.8631 6.69288   2
  -3  -2  -8 80.8468 6.50968   1
   3   2   8 78.7842 5.11163   3
  -4  -2  -8 7.47528 3.81554   1
  -4  -2  -8 8.56569 4.58694   2
   4   2   8 12.8425 2.92880   3
   6  -3  -8 395.246 17.2800   2
   6  -3  -8 408.610 16.9900   1
   5  -3  -8 112.560 8.59913   1
   5  -3  -8 103.560 8.13012   2
   4  -3  -8 432.039 16.7153   1
   4  -3  -8 460.021 15.3831   2
   4  -3  -8 419.106 13.5791   3
   4  -3  -8 495.582 25.1256   2
   3  -3  -8 1600.67 38.0817   2
   3  -3  -8 1521.89 40.3517   2
   3  -3  -8 1560.73 36.3319   3
   3  -3  -8 1574.37 40.9267   1
   2  -3  -8 776.089 23.1252   1
   2  -3  -8 757.784 18.5185   3
   2  -3  -8 859.391 28.2482   1
   2  -3  -8 779.505 19.6502   2
  -2   3   8 767.325 19.9214   3
  -2   3   8 746.057 21.5318   2
   1  -3  -8 563.798 14.3977   3
   1  -3  -8 579.277 18.3224   1
   1  -3  -8 585.566 15.0044   2
  -1   3   8 583.138 16.4261   2
  -1   3   8 588.382 15.1691   3
   0  -3  -8 1762.60 44.0913   1
   0  -3  -8 1742.88 41.0505   2
   0   3   8 1810.45 40.2735   3
   0   3   8 1704.84 40.9514   2
  -1  -3  -8 1377.40 35.0300   2
  -1  -3  -8 1357.26 36.4001   1
   1   3   8 1435.51 33.3059   2
   1   3   8 1403.70 32.8776   3
  -2  -3  -8 81.3793 6.37510   2
  -2  -3  -8 77.3730 6.91812   1
   2   3   8 92.3685 4.70524   3
   2   3   8 83.6782 4.64693   2
  -3  -3  -8 467.114 17.0849   1
   3   3   8 464.386 14.6315   3
  -4  -3  -8 231.715 14.1005   2
  -4  -3  -8 254.675 12.6256   1
   4   3   8 258.618 10.5100   3
   6  -4  -8 20.1666 5.66486   1
   6  -4  -8 24.9433 5.60290   2
   5  -4  -8 390.171 16.3878   1
   5  -4  -8 367.291 14.6882   2
   4  -4  -8 378.559 11.7846   3
   4  -4  -8 382.930 13.6813   2
   4  -4  -8 398.091 15.6319   1
   3  -4  -8 225.737 6.92291   3
   3  -4  -8 226.468 10.7709   1
   3  -4  -8 198.837 10.2883   2
   3  -4  -8 230.982 8.66690   2
   2  -4  -8 379.159 9.91024   3
   2  -4  -8 405.919 11.8148   2
   2  -4  -8 408.637 14.9753   1
  -2   4   8 379.629 13.6936   2
   1  -4  -8 1274.23 34.2123   1
   1  -4  -8 1260.92 30.2993   2
  -1   4   8 1216.13 32.0006   2
  -1   4   8 1271.42 29.0974   3
   0  -4  -8 273.617 11.3463   1
   0  -4  -8 265.700 9.57787   2
   0   4   8 263.257 9.47779   2
   0   4   8 275.909 7.95659   3
  -1  -4  -8 88.5032 8.00501   1
  -1  -4  -8 98.6000 6.08151   2
   1   4   8 89.8817 4.96908   2
   1   4   8 93.7604 4.24246   3
  -2  -4  -8 439.168 16.4312   2
  -2  -4  -8 449.792 16.2708   1
   2   4   8 441.071 13.0538   3
  -3  -4  -8 621.850 21.4240   1
  -3  -4  -8 655.251 23.1515   2
   3   4   8 644.342 18.5727   3
   6  -5  -8 42.5502 6.92976   1
   6  -5  -8 61.3106 8.73306   2
   5  -5  -8 60.9407 8.26208   1
   5  -5  -8 55.7987 6.45892   2
   4  -5  -8 9.55332 3.45533   1
   4  -5  -8 3.79122 2.31121   2
   3  -5  -8 2.75142 1.71554   2
   3  -5  -8 1.17274 2.70107   1
   2  -5  -8 343.291 13.7690   1
   2  -5  -8 336.803 10.8832   2
  -2   5   8 311.502 12.7562   2
   1  -5  -8 12.4961 2.59428   2
   1  -5  -8 10.2418 2.82674   1
  -1   5   8 8.98518 2.80919   2
   0  -5  -8 4.72375 1.96621   2
   0  -5  -8 6.87981 2.28562   1
  -1  -5  -8 143.483 8.23886   1
  -1  -5  -8 162.144 8.44340   2
   1   5   8 137.924 5.17919   3
  -2  -5  -8 61.5301 7.18786   2
  -2  -5  -8 47.1585 5.92981   1
   2   5   8 58.0155 3.93153   3
  -3  -5  -8 78.4617 7.37645   1
  -3  -5  -8 60.7865 9.32656   2
   3   5   8 56.3133 5.17981   3
   5  -6  -8 55.4486 6.90898   2
   5  -6  -8 62.5356 9.12307   1
   4  -6  -8 387.561 16.8055   1
   4  -6  -8 362.138 13.4396   2
   3  -6  -8 152.047 7.51871   2
   3  -6  -8 164.378 10.0611   1
   2  -6  -8 39.1864 4.80788   2
   2  -6  -8 51.2578 5.94947   1
   1  -6  -8 110.428 7.56727   1
   0  -6  -8 454.213 16.7661   1
   0  -6  -8 455.494 15.4920   2
  -1  -6  -8 23.6412 3.93432   1
  -1  -6  -8 30.9604 5.41425   2
  -2  -6  -8 105.241 8.12083   1
  -2  -6  -8 112.529 10.1597   2
   5  -7  -8 331.919 14.1208   2
   4  -7  -8 411.591 14.7196   2
   4  -7  -8 410.952 18.1895   1
   3  -7  -8 81.6008 8.57901   1
   3  -7  -8 78.4093 6.06953   2
   2  -7  -8 662.737 23.3532   1
   2  -7  -8 673.162 19.7941   2
   1  -7  -8 490.046 18.3531   1
   1  -7  -8 482.192 15.9640   2
   0  -7  -8 296.292 13.4194   1
   0  -7  -8 313.555 12.8897   2
  -1  -7  -8 281.293 12.8785   1
  -1  -7  -8 287.128 13.4755   2
   3  -8  -8 96.2832 6.97932   2
   3  -8  -8 78.4394 9.10911   1
   2  -8  -8 114.829 7.21654   2
   2  -8  -8 100.503 9.34685   1
   1  -8  -8 8.64620 3.27022   2
   1  -8  -8 16.0604 4.52579   1
   0  -8  -8 255.735 12.4942   2
   0  -8  -8 259.835 12.8163   1
  -2  -9   9 50.4072 7.32170   3
  -2  -9   9 60.7534 8.81602   2
  -1  -9   9 -6.3604 4.44667   3
   0   9  -9 160.479 12.5327   1
   0  -9   9 161.114 9.75637   3
   0  -9   9 155.290 8.71281   2
  -1   9  -9 144.608 10.7362   1
   1  -9   9 142.569 8.91882   3
   1  -9   9 155.272 7.53498   2
  -2   9  -9 -2.2000 5.24916   1
   2  -9   9 -1.6246 3.45147   3
   2  -9   9 -2.8483 2.58398   2
  -3  -8   9 231.081 13.5400   3
  -3  -8   9 258.105 13.5887   2
  -2  -8   9 166.577 10.0807   2
  -2  -8   9 148.044 10.3781   3
   1   8  -9 595.047 18.0499   1
  -1  -8   9 574.374 19.7678   3
  -1  -8   9 578.260 19.2542   2
   0   8  -9 130.617 8.57031   1
   0  -8   9 106.233 7.61405   3
  -1   8  -9 198.544 11.3690   1
   1  -8   9 159.335 8.82790   2
   1  -8   9 177.222 9.06082   3
  -2   8  -9 662.283 23.6201   1
   2  -8   9 632.517 19.6578   3
   2  -8   9 644.244 18.3107   2
  -3   8  -9 217.398 14.2632   1
   3  -8   9 258.953 9.45068   2
   3  -8   9 232.979 10.5610   3
  -4  -7   9 296.347 15.3196   2
  -3  -7   9 495.234 19.3367   3
  -3  -7   9 513.800 19.4593   2
   2   7  -9 584.372 17.0079   1
  -2  -7   9 553.888 19.7584   3
   1   7  -9 87.4449 6.16589   1
  -1  -7   9 95.8026 6.81738   3
  -1  -7   9 84.8073 5.49429   1
  -1  -7   9 82.4930 6.00014   2
   0   7  -9 291.650 11.9222   1
   0   7  -9 268.720 11.4727   2
   0  -7   9 262.116 10.6362   1
   0  -7   9 277.641 9.94728   2
   0  -7   9 288.144 11.4711   3
  -1   7  -9 845.064 26.1928   1
  -1   7  -9 775.268 24.4532   2
   1  -7   9 838.386 23.7398   3
   1  -7   9 867.557 21.9823   2
  -2   7  -9 672.625 23.2373   1
   2  -7   9 673.917 19.7568   3
   2  -7   9 656.033 18.1913   2
  -3   7  -9 343.717 16.1871   1
   3  -7   9 353.044 12.4872   3
   3  -7   9 296.341 11.8683   2
  -4   7  -9 626.785 24.4701   1
   4  -7   9 635.136 19.6123   3
   4  -7   9 632.496 18.9922   2
  -5  -6   9 6.88371 5.71871   2
  -4  -6   9 219.577 12.5186   2
  -3  -6   9 378.417 15.6623   3
   2   6  -9 39.7361 4.48016   2
   2   6  -9 31.3363 3.76825   1
  -2  -6   9 33.1396 5.13510   3
  -2  -6   9 44.7810 3.63610   1
  -2  -6   9 42.7229 4.69879   2
   1   6  -9 161.446 7.35966   2
   1   6  -9 176.265 7.86486   1
  -1  -6   9 165.755 7.18133   1
  -1  -6   9 169.661 8.57805   3
  -1  -6   9 176.235 7.61014   2
   0   6  -9 447.143 15.2102   1
   0   6  -9 443.463 13.8819   2
   0  -6   9 412.306 14.0794   1
   0  -6   9 428.078 12.8623   2
  -1   6  -9 24.3691 4.12335   1
  -1   6  -9 31.1617 5.53311   2
   1  -6   9 32.1409 2.68858   2
   1  -6   9 32.2046 3.69976   3
  -2   6  -9 22.0311 4.12813   1
   2  -6   9 25.0875 5.26778   2
   2  -6   9 15.7358 2.79995   2
   2  -6   9 19.9288 3.62778   3
  -3   6  -9 454.378 18.4023   1
   3  -6   9 455.728 14.6535   3
   3  -6   9 436.285 13.6129   2
  -4   6  -9 74.6858 9.86183   1
   4  -6   9 84.8511 6.08959   3
  -5  -5   9 228.308 13.2185   2
  -4  -5   9 57.8422 6.91395   2
   3   5  -9 152.553 7.16682   2
  -3  -5   9 166.027 8.84712   2
  -3  -5   9 174.321 9.60344   3
   2   5  -9 256.289 8.74578   1
   2   5  -9 252.862 8.48728   2
  -2  -5   9 243.254 11.1705   3
  -2  -5   9 250.444 8.42661   1
  -2  -5   9 258.869 10.0587   2
   1   5  -9 653.935 17.1858   2
   1   5  -9 663.986 18.9285   1
  -1  -5   9 648.684 20.0141   3
  -1  -5   9 671.789 18.2378   2
  -1  -5   9 657.401 18.3543   1
   0   5  -9 141.782 7.55540   1
   0   5  -9 151.668 6.48751   2
   0  -5   9 139.458 5.42738   2
   0  -5   9 141.716 6.92039   3
   0  -5   9 138.404 6.86176   1
  -1   5  -9 277.609 11.8327   1
   1  -5   9 283.769 10.4201   3
   1  -5   9 286.407 8.41182   2
  -2   5  -9 6.08321 3.01132   1
   2  -5   9 12.2133 2.93117   2
   2  -5   9 9.87295 2.11770   3
  -3   5  -9 37.6344 6.52343   1
   3  -5   9 48.9140 4.29320   3
   3  -5   9 49.3114 6.32812   2
  -4   5  -9 43.7316 7.92602   1
   4  -5   9 25.8658 3.86662   3
   5  -5   9 236.900 11.5720   2
  -5  -4   9 142.496 10.2167   2
  -4  -4   9 276.458 12.5990   2
   3   4  -9 817.946 20.3528   1
   3   4  -9 822.823 21.6803   2
   3   4  -9 822.154 20.2663   1
  -3  -4   9 848.844 24.6144   2
  -3  -4   9 867.637 25.8871   3
   2   4  -9 781.634 19.2534   2
   2   4  -9 774.842 20.1460   1
  -2  -4   9 746.745 22.8350   3
  -2  -4   9 794.471 20.3864   1
  -2  -4   9 757.812 21.2702   2
   1   4  -9 448.796 13.9805   1
  -1  -4   9 437.246 12.7020   2
  -1  -4   9 460.705 15.0031   3
  -1  -4   9 460.611 13.7968   1
   0   4  -9 2380.15 53.7777   2
   0   4  -9 2400.71 57.0713   1
   0  -4   9 2376.80 56.2514   3
   0  -4   9 2381.55 56.4909   1
   0  -4   9 2415.48 53.1672   2
  -1   4  -9 1893.44 47.0629   1
   1  -4   9 1851.97 41.7253   2
   1  -4   9 1868.29 43.4790   2
   1  -4   9 1843.63 52.9904   1
   1  -4   9 1875.48 44.7113   3
  -2   4  -9 -0.8716 2.61259   1
   2  -4   9 1.44362 1.49716   3
   2  -4   9 2.81179 1.21107   2
   2  -4   9 2.89376 2.13848   2
  -3   4  -9 507.998 18.8910   1
   3  -4   9 506.624 15.6840   3
   3  -4   9 504.382 15.0442   2
   3  -4   9 501.988 16.5355   2
  -4   4  -9 1268.59 38.0404   1
   4  -4   9 1282.34 33.6171   3
   4  -4   9 1298.16 34.0017   2
  -5   4  -9 366.831 17.9499   1
   5  -4   9 379.715 15.5731   2
   5  -4   9 382.962 14.2992   3
  -6  -3   9 2.96216 5.26203   2
  -5  -3   9 249.914 13.0495   2
  -4  -3   9 598.814 20.2856   2
  -4  -3   9 596.346 20.9839   3
   3   3  -9 82.9546 4.56593   2
   3   3  -9 82.1687 4.56747   1
   3   3  -9 85.7642 4.17657   1
  -3  -3   9 80.3406 5.33241   2
  -3  -3   9 93.4432 7.93136   3
   2   3  -9 46.7688 2.63672   2
   2   3  -9 44.5856 3.41333   1
  -2  -3   9 41.3288 4.23171   3
  -2  -3   9 47.1045 3.68139   1
  -2  -3   9 40.6892 3.19737   2
   1   3  -9 1429.10 34.2451   1
   1   3  -9 1343.10 30.6523   2
   1   3  -9 1335.90 33.1376   3
  -1  -3   9 1353.23 31.6770   2
  -1  -3   9 1391.30 33.9797   1
  -1  -3   9 1389.54 34.9031   3
   0   3  -9 667.971 19.3222   1
   0   3  -9 629.036 17.5544   3
   0  -3   9 651.972 18.8189   1
   0  -3   9 663.687 18.4663   3
  -1   3  -9 708.848 21.1577   1
   1  -3   9 725.939 19.3100   3
   1  -3   9 672.326 20.4778   1
   1  -3   9 693.771 16.1956   2
   1  -3   9 699.689 17.2468   2
  -2   3  -9 486.792 18.8829   1
   2  -3   9 481.746 17.0768   3
   2  -3   9 499.571 13.2395   2
   2  -3   9 505.836 14.3898   2
  -3   3  -9 790.852 25.3107   1
   3  -3   9 746.387 21.9300   2
   3  -3   9 801.584 21.7846   3
   3  -3   9 780.650 21.4420   2
  -4   3  -9 200.878 11.4462   1
   4  -3   9 209.928 8.94387   3
   4  -3   9 186.446 9.30205   2
  -5   3  -9 154.243 11.8047   1
   5  -3   9 166.055 10.4395   2
   5  -3   9 141.563 8.62624   3
  -6  -2   9 68.3235 9.35060   2
   5   2  -9 161.365 6.24948   1
  -5  -2   9 158.056 10.0091   2
   4   2  -9 553.184 17.5131   2
   4   2  -9 556.563 15.9369   1
   4   2  -9 569.491 15.3191   1
  -4  -2   9 561.750 18.8941   2
  -4  -2   9 575.110 19.8797   3
   3   2  -9 2.38774 1.67582   1
   3   2  -9 2.43365 1.65067   2
   3   2  -9 2.48539 1.39773   1
  -3  -2   9 0.27933 1.65779   2
  -3  -2   9 3.78672 2.12541   3
   2   2  -9 359.161 11.2347   1
   2   2  -9 343.279 11.2166   3
   2   2  -9 351.800 9.40394   2
  -2  -2   9 352.778 11.6048   1
  -2  -2   9 351.461 12.5441   3
  -2  -2   9 350.812 10.4919   2
   1   2  -9 59.5297 3.70605   3
   1   2  -9 62.9126 4.07944   1
  -1  -2   9 58.5720 4.15926   3
  -1  -2   9 60.6345 4.21560   1
   0   2  -9 47.4810 3.55945   3
   0   2  -9 51.1460 4.08448   1
   0  -2   9 57.6150 4.37297   1
   0  -2   9 52.6195 3.54360   3
  -1   2  -9 295.144 10.3820   3
  -1   2  -9 325.841 12.0882   1
   1  -2   9 304.667 11.5656   1
   1  -2   9 332.202 10.4974   3
  -2   2  -9 373.337 14.1973   1
   2  -2   9 372.349 12.0253   3
   2  -2   9 381.619 10.9572   2
  -3   2  -9 7.25967 2.70085   1
   3  -2   9 0.82038 2.29299   2
   3  -2   9 2.25174 2.22824   2
  -4   2  -9 40.4204 6.50807   1
   4  -2   9 34.7104 5.64067   2
  -5   2  -9 53.0169 9.56190   1
   5  -2   9 71.8595 9.08153   2
   5  -2   9 92.2869 6.91778   3
  -6  -1   9 135.410 10.8993   2
   5   1  -9 109.746 5.90449   1
  -5  -1   9 103.864 9.59349   2
   4   1  -9 2119.82 47.8823   1
   4   1  -9 1965.16 49.6527   2
   4   1  -9 1946.76 48.3276   1
  -4  -1   9 2072.75 50.8523   2
   3   1  -9 635.423 18.6726   3
   3   1  -9 657.940 18.1364   1
   3   1  -9 655.598 18.1438   2
   3   1  -9 653.469 18.7119   1
  -3  -1   9 673.176 20.4689   3
  -3  -1   9 644.788 18.5442   2
   2   1  -9 3.88010 1.07374   2
   2   1  -9 5.23184 1.62356   3
   2   1  -9 4.53143 1.47726   1
   2   1  -9 4.60137 1.28901   2
  -2  -1   9 6.32915 1.92361   3
   1   1  -9 398.228 11.5720   3
   1   1  -9 404.561 12.8905   1
  -1  -1   9 397.721 12.7312   3
  -1  -1   9 394.439 13.0493   1
   0   1  -9 1318.25 31.8831   3
   0   1  -9 1339.08 34.0594   1
   0  -1   9 1356.30 32.6629   3
   0  -1   9 1315.37 33.8652   1
  -1   1  -9 71.2417 5.19486   1
  -1   1  -9 71.8433 4.67314   3
   1  -1   9 70.3042 5.38893   1
   1  -1   9 85.3962 4.30872   3
  -2   1  -9 247.160 10.9469   1
   2  -1   9 264.585 8.31192   2
   2  -1   9 250.589 9.04193   3
  -3   1  -9 784.309 22.5686   2
  -3   1  -9 774.933 24.5630   1
   3  -1   9 756.863 21.0311   2
   3  -1   9 806.384 21.8886   3
  -4   1  -9 232.299 11.3779   2
  -4   1  -9 234.141 12.2234   1
   4  -1   9 246.933 10.2193   3
  -5   1  -9 16.1141 4.99623   1
   5  -1   9 10.6314 3.73035   3
   6   0  -9 92.2908 7.50472   1
   5   0  -9 352.417 12.2229   1
   5   0  -9 315.460 12.8549   1
   4   0  -9 739.055 22.0953   1
   4   0  -9 764.890 22.9547   2
   4   0  -9 777.331 21.4636   1
   3   0  -9 261.395 10.4977   1
   3   0  -9 282.739 9.94749   2
   3   0  -9 281.194 10.0825   2
   3   0  -9 266.386 10.0331   1
   3   0  -9 271.343 9.79312   3
  -3   0   9 280.022 10.9354   3
   2   0  -9 1056.02 27.2007   1
   2   0  -9 1042.44 24.9110   2
   2   0  -9 1068.28 24.3731   2
   2   0  -9 1019.81 25.5460   3
  -2   0   9 997.405 27.0249   3
  -2   0   9 1011.28 27.8116   1
   1   0  -9 2151.69 49.9393   1
   1   0  -9 2033.70 47.2627   3
  -1   0   9 2087.66 50.1693   1
  -1   0   9 2023.74 48.6972   3
   0   0  -9 1263.45 32.2496   1
   0   0  -9 1234.36 29.8101   3
   0   0   9 1244.94 30.3731   3
   0   0   9 1208.19 32.0600   1
  -1   0  -9 246.160 10.2196   1
  -1   0  -9 236.492 9.03416   3
   1   0   9 249.019 6.49341   2
   1   0   9 255.850 8.61676   3
  -2   0  -9 1353.03 33.5609   2
  -2   0  -9 1307.80 38.9385   1
   2   0   9 1370.15 33.3706   3
   2   0   9 1380.97 31.5996   2
  -3   0  -9 941.724 28.5633   1
  -3   0  -9 952.422 26.9929   2
   3   0   9 981.522 25.7351   3
   3   0   9 933.471 24.5732   2
  -4   0  -9 254.377 12.6177   2
  -4   0  -9 250.424 12.8769   1
   4   0   9 246.735 10.4309   3
   6  -1  -9 104.651 10.3112   2
   5  -1  -9 4.59641 2.79745   1
   4  -1  -9 3.84633 2.19597   1
   4  -1  -9 1.21382 2.77980   1
   4  -1  -9 2.11701 3.27183   2
   4  -1  -9 6.38387 2.45726   2
   3  -1  -9 381.360 14.0881   1
   3  -1  -9 410.070 13.6743   2
   3  -1  -9 399.026 12.3310   3
   3  -1  -9 408.668 13.7878   1
   3  -1  -9 419.589 12.7662   2
  -3   1   9 414.147 13.8151   3
   2  -1  -9 758.474 18.5339   2
   2  -1  -9 767.209 21.8955   1
   2  -1  -9 759.181 19.3978   3
   2  -1  -9 781.943 20.1463   2
  -2   1   9 769.539 20.9934   3
   1  -1  -9 128.148 4.68988   2
   1  -1  -9 126.832 3.82097   2
   1  -1  -9 127.839 5.06932   3
   1  -1  -9 130.305 6.68097   1
  -1   1   9 121.297 6.76079   1
  -1   1   9 131.555 5.80572   3
   0  -1  -9 1040.29 25.7066   3
   0  -1  -9 1085.06 28.5675   1
   0   1   9 1080.22 24.0848   2
   0   1   9 1036.59 26.0353   3
   0   1   9 999.019 28.3333   1
  -1  -1  -9 173.069 6.77813   2
  -1  -1  -9 181.712 8.73464   1
   1   1   9 186.617 5.69193   2
   1   1   9 195.500 7.04332   3
  -2  -1  -9 2.44316 1.96834   2
  -2  -1  -9 0.95684 1.91022   1
   2   1   9 1.63045 1.47547   3
   2   1   9 3.36486 1.23655   2
  -3  -1  -9 201.480 10.5461   1
  -3  -1  -9 188.310 9.85835   2
   3   1   9 198.425 8.39757   3
   3   1   9 192.215 7.59708   2
  -4  -1  -9 391.827 16.8102   2
  -4  -1  -9 398.071 16.6342   1
   4   1   9 403.313 14.3115   3
   6  -2  -9 -0.2580 4.81293   2
   6  -2  -9 -3.6327 4.03971   1
   5  -2  -9 317.810 13.3322   1
   5  -2  -9 339.439 14.0599   2
   4  -2  -9 117.331 6.77362   3
   4  -2  -9 137.003 7.50888   2
   4  -2  -9 122.362 8.93046   2
   4  -2  -9 133.311 7.69382   1
   3  -2  -9 120.417 7.25790   2
   3  -2  -9 108.631 5.19246   3
   3  -2  -9 118.472 7.01173   1
   3  -2  -9 115.991 5.79063   2
  -3   2   9 119.149 6.20858   3
   2  -2  -9 20.1063 3.79256   1
   2  -2  -9 18.6766 3.37526   2
   2  -2  -9 12.8610 2.40333   1
   2  -2  -9 19.5723 1.99543   2
   2  -2  -9 19.9066 2.26421   3
  -2   2   9 13.8830 2.65059   3
   1  -2  -9 697.512 17.8780   3
   1  -2  -9 718.602 17.3666   2
   1  -2  -9 702.718 21.2726   1
  -1   2   9 703.103 18.5746   2
  -1   2   9 725.439 19.0035   3
  -1   2   9 778.338 26.2312   1
   0  -2  -9 130.414 7.19234   1
   0  -2  -9 130.517 5.12522   2
   0  -2  -9 128.492 5.62108   3
   0   2   9 125.432 5.31922   3
  -1  -2  -9 6.55951 2.13535   1
  -1  -2  -9 6.98337 1.94544   2
   1   2   9 2.68706 1.37054   3
   1   2   9 5.69696 1.28590   2
  -2  -2  -9 18.2522 3.09152   1
   2   2   9 16.7265 2.67925   2
   2   2   9 18.4385 2.82354   3
  -3  -2  -9 385.959 15.5494   1
  -3  -2  -9 378.648 15.2904   2
   3   2   9 378.341 12.6841   3
  -4  -2  -9 -4.0383 5.06329   2
   4   2   9 0.47923 3.12251   3
   6  -3  -9 304.556 14.2208   1
   6  -3  -9 274.452 14.3713   2
   5  -3  -9 1303.81 36.3742   2
   5  -3  -9 1362.94 37.7107   1
   4  -3  -9 256.709 10.4926   2
   4  -3  -9 253.609 11.6334   1
   4  -3  -9 240.977 9.28739   3
   3  -3  -9 62.7621 6.23335   2
   3  -3  -9 66.1916 4.04893   3
   3  -3  -9 76.0373 4.62445   2
   2  -3  -9 1021.23 28.9050   1
   2  -3  -9 1004.59 24.0937   3
   2  -3  -9 1032.22 24.9123   2
  -2   3   9 1039.43 25.7599   3
   1  -3  -9 321.543 12.6772   1
   1  -3  -9 325.651 9.49864   2
   1  -3  -9 317.795 9.29447   3
  -1   3   9 316.369 10.7003   2
  -1   3   9 332.632 9.97723   3
   0  -3  -9 241.851 8.49429   2
   0  -3  -9 240.689 10.8861   1
   0   3   9 242.987 8.40868   2
   0   3   9 248.844 8.02479   3
  -1  -3  -9 909.083 24.7685   2
  -1  -3  -9 904.554 26.5919   1
   1   3   9 911.601 22.6997   3
   1   3   9 895.098 22.8038   2
  -2  -3  -9 836.543 24.9385   2
  -2  -3  -9 834.474 25.5569   1
   2   3   9 805.766 21.5023   2
   2   3   9 851.260 21.9446   3
  -3  -3  -9 209.882 11.0194   1
  -3  -3  -9 195.468 11.6030   2
   3   3   9 199.215 8.36489   3
  -4  -3  -9 278.593 16.0667   2
  -4  -3  -9 300.406 14.5496   1
   4   3   9 302.134 11.8738   3
   6  -4  -9 52.0203 8.77270   2
   5  -4  -9 296.087 12.7953   2
   5  -4  -9 309.440 14.4609   1
   4  -4  -9 327.603 12.6494   2
   4  -4  -9 362.433 14.8894   1
   4  -4  -9 327.218 10.7032   3
   3  -4  -9 233.016 11.1994   2
   3  -4  -9 246.061 11.6381   1
   3  -4  -9 235.166 7.36526   3
   3  -4  -9 257.462 9.12483   2
   2  -4  -9 52.8774 3.81015   3
   2  -4  -9 40.3159 4.76211   1
   2  -4  -9 41.2858 3.29567   2
  -2   4   9 44.9122 3.24936   3
   1  -4  -9 506.855 17.5763   1
   1  -4  -9 511.682 14.2380   2
  -1   4   9 509.033 13.4571   3
  -1   4   9 482.402 15.5572   2
   0  -4  -9 967.945 25.4623   2
   0  -4  -9 978.857 28.2379   1
   0   4   9 1003.96 23.6093   3
   0   4   9 928.914 25.3099   2
  -1  -4  -9 449.034 16.3185   1
  -1  -4  -9 447.097 15.3245   2
   1   4   9 425.624 13.3419   2
   1   4   9 456.481 12.5861   3
  -2  -4  -9 262.113 12.0956   1
  -2  -4  -9 274.060 12.6193   2
   2   4   9 267.798 9.19795   3
  -3  -4  -9 342.975 15.9083   2
  -3  -4  -9 316.791 14.3969   1
   3   4   9 326.965 11.4937   3
   5  -5  -9 106.141 8.31650   2
   5  -5  -9 112.495 9.72169   1
   4  -5  -9 124.607 7.27314   2
   4  -5  -9 115.593 9.30120   1
   3  -5  -9 2.72521 3.02739   1
   3  -5  -9 11.2422 2.33800   2
   2  -5  -9 100.549 5.34368   2
   2  -5  -9 101.766 7.42489   1
   1  -5  -9 417.948 12.7764   2
   1  -5  -9 405.986 15.6152   1
  -1   5   9 368.367 14.0017   2
   0  -5  -9 30.4970 4.86052   1
   0  -5  -9 33.8063 4.13821   2
  -1  -5  -9 -2.0288 2.64610   2
  -1  -5  -9 0.66993 2.80712   1
   1   5   9 3.24426 1.50810   3
  -2  -5  -9 196.054 11.4742   2
  -2  -5  -9 181.672 10.2186   1
   2   5   9 183.634 7.16699   3
   5  -6  -9 33.3229 5.99759   1
   4  -6  -9 58.1056 8.22066   1
   4  -6  -9 70.0597 6.01824   2
   3  -6  -9 288.445 10.9378   2
   3  -6  -9 292.327 13.7773   1
   2  -6  -9 321.989 14.3877   1
   2  -6  -9 338.097 11.5505   2
   1  -6  -9 20.9314 3.91401   1
   1  -6  -9 19.3518 3.55414   2
   0  -6  -9 178.976 9.08216   2
   0  -6  -9 168.414 10.0912   1
  -1  -6  -9 111.109 8.06401   1
  -1  -6  -9 104.616 8.19062   2
  -2  -6  -9 65.1401 7.96272   1
  -2  -6  -9 82.0122 9.95848   2
   4  -7  -9 268.870 11.2320   2
   4  -7  -9 239.116 14.1629   1
   3  -7  -9 332.641 15.7891   1
   3  -7  -9 347.292 12.6119   2
   2  -7  -9 96.6891 7.98347   1
   2  -7  -9 91.7714 5.99206   2
   1  -7  -9 387.112 16.2346   1
   1  -7  -9 369.759 13.7506   2
   0  -7  -9 323.497 13.7059   2
   0  -7  -9 315.891 14.3684   1
  -1  -7  -9 128.693 10.1458   2
  -1  -7  -9 119.706 9.10469   1
   2  -8  -9 173.483 8.89136   2
   2  -8  -9 135.033 10.3883   1
  -1  -9  10 4.92964 4.02391   2
  -1  -9  10 -0.2857 4.56905   3
   0   9 -10 22.1499 5.25359   1
   0  -9  10 14.9776 4.51574   3
   0  -9  10 20.0645 3.70939   2
   1  -9  10 35.8043 6.86453   3
   1  -9  10 44.4438 5.41426   2
   2  -9  10 63.8439 7.26529   3
   2  -9  10 71.2658 5.56642   2
  -3  -8  10 277.380 14.9808   3
  -3  -8  10 295.228 14.7963   2
  -2  -8  10 196.485 10.9577   2
  -2  -8  10 177.396 11.5434   3
   1   8 -10 370.070 14.1487   1
  -1  -8  10 387.857 14.4169   2
  -1  -8  10 382.795 15.7516   3
   0  -8  10 1204.14 31.6347   2
   0  -8  10 1181.39 33.5546   3
  -1   8 -10 192.459 11.4477   1
   1  -8  10 185.047 9.89824   3
   1  -8  10 194.139 7.86055   2
  -2   8 -10 36.7300 6.10746   1
   2  -8  10 31.7390 5.41067   3
   2  -8  10 41.6014 4.34956   2
  -3   8 -10 478.033 20.6969   1
   3  -8  10 441.756 14.1810   2
   3  -8  10 462.586 16.2454   3
  -4  -7  10 332.566 16.6360   2
  -3  -7  10 181.077 11.3114   3
  -3  -7  10 173.994 10.7942   2
  -2  -7  10 487.782 18.4987   3
  -2  -7  10 506.346 17.8687   2
   1   7 -10 1011.01 27.4280   1
   1   7 -10 986.765 26.6519   2
  -1  -7  10 983.033 28.9063   3
  -1  -7  10 1020.84 27.6893   2
   0   7 -10 482.357 16.5404   2
   0   7 -10 498.685 17.5044   1
   0  -7  10 487.672 15.0990   2
   0  -7  10 507.804 17.0995   3
  -1   7 -10 264.813 12.6948   1
   1  -7  10 259.083 10.9067   3
   1  -7  10 250.489 8.77735   2
  -2   7 -10 173.906 11.2395   1
   2  -7  10 174.538 6.82998   2
   2  -7  10 172.250 8.55603   3
  -3   7 -10 390.613 17.7719   1
   3  -7  10 364.484 13.5283   3
   3  -7  10 333.066 15.0711   2
  -4  -6  10 16.7124 4.80181   2
  -3  -6  10 139.036 10.2430   2
  -3  -6  10 138.305 9.68186   3
   2   6 -10 59.0105 5.15795   2
   2   6 -10 65.3083 5.14508   1
  -2  -6  10 67.8020 6.37645   3
  -2  -6  10 63.4814 5.60435   2
  -2  -6  10 56.9305 6.89815   1
   1   6 -10 71.0535 5.85030   1
  -1  -6  10 66.6597 5.94852   3
  -1  -6  10 64.1562 5.24223   1
  -1  -6  10 57.5094 4.56980   2
   0   6 -10 193.609 9.75571   1
   0   6 -10 197.061 8.76171   2
   0  -6  10 195.467 9.10452   3
   0  -6  10 179.701 7.15813   2
  -1   6 -10 190.360 9.69692   2
  -1   6 -10 218.971 10.9114   1
   1  -6  10 209.516 9.10627   3
   1  -6  10 209.807 7.12142   2
  -2   6 -10 22.9301 4.71796   1
   2  -6  10 12.5726 5.74205   2
   2  -6  10 13.2538 2.00305   2
   2  -6  10 20.0651 3.78800   3
  -3   6 -10 51.1148 8.39839   1
   3  -6  10 31.4063 4.07556   2
   3  -6  10 40.0970 4.95490   3
  -4   6 -10 167.240 13.1130   1
   4  -6  10 200.013 8.70556   2
   4  -6  10 187.722 9.32599   3
  -5  -5  10 174.588 11.8851   2
  -4  -5  10 358.663 15.3069   2
  -4  -5  10 371.386 16.4840   3
   3   5 -10 67.9595 5.05106   2
  -3  -5  10 74.6403 6.11055   2
  -3  -5  10 73.7296 6.94451   3
   2   5 -10 11.3567 2.48832   1
  -2  -5  10 12.1146 2.32655   2
  -2  -5  10 10.8699 3.11427   3
  -2  -5  10 12.1283 2.28784   1
   1   5 -10 271.761 8.70388   2
   1   5 -10 270.481 10.4745   1
  -1  -5  10 242.207 9.72210   1
  -1  -5  10 265.887 11.0427   3
  -1  -5  10 251.439 9.01109   2
   0   5 -10 228.026 8.39021   2
   0   5 -10 219.326 10.0721   1
   0  -5  10 212.371 9.16581   3
   0  -5  10 225.542 7.24960   2
   0  -5  10 207.872 9.24317   1
   1  -5  10 237.443 9.44563   3
   1  -5  10 236.769 7.19612   2
   1  -5  10 236.529 8.77940   2
  -2   5 -10 218.192 11.3213   1
   2  -5  10 220.965 9.28023   2
   2  -5  10 227.810 9.13945   3
   2  -5  10 220.847 7.15174   2
  -3   5 -10 713.591 24.9409   1
   3  -5  10 732.432 20.9081   3
   3  -5  10 693.589 18.9714   2
  -4   5 -10 36.4855 6.18105   1
   4  -5  10 33.8181 5.54407   3
  -5  -4  10 865.753 28.6971   2
  -4  -4  10 535.293 19.1269   2
  -4  -4  10 548.795 20.3495   3
   3   4 -10 279.066 9.57130   2
   3   4 -10 302.626 9.35070   1
  -3  -4  10 286.729 11.4651   2
  -3  -4  10 297.876 12.9743   3
   2   4 -10 1543.81 35.9766   2
   2   4 -10 1604.73 37.9773   1
  -2  -4  10 1570.89 38.2435   1
  -2  -4  10 1529.30 38.2922   2
  -2  -4  10 1575.87 41.1692   3
   1   4 -10 791.498 22.1225   1
   1   4 -10 778.547 19.1287   2
  -1  -4  10 809.619 23.2000   3
  -1  -4  10 781.279 21.8345   1
  -1  -4  10 803.604 20.0375   2
   0   4 -10 666.656 20.0968   1
   0  -4  10 674.466 19.3993   3
   0  -4  10 619.019 19.1869   1
  -1   4 -10 1036.03 29.2864   1
   1  -4  10 1030.64 23.5370   2
   1  -4  10 1021.63 27.3657   3
   1  -4  10 1017.47 24.9403   2
  -2   4 -10 1865.10 48.3167   1
   2  -4  10 1791.93 43.4545   2
   2  -4  10 1843.60 44.4599   3
   2  -4  10 1811.34 41.4717   2
  -3   4 -10 300.538 14.3006   1
   3  -4  10 310.444 10.1798   2
   3  -4  10 314.286 11.4717   3
  -4   4 -10 338.933 16.5968   1
   4  -4  10 364.841 13.3338   3
   4  -4  10 358.734 12.7685   2
  -6  -3  10 65.2855 8.09869   2
  -5  -3  10 43.1730 6.95671   2
   4   3 -10 506.670 16.3038   2
   4   3 -10 547.774 14.3429   1
  -4  -3  10 533.174 18.4612   2
   3   3 -10 465.510 13.5247   1
   3   3 -10 459.423 13.2176   2
  -3  -3  10 464.782 15.2083   2
  -3  -3  10 468.676 16.9961   3
   2   3 -10 333.903 11.1760   1
  -2  -3  10 342.583 11.5116   1
  -2  -3  10 325.656 10.4370   2
  -2  -3  10 337.683 12.8518   3
   1   3 -10 605.936 17.8460   1
  -1  -3  10 583.335 17.5234   1
  -1  -3  10 598.140 18.3361   3
   0   3 -10 943.701 25.8486   1
   0  -3  10 884.172 25.1565   1
   0  -3  10 929.243 24.8101   3
  -1   3 -10 3.39641 2.28266   1
   1  -3  10 2.99282 1.71190   3
  -2   3 -10 89.9589 6.74526   1
   2  -3  10 90.8103 5.21577   3
   2  -3  10 79.9780 3.73640   2
  -3   3 -10 457.172 17.7800   1
   3  -3  10 458.603 14.7595   3
   3  -3  10 441.844 18.8668   2
   3  -3  10 449.095 13.7529   2
  -4   3 -10 421.351 17.8893   1
   4  -3  10 411.688 14.5730   2
   4  -3  10 413.425 14.4291   3
  -6  -2  10 -1.8919 5.02639   2
  -5  -2  10 63.2743 7.04952   2
   4   2 -10 100.890 5.31027   1
   4   2 -10 95.4300 6.07062   1
   4   2 -10 98.1107 6.75138   2
  -4  -2  10 100.828 7.59092   3
  -4  -2  10 104.961 7.12387   2
   3   2 -10 11.9520 2.39702   1
   3   2 -10 12.5030 2.17795   2
   3   2 -10 11.5049 2.17198   1
  -3  -2  10 16.5276 3.80953   3
  -3  -2  10 15.8815 2.49933   2
   2   2 -10 109.826 5.71837   1
   2   2 -10 100.988 3.60849   2
  -2  -2  10 102.950 4.27123   2
  -2  -2  10 113.707 6.50168   3
  -2  -2  10 104.496 5.97779   1
   1   2 -10 800.125 21.4949   3
   1   2 -10 843.669 23.0568   1
  -1  -2  10 849.797 23.3449   3
  -1  -2  10 835.326 23.1085   1
   0   2 -10 31.7667 3.69264   3
   0   2 -10 18.7690 3.51128   1
   0  -2  10 28.2750 3.03731   3
   0  -2  10 22.1915 3.74359   1
  -1   2 -10 665.715 20.8205   1
   1  -2  10 677.000 18.8871   3
  -2   2 -10 188.173 9.56386   1
   2  -2  10 179.370 6.19947   2
   2  -2  10 189.384 7.76719   3
   2  -2  10 184.695 6.23732   2
  -3   2 -10 208.922 11.0573   1
   3  -2  10 212.416 8.59878   2
   3  -2  10 195.309 9.23564   2
   3  -2  10 214.999 8.80183   3
  -4   2 -10 -5.3869 3.71844   1
   4  -2  10 7.05148 2.81915   3
   4  -2  10 5.30758 3.49703   2
  -6  -1  10 408.668 17.4693   2
   5   1 -10 206.737 8.68905   1
  -5  -1  10 210.443 12.9484   2
   4   1 -10 63.0936 6.24227   2
   4   1 -10 69.0448 5.73957   1
   4   1 -10 71.1385 4.91079   1
  -4  -1  10 67.4578 6.36321   3
  -4  -1  10 80.6399 5.47497   2
   3   1 -10 406.885 13.0504   1
   3   1 -10 391.438 13.3675   1
   3   1 -10 389.449 12.2028   2
  -3  -1  10 419.578 14.9457   3
   2   1 -10 1045.09 26.7324   3
   2   1 -10 1063.99 24.6542   2
   2   1 -10 1041.58 24.1976   2
   2   1 -10 1101.17 27.9887   1
  -2  -1  10 1068.10 28.7812   3
  -2  -1  10 1049.79 28.5475   1
   1   1 -10 269.214 10.1340   1
   1   1 -10 246.328 8.57269   3
  -1  -1  10 246.916 9.65517   3
  -1  -1  10 254.966 10.0905   1
   0   1 -10 1576.01 38.7149   1
   0   1 -10 1449.96 35.9248   3
   0  -1  10 1452.46 38.1987   1
   0  -1  10 1541.29 36.9855   3
  -1   1 -10 387.211 14.2991   1
   1  -1  10 404.046 12.5455   3
  -2   1 -10 466.390 16.8992   1
   2  -1  10 469.374 14.3360   3
   2  -1  10 455.828 13.0053   2
  -3   1 -10 252.962 12.0986   1
   3  -1  10 237.024 9.56454   3
  -4   1 -10 615.393 22.6912   1
   4  -1  10 653.433 19.8324   3
   6   0 -10 291.297 15.5654   2
   5   0 -10 829.039 31.2867   1
   5   0 -10 670.228 31.8959   2
   5   0 -10 822.126 22.7270   1
   4   0 -10 543.220 18.5320   1
   4   0 -10 576.945 18.8384   2
   4   0 -10 614.593 18.2356   1
   4   0 -10 641.285 19.0891   2
   3   0 -10 696.123 19.9532   1
   3   0 -10 681.395 18.6298   2
   3   0 -10 674.601 20.4185   1
   3   0 -10 679.410 20.3017   3
   3   0 -10 677.814 19.0411   2
  -3   0  10 688.006 20.9467   3
   2   0 -10 118.564 6.41249   1
   2   0 -10 112.223 5.29751   3
   2   0 -10 110.358 4.47926   2
  -2   0  10 113.370 6.74118   1
  -2   0  10 116.775 6.24314   3
   1   0 -10 1805.12 42.2273   3
   1   0 -10 1927.86 45.3222   1
  -1   0  10 1784.01 45.3700   1
  -1   0  10 1766.69 43.8702   3
   0   0 -10 1769.34 43.3547   1
   0   0 -10 1642.41 40.2166   3
   0   0  10 1715.23 41.0157   3
  -1   0 -10 901.924 26.7998   1
   1   0  10 925.391 23.8248   3
  -2   0 -10 494.269 14.8183   2
  -2   0 -10 519.747 18.0177   1
   2   0  10 500.053 16.0553   3
   2   0  10 498.485 12.9864   2
  -3   0 -10 1091.83 30.1440   2
  -3   0 -10 1108.11 32.8435   1
   3   0  10 1120.13 29.2257   3
  -4   0 -10 175.849 12.9314   2
  -4   0 -10 175.978 11.2070   1
   4   0  10 168.059 8.63667   3
   6  -1 -10 95.0529 10.0746   2
   6  -1 -10 79.4576 8.03322   1
   5  -1 -10 1005.47 28.9064   1
   4  -1 -10 -3.0382 3.55696   2
   4  -1 -10 4.65843 2.48395   2
   4  -1 -10 7.76685 2.52137   1
   3  -1 -10 5.36773 1.96706   3
   3  -1 -10 10.6781 2.70991   2
   3  -1 -10 7.30670 2.14564   1
   3  -1 -10 7.07799 1.79327   2
  -3   1  10 11.2038 2.59768   3
   2  -1 -10 328.165 12.2800   1
   2  -1 -10 324.661 10.0027   3
   2  -1 -10 330.377 10.2523   2
   2  -1 -10 332.724 8.80571   2
  -2   1  10 328.507 11.5763   3
   1  -1 -10 120.388 5.26472   3
   1  -1 -10 124.760 6.82990   1
  -1   1  10 124.615 6.05111   3
   0  -1 -10 0.22694 1.72680   1
   0  -1 -10 1.47250 1.77024   3
   0   1  10 0.56060 1.40488   3
  -1  -1 -10 326.022 10.2356   2
  -1  -1 -10 337.941 13.2120   1
   1   1  10 326.787 8.92667   2
   1   1  10 338.993 10.8126   3
  -2  -1 -10 461.267 16.8453   1
  -2  -1 -10 451.961 14.6580   2
   2   1  10 447.879 12.2864   2
  -3  -1 -10 0.81039 3.16375   1
  -3  -1 -10 2.18305 3.39577   2
   3   1  10 4.95809 2.20623   3
  -4  -1 -10 11.3798 5.63450   2
  -4  -1 -10 11.6881 4.40581   1
   4   1  10 20.4680 3.52047   3
   6  -2 -10 22.2800 5.11717   1
   6  -2 -10 30.4168 5.87560   2
   5  -2 -10 134.973 8.88531   1
   5  -2 -10 141.976 9.02948   2
   4  -2 -10 26.3379 4.72686   1
   4  -2 -10 22.6090 4.46423   2
   4  -2 -10 29.7481 4.53371   2
   3  -2 -10 215.566 8.04449   3
   3  -2 -10 231.673 10.2284   2
   3  -2 -10 224.869 10.1815   1
   3  -2 -10 231.764 8.23173   2
  -3   2  10 224.789 9.34664   3
   2  -2 -10 40.4035 2.58387   2
   2  -2 -10 31.9484 4.35690   1
   2  -2 -10 37.6320 3.06817   3
   2  -2 -10 35.1631 4.12367   2
  -2   2  10 39.9236 3.65456   3
   1  -2 -10 140.321 7.72914   1
   1  -2 -10 139.133 5.63999   3
   1  -2 -10 137.974 4.80117   2
  -1   2  10 138.275 5.67568   2
  -1   2  10 143.697 6.20450   3
   0  -2 -10 11.6129 3.77969   1
   0  -2 -10 15.0984 2.44321   2
   0  -2 -10 17.1491 2.59988   3
   0   2  10 12.5873 2.70396   2
   0   2  10 13.2999 2.45171   3
  -1  -2 -10 185.004 9.49423   1
  -1  -2 -10 184.492 7.80766   2
   1   2  10 188.103 6.49299   2
   1   2  10 203.637 7.42083   3
  -2  -2 -10 13.7600 3.11051   1
  -2  -2 -10 26.1629 4.38859   2
   2   2  10 17.3639 2.14977   2
  -3  -2 -10 89.6643 8.16857   1
  -3  -2 -10 88.2257 8.27758   2
   3   2  10 78.3553 5.44148   3
  -4  -2 -10 200.017 12.0601   1
   4   2  10 194.437 9.48847   3
   6  -3 -10 7.10112 4.98385   1
   6  -3 -10 8.16141 4.92000   2
   5  -3 -10 393.012 14.9370   2
   5  -3 -10 382.320 16.0807   1
   4  -3 -10 589.417 17.1993   3
   4  -3 -10 638.202 18.7087   2
   4  -3 -10 629.720 21.0036   1
   3  -3 -10 359.132 14.1371   1
   3  -3 -10 327.060 13.5860   2
   3  -3 -10 337.817 10.3194   3
   3  -3 -10 354.446 11.0754   2
  -3   3  10 347.102 11.7607   3
   2  -3 -10 729.137 22.3958   1
   2  -3 -10 676.143 17.5462   3
   2  -3 -10 698.654 20.4423   2
   2  -3 -10 716.982 17.9904   2
  -2   3  10 696.820 19.1037   3
   1  -3 -10 2090.69 47.7391   2
   1  -3 -10 2074.64 52.6485   1
   1  -3 -10 2048.57 47.7449   3
  -1   3  10 2194.96 48.8871   3
  -1   3  10 2072.94 49.3126   2
   0  -3 -10 114.681 5.51647   2
   0  -3 -10 107.524 7.08920   1
   0   3  10 107.568 4.96010   3
   0   3  10 108.362 5.36695   2
  -1  -3 -10 148.306 8.71353   1
  -1  -3 -10 152.645 7.66839   2
   1   3  10 157.133 6.25429   3
   1   3  10 156.891 6.25008   2
  -2  -3 -10 1021.52 29.3464   2
  -2  -3 -10 1032.28 30.5607   1
  -3  -3 -10 625.609 22.3256   2
  -3  -3 -10 627.523 22.3182   1
   3   3  10 649.497 18.7249   3
   6  -4 -10 275.652 14.7509   1
   5  -4 -10 95.0044 9.13518   1
   5  -4 -10 119.229 8.08700   2
   4  -4 -10 113.188 8.54840   1
   3  -4 -10 407.205 13.0452   3
   3  -4 -10 430.928 16.5318   1
   3  -4 -10 456.271 13.2247   2
   3  -4 -10 394.187 15.9546   2
   2  -4 -10 859.820 25.9042   1
   2  -4 -10 788.841 19.8024   3
   2  -4 -10 846.782 21.2011   2
  -2   4  10 778.588 23.4867   2
  -2   4  10 830.069 21.0145   3
   1  -4 -10 213.014 7.81365   2
   1  -4 -10 208.607 10.3224   1
  -1   4  10 205.463 8.93341   2
  -1   4  10 218.410 7.38010   3
   0  -4 -10 195.601 9.97433   1
   0  -4 -10 189.733 8.18880   2
   0   4  10 190.088 6.75113   3
   0   4  10 174.691 7.96504   2
  -1  -4 -10 339.229 13.1898   2
  -1  -4 -10 341.827 14.2499   1
   1   4  10 339.314 10.5246   3
  -2  -4 -10 482.633 18.4841   1
  -3  -4 -10 72.9404 8.49536   1
  -3  -4 -10 82.8068 10.6835   2
   3   4  10 73.3229 5.68094   3
   5  -5 -10 0.82783 4.66977   1
   5  -5 -10 -5.6704 3.55244   2
   4  -5 -10 25.3108 4.79674   2
   4  -5 -10 20.7855 4.30944   1
   3  -5 -10 46.3730 6.50452   1
   3  -5 -10 50.8021 4.56320   2
   2  -5 -10 28.2568 5.46853   1
   2  -5 -10 26.8251 3.35493   2
   1  -5 -10 61.3069 6.42850   1
   1  -5 -10 57.6332 4.45132   2
   0  -5 -10 102.613 6.68365   2
   0  -5 -10 103.746 7.85798   1
   0   5  10 111.300 5.21015   3
  -1  -5 -10 5.47901 3.41904   1
  -1  -5 -10 7.35791 4.22942   2
  -2  -5 -10 8.40867 4.11830   1
  -2  -5 -10 10.8270 5.08297   2
   4  -6 -10 11.7655 3.14207   2
   4  -6 -10 6.57979 4.27627   1
   3  -6 -10 -5.3161 3.61916   1
   2  -6 -10 337.649 15.1905   1
   2  -6 -10 359.187 12.1864   2
   1  -6 -10 120.021 6.88780   2
   1  -6 -10 120.895 8.94525   1
   0  -6 -10 58.6067 6.22767   2
   0  -6 -10 59.4695 7.27157   1
  -1  -6 -10 154.836 9.91090   1
  -1  -6 -10 161.713 10.7702   2
   3  -7 -10 417.169 14.5321   2
   3  -7 -10 387.875 17.6130   1
   2  -7 -10 373.676 13.4984   2
   2  -7 -10 378.886 16.8615   1
   1  -7 -10 182.389 9.40694   2
   1  -7 -10 186.778 11.3955   1
   0  -7 -10 311.164 14.4350   1
   0  -7 -10 278.752 13.5371   2
  -1  -9  11 97.8422 10.0436   3
  -1  -9  11 107.180 8.50544   2
   0   9 -11 34.2973 6.47120   1
   0  -9  11 34.1803 6.33693   2
   0  -9  11 19.8097 5.40715   3
  -1   9 -11 10.1456 5.82642   1
   1  -9  11 -6.6879 4.38032   3
  -2  -8  11 411.787 17.5800   3
  -2  -8  11 413.753 16.5644   2
  -1  -8  11 68.9187 7.81430   2
  -1  -8  11 79.4904 7.76462   3
   0   8 -11 351.588 15.0651   1
   0  -8  11 350.002 12.4747   2
   0  -8  11 358.875 14.7925   3
  -1   8 -11 497.278 19.2569   1
   1  -8  11 451.857 14.2299   2
   1  -8  11 465.277 17.1581   3
  -2   8 -11 311.032 16.0200   1
   2  -8  11 308.046 12.9604   3
  -3  -7  11 275.277 12.8172   2
  -3  -7  11 262.065 13.7770   3
  -2  -7  11 29.2342 4.91942   3
  -2  -7  11 37.9579 6.01270   2
   1   7 -11 492.601 16.5621   1
  -1  -7  11 467.934 17.5481   3
  -1  -7  11 462.240 15.4181   2
   0   7 -11 503.787 18.4754   1
   0  -7  11 504.307 15.2728   2
   0  -7  11 513.765 17.8567   3
  -1   7 -11 245.418 13.0143   1
   1  -7  11 248.598 11.0726   3
   1  -7  11 244.085 8.55566   2
  -2   7 -11 296.384 14.8449   1
   2  -7  11 256.494 10.9829   3
   2  -7  11 251.048 8.78986   2
  -3   7 -11 762.809 27.2949   1
   3  -7  11 730.185 22.6014   3
  -4  -6  11 42.3364 8.16962   3
  -3  -6  11 3.05428 3.41426   2
  -3  -6  11 4.60777 4.10206   3
   2   6 -11 193.311 8.55486   1
  -2  -6  11 199.557 9.04885   2
  -2  -6  11 185.672 10.6017   3
   1   6 -11 309.854 12.2183   1
  -1  -6  11 294.125 11.4116   1
  -1  -6  11 297.269 10.6726   2
  -1  -6  11 320.190 13.1359   3
   0   6 -11 3.11705 3.22428   1
   0  -6  11 8.40694 2.73218   3
   0  -6  11 0.34744 1.71430   2
  -1   6 -11 27.6088 4.73282   1
   1  -6  11 29.4295 2.86955   2
  -2   6 -11 295.421 14.1811   1
   2  -6  11 273.278 11.1822   3
   2  -6  11 266.925 8.49509   2
  -3   6 -11 26.9127 5.68036   1
   3  -6  11 18.0676 3.50681   3
  -5  -5  11 68.7527 9.21547   2
  -4  -5  11 81.7962 8.88818   3
  -4  -5  11 77.8522 7.56659   2
   3   5 -11 556.951 15.5674   1
  -3  -5  11 557.425 18.5015   2
  -3  -5  11 565.075 20.6038   3
   2   5 -11 266.492 10.2032   1
   2   5 -11 265.570 8.83918   2
  -2  -5  11 261.358 9.95027   1
  -2  -5  11 276.839 12.3208   3
  -2  -5  11 273.633 10.1938   2
   1   5 -11 340.330 12.6300   1
   1   5 -11 338.805 10.3702   2
  -1  -5  11 336.705 13.3474   3
  -1  -5  11 323.146 12.0167   1
  -1  -5  11 336.251 10.5488   2
   0   5 -11 273.133 9.48278   2
   0   5 -11 269.742 11.8172   1
   0  -5  11 267.299 10.9527   3
   0  -5  11 274.112 8.14388   2
  -1   5 -11 18.8269 3.56035   1
   1  -5  11 17.7183 2.06023   2
   1  -5  11 13.4317 2.66802   3
  -2   5 -11 22.0800 4.29786   1
   2  -5  11 15.9846 2.42349   2
   2  -5  11 24.0609 4.07175   3
   3  -5  11 106.441 6.57991   3
   3  -5  11 107.614 5.49861   2
  -4   5 -11 237.038 15.6345   1
   4  -5  11 254.103 10.9216   3
  -5  -4  11 485.150 19.3986   2
  -4  -4  11 894.927 28.8181   3
  -4  -4  11 863.484 26.7815   2
   3   4 -11 281.630 9.70476   1
   3   4 -11 275.052 9.16846   2
  -3  -4  11 286.536 12.9202   3
  -3  -4  11 276.596 11.0759   2
   2   4 -11 397.723 13.0465   1
   2   4 -11 394.716 10.7619   2
  -2  -4  11 388.049 14.7727   3
  -2  -4  11 386.145 12.1856   2
  -2  -4  11 375.683 13.1485   1
   1   4 -11 1797.61 44.3183   1
  -1  -4  11 1815.72 45.4482   3
  -1  -4  11 1731.01 43.8807   1
   0   4 -11 507.360 17.0236   1
   0  -4  11 498.222 16.3194   3
  -1   4 -11 64.8711 6.08019   1
   1  -4  11 56.0081 4.65074   3
  -2   4 -11 1001.52 29.9457   1
   2  -4  11 942.985 22.7860   2
   2  -4  11 983.272 26.5963   3
  -3   4 -11 712.214 25.0190   1
   3  -4  11 742.050 21.5111   3
   3  -4  11 723.699 19.0272   2
  -4   4 -11 50.4468 9.26058   1
   4  -4  11 54.4126 5.95974   3
  -5  -3  11 222.351 12.2926   2
   4   3 -11 14.2953 2.45060   1
   4   3 -11 11.8065 3.13454   2
  -4  -3  11 24.8496 5.02679   2
  -4  -3  11 13.8495 4.01288   3
   3   3 -11 78.5723 4.96347   1
   3   3 -11 72.1059 4.25652   2
  -3  -3  11 84.4991 7.06832   3
  -3  -3  11 74.7131 5.04542   2
   2   3 -11 273.796 7.60027   2
   2   3 -11 282.131 10.5279   1
  -2  -3  11 280.765 11.8293   3
  -2  -3  11 268.992 8.69153   2
  -2  -3  11 295.191 10.9605   1
   1   3 -11 71.1445 5.26303   1
  -1  -3  11 72.8572 5.46339   1
   0   3 -11 590.039 18.9435   1
   0  -3  11 583.860 23.1586   3
  -1   3 -11 588.975 19.8765   1
   1  -3  11 614.649 18.1062   3
  -2   3 -11 805.918 25.6553   1
   2  -3  11 805.233 22.5739   3
  -3   3 -11 40.3470 6.57148   1
   3  -3  11 41.1712 4.18022   2
   3  -3  11 33.5163 4.46126   3
  -4   3 -11 199.331 12.7929   1
   4  -3  11 210.213 9.97578   3
  -6  -2  11 116.211 10.7647   2
  -5  -2  11 1.90507 3.83485   2
   4   2 -11 87.0605 7.06072   1
   4   2 -11 102.861 5.65006   1
   4   2 -11 94.0658 6.71341   2
  -4  -2  11 98.4614 7.77027   3
  -4  -2  11 99.8289 6.65226   2
   3   2 -11 63.9482 4.07913   2
   3   2 -11 70.5144 4.80228   1
  -3  -2  11 68.3875 4.29582   2
  -3  -2  11 62.1838 6.19122   3
   2   2 -11 17.5600 3.35116   1
  -2  -2  11 28.9142 4.44360   1
  -2  -2  11 18.6238 3.25531   3
   1   2 -11 181.791 8.51308   1
  -1  -2  11 181.938 8.53473   3
  -1  -2  11 192.591 8.67710   1
   0   2 -11 448.644 15.6116   1
   0  -2  11 447.045 14.5816   3
  -1   2 -11 219.373 10.5173   1
   1  -2  11 240.252 9.24744   3
  -2   2 -11 16.3141 3.57260   1
   2  -2  11 17.6986 3.21094   3
  -3   2 -11 255.996 12.9405   1
   3  -2  11 244.870 9.08000   2
   3  -2  11 251.136 10.1655   3
   4  -2  11 7.45670 3.09516   3
   5   1 -11 803.161 22.4670   1
   4   1 -11 219.737 9.85224   2
   4   1 -11 248.461 9.75360   1
   4   1 -11 206.126 10.0213   1
  -4  -1  11 244.172 11.7742   3
   3   1 -11 301.186 9.75867   2
   3   1 -11 313.456 10.3692   2
   3   1 -11 284.141 11.4873   1
   3   1 -11 317.120 11.4464   1
   2   1 -11 1322.52 33.7032   1
  -2  -1  11 1303.46 34.4394   3
  -2  -1  11 1244.11 34.0977   1
   1   1 -11 720.104 21.4261   1
  -1  -1  11 717.254 21.0002   3
   0   1 -11 3.02954 2.03933   1
   0  -1  11 5.86426 1.76154   3
  -1   1 -11 430.315 15.8638   1
  -2   1 -11 812.303 25.8837   1
   2  -1  11 811.405 20.3035   2
   2  -1  11 859.068 22.9026   3
  -3   1 -11 109.219 8.47806   1
   3  -1  11 99.1648 6.35403   2
   3  -1  11 110.944 6.39115   3
  -4   1 -11 86.3381 9.15374   1
   4  -1  11 73.4763 6.34287   3
   6   0 -11 354.949 17.2073   2
   5   0 -11 277.446 11.4621   1
   4   0 -11 234.963 10.0009   2
   4   0 -11 222.826 9.74936   1
   4   0 -11 200.246 9.97306   2
  -4   0  11 213.674 10.9144   3
   3   0 -11 1263.21 33.2306   1
   3   0 -11 1285.93 30.6954   2
   3   0 -11 1250.59 31.1899   2
  -3   0  11 1256.19 34.3187   3
   2   0 -11 1063.41 28.4874   3
   2   0 -11 1203.80 30.9857   1
  -2   0  11 1156.41 30.7402   3
   1   0 -11 355.370 12.9042   1
   1   0 -11 307.643 10.3057   3
  -1   0  11 317.832 11.6474   3
   0   0  11 20.0143 2.86266   3
  -1   0 -11 970.013 28.6297   1
   1   0  11 985.871 25.7882   3
  -2   0 -11 354.423 14.8093   1
  -2   0 -11 361.579 11.3998   2
   2   0  11 357.392 12.1054   3
  -3   0 -11 552.609 18.8582   2
  -3   0 -11 551.612 20.6979   1
   3   0  11 558.620 17.3132   3
  -4   0 -11 773.276 27.3961   1
   4   0  11 807.710 23.5602   3
   6  -1 -11 0.69057 4.18233   1
   6  -1 -11 0.19479 5.30605   2
   5  -1 -11 42.4050 6.22192   1
   4  -1 -11 126.608 8.81386   2
   4  -1 -11 135.592 7.45218   2
   3  -1 -11 23.9870 3.56130   2
   3  -1 -11 17.2887 3.30942   1
   3  -1 -11 24.6188 3.03168   2
  -3   1  11 24.7885 4.21516   3
   2  -1 -11 82.6572 3.28028   2
   2  -1 -11 90.5734 6.21466   1
   2  -1 -11 87.4642 4.65897   2
   2  -1 -11 79.8851 4.65716   3
  -2   1  11 104.449 5.78884   3
   1  -1 -11 864.650 22.6661   3
  -1   1  11 929.675 24.4457   3
   0  -1 -11 32.6297 3.96530   3
   0  -1 -11 26.5894 4.11841   1
   0   1  11 29.7348 3.25079   3
  -1  -1 -11 48.5756 5.08248   1
   1   1  11 43.7006 3.75099   3
   1   1  11 38.0482 2.51868   2
  -2  -1 -11 339.537 14.6514   1
  -2  -1 -11 330.086 11.9378   2
   2   1  11 348.295 11.7790   3
  -3  -1 -11 473.910 18.9635   1
   3   1  11 486.312 15.5308   3
   6  -2 -11 183.240 12.4802   2
   6  -2 -11 172.406 11.6132   1
   5  -2 -11 91.6757 7.85269   1
   5  -2 -11 77.7249 7.59638   2
   4  -2 -11 -0.7929 2.45358   2
   4  -2 -11 -0.9601 4.05549   2
   4  -2 -11 2.60326 2.77972   1
   3  -2 -11 30.5233 3.96644   3
   3  -2 -11 39.7932 3.45687   2
   3  -2 -11 33.1942 4.96158   1
   3  -2 -11 49.5429 5.73270   2
  -3   2  11 36.1145 4.47326   3
   2  -2 -11 513.957 17.6609   1
   2  -2 -11 513.497 13.1088   2
   2  -2 -11 494.080 14.0675   3
   2  -2 -11 518.695 15.3006   2
  -2   2  11 530.150 15.9126   3
   1  -2 -11 229.913 10.4322   1
   1  -2 -11 213.956 6.66443   2
   1  -2 -11 197.324 7.72825   3
  -1   2  11 230.725 8.65666   3
   0  -2 -11 63.3651 3.75355   2
   0  -2 -11 58.0327 5.59582   1
   0   2  11 66.7148 3.69358   2
   0   2  11 68.4888 4.35860   3
  -1  -2 -11 272.442 12.3109   1
  -1  -2 -11 259.659 9.75897   2
   1   2  11 269.228 9.56481   3
   1   2  11 265.776 10.6861   2
  -2  -2 -11 232.034 11.9454   1
  -2  -2 -11 238.853 10.5292   2
   2   2  11 248.485 9.23326   3
  -3  -2 -11 9.25327 4.32622   1
   3   2  11 14.1651 2.82913   3
   5  -3 -11 63.1202 7.06525   2
   5  -3 -11 53.1363 7.91177   1
   4  -3 -11 392.312 13.1759   2
   4  -3 -11 379.168 15.4778   1
   3  -3 -11 508.706 18.2992   1
   3  -3 -11 479.774 13.8238   3
   3  -3 -11 488.938 17.2343   2
   3  -3 -11 527.229 14.4069   2
  -3   3  11 490.633 15.6265   3
   2  -3 -11 181.991 8.97424   2
   2  -3 -11 185.691 7.00020   3
   2  -3 -11 193.664 9.91732   1
   2  -3 -11 190.765 6.58750   2
  -2   3  11 185.425 7.75415   3
   1  -3 -11 483.139 14.1095   3
   1  -3 -11 504.354 13.7717   2
   1  -3 -11 512.938 17.9897   1
  -1   3  11 475.311 14.6446   2
  -1   3  11 511.714 14.7967   3
   0  -3 -11 1051.81 27.2265   2
   0  -3 -11 1089.17 31.4922   1
   0   3  11 1044.87 26.9885   2
   0   3  11 1106.28 27.2104   3
  -1  -3 -11 452.050 17.2906   1
  -1  -3 -11 448.732 15.0622   2
   1   3  11 448.486 13.5851   3
  -2  -3 -11 40.3639 6.71189   2
  -2  -3 -11 51.9408 7.01169   1
   2   3  11 42.4269 4.29832   3
  -3  -3 -11 455.978 18.8357   1
   3   3  11 441.666 14.5606   3
   5  -4 -11 187.393 11.8658   1
   5  -4 -11 187.056 10.0918   2
   4  -4 -11 127.836 9.30760   1
   4  -4 -11 110.784 10.2118   2
   3  -4 -11 64.8084 6.32977   1
   3  -4 -11 47.7844 4.28885   2
   2  -4 -11 505.025 14.2680   2
   2  -4 -11 510.357 18.7153   1
  -2   4  11 498.447 14.4539   3
   1  -4 -11 112.887 7.86041   1
   1  -4 -11 110.356 5.57573   2
  -1   4  11 116.477 5.51156   3
   0  -4 -11 191.638 8.65513   2
   0  -4 -11 191.799 10.4720   1
   0   4  11 201.529 7.47236   3
  -1  -4 -11 181.144 9.74783   2
  -1  -4 -11 176.704 10.4998   1
   1   4  11 183.213 7.26866   3
  -2  -4 -11 489.351 19.0264   1
   2   4  11 484.954 14.5968   3
   5  -5 -11 8.27568 5.18544   1
   5  -5 -11 10.3643 3.95135   2
   4  -5 -11 -2.6736 2.74540   2
   4  -5 -11 -0.9937 4.19443   1
   3  -5 -11 170.194 10.4811   1
   2  -5 -11 216.101 11.5890   1
   2  -5 -11 219.656 8.49142   2
   1  -5 -11 107.620 8.49192   1
   1  -5 -11 104.812 6.16403   2
   0  -5 -11 29.1894 5.34543   2
   0  -5 -11 17.2122 4.08891   1
  -1  -5 -11 259.709 12.8976   1
  -1  -5 -11 230.554 12.4010   2
   4  -6 -11 244.246 11.0479   2
   3  -6 -11 116.719 9.57215   1
   3  -6 -11 121.684 7.25723   2
   2  -6 -11 156.508 7.72664   2
   2  -6 -11 141.389 10.1967   1
   1  -6 -11 120.284 7.68886   2
   1  -6 -11 118.644 9.43774   1
   0  -6 -11 72.3254 7.77039   1
   0  -6 -11 60.3081 7.15108   2
  -2  -8  12 207.184 12.8083   3
  -1  -8  12 570.811 20.8382   3
   0   8 -12 64.4881 9.52998   1
   0  -8  12 62.2816 7.57715   3
  -1   8 -12 221.539 14.2988   1
   1  -8  12 241.825 11.9402   3
  -3  -7  12 698.792 23.5605   2
  -3  -7  12 679.568 24.9150   3
  -2  -7  12 190.182 9.76978   2
  -2  -7  12 180.875 11.1688   3
   1   7 -12 224.562 11.5392   1
  -1  -7  12 235.776 9.94640   2
  -1  -7  12 250.944 12.2451   3
   0   7 -12 322.349 14.4657   1
   0  -7  12 294.409 13.2737   3
  -1   7 -12 729.386 24.6913   1
   1  -7  12 679.136 22.0921   3
  -2   7 -12 158.149 12.1825   1
   2  -7  12 148.663 8.86380   3
  -4  -6  12 217.012 11.9540   2
  -4  -6  12 217.817 14.9040   3
  -3  -6  12 13.1229 3.79619   2
  -3  -6  12 7.80583 4.40716   3
   2   6 -12 -0.1570 3.13821   1
  -2  -6  12 2.03224 2.87163   2
  -2  -6  12 8.18245 3.97213   3
   1   6 -12 244.137 11.0547   1
  -1  -6  12 231.165 11.5860   3
  -1  -6  12 216.096 8.41669   2
   0  -6  12 55.1487 3.75857   2
   0  -6  12 54.4819 5.75776   3
  -1   6 -12 17.5621 4.29551   1
   1  -6  12 18.1145 3.58011   3
  -2   6 -12 50.6902 8.87916   1
   2  -6  12 54.0938 5.87259   3
  -3   6 -12 108.412 11.4313   1
   3  -6  12 94.4497 7.14310   3
  -4  -5  12 23.1663 5.61995   3
  -3  -5  12 77.9528 7.79376   3
  -3  -5  12 59.7864 5.52426   2
   2   5 -12 283.655 11.0759   1
  -2  -5  12 278.047 13.2775   1
  -2  -5  12 259.067 9.82107   2
  -2  -5  12 291.001 13.0711   3
   1   5 -12 93.9687 6.87432   1
  -1  -5  12 93.0269 4.40250   2
  -1  -5  12 87.5776 7.06073   3
   0   5 -12 44.5936 5.83129   1
   0  -5  12 47.9377 5.14745   3
  -1   5 -12 354.943 15.3919   1
   1  -5  12 369.196 13.5721   3
  -2   5 -12 354.289 16.0395   1
   2  -5  12 353.871 13.2394   3
  -3   5 -12 -1.3900 4.56376   1
   3  -5  12 5.75565 3.10747   3
  -5  -4  12 18.6898 5.22783   2
  -4  -4  12 579.058 19.7758   2
  -4  -4  12 576.955 21.9962   3
   3   4 -12 581.591 17.1850   1
  -3  -4  12 589.428 20.9577   3
  -3  -4  12 547.144 17.5457   2
   2   4 -12 621.765 18.3701   1
  -2  -4  12 558.749 15.8000   2
  -2  -4  12 593.345 20.0115   3
  -2  -4  12 552.766 17.9412   1
   1   4 -12 460.104 15.9725   1
  -1  -4  12 456.782 16.4096   3
   0   4 -12 1086.05 31.2014   1
   0  -4  12 1133.41 30.6916   3
  -1   4 -12 688.515 22.7850   1
   1  -4  12 680.916 20.5844   3
  -2   4 -12 385.313 16.4017   1
   2  -4  12 380.798 13.6118   3
  -3   4 -12 1020.07 32.7051   1
   3  -4  12 1015.15 28.2497   3
  -5  -3  12 126.066 9.67505   2
   4   3 -12 331.758 11.2715   1
  -4  -3  12 330.102 15.1754   3
  -4  -3  12 326.449 13.0021   2
   3   3 -12 115.894 6.40342   1
  -3  -3  12 117.533 8.16728   3
  -3  -3  12 108.271 5.90077   2
   2   3 -12 900.426 25.0898   1
  -2  -3  12 867.144 25.2828   1
  -2  -3  12 906.673 26.9416   3
   1   3 -12 421.841 14.8612   1
  -1  -3  12 402.773 14.8861   3
   0   3 -12 10.4879 2.83531   1
   0  -3  12 10.0579 2.51860   3
  -1   3 -12 116.645 8.10274   1
   1  -3  12 123.868 6.75958   3
  -2   3 -12 648.353 22.9537   1
   2  -3  12 662.635 19.8386   3
  -3   3 -12 269.668 13.7859   1
   3  -3  12 266.440 10.9723   3
  -5  -2  12 48.5526 6.85439   2
   4   2 -12 1.16156 2.48631   1
  -4  -2  12 2.12191 2.58243   2
  -4  -2  12 4.28754 3.65840   3
   3   2 -12 209.303 8.12649   2
   3   2 -12 191.778 7.14826   2
   3   2 -12 210.967 9.11527   1
  -3  -2  12 198.881 10.4903   3
   2   2 -12 324.134 12.2021   1
  -2  -2  12 325.139 13.1629   3
   1   2 -12 27.0838 4.40580   1
  -1  -2  12 29.9772 4.07172   3
   0   2 -12 23.3699 4.16263   1
   0  -2  12 25.0563 3.49896   3
  -1   2 -12 240.762 11.5742   1
   1  -2  12 251.721 10.0030   3
  -2   2 -12 3.35575 3.08685   1
   2  -2  12 -0.7278 1.99631   3
  -3   2 -12 0.50383 3.87125   1
   3  -2  12 5.01870 2.63616   3
   5   1 -12 119.611 7.56385   1
   5   1 -12 114.288 16.2007   2
   4   1 -12 429.064 14.6381   1
   4   1 -12 413.925 14.5425   2
  -4  -1  12 421.890 16.7278   3
   3   1 -12 69.8003 4.27401   2
   3   1 -12 82.6967 5.91360   1
   3   1 -12 76.9439 4.56502   2
  -3  -1  12 72.6704 6.63979   3
   2   1 -12 199.717 9.24977   1
  -1  -1  12 770.527 24.7669   3
   0   1 -12 437.823 15.8903   1
   0  -1  12 413.081 15.2486   3
  -1   1 -12 394.526 15.5574   1
   1  -1  12 382.871 13.2039   3
  -2   1 -12 269.654 12.9570   1
   2  -1  12 261.546 10.1915   3
  -3   1 -12 342.014 15.9323   1
   3  -1  12 350.405 12.7892   3
   5   0 -12 462.209 16.1526   1
   5   0 -12 445.249 19.7538   2
   4   0 -12 45.3057 5.31635   2
  -4   0  12 44.9329 6.70554   3
   3   0 -12 222.006 8.06275   2
   3   0 -12 230.022 12.1815   1
   3   0 -12 228.519 7.54515   2
  -3   0  12 215.000 10.7497   3
  -2   0  12 995.107 28.0777   3
   1   0 -12 1065.21 29.3264   1
  -1   0  12 980.440 27.7708   3
   0   0 -12 578.005 19.3034   1
   0   0  12 552.573 17.4864   3
  -1   0 -12 1115.80 32.8644   1
   1   0  12 1181.01 30.2344   3
  -2   0 -12 917.277 28.7869   1
   2   0  12 906.161 24.9382   3
  -3   0 -12 35.3078 5.33389   1
   3   0  12 24.9275 3.57287   3
   5  -1 -12 -0.0266 7.02694   2
   5  -1 -12 3.14684 3.50433   1
   4  -1 -12 131.246 7.32456   2
   4  -1 -12 141.662 8.78515   1
  -4   1  12 138.573 8.56887   3
   3  -1 -12 330.600 9.90335   2
   3  -1 -12 348.065 13.5108   1
  -3   1  12 345.928 13.3875   3
   2  -1 -12 32.6187 4.70087   1
  -2   1  12 41.2120 4.51984   3
   1  -1 -12 3.45418 2.20123   1
  -1   1  12 4.96653 2.18327   3
   0  -1 -12 428.363 16.0597   1
   0   1  12 411.108 13.6917   3
  -1  -1 -12 197.462 10.3733   1
   1   1  12 184.811 8.05924   3
  -2  -1 -12 1.85828 3.40053   1
  -3  -1 -12 139.797 10.6165   1
   3   1  12 147.828 7.81485   3
   5  -2 -12 116.856 8.62002   2
   5  -2 -12 130.042 9.50821   1
   4  -2 -12 221.044 9.18949   2
   4  -2 -12 217.011 11.0723   1
   3  -2 -12 116.240 7.55946   1
   3  -2 -12 101.870 4.92292   2
  -3   2  12 106.085 6.73710   3
   2  -2 -12 69.3312 3.22453   2
   2  -2 -12 68.4166 6.37964   1
   2  -2 -12 61.8366 4.92972   3
  -2   2  12 82.1130 5.46669   3
   1  -2 -12 0.64471 2.67309   1
   1  -2 -12 4.10364 2.71976   3
  -1   2  12 3.16006 2.15124   3
   0  -2 -12 20.9760 3.57564   1
   0   2  12 32.0812 3.76609   3
  -1  -2 -12 6.46286 3.21184   1
   1   2  12 9.93459 2.33261   3
  -2  -2 -12 317.012 14.6112   1
   2   2  12 313.481 11.2511   3
   5  -3 -12 164.938 11.0249   1
   5  -3 -12 171.284 9.76258   2
   4  -3 -12 127.728 9.28230   1
   4  -3 -12 139.506 7.22605   2
   3  -3 -12 780.831 24.9395   1
   3  -3 -12 751.027 19.8246   2
  -3   3  12 772.343 22.0504   3
   2  -3 -12 810.033 25.6357   1
   2  -3 -12 806.732 20.2294   2
  -2   3  12 822.096 22.4860   3
   1  -3 -12 8.97659 1.90810   2
   1  -3 -12 7.89680 2.98161   1
  -1   3  12 3.66937 2.29023   3
   0  -3 -12 414.503 13.9123   2
   0  -3 -12 427.628 17.1042   1
   0   3  12 441.948 13.5128   3
  -1  -3 -12 932.263 29.4195   1
  -2  -3 -12 375.876 16.8057   1
   2   3  12 378.647 12.5511   3
   5  -4 -12 12.9797 5.13461   1
   4  -4 -12 257.749 12.8661   1
   4  -4 -12 229.122 10.0305   2
   3  -4 -12 227.819 12.1989   1
   3  -4 -12 237.196 8.75340   2
   2  -4 -12 297.203 13.6899   1
   2  -4 -12 286.405 9.47601   2
  -2   4  12 272.188 9.84965   3
   1  -4 -12 196.124 8.09084   2
   1  -4 -12 203.597 11.3167   1
  -1   4  12 192.361 7.78458   3
   0  -4 -12 504.482 19.2079   1
   0   4  12 496.363 14.6595   3
  -1  -4 -12 176.870 10.9274   1
   4  -5 -12 -2.2594 4.21114   1
   4  -5 -12 2.71966 3.05223   2
   3  -5 -12 -0.2147 2.51874   2
   2  -5 -12 189.557 11.2395   1
   2  -5 -12 179.734 7.99638   2
   1  -5 -12 79.7405 8.29852   1
   0  -5 -12 -1.6911 3.81235   1
   0   8 -13 487.759 19.9260   1
   0  -8  13 447.457 18.1821   3
  -2  -7  13 482.967 19.5077   3
   1   7 -13 364.043 15.3912   1
  -1  -7  13 325.551 15.2036   3
   0   7 -13 55.0057 9.03468   1
   0  -7  13 43.7951 7.04122   3
  -1   7 -13 322.451 15.8415   1
   1  -7  13 289.460 13.0415   3
  -3  -6  13 19.9255 5.23899   3
   2   6 -13 38.5877 7.17118   1
  -2  -6  13 52.9293 7.38300   3
   1   6 -13 3.63923 3.78843   1
  -1  -6  13 5.51932 3.83241   3
   0   6 -13 111.319 9.17454   1
   0  -6  13 128.267 8.30757   3
  -1   6 -13 46.7557 8.10671   1
   1  -6  13 52.6656 6.15065   3
  -2   6 -13 9.13573 5.41926   1
   2  -6  13 10.6672 3.40230   3
  -3  -5  13 4.76123 4.27159   3
   2   5 -13 259.361 11.1085   1
  -2  -5  13 242.155 12.4455   3
   1   5 -13 270.319 12.1076   1
  -1  -5  13 258.663 12.4587   3
   0   5 -13 215.793 11.3541   1
   0  -5  13 226.434 10.7514   3
  -1   5 -13 15.9716 4.33136   1
  -2   5 -13 391.831 17.6420   1
   2  -5  13 398.595 14.8166   3
  -4  -4  13 233.756 13.7055   3
   3   4 -13 500.652 16.2683   1
  -3  -4  13 494.402 19.6759   3
   2   4 -13 877.068 25.5171   1
  -2  -4  13 901.399 27.8128   3
   1   4 -13 305.765 13.0126   1
  -1  -4  13 321.557 13.4077   3
   0   4 -13 707.301 22.9939   1
   0  -4  13 711.026 22.2261   3
  -1   4 -13 920.553 28.4141   1
   1  -4  13 867.373 25.7267   3
  -2   4 -13 282.704 14.2751   1
   2  -4  13 261.224 11.3314   3
  -3   4 -13 8.03297 5.34353   1
   3  -4  13 11.3741 3.56592   3
  -4  -3  13 253.119 13.7007   3
   3   3 -13 63.8896 5.80529   1
  -3  -3  13 72.1679 7.36446   3
   2   3 -13 91.8344 6.89730   1
  -2  -3  13 100.246 7.62606   3
   1   3 -13 192.467 9.92915   1
  -1  -3  13 186.510 9.83213   3
   0   3 -13 680.872 22.6081   1
   0  -3  13 717.904 21.8434   3
  -1   3 -13 84.6562 7.67444   1
   1  -3  13 84.2347 6.17994   3
  -2   3 -13 68.1524 7.96435   1
   2  -3  13 53.4140 5.37725   3
  -3   3 -13 90.4356 9.37088   1
   3  -3  13 72.0170 6.26523   3
   4   2 -13 1.88417 3.11583   1
  -4  -2  13 -0.2799 4.18299   3
   3   2 -13 39.3016 5.02115   1
  -3  -2  13 34.0021 5.43703   3
  -2  -2  13 92.6142 7.07412   3
   1   2 -13 127.549 7.86448   1
  -1  -2  13 123.263 7.69490   3
   0   2 -13 0.57931 2.83156   1
   0  -2  13 -1.0374 2.35959   3
  -1   2 -13 165.268 10.1102   1
   1  -2  13 174.165 8.44120   3
  -2   2 -13 373.124 16.1976   1
   2  -2  13 363.494 13.3949   3
  -3   2 -13 -5.9560 4.76977   1
   4   1 -13 267.905 13.4061   2
  -4  -1  13 285.474 13.6991   3
   3   1 -13 1073.94 30.6855   1
  -3  -1  13 1104.85 32.2072   3
   2   1 -13 244.017 10.9087   1
  -2  -1  13 240.494 11.2605   3
   1   1 -13 63.3106 5.87090   1
  -1  -1  13 59.2821 5.57706   3
   0   1 -13 578.596 20.0188   1
   0  -1  13 571.466 18.1969   3
  -1   1 -13 714.505 24.0967   1
   1  -1  13 728.802 21.3942   3
  -2   1 -13 209.749 11.7854   1
   2  -1  13 209.696 9.45374   3
  -3   1 -13 333.661 15.9110   1
   3  -1  13 335.491 12.9020   3
   5   0 -13 414.371 15.6659   1
   4   0 -13 625.127 20.1844   1
   4   0 -13 615.356 21.5307   2
  -4   0  13 590.321 21.2194   3
   3   0 -13 527.791 18.1380   1
  -3   0  13 539.038 19.0255   3
   2   0 -13 194.883 9.94655   1
  -2   0  13 188.705 9.58478   3
   1   0 -13 405.134 15.4100   1
  -1   0  13 376.405 14.0887   3
   0   0 -13 432.382 16.5734   1
   0   0  13 427.023 14.6506   3
  -1   0 -13 170.995 9.95382   1
   1   0  13 160.070 7.95411   3
  -2   0 -13 576.222 21.6626   1
   2   0  13 602.038 18.4003   3
   3   0  13 535.666 17.4772   3
   5  -1 -13 56.7816 7.93703   1
   4  -1 -13 15.5588 3.84214   1
  -4   1  13 23.4159 4.37082   3
   3  -1 -13 194.122 10.1677   1
  -3   1  13 198.203 10.0628   3
   2  -1 -13 169.829 9.42305   1
   1  -1 -13 -0.5481 2.52674   1
   0  -1 -13 44.6171 6.42127   1
   0   1  13 66.2980 5.08215   3
  -1  -1 -13 223.765 12.1822   1
   1   1  13 251.101 9.89150   3
  -2  -1 -13 6.77131 4.22274   1
   2   1  13 6.91329 2.80464   3
   5  -2 -13 4.53772 4.38871   1
   4  -2 -13 104.545 8.46027   1
   3  -2 -13 131.425 8.68860   1
  -3   2  13 106.318 8.58440   3
   2  -2 -13 123.142 8.47405   1
  -2   2  13 132.656 7.33306   3
   1  -2 -13 117.492 8.56203   1
  -1   2  13 108.281 6.72011   3
   0  -2 -13 545.663 19.8168   1
   0   2  13 534.228 18.3071   3
  -1  -2 -13 37.7379 6.86756   1
   1   2  13 41.6015 4.66984   3
  -2  -2 -13 2.49375 4.43141   1
   2   2  13 8.53079 3.00662   3
   4  -3 -13 197.078 11.5689   1
   3  -3 -13 183.610 10.7138   1
  -3   3  13 172.156 8.78055   3
   2  -3 -13 502.214 18.8673   1
  -2   3  13 476.061 15.7135   3
   1  -3 -13 765.899 25.3335   1
  -1   3  13 757.993 21.6967   3
   0  -3 -13 226.421 12.1873   1
   0   3  13 229.379 9.42254   3
  -1  -3 -13 273.000 14.0226   1
   1   3  13 284.836 10.6486   3
   4  -4 -13 170.596 11.6217   1
   3  -4 -13 215.900 12.2668   1
   2  -4 -13 15.5891 4.28816   1
   1  -4 -13 68.9693 7.10330   1
   0  -4 -13 240.426 13.1481   1
   2  -5 -13 122.472 9.78345   1
   1   7 -14 449.901 20.2824   1
  -1  -7  14 463.779 20.9836   3
   0   7 -14 389.232 17.3716   1
   0  -7  14 339.110 17.3268   3
  -2  -6  14 134.413 10.1780   3
   1   6 -14 63.4835 8.70349   1
  -1  -6  14 66.2558 8.03066   3
   0   6 -14 24.0722 5.27132   1
   0  -6  14 22.1214 4.93240   3
  -1   6 -14 61.8062 9.39632   1
   1  -6  14 65.2982 6.78113   3
  -3  -5  14 268.433 14.4355   3
  -2  -5  14 127.923 9.75701   3
   1   5 -14 47.1560 7.30566   1
  -1  -5  14 50.0261 6.79783   3
   0   5 -14 362.487 16.0551   1
   0  -5  14 394.876 15.6459   3
  -1   5 -14 1.57384 4.35939   1
   1  -5  14 3.51599 3.22579   3
  -2   5 -14 61.3910 9.55436   1
   2  -5  14 74.1705 8.39248   3
  -4  -4  14 150.463 11.7484   3
   3   4 -14 315.147 13.0299   1
  -3  -4  14 324.211 15.4514   3
   2   4 -14 366.095 14.8410   1
  -2  -4  14 404.085 16.5696   3
   1   4 -14 600.541 20.5513   1
  -1  -4  14 587.364 20.7754   3
   0   4 -14 153.328 10.3064   1
   0  -4  14 144.677 8.73298   3
  -1   4 -14 455.731 18.4686   1
   1  -4  14 447.946 16.3495   3
  -2   4 -14 957.335 31.4173   1
   2  -4  14 967.188 28.0102   3
  -4  -3  14 2.98486 4.87690   3
  -3  -3  14 370.747 16.5504   3
   2   3 -14 136.591 8.69308   1
  -2  -3  14 140.587 9.35892   3
   1   3 -14 77.7743 7.02663   1
  -1  -3  14 71.4891 6.77629   3
   0   3 -14 225.128 11.8128   1
   0  -3  14 231.205 10.8944   3
  -1   3 -14 586.422 21.6122   1
   1  -3  14 609.091 19.5875   3
  -2   3 -14 107.325 9.88938   1
   2  -3  14 118.861 7.66948   3
   4   2 -14 84.7642 7.46554   1
  -4  -2  14 94.3308 9.08328   3
   3   2 -14 43.8124 5.98363   1
  -3  -2  14 52.6442 7.23556   3
   2   2 -14 8.86006 3.45636   1
  -2  -2  14 3.81031 3.39307   3
   1   2 -14 318.571 13.6466   1
  -1  -2  14 318.683 13.4845   3
   0   2 -14 69.1236 7.53227   1
   0  -2  14 83.5887 6.73999   3
  -1   2 -14 -1.4911 3.55416   1
   1  -2  14 5.42869 2.79999   3
  -2   2 -14 7.81530 4.23871   1
   2  -2  14 2.42344 3.12050   3
   4   1 -14 43.8985 6.61253   1
  -4  -1  14 29.3387 5.31898   3
   3   1 -14 373.950 14.6389   1
  -3  -1  14 386.872 16.1370   3
   2   1 -14 396.152 15.3864   1
  -2  -1  14 372.328 15.3984   3
   1   1 -14 547.956 19.3140   1
  -1  -1  14 541.066 18.8413   3
   0   1 -14 51.2536 6.57073   1
   0  -1  14 49.5396 5.79695   3
  -1   1 -14 412.364 17.4201   1
   1  -1  14 409.332 14.7634   3
  -2   1 -14 7.14980 4.67257   1
   2  -1  14 15.3210 3.56574   3
   5   0 -14 25.0145 5.38795   1
   4   0 -14 387.869 15.3740   1
  -4   0  14 367.329 16.1291   3
   3   0 -14 391.465 15.5284   1
  -3   0  14 391.507 15.8573   3
   2   0 -14 244.059 11.8220   1
  -2   0  14 263.252 11.8536   3
   1   0 -14 255.422 12.3203   1
  -1   0  14 255.058 11.3941   3
   0   0 -14 1041.36 31.2059   1
   0   0  14 985.767 28.4104   3
  -1   0 -14 371.594 16.7136   1
   1   0  14 382.434 13.8540   3
  -2   0 -14 44.1653 8.13750   1
   2   0  14 29.3356 5.37170   3
   4  -1 -14 139.429 9.83681   1
  -4   1  14 134.311 9.76756   3
   3  -1 -14 2.72174 3.46217   1
  -3   1  14 -1.7591 3.65289   3
   2  -1 -14 25.2763 4.32019   1
  -2   1  14 38.5601 5.69701   3
   1  -1 -14 228.331 11.9195   1
  -1   1  14 248.054 10.8863   3
   0  -1 -14 62.2064 7.34057   1
   0   1  14 43.8267 5.26305   3
  -1  -1 -14 136.902 10.2085   1
   1   1  14 150.167 7.99342   3
   4  -2 -14 108.927 9.62058   1
   3  -2 -14 88.4289 7.99754   1
  -3   2  14 64.8191 7.05535   3
   2  -2 -14 55.6722 6.96582   1
  -2   2  14 73.7402 6.27720   3
   1  -2 -14 1.73403 3.39054   1
  -1   2  14 -0.7999 2.95823   3
   0  -2 -14 86.2722 8.83243   1
   0   2  14 88.8403 6.53335   3
  -1  -2 -14 258.581 14.0791   1
   1   2  14 259.724 10.6454   3
   4  -3 -14 551.678 20.8969   1
   3  -3 -14 144.695 10.1427   1
   2  -3 -14 68.8758 7.85004   1
  -2   3  14 77.4443 6.77383   3
   1  -3 -14 420.866 17.4526   1
  -1   3  14 407.545 16.0571   3
   0  -3 -14 370.405 16.6113   1
   0   3  14 403.693 14.0806   3
   2  -4 -14 210.558 14.1186   1
   1   6 -15 95.0769 10.5478   1
   0   6 -15 2.69688 5.27040   1
   2   5 -15 247.178 13.1686   1
  -2  -5  15 280.178 14.0566   3
  -1  -5  15 38.8425 7.43662   3
   0   5 -15 119.435 10.9877   1
   0  -5  15 142.787 9.16369   3
  -1   5 -15 476.438 20.0730   1
  -3  -4  15 333.298 16.2319   3
   2   4 -15 414.875 16.5664   1
  -2  -4  15 436.581 17.9009   3
   1   4 -15 637.545 22.0833   1
  -1  -4  15 635.117 22.5538   3
   0   4 -15 511.872 20.0987   1
   0  -4  15 520.534 18.8855   3
  -1   4 -15 244.133 13.7658   1
   1  -4  15 228.788 11.2517   3
   3   3 -15 133.355 9.51048   1
  -3  -3  15 120.647 10.2689   3
   2   3 -15 228.415 12.0208   1
  -2  -3  15 234.434 12.8979   3
   1   3 -15 260.324 13.0701   1
  -1  -3  15 249.614 12.6660   3
   0   3 -15 17.7157 4.76017   1
   0  -3  15 13.3642 3.82310   3
  -1   3 -15 300.658 15.1345   1
   1  -3  15 285.929 12.6984   3
   4   2 -15 65.9297 8.52346   1
  -4  -2  15 80.8620 10.0774   3
   3   2 -15 108.414 8.12430   1
  -3  -2  15 79.4427 9.02431   3
   2   2 -15 0.21929 3.90196   1
  -2  -2  15 9.23911 4.44407   3
   1   2 -15 7.99879 4.14653   1
  -1  -2  15 -2.7075 3.57666   3
   0   2 -15 132.545 9.80916   1
   0  -2  15 147.507 8.82286   3
  -1   2 -15 112.866 9.87563   1
   1  -2  15 124.741 8.06576   3
   4   1 -15 334.528 14.5284   1
  -4  -1  15 333.523 16.2946   3
   3   1 -15 95.7004 8.12608   1
  -3  -1  15 100.084 9.16401   3
   2   1 -15 169.190 10.3525   1
  -2  -1  15 169.133 10.4062   3
   1   1 -15 549.115 20.0421   1
  -1  -1  15 516.543 19.0901   3
   0   1 -15 328.947 15.3102   1
   0  -1  15 318.137 13.5516   3
  -1   1 -15 282.722 14.6055   1
   1  -1  15 297.373 12.3567   3
   4   0 -15 135.026 10.3828   1
  -4   0  15 139.633 10.5891   3
   3   0 -15 299.397 13.9492   1
  -3   0  15 312.750 14.4731   3
   2   0 -15 685.455 23.4499   1
  -2   0  15 705.960 23.1286   3
   1   0 -15 147.638 9.92982   1
  -1   0  15 141.135 9.14373   3
   0   0 -15 297.123 14.8654   1
   0   0  15 310.669 12.9302   3
  -1   0 -15 389.087 18.0197   1
   1   0  15 423.952 15.0150   3
   4  -1 -15 163.792 10.8701   1
  -4   1  15 150.324 10.7503   3
   3  -1 -15 28.9197 5.46583   1
  -3   1  15 46.8463 7.74187   3
   2  -1 -15 53.4125 7.60291   1
  -2   1  15 67.3327 7.17829   3
   1  -1 -15 13.8879 4.32478   1
  -1   1  15 16.7524 3.77852   3
   0  -1 -15 147.303 10.3673   1
   0   1  15 141.603 8.54245   3
   3  -2 -15 18.0119 4.84597   1
  -3   2  15 8.36573 4.52423   3
   2  -2 -15 169.314 11.1521   1
  -2   2  15 180.223 9.88861   3
   1  -2 -15 174.350 10.8454   1
  -1   2  15 154.802 9.37381   3
   0   2  15 2.54736 3.49090   3
   2   4 -16 323.824 15.8769   1
   1   4 -16 141.341 11.0656   1
  -1  -4  16 119.341 10.5400   3
   0   4 -16 419.313 18.5760   1
   2   3 -16 38.1358 6.15595   1
  -2  -3  16 51.9332 8.60526   3
   1   3 -16 318.475 15.5830   1
  -1  -3  16 327.775 14.9374   3
   0   3 -16 175.400 12.3888   1
   0  -3  16 203.225 10.9543   3
   3   2 -16 105.174 9.61975   1
  -3  -2  16 125.470 10.9151   3
   2   2 -16 159.984 10.6345   1
  -2  -2  16 202.430 12.1240   3
   1   2 -16 18.9941 4.92318   1
  -1  -2  16 17.7472 4.65575   3
   0   2 -16 28.2855 5.63779   1
   3   1 -16 454.618 18.0329   1
  -3  -1  16 434.850 18.6132   3
   2   1 -16 156.810 10.8203   1
  -2  -1  16 163.365 10.9778   3
   1   1 -16 31.8365 5.28050   1
   0   1 -16 566.189 21.9458   1
   0  -1  16 551.051 19.6134   3
   3   0 -16 66.4784 8.44179   1
  -3   0  16 52.1957 9.32954   3
   2   0 -16 214.596 12.5622   1
  -2   0  16 223.654 12.1947   3
   1   0 -16 286.746 14.2229   1
  -1   0  16 262.637 13.0350   3
   2  -1 -16 56.1962 8.15576   1
   0   0   0    0.00    0.00   0

 _exptl_absorpt_process_details
)
 SADABS 2016/2: Krause, L., Herbst-Irmer, R., Sheldrick G.M. & Stalke D.,
 J. Appl. Cryst. 48 (2015) 3-10
)
 _exptl_absorpt_correction_type   multi-scan
 _exptl_absorpt_correction_T_max  0.7456
 _exptl_absorpt_correction_T_min  0.6323
 _exptl_special_details
)
 The following wavelength and cell were deduced by SADABS from the
 direction cosines etc. They are given here for emergency use only:
 CELL 0.71124    5.611    8.358   12.780   99.240  101.071   98.723
)
;
_shelx_hkl_checksum              32707
_olex2_submission_special_instructions 'No special instructions were received'
loop_
_space_group_symop_operation_xyz
'x, y, z'
'-x, -y, -z'
loop_
_atom_site_label
_atom_site_type_symbol
_atom_site_fract_x
_atom_site_fract_y
_atom_site_fract_z
_atom_site_U_iso_or_equiv
_atom_site_adp_type
_atom_site_occupancy
_atom_site_site_symmetry_order
_atom_site_calc_flag
_atom_site_refinement_flags_posn
_atom_site_refinement_flags_adp
_atom_site_refinement_flags_occupancy
Pd1 Pd 0.0000 0.0000 0.0000 0.01324(7) Uani 1 2 d S T P
Cl1 Cl -0.00525(9) 0.27657(6) 0.00717(4) 0.01898(11) Uani 1 1 d . . .
S4 S 0.70616(9) 0.60892(6) 0.28733(4) 0.02040(12) Uani 1 1 d . . .
O3 O 0.8431(3) 0.78731(18) 0.32495(11) 0.0227(3) Uani 1 1 d . . .
O1 O 1.0698(3) 0.2754(2) 0.41406(12) 0.0259(3) Uani 1 1 d . . .
O2 O 0.8178(3) 0.13832(19) 0.50085(11) 0.0218(3) Uani 1 1 d . . .
H2 H 0.9406 0.1679 0.5539 0.033 Uiso 1 1 calc GR . .
N1 N 0.2803(3) 0.0566(2) 0.13286(13) 0.0147(3) Uani 1 1 d . . .
C5 C 0.2468(4) 0.0126(2) 0.22707(15) 0.0166(4) Uani 1 1 d . . .
H5 H 0.0910 -0.0489 0.2293 0.020 Uiso 1 1 calc R . .
C4 C 0.5018(4) 0.1420(2) 0.12941(15) 0.0164(4) Uani 1 1 d . . .
H4 H 0.5246 0.1732 0.0630 0.020 Uiso 1 1 calc R . .
C15 C 0.5444(5) 0.6004(3) 0.15196(18) 0.0328(6) Uani 1 1 d . . .
H15A H 0.4568 0.6935 0.1501 0.049 Uiso 1 1 calc GR . .
H15B H 0.4243 0.4961 0.1265 0.049 Uiso 1 1 calc GR . .
H15C H 0.6625 0.6068 0.1044 0.049 Uiso 1 1 calc GR . .
C3 C 0.6968(4) 0.1857(2) 0.21928(15) 0.0163(4) Uani 1 1 d . . .
H3 H 0.8525 0.2446 0.2146 0.020 Uiso 1 1 calc R . .
C1 C 0.8740(4) 0.1934(2) 0.41562(15) 0.0175(4) Uani 1 1 d . . .
C2 C 0.6619(4) 0.1422(2) 0.31698(15) 0.0151(4) Uani 1 1 d . . .
C6 C 0.4333(4) 0.0548(2) 0.32023(15) 0.0174(4) Uani 1 1 d . . .
H6 H 0.4051 0.0242 0.3861 0.021 Uiso 1 1 calc R . .
C25 C 0.4501(5) 0.5926(4) 0.3508(2) 0.0382(6) Uani 1 1 d . . .
H25A H 0.5104 0.6187 0.4301 0.057 Uiso 1 1 calc GR . .
H25B H 0.3536 0.4796 0.3286 0.057 Uiso 1 1 calc GR . .
H25C H 0.3449 0.6706 0.3286 0.057 Uiso 1 1 calc GR . .
loop_
_atom_site_aniso_label
_atom_site_aniso_U_11
_atom_site_aniso_U_22
_atom_site_aniso_U_33
_atom_site_aniso_U_23
_atom_site_aniso_U_13
_atom_site_aniso_U_12
Pd1 0.01101(11) 0.01571(12) 0.01150(11) 0.00437(7) -0.00012(7) -0.00060(8)
Cl1 0.0180(2) 0.0167(2) 0.0204(2) 0.00567(17) 0.00052(18) 0.00023(18)
S4 0.0172(3) 0.0193(3) 0.0211(3) 0.00355(19) -0.00165(19) 0.0005(2)
O3 0.0242(8) 0.0213(7) 0.0165(7) 0.0042(6) -0.0031(6) -0.0050(6)
O1 0.0157(8) 0.0370(9) 0.0202(7) 0.0083(6) -0.0013(6) -0.0061(7)
O2 0.0161(7) 0.0317(8) 0.0133(7) 0.0060(6) -0.0018(5) -0.0035(6)
N1 0.0128(8) 0.0162(8) 0.0142(7) 0.0051(6) 0.0007(6) 0.0003(6)
C5 0.0131(9) 0.0192(9) 0.0177(9) 0.0065(7) 0.0031(7) 0.0002(8)
C4 0.0154(9) 0.0189(10) 0.0145(9) 0.0046(7) 0.0026(7) 0.0008(8)
C15 0.0288(13) 0.0418(14) 0.0173(11) 0.0019(9) -0.0039(9) -0.0105(11)
C3 0.0134(9) 0.0182(9) 0.0165(9) 0.0039(7) 0.0030(7) 0.0007(7)
C1 0.0166(10) 0.0197(10) 0.0144(9) 0.0022(7) 0.0004(7) 0.0033(8)
C2 0.0135(9) 0.0167(9) 0.0144(9) 0.0029(7) 0.0007(7) 0.0036(7)
C6 0.0167(10) 0.0207(10) 0.0145(9) 0.0054(7) 0.0027(7) 0.0015(8)
C25 0.0348(14) 0.0434(15) 0.0343(13) 0.0079(11) 0.0147(11) -0.0083(12)
loop_
_atom_type_symbol
_atom_type_description
_atom_type_scat_dispersion_real
_atom_type_scat_dispersion_imag
_atom_type_scat_source
C C 0.0033 0.0016 'International Tables Vol C Tables 4.2.6.8 and 6.1.1.4'
H H 0.0000 0.0000 'International Tables Vol C Tables 4.2.6.8 and 6.1.1.4'
Cl Cl 0.1484 0.1585 'International Tables Vol C Tables 4.2.6.8 and 6.1.1.4'
N N 0.0061 0.0033 'International Tables Vol C Tables 4.2.6.8 and 6.1.1.4'
O O 0.0106 0.0060 'International Tables Vol C Tables 4.2.6.8 and 6.1.1.4'
Pd Pd -0.9988 1.0072 'International Tables Vol C Tables 4.2.6.8 and 6.1.1.4'
S S 0.1246 0.1234 'International Tables Vol C Tables 4.2.6.8 and 6.1.1.4'
loop_
_geom_angle_atom_site_label_1
_geom_angle_atom_site_label_2
_geom_angle_atom_site_label_3
_geom_angle
_geom_angle_site_symmetry_1
_geom_angle_site_symmetry_3
Cl1 Pd1 Cl1 180.00(2) . 2
N1 Pd1 Cl1 90.06(5) . .
N1 Pd1 Cl1 90.06(5) 2 2
N1 Pd1 Cl1 89.94(5) 2 .
N1 Pd1 Cl1 89.94(5) . 2
N1 Pd1 N1 180.0 2 .
O3 S4 C15 104.13(10) . .
O3 S4 C25 105.97(11) . .
C15 S4 C25 98.87(13) . .
C5 N1 Pd1 120.48(13) . .
C4 N1 Pd1 120.34(13) . .
C4 N1 C5 119.17(16) . .
N1 C5 C6 121.60(18) . .
N1 C4 C3 122.03(18) . .
C4 C3 C2 118.93(18) . .
O1 C1 O2 125.44(18) . .
O1 C1 C2 122.48(18) . .
O2 C1 C2 112.08(17) . .
C3 C2 C1 118.74(18) . .
C6 C2 C3 118.82(17) . .
C6 C2 C1 122.43(17) . .
C5 C6 C2 119.44(18) . .
loop_
_geom_bond_atom_site_label_1
_geom_bond_atom_site_label_2
_geom_bond_distance
_geom_bond_site_symmetry_2
Pd1 Cl1 2.2981(5) .
Pd1 Cl1 2.2982(5) 2
Pd1 N1 2.0120(15) 2
Pd1 N1 2.0120(15) .
S4 O3 1.5205(15) .
S4 C15 1.773(2) .
S4 C25 1.773(3) .
O1 C1 1.205(3) .
O2 C1 1.318(2) .
N1 C5 1.348(2) .
N1 C4 1.344(3) .
C5 C6 1.379(3) .
C4 C3 1.379(3) .
C3 C2 1.392(3) .
C1 C2 1.507(3) .
C2 C6 1.384(3) .
