#------------------------------------------------------------------------------
#$Date: 2019-11-26 01:05:04 +0200 (Tue, 26 Nov 2019) $
#$Revision: 242230 $
#$URL: file:///home/coder/svn-repositories/cod/cif/4/13/22/4132220.cif $
#------------------------------------------------------------------------------
#
# This file is available in the Crystallography Open Database (COD),
# http://www.crystallography.net/
#
# All data on this site have been placed in the public domain by the
# contributors.
#
data_4132220
loop_
_publ_author_name
'Saha, Subhankar'
'Desiraju, Gautam R.'
_publ_section_title
;
 Acid&#x00B7;&#x00B7;&#x00B7;Amide Supramolecular Synthon in Cocrystals:
 From Spectroscopic Detection to Property Engineering.
;
_journal_issue                   20
_journal_name_full               'Journal of the American Chemical Society'
_journal_page_first              6361
_journal_page_last               6373
_journal_paper_doi               10.1021/jacs.8b02435
_journal_volume                  140
_journal_year                    2018
_chemical_formula_sum            'C15 H18 N O4'
_chemical_formula_weight         276.30
_space_group_crystal_system      triclinic
_space_group_IT_number           2
_space_group_name_Hall           '-P 1'
_space_group_name_H-M_alt        'P -1'
_atom_sites_solution_hydrogens   mixed
_audit_creation_method           SHELXL-2014
_cell_angle_alpha                85.167(13)
_cell_angle_beta                 83.67(4)
_cell_angle_gamma                81.671(16)
_cell_formula_units_Z            2
_cell_length_a                   6.315(8)
_cell_length_b                   7.061(7)
_cell_length_c                   15.048(17)
_cell_measurement_reflns_used    2588
_cell_measurement_temperature    150(2)
_cell_measurement_theta_max      33.8
_cell_measurement_theta_min      1.8
_cell_volume                     658.3(13)
_computing_cell_refinement
;
CrystalClear-SM Expert 2.0 rc14 (Rigaku, 2009)
;
_computing_data_collection
;
CrystalClear-SM Expert 2.0 rc14 (Rigaku, 2009)
;
_computing_data_reduction
;
CrystalClear-SM Expert 2.0 rc14 (Rigaku, 2009)
;
_computing_structure_refinement  'SHELXL-14 (Sheldrick, 2014)'
_computing_structure_solution    'SHELXL-14 (Sheldrick, 2014)'
_diffrn_ambient_temperature      150(2)
_diffrn_detector_area_resol_mean 13.6612
_diffrn_measured_fraction_theta_full 0.993
_diffrn_measured_fraction_theta_max 0.994
_diffrn_measurement_device
;
XtaLABmini: Fixed Chi 2 circle
;
_diffrn_measurement_device_type
;
Rigaku Mercury375R (2x2 bin mode)
;
_diffrn_measurement_method       'profile data from \w-scans'
_diffrn_radiation_type           MoK\a
_diffrn_radiation_wavelength     0.71073
_diffrn_reflns_av_R_equivalents  0.0685
_diffrn_reflns_av_unetI/netI     0.0558
_diffrn_reflns_Laue_measured_fraction_full 0.993
_diffrn_reflns_Laue_measured_fraction_max 0.994
_diffrn_reflns_limit_h_max       7
_diffrn_reflns_limit_h_min       -7
_diffrn_reflns_limit_k_max       8
_diffrn_reflns_limit_k_min       -8
_diffrn_reflns_limit_l_max       18
_diffrn_reflns_limit_l_min       -18
_diffrn_reflns_number            6192
_diffrn_reflns_point_group_measured_fraction_full 0.993
_diffrn_reflns_point_group_measured_fraction_max 0.994
_diffrn_reflns_theta_full        25.242
_diffrn_reflns_theta_max         25.998
_diffrn_reflns_theta_min         1.365
_exptl_absorpt_coefficient_mu    0.101
_exptl_absorpt_correction_T_max  1.000
_exptl_absorpt_correction_T_min  0.674
_exptl_absorpt_correction_type   multi-scan
_exptl_absorpt_process_details   'Jacobson, R. (1998) Private communication'
_exptl_crystal_colour            Colourless
_exptl_crystal_density_diffrn    1.394
_exptl_crystal_description       Block
_exptl_crystal_F_000             294
_exptl_crystal_size_max          0.180
_exptl_crystal_size_mid          0.180
_exptl_crystal_size_min          0.170
_refine_diff_density_max         0.226
_refine_diff_density_min         -0.429
_refine_diff_density_rms         0.062
_refine_ls_extinction_method     none
_refine_ls_goodness_of_fit_ref   1.077
_refine_ls_hydrogen_treatment    constr
_refine_ls_matrix_type           full
_refine_ls_number_parameters     181
_refine_ls_number_reflns         2574
_refine_ls_number_restraints     0
_refine_ls_restrained_S_all      1.077
_refine_ls_R_factor_all          0.0627
_refine_ls_R_factor_gt           0.0532
_refine_ls_shift/su_max          0.000
_refine_ls_shift/su_mean         0.000
_refine_ls_structure_factor_coef Fsqd
_refine_ls_weighting_details
'w=1/[\s^2^(Fo^2^)+(0.0735P)^2^+0.2690P] where P=(Fo^2^+2Fc^2^)/3'
_refine_ls_weighting_scheme      calc
_refine_ls_wR_factor_gt          0.1494
_refine_ls_wR_factor_ref         0.1583
_reflns_Friedel_coverage         0.000
_reflns_number_gt                2169
_reflns_number_total             2574
_reflns_threshold_expression     'I > 2\s(I)'
_cod_data_source_file            ja8b02435_si_004.cif
_cod_data_source_block           5C
_cod_database_code               4132220
_shelx_space_group_comment
;
The symmetry employed for this shelxl refinement is uniquely defined
by the following loop, which should always be used as a source of
symmetry information in preference to the above space-group names.
They are only intended as comments.
;
_shelx_estimated_absorpt_t_min   0.982
_shelx_estimated_absorpt_t_max   0.983
_shelxl_version_number           2014-3
_shelx_res_file
;
TITL dataP-1 in P-1
CELL  0.71073   6.3150   7.0610  15.0480   85.167   83.670   81.671
ZERR     2.00   0.0080   0.0070   0.0170    0.013    0.040    0.016
LATT   1
SFAC  C    H    N    O
UNIT  30   36   2    8
MERG   2
OMIT    -2.00  52.00
FMAP   2
PLAN   20
ACTA
BOND   $H
CONF
HTAB
TEMP  -123
SIZE  0.17 0.18 0.18
L.S.  20
WGHT    0.073500    0.269000
FVAR       1.04056
C3    1    0.124543    0.421134    0.393550    11.00000    0.03009    0.03235 =
         0.01948   -0.00310   -0.00166   -0.00450
C5    1    0.349792    0.672796    0.369033    11.00000    0.02425    0.03841 =
         0.03431    0.00013   -0.00792   -0.00647
AFIX  43
H5    2    0.478242    0.720694    0.378081    11.00000   -1.20000
AFIX   0
C6    1    0.011492    0.712388    0.304984    11.00000    0.02855    0.03366 =
         0.03194    0.00195   -0.00983   -0.00476
AFIX  43
H6    2   -0.091146    0.786636    0.269993    11.00000   -1.20000
AFIX   0
C7    1    0.198499    0.784239    0.318679    11.00000    0.02731    0.03038 =
         0.02303   -0.00134   -0.00040   -0.00505
C9    1   -0.024487    0.533082    0.342340    11.00000    0.02835    0.03407 =
         0.03234   -0.00231   -0.00820   -0.00698
AFIX  43
H9    2   -0.152748    0.485175    0.333028    11.00000   -1.20000
AFIX   0
C10   1    0.075686    0.234990    0.436117    11.00000    0.03380    0.03316 =
         0.02016   -0.00309   -0.00558   -0.00412
C14   1    0.313234    0.492760    0.405811    11.00000    0.02892    0.03438 =
         0.02884    0.00139   -0.00895   -0.00323
AFIX  43
H14   2    0.417352    0.417296    0.439671    11.00000   -1.20000
AFIX   0
C22   1    0.626634    0.210215    0.117404    11.00000    0.02633    0.01888 =
         0.02928    0.00020   -0.00561   -0.00611
C23   1    0.409145    0.279925    0.120897    11.00000    0.02690    0.02456 =
         0.03069    0.00039   -0.00405   -0.00686
AFIX  43
H23   2    0.329388    0.304687    0.176996    11.00000   -1.20000
AFIX   0
C24   1    0.746311    0.172281    0.198538    11.00000    0.02587    0.02080 =
         0.03238    0.00037   -0.00621   -0.00565
C25   1    0.307745    0.313591    0.042812    11.00000    0.02807    0.02553 =
         0.04091    0.00358   -0.01066   -0.00748
AFIX  43
H25   2    0.159314    0.363539    0.045954    11.00000   -1.20000
AFIX   0
C26   1    0.419625    0.275486   -0.039963    11.00000    0.04615    0.02089 =
         0.03400    0.00305   -0.01518   -0.01232
C27   1    0.741114    0.175632    0.034317    11.00000    0.03056    0.02170 =
         0.03330   -0.00165   -0.00112   -0.00344
AFIX  43
H27   2    0.890807    0.130501    0.030802    11.00000   -1.20000
AFIX   0
C28   1    0.637322    0.206857   -0.042959    11.00000    0.04638    0.02576 =
         0.02900   -0.00346   -0.00229   -0.00820
AFIX  43
H28   2    0.716503    0.180850   -0.099045    11.00000   -1.20000
AFIX   0
C51   1    0.304998    0.307154   -0.122981    11.00000    0.06553    0.02774 =
         0.04191    0.00269   -0.02269   -0.01152
AFIX   3
H50A  2    0.404348    0.343803   -0.173971    11.00000   -1.20000
H50B  2    0.181878    0.409014   -0.115801    11.00000   -1.20000
H50C  2    0.251798    0.187884   -0.134701    11.00000   -1.20000
H51A  2    0.164348    0.264534   -0.110001    11.00000   -1.20000
H51B  2    0.389798    0.234924   -0.170581    11.00000   -1.20000
H51C  2    0.288398    0.444554   -0.141751    11.00000   -1.20000
AFIX   0
N1    3    0.635084    0.151749    0.278066    11.00000    0.02670    0.05128 =
         0.02720   -0.00197   -0.00631   -0.00645
AFIX   3
H1A   2    0.702754    0.128929    0.326746    11.00000   -1.20000
H1B   2    0.493914    0.160989    0.282176    11.00000   -1.20000
AFIX   0
O1    4    0.238658    0.960786    0.284588    11.00000    0.02870    0.03475 =
         0.03586    0.00634   -0.00868   -0.00861
AFIX   3
H1    2    0.130618    1.017755    0.260788    11.00000   -1.50000
AFIX   0
O3    4    0.228615    0.137037    0.480871    11.00000    0.04024    0.03641 =
         0.03769    0.00982   -0.01525   -0.01077
AFIX   3
H3    2    0.188865    0.033197    0.503041    11.00000   -1.50000
AFIX   0
O6    4   -0.097601    0.175736    0.431842    11.00000    0.03394    0.03647 =
         0.02887    0.00279   -0.00723   -0.01007
O7    4    0.945136    0.159891    0.191216    11.00000    0.02404    0.04998 =
         0.03903    0.01166   -0.00736   -0.00774
HKLF    4  1.0  0.00  0.50  0.00 -1.00  0.00  0.00  0.00  0.50  1.00

REM  dataP-1 in P-1
REM R1 =  0.0532 for    2169 Fo > 4sig(Fo)  and  0.0627 for all    2574 data
REM    181 parameters refined using      0 restraints

END

WGHT      0.0736      0.2600

REM Instructions for potential hydrogen bonds
EQIV $1 x+1, y, z
HTAB N1 O6_$1
EQIV $2 x, y-1, z
HTAB N1 O1_$2
EQIV $3 x-1, y+1, z
HTAB O1 O7_$3
EQIV $4 -x, -y, -z+1
HTAB O3 O6_$4

REM Highest difference peak  0.226,  deepest hole -0.429,  1-sigma level  0.062
Q1    1   0.6761  0.1951  0.1554  11.00000  0.05    0.23
Q2    1   0.4824  0.0635  0.2824  11.00000  0.05    0.22
Q3    1   0.3948  0.3051 -0.0243  11.00000  0.05    0.21
Q4    1   0.5942  0.2830  0.2792  11.00000  0.05    0.20
Q5    1   0.5595  0.2758  0.1154  11.00000  0.05    0.19
Q6    1   0.2737  0.7236  0.3365  11.00000  0.05    0.18
Q7    1   0.6954  0.2288  0.0016  11.00000  0.05    0.16
Q8    1   0.0752  0.4483  0.3643  11.00000  0.05    0.16
Q9    1   0.0287  0.4981  0.3906  11.00000  0.05    0.15
Q10   1   0.4914  0.1888  0.1435  11.00000  0.05    0.15
Q11   1  -0.0084  0.2316 -0.0513  11.00000  0.05    0.15
Q12   1   0.8382  0.1973 -0.0951  11.00000  0.05    0.15
Q13   1  -0.1228  0.8386  0.3016  11.00000  0.05    0.15
Q14   1   0.3385  0.3784  0.1798  11.00000  0.05    0.14
Q15   1   0.0053  0.5062  0.0530  11.00000  0.05    0.14
Q16   1   0.3251  0.3326  0.1981  11.00000  0.05    0.14
Q17   1   0.0401  0.6102  0.3116  11.00000  0.05    0.14
Q18   1   0.5663  0.3143 -0.0411  11.00000  0.05    0.14
Q19   1   0.7084  0.2121 -0.1564  11.00000  0.05    0.14
Q20   1   0.1300  0.4389  0.0522  11.00000  0.05    0.14
;
_shelx_res_checksum              93900
_shelx_hkl_file
;
   0   0  -1   -0.05    0.05
   0   0   1    0.05    0.04
   0   0   1   -0.06    0.08
   0   0  -1   -0.16    0.07
   0   0   1   -0.13    0.05
   0   0  -1   -0.14    0.08
   0   0  -3  630.15    7.05
   0   0   4   74.07    4.39
   0   0  -4   75.50    4.48
   0   0   4   79.58    2.49
   0   0   5   54.75    4.12
   0   0  -5   47.69    3.03
   0   0   5   51.55    3.08
   0   0   6    2.78    0.51
   0   0  -6    1.13    0.86
   0   0   6    1.77    0.95
   0   0   7  479.57    6.40
   0   0  -7  460.46    7.41
   0   0   7  478.40    6.82
   0   0   8  280.02    5.95
   0   0  -8  270.09    6.79
   0   0   8  273.19    6.23
   0   0   9   73.97    3.51
   0   0  -9   74.50    4.14
   0   0   9   66.61    3.56
   0   0  10   73.56    2.60
   0   0 -10   74.39    3.67
   0   0  10   67.90    3.05
   0   0  11  105.86    4.69
   0   0 -11  101.38    5.41
   0   0  11   98.64    4.72
   0   0  12  513.29   16.45
   0   0 -12  526.11   16.73
   0   0  12  420.13   13.03
   0   0  13  696.80    8.97
   0   0 -13  657.36   11.39
   0   0  13  579.20    8.76
   0   0  14   34.41    2.41
   0   0 -14   33.87    3.30
   0   0  14   27.84    4.70
   0   0  15    5.38    1.35
   0   0 -15    6.11    1.67
   0   0  15    5.97    1.28
   0   0  16    7.69    1.32
   0   0 -16    8.49    2.29
   0   0  16    7.35    1.23
   0   0 -17    1.27    1.83
   0   0  17    2.10    1.52
   0   0 -18    4.07    1.98
   0   0  18   -0.52    1.06
   0   0 -19    4.10    2.61
   0   0 -20    6.93    2.45
   0   0 -21   12.62    3.63
   0   0 -22    1.50    2.08
   0   0 -23    6.80    3.44
   0   1 -23    0.38    2.10
   0   1 -22   -1.09    2.08
   0   1 -21    2.06    1.71
   0   1 -20    1.89    1.57
   0   1 -19    1.44    1.31
   0   1 -18    0.01    1.72
   0  -1  18    0.85    1.01
   0  -1  17   -0.07    0.75
   0   1 -17    0.08    1.69
   0  -1  17    0.60    0.88
   0  -1  16    1.94    0.67
   0   1 -16    1.28    1.81
   0  -1  16    0.85    0.39
   0  -1  15   -0.19    0.68
   0   1 -15    0.56    1.68
   0  -1  15    0.50    0.83
   0  -1  14    0.72    0.36
   0   1 -14    2.52    1.77
   0  -1  14    0.08    0.38
   0  -1  13    0.71    0.77
   0   1 -13    1.41    1.61
   0  -1  13    0.79    0.44
   0  -1  12    0.85    0.68
   0   1 -12   -0.30    1.40
   0  -1  12   -0.20    0.77
   0  -1  11    0.00    0.52
   0   1 -11   -0.38    1.24
   0  -1  11    0.91    0.73
   0   1 -10   -0.05    1.34
   0  -1  10    1.16    0.68
   0   1  -9    0.42    1.37
   0   1  -8    6.94    1.20
   0   1  -7    8.99    1.51
   0  -1   6    0.05    0.25
   0  -1   5   -0.29    0.39
   0   1  -5    0.32    0.41
   0  -1   5   -0.35    0.36
   0  -1   4   -0.50    0.34
   0  -1   4    2.03    0.95
   0  -1   3    0.26    0.23
   0   1  -3    0.77    0.59
   0  -1   3    1.67    0.68
   0  -1   2   -0.17    0.19
   0   1  -2   -0.57    0.26
   0   1  -2    0.84    0.40
   0  -1   2    0.48    0.24
   0  -1   1    0.39    0.25
   0   1  -1   -0.07    0.12
   0   1  -1   -0.07    0.10
   0  -1   1    0.21    0.14
   0  -1   1   -0.03    0.04
   0   1  -1    0.04    0.05
   0  -1   0   -0.04    0.07
   0   1   0   -0.07    0.06
   0   1   0   -0.12    0.09
   0  -1   0   -0.01    0.09
   0  -1   0    0.06    0.05
   0   1   0   -0.05    0.09
   0  -1  -1    0.11    0.06
   0   1   1   -0.03    0.05
   0  -1  -1    0.08    0.11
   0   1   1   -0.18    0.16
   0  -1  -2   -0.05    0.08
   0   1   2    0.23    0.16
   0  -1  -2    0.22    0.35
   0   1   2    0.09    0.19
   0   1   3    0.25    0.26
   0   1   3   -0.90    0.58
   0   1   4    0.11    0.11
   0  -1  -4   -1.48    0.67
   0   1   4   -0.19    0.64
   0   1   5   -0.10    0.24
   0  -1  -5    0.96    0.89
   0   1   5    0.28    0.36
   0   1   6   -0.04    0.25
   0  -1  -6    0.64    0.63
   0   1   6    2.78    0.96
   0   1   7    0.34    0.27
   0  -1  -7   -1.28    1.14
   0   1   7   -0.20    0.66
   0   1   8   -0.02    0.17
   0  -1  -8   -0.30    1.16
   0   1   8   -0.60    0.69
   0   1   9   -0.58    0.43
   0  -1  -9    0.17    1.28
   0   1   9   -0.88    0.80
   0   1  10    0.52    0.27
   0  -1 -10    2.50    2.13
   0   1  10    0.35    0.38
   0   1  11    0.62    0.40
   0  -1 -11    0.67    1.46
   0   1  11   -1.33    0.99
   0   1  12    1.39    0.71
   0  -1 -12    2.96    2.33
   0   1  12    0.88    0.90
   0   1  13    0.98    0.37
   0  -1 -13    3.13    1.80
   0   1  13    0.44    0.57
   0   1  14    1.50    0.66
   0  -1 -14   -0.68    1.70
   0   1  14    0.39    0.98
   0  -1 -15   -0.16    1.82
   0   1  15    0.91    0.93
   0  -1 -16    1.20    1.76
   0   1  16    2.16    1.23
   0  -1 -17   -0.64    1.79
   0   1  17    0.39    1.05
   0  -1 -18   -0.27    1.73
   0   1  18   -0.55    1.13
   0  -1 -19    1.74    1.85
   0  -1 -20   -1.82    1.81
   0  -1 -21   -0.05    1.96
   0  -1 -22   -1.01    2.12
   0   2 -23   11.81    3.71
   0   2 -22    3.36    2.43
   0   2 -21    1.61    1.74
   0   2 -20    2.67    1.81
   0   2 -19    9.00    2.20
   0  -2  18   26.19    5.85
   0   2 -18   34.98    7.88
   0  -2  17    2.18    0.49
   0   2 -17    3.72    1.92
   0  -2  17    1.83    1.13
   0  -2  16    2.15    0.90
   0   2 -16   -0.66    1.69
   0  -2  16    0.44    0.55
   0  -2  15   28.24    2.12
   0   2 -15   34.35    2.92
   0  -2  15   24.54    4.44
   0  -2  14   83.64    3.71
   0   2 -14   83.87    4.48
   0  -2  14   74.21    3.90
   0  -2  13   12.87    1.37
   0   2 -13   10.54    2.11
   0  -2  13   11.07    1.11
   0  -2  12   67.85    4.42
   0   2 -12   54.73    3.30
   0  -2  12   50.72    2.41
   0  -2  11   25.13    1.83
   0   2 -11   20.64    2.02
   0  -2  11   17.57    1.30
   0  -2  10  181.52    6.61
   0   2 -10  160.14    5.17
   0  -2  10  159.81    4.29
   0  -2   9  451.10    9.33
   0   2  -9  447.98    9.93
   0  -2   9  416.00    8.12
   0  -2   8    0.59    0.33
   0   2  -8    1.97    1.37
   0  -2   8    0.92    0.36
   0  -2   7   43.37    2.99
   0   2  -7   49.71    3.96
   0  -2   7   49.75    2.96
   0  -2   6  501.95    6.93
   0   2  -6  539.89    7.57
   0  -2   6  549.85    6.18
   0  -2   5  300.60    7.40
   0   2  -5  322.79    7.95
   0  -2   5  338.83    7.66
   0   2  -4  167.99    4.81
   0  -2   4  170.71    3.95
   0   2  -3 3382.82    5.89
   0   2  -2 2528.41   23.08
   0   2  -2 2340.34   21.38
   0   2  -1   79.66    2.17
   0   2   0 3306.10   29.41
   0   2   1 1093.96    9.91
   0  -2  -1  930.18    9.52
   0   2   1 1177.72   11.70
   0   2   2  404.54    3.95
   0  -2  -2  366.86    5.04
   0   2   3  120.55    2.81
   0  -2  -3  109.16    3.28
   0   2   3  118.69    3.51
   0   2   4   36.73    2.06
   0  -2  -4   33.60    2.38
   0   2   4   35.63    2.45
   0   2   5   86.79    2.33
   0  -2  -5   74.69    2.43
   0   2   5   78.52    2.90
   0  -2  -6   -0.48    0.95
   0   2   6    0.35    1.39
   0   2   7 1240.49   20.66
   0  -2  -7 1189.65   21.44
   0   2   7 1224.61   21.75
   0   2   8   98.24    4.09
   0  -2  -8   99.98    5.03
   0   2   8   92.49    4.74
   0   2   9  360.15    7.55
   0  -2  -9  354.17    9.16
   0   2   9  319.40    8.18
   0   2  10   -1.13    0.50
   0  -2 -10    0.19    1.32
   0   2  10   -1.17    1.32
   0   2  11  984.21   27.19
   0  -2 -11 1039.80  332.82
   0   2  11  928.74   28.40
   0   2  12    1.20    0.83
   0  -2 -12    0.68    1.63
   0   2  12    0.85    0.72
   0  -2 -13    4.82    1.91
   0   2  13    7.64    1.53
   0  -2 -14    2.70    1.73
   0   2  14    0.88    0.50
   0  -2 -15   83.18    5.10
   0   2  15   64.02    3.73
   0  -2 -16    3.83    2.09
   0   2  16    5.57    1.84
   0  -2 -17    6.48    2.73
   0   2  17   -0.77    1.25
   0  -2 -18    4.80    1.48
   0   2  18    8.48    2.02
   0  -2 -19    5.01    2.09
   0   2  19    4.25    2.03
   0  -2 -20    6.80    2.16
   0  -2 -21    7.34    4.45
   0  -2 -22    6.00    3.36
   0   3 -24    2.51    2.39
   0   3 -23   -0.04    1.96
   0   3 -22    5.12    2.80
   0   3 -21    0.95    1.68
   0   3 -20   -1.20    1.61
   0  -3  19    0.59    0.65
   0   3 -19    2.87    1.97
   0  -3  18    1.23    1.10
   0   3 -18   -1.53    1.71
   0  -3  17    0.42    1.04
   0   3 -17    0.72    1.63
   0  -3  16    1.81    0.88
   0   3 -16    0.78    1.70
   0  -3  16    1.37    0.65
   0  -3  15   -0.74    0.90
   0   3 -15    0.68    1.64
   0  -3  15    0.30    0.31
   0  -3  14    0.35    0.55
   0   3 -14    1.56    1.64
   0  -3  14    0.51    0.57
   0  -3  13    0.60    0.49
   0   3 -13    0.34    1.45
   0  -3  13   -0.35    0.59
   0  -3  12    0.89    0.42
   0   3 -12    1.29    1.31
   0  -3  12   -0.03    0.37
   0  -3  11    0.11    0.40
   0   3 -11    0.67    1.46
   0  -3  11    0.26    0.31
   0  -3  10    0.62    0.64
   0   3 -10    0.63    1.32
   0  -3  10    0.67    0.49
   0  -3   9   -0.11    0.68
   0   3  -9   -0.76    1.25
   0  -3   9   -0.40    0.37
   0  -3   8    0.46    0.78
   0   3  -8   -1.57    1.29
   0  -3   8    0.16    0.33
   0  -3   7   -0.51    0.61
   0   3  -7    5.70    1.85
   0  -3   6    0.32    0.38
   0   3  -6   -1.11    1.05
   0  -3   6   -0.07    0.21
   0  -3   5    0.35    0.28
   0   3  -5   -0.42    0.79
   0  -3   5    0.07    0.17
   0  -3   4    0.61    0.35
   0   3  -4   -1.35    1.03
   0  -3   4   -0.38    0.21
   0   3  -3    6.58    1.06
   0   3  -2   -0.74    0.48
   0   3  -2    2.09    0.65
   0   3  -2    0.94    0.59
   0   3  -1   -0.30    0.36
   0   3   0    0.80    0.49
   0   3   0    1.87    0.97
   0   3   1    0.48    0.27
   0  -3  -1    0.53    0.29
   0   3   1    2.35    1.01
   0   3   2    0.19    0.15
   0  -3  -2    0.58    0.40
   0   3   2   -1.52    0.69
   0   3   3    0.15    0.16
   0  -3  -3    0.25    0.44
   0   3   3    1.12    0.78
   0   3   4    0.02    0.06
   0   3   4   -1.52    0.76
   0   3   5    0.25    0.21
   0  -3  -5   -0.89    0.90
   0   3   5    1.70    0.89
   0   3   6    1.78    0.36
   0  -3  -6   -0.01    0.88
   0   3   6   -0.19    0.74
   0   3   7   -0.04    0.22
   0  -3  -7   -0.02    1.03
   0   3   7    0.90    0.62
   0   3   8   -0.12    0.25
   0  -3  -8    1.10    1.08
   0   3   8    0.22    0.39
   0   3   9    0.35    0.24
   0  -3  -9    1.67    1.27
   0   3   9   -0.46    0.85
   0   3  10    0.44    0.18
   0  -3 -10    1.19    1.40
   0   3  10    1.26    1.18
   0  -3 -11    0.23    1.48
   0   3  11    1.19    0.79
   0  -3 -12    1.03    1.52
   0   3  12    0.09    1.11
   0  -3 -13   -0.13    1.56
   0   3  13   -0.77    1.05
   0  -3 -14    2.11    1.75
   0   3  14    0.53    1.10
   0  -3 -15   -0.02    1.82
   0   3  15   -0.26    1.03
   0  -3 -16    0.66    1.88
   0   3  16    1.85    1.27
   0  -3 -17   -0.65    1.80
   0   3  17    0.68    1.18
   0  -3 -18    1.26    2.02
   0   3  18    0.94    1.23
   0  -3 -19    0.00    2.07
   0   3  19    0.53    0.71
   0  -3 -20    0.02    1.99
   0  -3 -21   -1.39    2.04
   0   4 -24    3.20    2.53
   0   4 -23    2.49    2.27
   0   4 -22    1.59    2.09
   0   4 -21    3.69    2.76
   0  -4  20    3.86    1.46
   0   4 -20    4.93    1.89
   0  -4  19    4.87    1.71
   0   4 -19    7.33    3.66
   0  -4  18   83.50    9.38
   0   4 -18   68.00    8.35
   0  -4  17    7.27    1.48
   0   4 -17    3.72    1.95
   0  -4  16   16.24    3.93
   0   4 -16   18.86    3.95
   0  -4  15   13.00    2.27
   0   4 -15    8.69    1.59
   0  -4  14    2.93    1.06
   0   4 -14    1.31    0.57
   0  -4  14   -0.45    0.53
   0   4 -13  115.91    5.54
   0  -4  13   97.20    3.67
   0  -4  12   76.65    6.50
   0   4 -12   67.13    4.08
   0  -4  12   62.26    3.84
   0  -4  11  175.54    7.68
   0   4 -11  162.78    7.33
   0  -4  11  151.87    5.84
   0  -4  10   27.42    3.89
   0   4 -10   26.73    5.07
   0  -4  10   15.47    0.89
   0  -4   9   26.61    5.56
   0   4  -9   23.97    1.98
   0  -4   9   25.14    1.40
   0  -4   8  489.03   10.24
   0   4  -8  552.27   11.31
   0  -4   8  548.55    9.46
   0  -4   7  145.10    4.68
   0   4  -7  147.07    5.15
   0  -4   7  143.01    3.49
   0   4  -6   11.02    1.64
   0  -4   5  294.84    7.62
   0   4  -5  322.46    8.14
   0  -4   5  280.85    6.28
   0  -4   4  104.21    3.35
   0   4  -4  118.21    3.65
   0  -4   4   85.53    2.29
   0   4  -3   18.38    1.54
   0   4  -3    9.58    0.97
   0   4  -3   10.93    2.00
   0   4  -2  955.95   10.43
   0   4  -2  826.57    9.47
   0   4  -2  834.95    8.96
   0   4  -1   75.98    4.30
   0   4  -1   66.73    3.94
   0   4  -1   70.26    1.78
   0   4   0  158.64    4.02
   0   4   0  150.15    4.27
   0   4   0  153.67    4.25
   0   4   1  288.04    6.58
   0  -4  -1  233.67    6.36
   0   4   1  288.05    7.33
   0   4   2 1043.26   10.04
   0   4   2 1121.01   12.83
   0   4   3  156.06    3.64
   0  -4  -3  143.59    4.67
   0   4   3  166.77    6.10
   0   4   4  431.40    4.45
   0  -4  -4  437.22    7.14
   0   4   4  480.21    7.89
   0   4   5   73.44    2.85
   0  -4  -5   71.33    3.77
   0   4   5   77.71    4.70
   0  -4  -6  258.51    6.69
   0   4   6  260.30    6.74
   0  -4  -7  164.57    5.34
   0   4   7  162.58    6.14
   0  -4  -8   18.82    1.93
   0   4   8   18.63    4.62
   0  -4  -9    0.76    1.22
   0   4   9   -0.43    0.98
   0  -4 -10  161.47    6.92
   0   4  10  143.31    6.12
   0  -4 -11    0.89    1.09
   0   4  11    1.13    1.15
   0  -4 -12    6.42    1.86
   0   4  12    7.62    2.28
   0  -4 -13   17.05    2.89
   0   4  13   10.51    1.91
   0  -4 -14    1.38    1.75
   0  -4 -15   17.26    3.01
   0   4  15   13.65    2.28
   0  -4 -16    0.65    1.77
   0   4  16   -0.56    1.18
   0  -4 -17   51.08    4.56
   0   4  17   38.24    3.46
   0  -4 -18    8.51    3.17
   0   4  18    6.99    2.16
   0  -4 -19    4.50    2.97
   0  -4 -20   -1.29    1.97
   0  -4 -21    1.66    2.22
   0   5 -24    4.04    3.27
   0   5 -23   -1.40    1.97
   0   5 -22   -0.27    1.77
   0   5 -21    0.21    1.69
   0  -5  20    1.67    0.90
   0   5 -20    1.20    1.65
   0  -5  19    0.11    1.09
   0   5 -19    0.85    1.69
   0  -5  18    0.75    1.08
   0   5 -18    0.30    1.77
   0  -5  17    1.25    1.16
   0   5 -17   -0.30    1.72
   0  -5  16    1.97    1.24
   0   5 -16    0.75    1.50
   0  -5  15    0.44    0.54
   0   5 -15    1.29    1.40
   0  -5  14    0.65    0.62
   0   5 -14    0.42    1.31
   0  -5  13    0.24    0.54
   0   5 -13   -1.51    1.14
   0  -5  12   -0.82    0.90
   0   5 -12    1.74    1.23
   0  -5  11   -0.30    0.86
   0   5 -11    0.35    1.05
   0  -5  10    0.48    0.45
   0   5 -10    2.35    1.36
   0  -5  10    0.06    0.22
   0  -5   9    0.47    0.45
   0   5  -9   -0.08    0.94
   0  -5   9   -0.19    0.19
   0  -5   8    0.69    0.43
   0   5  -8   -0.73    0.97
   0  -5   8   -0.13    0.17
   0  -5   7   -0.24    0.68
   0   5  -7    1.67    1.45
   0  -5   7    2.29    0.51
   0  -5   6    0.54    0.50
   0   5  -6   -0.82    1.15
   0  -5   6    1.52    0.71
   0  -5   5   -0.19    0.60
   0   5  -5    1.67    1.05
   0  -5   4   -0.11    0.55
   0   5  -3   -0.29    0.64
   0   5  -3    0.76    0.75
   0   5  -3   -0.62    0.44
   0   5  -2   -0.30    1.30
   0   5  -2   -1.14    0.60
   0   5  -2   -0.35    0.54
   0   5  -1   -0.12    0.40
   0   5  -1   -0.28    0.57
   0   5  -1    2.93    0.91
   0   5   0    4.23    0.64
   0   5   0    1.42    0.89
   0   5   1    0.54    0.39
   0  -5  -1    0.49    0.52
   0   5   1    3.11    0.85
   0   5   2    0.32    0.27
   0  -5  -2   -0.03    0.64
   0   5   2    1.52    1.09
   0   5   3    0.04    0.18
   0  -5  -3    0.05    0.46
   0   5   3    0.23    0.57
   0   5   4   -0.06    0.13
   0  -5  -4    0.03    0.81
   0   5   4   -0.13    0.94
   0  -5  -5    1.02    0.89
   0   5   5   -0.54    0.86
   0  -5  -6    0.92    1.02
   0   5   6    1.14    1.07
   0  -5  -7   -0.99    1.06
   0   5   7    0.80    1.01
   0  -5  -8    0.23    0.98
   0   5   8   -0.25    0.98
   0  -5  -9   -0.50    1.36
   0   5   9    0.44    0.91
   0  -5 -10    2.34    1.51
   0   5  10    1.10    1.43
   0  -5 -11    2.82    1.55
   0   5  11   -0.34    1.11
   0  -5 -12   -0.22    1.53
   0   5  12    1.87    1.33
   0  -5 -13    2.80    1.58
   0   5  13    0.24    1.28
   0  -5 -14   -0.77    1.43
   0   5  14    2.54    1.42
   0  -5 -15   -0.78    1.62
   0   5  15    1.41    1.39
   0  -5 -16   -0.41    1.74
   0   5  16    1.07    1.45
   0  -5 -17   -0.64    1.94
   0   5  17    0.16    0.78
   0  -5 -18    0.92    2.03
   0   5  18   -1.11    1.35
   0  -5 -19   -1.69    2.10
   0  -5 -20   -0.09    2.09
   0   6 -24    3.39    2.56
   0   6 -23    3.78    3.16
   0   6 -22    2.88    1.89
   0  -6  21   -0.39    1.15
   0   6 -21    0.78    1.69
   0  -6  20   22.23    3.28
   0   6 -20   16.74    3.04
   0  -6  19    4.69    1.33
   0   6 -19    5.74    2.34
   0  -6  18   30.02    2.69
   0   6 -18   36.39    5.10
   0  -6  17   18.59    2.63
   0   6 -17   17.42    2.65
   0  -6  16  112.78    6.19
   0   6 -16  103.43    5.03
   0  -6  15   84.90   10.57
   0   6 -15   72.92    4.93
   0  -6  14    2.83    0.70
   0   6 -14    2.33    1.17
   0  -6  13   21.01    3.43
   0   6 -13   17.31    3.95
   0  -6  12    5.32    1.41
   0   6 -12    4.71    1.59
   0  -6  11    5.12    1.12
   0   6 -11    4.06    1.16
   0  -6  10   71.62    3.50
   0   6 -10   65.52    3.20
   0  -6   9  136.03    4.79
   0   6  -9  132.50   43.26
   0  -6   8   43.34    2.79
   0   6  -8   45.11    2.88
   0  -6   8   42.71    1.88
   0  -6   7  147.84   43.53
   0   6  -7  144.97    6.45
   0  -6   7  135.57    5.23
   0  -6   6  286.23    8.21
   0   6  -6  299.48    7.08
   0  -6   6  246.00    4.97
   0  -6   5   11.86    2.56
   0   6  -5    9.34    1.05
   0  -6   5    8.92    1.31
   0  -6   4   10.46    2.26
   0   6  -3 1353.95   15.15
   0   6  -3 1185.87   13.86
   0   6  -3 1140.23   12.51
   0   6  -2 1165.40   13.81
   0   6  -2 1037.37   12.53
   0   6  -2 1052.27   12.34
   0   6  -1  296.45    7.39
   0   6  -1  263.33    7.13
   0   6  -1  264.63    6.97
   0   6   0    4.64    0.61
   0   6   0    3.23    0.86
   0   6   0    3.67    0.89
   0   6   1   39.90    2.01
   0  -6  -1   36.70    6.18
   0   6   1   44.38    2.79
   0   6   2  203.53    4.20
   0  -6  -2  169.26   49.79
   0   6   2  191.05    5.43
   0   6   3  138.18    5.37
   0  -6  -3  113.34    5.38
   0   6   3  135.28    6.38
   0  -6  -4  163.68    5.24
   0   6   4  198.53    6.08
   0  -6  -5   10.15    2.34
   0   6   5   12.39    1.71
   0  -6  -6   30.94    2.28
   0   6   6   28.62    3.76
   0  -6  -7  140.05    5.97
   0   6   7  134.16    6.27
   0  -6  -8   -1.72    1.28
   0   6   8   -0.47    1.07
   0  -6  -9   55.41    3.51
   0   6   9   48.20    3.24
   0  -6 -10   54.29    4.11
   0   6  10   49.81   27.61
   0  -6 -11   35.22    5.99
   0   6  11   29.86    2.91
   0  -6 -12   37.92    8.46
   0   6  12   30.46    3.15
   0  -6 -13   31.54    6.40
   0   6  13   29.61    3.05
   0  -6 -14   10.18    2.48
   0   6  14   10.80    2.29
   0  -6 -15    4.08    2.33
   0   6  15    4.28    1.64
   0  -6 -16    1.98    1.20
   0   6  16    2.90    1.10
   0  -6 -17    0.82    1.89
   0   6  17    0.48    1.50
   0  -6 -18    6.71    3.13
   0   6  18    7.24    2.42
   0  -6 -19   20.81    6.10
   0   7 -24    3.54    3.26
   0   7 -23    0.50    1.89
   0  -7  22    2.39    1.56
   0   7 -22    1.42    1.97
   0  -7  21    1.20    1.39
   0   7 -21    1.27    1.86
   0  -7  20    1.67    0.67
   0   7 -20    2.66    1.77
   0  -7  19    0.15    1.12
   0   7 -19   -0.16    1.58
   0  -7  18   -0.65    1.21
   0   7 -18    0.33    1.46
   0  -7  17   -0.40    1.04
   0   7 -17    1.37    1.56
   0  -7  16    0.12    0.66
   0   7 -16    0.14    1.31
   0  -7  15    2.28    1.13
   0   7 -15   -0.77    1.24
   0  -7  14    2.17    1.28
   0   7 -14    0.64    1.32
   0  -7  13    0.87    0.50
   0   7 -13    0.22    1.24
   0  -7  12    0.47    0.45
   0   7 -12   -0.34    1.18
   0  -7  11    1.89    1.29
   0   7 -11    0.15    1.09
   0  -7  10   -0.75    1.05
   0  -7   9    1.27    0.63
   0   7  -9    1.60    1.10
   0  -7   8    0.46    0.73
   0   7  -8    1.13    1.03
   0  -7   8    0.44    0.27
   0  -7   7    0.58    0.37
   0   7  -7   -0.63    0.87
   0  -7   7   -0.24    0.25
   0  -7   6    0.19    0.40
   0   7  -6   -0.08    0.84
   0  -7   6    0.21    0.23
   0  -7   5   -0.02    0.67
   0   7  -5    0.02    0.76
   0   7  -5    0.33    0.22
   0  -7   4    0.54    0.38
   0   7  -4   -0.28    0.73
   0   7  -4    0.04    0.42
   0  -7   3   -0.31    0.56
   0   7  -3   -1.18    0.74
   0   7  -3    0.02    0.20
   0   7  -2   -0.32    0.61
   0   7  -2   -0.98    0.72
   0   7  -2   -1.34    0.64
   0   7  -1    0.31    0.52
   0   7  -1   -0.19    0.79
   0   7  -1    0.55    0.74
   0   7   0   -0.77    0.49
   0   7   0    0.85    0.88
   0   7   0    0.63    0.70
   0   7   1    0.11    0.27
   0  -7  -1   -0.30    0.52
   0   7   1   -0.88    0.76
   0   7   2    0.26    0.36
   0  -7  -2   -1.36    0.75
   0   7   2    0.71    0.83
   0  -7  -3    0.07    0.53
   0   7   3    0.18    0.96
   0  -7  -4   -1.73    0.96
   0   7   4    0.17    0.94
   0   7   5    0.31    1.11
   0  -7  -6    2.66    1.25
   0   7   6    1.13    1.20
   0  -7  -7    0.66    0.93
   0   7   7    0.50    1.22
   0  -7  -8    0.16    0.62
   0   7   8   -0.68    1.14
   0  -7  -9   -0.33    1.18
   0   7   9   -0.20    1.23
   0  -7 -10    1.50    1.50
   0   7  10    0.40    1.28
   0  -7 -11    0.88    1.61
   0   7  11    0.29    1.35
   0  -7 -12    1.23    1.60
   0   7  12    0.79    1.62
   0  -7 -13    1.08    1.72
   0   7  13    0.66    1.40
   0  -7 -14    0.97    1.21
   0   7  14    2.79    2.26
   0  -7 -15    3.96    1.73
   0   7  15   -0.53    1.28
   0  -7 -16   -0.49    1.73
   0   7  16    1.14    1.50
   0  -7 -17    0.59    2.07
   0   7  17    2.16    2.24
   0  -7 -18    0.76    2.10
   0   8 -24    2.85    2.39
   0   8 -23   12.63    4.55
   0  -8  22   34.84    4.95
   0   8 -22   40.06    5.72
   0  -8  21    8.46    1.96
   0   8 -21    7.03    2.13
   0  -8  20   25.22    2.95
   0   8 -20   21.92    3.34
   0  -8  19    2.73    1.56
   0   8 -19    3.27    1.71
   0  -8  18   10.93    2.68
   0   8 -18   14.20    3.03
   0  -8  17    0.20    0.58
   0   8 -17   -0.56    1.39
   0  -8  16   -0.04    1.14
   0   8 -16   -0.74    1.29
   0  -8  15    7.33    1.19
   0   8 -15    6.60    2.02
   0  -8  14   16.80    2.42
   0   8 -14   11.23    1.99
   0  -8  13   10.68    2.37
   0   8 -13   10.03    2.06
   0  -8  12   -1.05    1.18
   0   8 -12    0.33    1.21
   0  -8  11  107.18    5.24
   0   8 -11   87.57    3.93
   0  -8  10  686.57   22.07
   0   8 -10  704.23   21.32
   0  -8   9   -0.16    1.36
   0   8  -9    0.53    1.09
   0  -8   8  283.30   11.50
   0   8  -8  280.60   11.21
   0  -8   7   98.69    3.84
   0   8  -7  112.49    4.05
   0  -8   7   77.44    3.12
   0  -8   6  234.06    6.69
   0   8  -6  235.91    6.67
   0  -8   6  177.58    4.35
   0  -8   5  202.82    6.31
   0   8  -5  210.49    6.09
   0   8  -5  199.07    5.16
   0  -8   4    4.04    0.81
   0   8  -4    4.25    1.23
   0   8  -4    4.37    0.89
   0  -8   3   99.98    3.29
   0   8  -3   99.62    3.70
   0   8  -3   98.68    3.38
   0  -8   2   24.14    4.54
   0   8  -2   26.78    1.89
   0   8  -2   26.53    1.71
   0  -8   1   74.47    3.30
   0   8  -1   79.45    3.39
   0   8  -1   81.78    3.08
   0  -8  -1  316.92    8.29
   0  -8  -2   12.47    2.53
   0  -8  -2   20.13    4.35
   0   8   2   16.57    1.95
   0  -8  -3   26.52    4.57
   0   8   3   29.77    2.48
   0  -8  -4  330.70   11.09
   0   8   4  395.49   12.90
   0  -8  -5   14.12    2.16
   0   8   5   14.47    1.91
   0  -8  -6   54.63    7.58
   0   8   6   44.98    3.06
   0  -8  -7    9.41    1.77
   0   8   7    5.81    1.72
   0  -8  -8   27.63    4.13
   0   8   8   22.36    2.90
   0  -8  -9   17.09    2.42
   0   8   9   16.24    2.44
   0  -8 -10   30.46    9.57
   0   8  10   22.22    2.45
   0  -8 -11    5.22    1.14
   0   8  11    2.57    1.63
   0  -8 -12    1.76    0.90
   0   8  12    1.84    1.63
   0  -8 -13   36.42    7.45
   0   8  13   37.03    7.55
   0  -8 -14   10.92    1.98
   0   8  14    9.00    2.35
   0  -8 -15   28.47    4.50
   0   8  15   17.22    3.32
   0  -8 -16    7.00    2.83
   0   8  16   10.35    2.75
   0  -8 -17    1.51    2.13
   0   8  17    0.50    1.66
   0   9 -23    1.46    1.93
   0  -9  22   -0.29    1.41
   0   9 -22    0.76    1.72
   0  -9  21    1.12    1.56
   0   9 -21    2.26    1.72
   0  -9  20    1.99    1.61
   0   9 -20    0.17    1.54
   0  -9  19    1.76    0.95
   0   9 -19    0.95    1.57
   0  -9  18    2.79    1.43
   0   9 -18    2.76    1.58
   0  -9  17   -0.90    1.20
   0   9 -17    2.83    1.90
   0  -9  16    0.28    1.13
   0   9 -16    1.84    1.41
   0  -9  15   -0.37    1.28
   0   9 -15    0.33    1.25
   0  -9  14    0.90    1.09
   0   9 -14    0.41    1.19
   0  -9  13    0.02    0.76
   0   9 -13    0.91    1.24
   0  -9  12   -1.00    1.34
   0   9 -12    0.11    1.23
   0  -9  11    1.97    0.89
   0   9 -11   -0.49    1.17
   0  -9  10    0.63    0.98
   0   9 -10    1.30    1.22
   0  -9   9   -0.32    1.18
   0   9  -9   -0.67    1.10
   0  -9   8    1.20    0.83
   0   9  -8    0.37    1.00
   0  -9   8    0.33    0.14
   0  -9   7    1.11    0.91
   0   9  -7    1.14    1.38
   0  -9   7    0.40    0.22
   0  -9   6    0.71    0.46
   0   9  -6   -0.22    0.93
   0   9  -6    1.03    0.90
   0  -9   5    0.11    0.64
   0   9  -5    1.02    0.60
   0   9  -5   -0.09    0.58
   0  -9   4    0.65    0.40
   0   9  -4    0.89    0.94
   0   9  -4    0.02    0.54
   0  -9   3   -0.20    0.57
   0   9  -3    0.16    1.05
   0   9  -3   -0.16    0.62
   0  -9   2   -0.02    0.53
   0   9  -2    0.48    1.09
   0   9  -2   -0.51    0.73
   0  -9   1    0.35    0.31
   0   9  -1    2.25    1.23
   0   9  -1    0.43    0.53
   0  -9   0   -0.69    0.57
   0  -9   0   -0.65    1.02
   0   9   0    0.51    0.95
   0  -9  -1   -0.44    0.47
   0  -9  -1    3.12    1.32
   0   9   1    1.28    1.14
   0  -9  -2    0.36    0.26
   0  -9  -2   -0.54    1.22
   0   9   2    0.54    1.21
   0  -9  -3    0.57    0.86
   0   9   3    0.53    0.56
   0  -9  -4    1.27    0.81
   0   9   4    1.95    1.71
   0  -9  -5   -0.94    1.29
   0   9   5    2.53    1.31
   0  -9  -6    0.99    1.19
   0   9   6    0.43    1.20
   0  -9  -7    1.01    1.25
   0   9   7    2.49    1.42
   0  -9  -8   -0.12    1.33
   0   9   8    0.62    1.25
   0  -9  -9    1.94    1.06
   0   9   9    1.41    1.55
   0  -9 -10    3.55    1.56
   0   9  10   -1.97    1.43
   0  -9 -11   -1.42    1.36
   0   9  11    0.52    1.21
   0  -9 -12    2.04    1.04
   0   9  12    1.97    1.63
   0  -9 -13    0.08    0.66
   0   9  13    1.11    1.73
   0  -9 -14   -0.54    1.54
   0   9  14   -1.69    1.54
   0  -9 -15    0.41    1.80
   0   9  15    4.40    2.07
   0  -9 -16    2.10    2.05
   0   9  16    1.13    1.70
   0  10 -23    1.46    2.03
   0 -10  22    6.90    2.14
   0  10 -22    3.69    2.33
   0 -10  21    1.11    1.59
   0  10 -21    2.13    1.66
   0 -10  20   19.17    3.24
   0  10 -20   11.21    2.78
   0 -10  19    1.84    0.91
   0  10 -19    0.61    1.51
   0 -10  18    4.62    1.19
   0  10 -18    3.66    1.57
   0 -10  17   10.81    2.22
   0  10 -17   10.80    2.12
   0 -10  16    4.85    1.31
   0  10 -16    2.59    1.46
   0 -10  15    0.80    0.64
   0  10 -15    1.49    1.32
   0 -10  14    4.65    1.09
   0  10 -14    1.53    1.29
   0 -10  13    8.84    1.50
   0  10 -13    5.45    1.76
   0 -10  12   81.19   16.08
   0  10 -12   71.49    6.22
   0 -10  11  188.21    7.12
   0  10 -11  180.25    6.55
   0 -10  10  197.36    7.05
   0  10 -10  207.54    7.05
   0 -10   9   48.99    8.22
   0  10  -9   44.96    2.92
   0 -10   8    3.55    0.83
   0  10  -8    2.39    0.93
   0 -10   7  131.49    8.14
   0  10  -7  128.48    5.63
   0 -10   7   97.16    4.52
   0 -10   6    1.53    0.58
   0  10  -6    1.00    0.50
   0  10  -6    0.61    0.36
   0 -10   5    6.74    0.99
   0  10  -5    5.97    1.37
   0  10  -5    5.38    0.96
   0 -10   4   47.40    7.64
   0  10  -4   43.32    2.64
   0  10  -4   41.65    2.30
   0 -10   3   40.48    8.59
   0  10  -3   49.42    2.94
   0  10  -3   41.95    2.35
   0 -10   2  134.87    5.17
   0  10  -2  142.24    6.04
   0  10  -2  134.96    5.39
   0 -10   1   -0.66    0.86
   0  10  -1    4.46    1.48
   0  10  -1    2.77    0.94
   0 -10   0  572.15    8.59
   0 -10   0  554.07    9.25
   0  10   0  597.03    9.18
   0 -10  -1 1727.39   16.58
   0 -10  -2   17.41    6.62
   0  10   2   21.01    2.72
   0 -10  -3   13.37    2.08
   0  10   3   10.41    1.92
   0 -10  -4    0.84    0.41
   0  10   4    1.01    1.26
   0 -10  -5   32.85    4.89
   0  10   5   31.28    2.86
   0 -10  -6    0.18    1.20
   0  10   6   -1.45    1.24
   0 -10  -7    3.10    1.32
   0  10   7    5.01    1.72
   0 -10  -8   16.82    2.51
   0  10   8   15.99    2.62
   0 -10  -9   21.26    2.78
   0  10   9   16.67    2.96
   0 -10 -10   38.51    3.79
   0  10  10   26.70    3.28
   0 -10 -11    3.55    1.61
   0  10  11    3.21    1.63
   0 -10 -12    4.42    1.79
   0  10  12    3.62    2.09
   0 -10 -13    8.71    2.58
   0  10  13    5.72    3.44
   0 -10 -14   44.92    5.99
   0  10  14   34.89    5.18
   0 -10 -15   13.96    4.47
   0  10  15    3.70    1.50
   0 -11  22   -1.82    1.51
   0  11 -22    0.21    1.58
   0 -11  21    1.72    1.17
   0  11 -21   -0.05    1.40
   0 -11  20   -0.02    1.61
   0  11 -20   -1.60    1.51
   0 -11  19    2.46    0.93
   0  11 -19    0.71    1.57
   0 -11  18    2.33    1.26
   0  11 -18    0.49    1.49
   0 -11  17    2.10    1.16
   0  11 -17    0.10    1.41
   0 -11  16    1.26    0.93
   0  11 -16    0.35    1.27
   0 -11  15   -0.52    1.40
   0  11 -15    0.70    1.32
   0 -11  14    0.87    0.84
   0  11 -14    1.51    1.31
   0 -11  13    0.49    1.15
   0  11 -13   -0.49    1.14
   0 -11  12   -0.01    1.39
   0  11 -12    1.96    0.82
   0 -11  11    1.23    0.66
   0  11 -11    2.11    1.30
   0 -11  10    0.61    1.02
   0  11 -10    1.05    1.12
   0 -11   9   -0.28    1.05
   0  11  -9    0.34    1.02
   0 -11   8    0.73    0.97
   0  11  -8   -0.09    0.95
   0 -11   7    1.66    1.40
   0  11  -7    1.08    0.68
   0 -11   7   -0.07    0.47
   0 -11   6    1.54    0.65
   0  11  -6    1.43    0.98
   0  11  -6    0.43    0.46
   0 -11   5    0.12    0.43
   0  11  -5    2.54    1.47
   0  11  -5    1.21    0.51
   0 -11   4    0.63    0.71
   0  11  -4    0.20    0.80
   0  11  -4   -0.34    0.74
   0 -11   3    0.82    0.48
   0  11  -3    1.01    1.08
   0  11  -3    1.10    0.91
   0 -11   2    0.17    0.32
   0  11  -2   -1.29    1.08
   0  11  -2   -1.00    0.94
   0 -11   1    0.04    0.36
   0  11  -1   -0.02    1.07
   0 -11   0    0.19    0.28
   0 -11   0   -0.20    0.83
   0  11   0    0.67    0.64
   0  11   1    1.37    0.89
   0 -11  -2    0.63    1.31
   0  11   2   -1.81    1.17
   0 -11  -3   -0.20    1.06
   0  11   3    0.50    1.17
   0 -11  -4    1.10    0.71
   0  11   4    0.77    1.21
   0 -11  -5    0.74    0.76
   0  11   5    0.88    1.40
   0 -11  -6   -0.26    1.24
   0  11   6    0.11    1.41
   0 -11  -7    0.01    1.18
   0  11   7    1.18    1.59
   0 -11  -8    3.38    1.51
   0  11   8    1.89    1.71
   0 -11  -9    3.29    1.66
   0  11   9   -0.37    1.39
   0 -11 -10    0.82    1.40
   0  11  10   -1.88    1.55
   0 -11 -11   -2.77    1.22
   0  11  11    1.58    1.65
   0 -11 -12    3.31    2.29
   0  11  12    2.63    1.90
   0 -11 -13    0.70    1.85
   0 -11 -14   -0.67    1.84
   0  11  14    0.60    1.90
   0 -12  22    7.46    2.46
   0  12 -22    6.09    2.18
   0 -12  21   -0.33    1.66
   0  12 -21   -0.03    1.38
   0 -12  20    6.75    1.90
   0  12 -20    4.53    1.89
   0 -12  19   12.00    4.01
   0  12 -19    6.14    2.40
   0 -12  18    2.09    1.13
   0  12 -18    2.48    0.93
   0 -12  17    8.67    1.74
   0  12 -17    7.65    1.94
   0 -12  16    5.28    1.18
   0  12 -16    4.46    1.99
   0 -12  15    2.65    1.71
   0  12 -15    1.25    1.44
   0 -12  14   -0.10    0.80
   0  12 -14    2.26    1.62
   0 -12  13    5.57    1.67
   0  12 -13    3.83    1.87
   0 -12  12    6.65    1.53
   0  12 -12    6.08    2.21
   0 -12  11    1.05    0.55
   0  12 -11    0.82    1.08
   0 -12  10    3.86    0.90
   0  12 -10    4.05    1.24
   0 -12   9   96.12   15.08
   0  12  -9   73.06    4.91
   0 -12   8   36.35    6.68
   0  12  -8   36.39    5.70
   0 -12   7   16.59    3.09
   0  12  -7   17.23    2.39
   0 -12   7    5.67    1.95
   0 -12   6   47.28   26.58
   0  12  -6   42.07    3.04
   0  12  -6   30.68    4.39
   0 -12   5    1.09    0.51
   0  12  -5    1.41    1.15
   0  12  -5    0.65    0.73
   0 -12   4    0.65    0.34
   0  12  -4    2.25    1.64
   0  12  -4    2.56    1.08
   0 -12   3   96.60    9.53
   0  12  -3  115.98    6.46
   0  12  -3   89.94    5.43
   0 -12   2   82.50   13.60
   0  12  -2  100.25    5.59
   0  12  -2   96.54    5.25
   0 -12   1   21.19    5.02
   0 -12   1   24.48    5.16
   0  12  -1   26.21    2.29
   0 -12   0   68.49   11.28
   0  12   0   61.15    4.17
   0 -12  -1   82.83   12.07
   0  12   1   79.75    4.09
   0 -12  -2   54.99    8.66
   0  12   2   50.76    9.83
   0 -12  -3   24.45    4.63
   0  12   3   16.67    3.20
   0 -12  -4   10.24    2.22
   0  12   4    7.03    2.17
   0 -12  -5    3.22    1.04
   0  12   5    4.75    1.06
   0 -12  -6   56.22    5.10
   0  12   6   35.96    3.82
   0 -12  -7  120.68    5.98
   0  12   7  103.66    5.59
   0 -12  -8   60.83    4.57
   0  12   8   48.44    3.84
   0 -12 -10    4.13    1.81
   0  12  10    2.01    1.81
   0 -12 -11   14.31    2.66
   0  12  11   10.40    2.82
   0 -12 -12   26.22    6.89
   0  12  12   14.81    6.47
   0  12  13    1.61    1.15
   0 -13  21    2.23    1.93
   0  13 -21   -0.36    1.64
   0 -13  20    0.30    0.83
   0  13 -20   -0.53    1.43
   0 -13  19    1.54    0.99
   0  13 -19    0.28    0.96
   0 -13  18   -0.42    1.63
   0  13 -18   -2.08    1.61
   0 -13  17    1.30    0.97
   0  13 -17    1.80    0.93
   0 -13  16    1.74    1.11
   0  13 -16    0.10    1.29
   0 -13  15    0.54    0.63
   0  13 -15   -1.07    1.18
   0 -13  14    0.34    1.06
   0  13 -14    0.24    1.21
   0 -13  13    0.87    0.87
   0  13 -13    2.03    1.36
   0 -13  12    1.95    1.03
   0  13 -12    0.38    1.20
   0 -13  11    1.31    1.05
   0  13 -11    2.24    1.22
   0 -13  10   -0.17    1.15
   0  13 -10    0.94    1.21
   0  13  -9    0.40    0.89
   0 -13   8    0.70    0.37
   0  13  -8    1.07    1.26
   0 -13   7    1.07    0.66
   0  13  -7    0.51    1.20
   0 -13   6    0.34    0.57
   0  13  -6   -0.68    0.97
   0  13  -6   -0.21    0.65
   0 -13   5    0.52    0.33
   0  13  -5    1.42    0.58
   0  13  -5    1.03    0.80
   0 -13   4    0.36    0.55
   0  13  -4    2.72    1.58
   0  13  -4    0.68    0.81
   0 -13   3    1.10    0.66
   0  13  -3    0.28    0.62
   0  13  -3   -1.16    0.88
   0 -13   2   -0.28    0.71
   0 -13   2   -0.22    1.08
   0  13  -2    0.76    0.65
   0 -13   1    2.08    0.67
   0  13  -1    0.73    0.69
   0 -13   0    0.95    0.66
   0  13   0    0.29    1.07
   0 -13  -1    1.71    0.71
   0  13   1    1.59    1.29
   0 -13  -2    1.36    1.12
   0  13   2   -0.63    1.32
   0 -13  -3    0.24    0.60
   0  13   3   -0.93    1.36
   0 -13  -4    0.81    0.67
   0  13   4   -1.53    1.43
   0 -13  -5    0.41    0.51
   0  13   5    0.86    1.18
   0 -13  -6    1.01    1.46
   0  13   6    0.74    1.22
   0 -13  -7    0.63    1.42
   0  13   7   -1.47    1.60
   0 -13  -8    5.53    2.27
   0  13   8   -1.38    1.63
   0 -13  -9    1.35    1.17
   0  13   9   -0.01    1.05
   0 -13 -10    0.06    1.46
   0  13  10    1.66    1.22
   0 -13 -11   -0.15    1.64
   0  13  11    1.28    0.83
   0  13  12    0.39    1.83
   0 -14  21    1.75    1.92
   0 -14  20    2.25    1.32
   0  14 -20    1.31    1.73
   0 -14  19    1.29    0.83
   0  14 -19    3.13    1.67
   0 -14  18   10.55    3.63
   0  14 -18   12.04    2.84
   0 -14  17   16.53    4.07
   0  14 -17    9.06    2.61
   0 -14  16    1.71    0.93
   0  14 -16    3.93    2.05
   0 -14  15   16.46    2.89
   0  14 -15   14.67    2.53
   0 -14  14    3.29    1.36
   0  14 -14    0.66    1.24
   0 -14  13    3.43    0.98
   0  14 -13    7.23    2.07
   0 -14  12   31.92    6.19
   0  14 -12   26.74    3.29
   0 -14  11    0.00    1.32
   0  14 -11    2.36    0.80
   0 -14  10   23.01    4.87
   0  14 -10   23.21    2.86
   0 -14   9    2.86    0.86
   0  14  -9    4.15    1.76
   0 -14   8   22.62    5.20
   0  14  -8   22.41    2.64
   0 -14   7   27.14    3.53
   0  14  -7   30.15    3.20
   0 -14   6   20.72    2.82
   0  14  -6   12.76    2.70
   0  14  -6   10.59    2.50
   0 -14   5    8.19    1.17
   0  14  -5    8.60    1.98
   0  14  -5    7.20    1.37
   0 -14   4   -0.58    0.85
   0  14  -4    2.57    1.79
   0  14  -4    0.32    0.86
   0 -14   3    8.48    2.01
   0  14  -3    8.63    1.56
   0 -14   2    8.52    1.73
   0  14  -2   11.05    1.99
   0 -14   1   15.59    4.02
   0  14  -1   19.48    3.17
   0 -14   0   13.79    2.71
   0  14   0   10.62    2.41
   0 -14  -1    9.45    1.63
   0  14   1   12.78    2.04
   0 -14  -2   11.05    2.20
   0  14   2    9.15    1.71
   0 -14  -3   33.41    5.76
   0  14   3   30.82    3.08
   0 -14  -4   53.09    7.67
   0  14   4   40.64    3.80
   0 -14  -5    1.07    0.70
   0  14   5    0.38    1.58
   0 -14  -6    4.75    1.77
   0  14   6    4.38    1.70
   0 -14  -7   46.08    6.01
   0  14   7   36.41    5.11
   0 -14  -8   12.05    3.74
   0  14   8   12.79    3.32
   0 -14  -9   -0.15    1.38
   0  14   9    5.62    2.20
   0  14  10   -0.30    1.76
   0  14  11   10.34    3.52
   0 -15  20    1.30    1.84
   0 -15  19   -0.16    1.71
   0 -15  18    0.33    0.90
   0  15 -18   -0.72    1.36
   0 -15  17    2.11    1.07
   0  15 -17    1.15    1.49
   0 -15  16    1.19    0.91
   0  15 -16    3.15    2.31
   0 -15  15    2.27    0.98
   0  15 -15   -1.17    1.37
   0 -15  14    1.94    1.14
   0  15 -14    1.93    1.36
   0 -15  13    0.48    0.78
   0  15 -13   -0.73    1.05
   0 -15  12   -2.20    1.37
   0  15 -12    3.64    1.39
   0 -15  11    2.07    0.90
   0  15 -11    0.70    1.13
   0 -15  10    0.46    0.64
   0  15 -10   -0.43    1.04
   0 -15   9    2.50    0.87
   0  15  -9   -0.11    1.04
   0 -15   8    1.09    0.67
   0  15  -8   -0.04    1.00
   0 -15   7   -0.08    1.03
   0  15  -7    0.22    1.00
   0 -15   6    1.51    0.91
   0  15  -6    3.72    1.86
   0 -15   5    0.66    0.77
   0  15  -5    1.38    1.15
   0  15  -4   -0.62    0.96
   0  15  -4    0.16    0.60
   0 -15   3    1.45    0.71
   0  15  -3    1.80    1.27
   0 -15   2    0.75    1.16
   0  15  -2   -0.50    1.23
   0 -15   1    0.34    0.65
   0  15  -1   -0.06    1.12
   0 -15   0    1.66    0.88
   0  15   0    2.05    0.69
   0 -15  -1    1.04    0.58
   0  15   1    0.01    1.09
   0 -15  -2    0.66    0.85
   0  15   2    0.60    0.88
   0 -15  -3    0.90    0.82
   0  15   3   -0.15    1.11
   0 -15  -4    2.33    1.06
   0  15   4    0.38    1.64
   0 -15  -5    2.17    1.59
   0  15   5    0.92    1.57
   0 -15  -6    1.90    1.82
   0  15   6    0.94    1.58
   0 -15  -7    3.36    1.75
   0  15   7   -0.09    1.58
   0  15   8   -1.45    1.86
   0 -16  19    2.37    1.52
   0 -16  18    7.06    2.17
   0 -16  17   13.23    4.18
   0  16 -17    5.56    2.42
   0 -16  16   13.33    2.93
   0  16 -16   11.60    2.70
   0 -16  15    6.89    1.79
   0  16 -15    5.42    1.87
   0 -16  14   21.80    4.65
   0  16 -14   14.88    3.17
   0 -16  13    5.16    1.62
   0  16 -13    3.33    1.68
   0 -16  12    1.77    0.98
   0  16 -12    2.60    1.45
   0 -16  11    1.48    1.65
   0  16 -11    4.28    1.89
   0 -16  10    0.88    0.83
   0  16 -10    1.26    1.26
   0 -16   9    5.58    1.18
   0  16  -9    6.40    2.10
   0 -16   8   15.86    4.85
   0  16  -8   10.30    1.90
   0 -16   7    6.29    1.12
   0  16  -7    3.46    1.37
   0  16  -6   26.08    2.94
   0  16  -5    6.12    2.16
   0 -16   4    6.69    2.47
   0 -16   3   14.51    3.91
   0 -16   2   22.64    3.53
   0  16  -2   16.97    2.46
   0 -16   1   31.52    7.30
   0  16  -1   25.31    6.72
   0 -16   0    2.56    1.01
   0  16   0    2.86    1.54
   0 -16  -1   -0.54    1.35
   0  16   1   -0.43    1.30
   0 -16  -2    1.21    0.72
   0  16   2    1.29    1.50
   0 -16  -3   14.39    3.00
   0  16   3   13.60    2.46
   0 -16  -4   12.19    3.90
   0  16   4   13.34    3.88
   0  16   5    4.22    1.95
   0  16   6    0.00    1.87
   0 -17  16   -0.27    0.82
   0 -17  15    1.11    1.20
   0 -17  14    1.93    0.51
   0  17 -14   -0.48    1.37
   0 -17  13    0.92    0.40
   0  17 -13    0.65    1.40
   0 -17  12    2.50    1.67
   0  17 -12   -0.36    1.29
   0 -17  11    1.02    0.56
   0  17 -11    0.09    1.35
   0 -17  10    0.14    0.78
   0  17 -10    1.83    1.51
   0  17  -9    0.01    1.33
   0  17  -8   -0.78    1.33
   0  17  -7    0.39    1.40
   0  17  -6    0.33    1.32
   0 -17   5    0.52    0.97
   0 -17   4    0.64    0.69
   0 -17   3   -0.17    1.25
   0 -17   2    1.27    0.63
   0 -17   1    0.09    0.52
   0 -17   0    0.51    0.59
   0  18  -9    1.49    1.52
   0  18  -8    1.32    1.51
   0  18  -7    5.62    1.88
   1 -18   1    2.44    1.60
   1 -18   2    2.66    1.50
   1 -18   3   -0.91    1.37
   1 -18   4   24.54    6.40
   1 -18   5    4.17    1.31
  -1  18  -6    1.69    1.78
  -1  18  -7   10.59    2.74
  -1  18  -8   55.15    7.26
  -1  18  -9   20.16    3.99
  -1  18 -10    0.29    1.39
  -1  18 -11    3.49    2.13
  -1  18 -12    1.29    1.52
  -1  18 -13    3.19    2.36
  -1  18 -14    1.15    1.74
   1 -17  -3    0.78    1.24
   1 -17  -2    0.95    0.44
   1 -17  -1   -0.32    0.58
   1 -17   0    1.98    0.59
   1 -17   1    2.11    1.56
   1 -17   2    2.84    1.22
   1 -17   3    1.64    1.16
   1 -17   4   -1.27    1.14
  -1  17  -5    0.22    1.51
  -1  17  -6   -1.13    1.48
  -1  17  -7    1.64    1.66
  -1  17  -8   -0.32    1.57
   1 -17   9    1.64    0.89
  -1  17  -9    0.84    1.54
   1 -17  10    0.76    1.20
  -1  17 -10    0.07    1.49
   1 -17  11    0.67    0.72
  -1  17 -11    0.52    1.55
   1 -17  12   -0.29    1.35
  -1  17 -12    1.25    1.62
   1 -17  13    0.88    1.52
  -1  17 -13    1.86    1.63
   1 -17  14   -0.15    1.47
  -1  17 -14    0.59    1.41
   1 -17  15    0.56    1.71
  -1  17 -15   -0.55    1.45
   1 -17  16   -0.33    1.69
  -1  17 -16    2.16    1.81
   1 -17  17    2.31    1.97
   1 -16  -6   18.08    5.00
  -1  16   6   18.92    5.17
   1 -16  -5    0.31    0.83
  -1  16   5    2.38    1.71
   1 -16  -4    1.75    1.02
  -1  16   4    1.78    1.66
   1 -16  -3   -1.32    1.39
  -1  16   3   -0.67    1.40
   1 -16  -2    1.18    0.94
  -1  16   2   -0.96    1.43
   1 -16  -1   26.55    5.29
  -1  16   1   26.85    3.92
   1 -16   0    1.16    0.86
  -1  16   0    3.08    2.04
   1 -16   1   25.37    5.35
  -1  16  -1   20.66    5.17
   1 -16   2    2.14    0.99
   1 -16   3    4.86    1.09
  -1  16  -4   23.96    3.08
  -1  16  -5   15.44    2.73
  -1  16  -6    1.56    1.47
   1 -16   7    1.80    0.72
  -1  16  -7    2.14    1.88
   1 -16   8    0.10    0.65
  -1  16  -8    0.90    1.39
   1 -16   9    1.49    0.81
  -1  16  -9    1.59    1.48
   1 -16  10    2.42    1.08
  -1  16 -10   -0.60    1.40
   1 -16  11    0.93    0.79
  -1  16 -11   -0.45    1.47
   1 -16  12   34.63    7.75
  -1  16 -12   36.34    3.85
   1 -16  13    5.26    2.48
  -1  16 -13    5.58    2.54
   1 -16  14    0.25    1.01
  -1  16 -14    1.42    1.61
   1 -16  15    1.17    1.79
  -1  16 -15    2.23    1.08
   1 -16  16    9.79    2.82
  -1  16 -16    5.08    1.84
   1 -16  17    0.57    0.92
  -1  16 -17   -0.89    1.45
   1 -16  18   10.42    3.70
  -1  16 -18    2.82    1.88
   1 -16  19    3.82    2.71
  -1  15   9    1.56    0.86
   1 -15  -8   -0.76    1.71
  -1  15   8    1.66    0.78
   1 -15  -7    0.02    1.56
  -1  15   7    2.15    1.51
   1 -15  -6    2.68    1.91
  -1  15   6   -1.25    1.53
   1 -15  -5   -1.16    1.32
  -1  15   5    1.02    1.00
   1 -15  -4    0.97    1.00
  -1  15   4   -1.52    1.18
   1 -15  -3   -0.28    1.33
  -1  15   3   -0.75    1.25
   1 -15  -2    0.91    0.58
  -1  15   2    1.27    1.05
   1 -15  -1   -0.26    1.35
  -1  15   1    0.28    1.22
   1 -15   0    1.24    1.30
  -1  15   0   -1.13    1.13
   1 -15   1    3.16    1.58
  -1  15  -1    0.60    0.71
   1 -15   2   -0.36    1.14
  -1  15  -2    0.83    0.88
  -1  15  -3    1.04    1.17
  -1  15  -4    4.02    1.25
  -1  15  -4    1.89    1.15
   1 -15   5   -1.49    0.94
  -1  15  -5    2.50    2.03
   1 -15   6   -0.91    0.98
  -1  15  -6    2.94    1.46
   1 -15   7    1.12    0.84
  -1  15  -7    0.95    1.30
   1 -15   8   -0.10    1.08
  -1  15  -8    0.20    1.21
  -1  15  -9    1.14    1.28
   1 -15  10    1.11    0.79
  -1  15 -10    2.96    1.99
   1 -15  11   -0.14    0.83
  -1  15 -11    0.11    1.31
   1 -15  12    1.43    1.48
  -1  15 -12    2.20    1.44
   1 -15  13    0.57    0.81
  -1  15 -13   -0.80    1.43
   1 -15  14   -0.29    1.46
  -1  15 -14    2.18    2.11
   1 -15  15    0.68    0.79
  -1  15 -15    0.48    1.41
   1 -15  16    0.96    1.59
  -1  15 -16   -0.63    1.36
   1 -15  17   -0.11    1.70
  -1  15 -17    0.23    1.49
   1 -15  18    1.65    1.63
  -1  15 -18    1.10    1.62
   1 -15  19   -0.10    1.75
  -1  15 -19    1.26    1.66
   1 -15  20   -0.09    0.96
  -1  15 -20    2.50    2.07
  -1  14  11    3.40    2.43
   1 -14 -10    1.77    0.67
  -1  14  10    0.73    1.92
   1 -14  -9    1.61    1.75
  -1  14   9    2.21    2.04
   1 -14  -8    3.85    1.27
  -1  14   8    1.24    1.83
   1 -14  -7    7.03    1.79
  -1  14   7    3.52    1.76
   1 -14  -6   48.19   10.91
  -1  14   6   50.67    6.44
   1 -14  -5   21.17    3.98
  -1  14   5   18.48    2.98
   1 -14  -4   19.31    4.01
  -1  14   4   12.81    2.64
   1 -14  -3   11.95    2.35
  -1  14   3    7.33    1.97
   1 -14  -2    9.16    1.36
  -1  14   2    7.42    1.66
   1 -14  -1   36.78    5.30
  -1  14   1   32.90    3.42
   1 -14   0    9.67    2.45
  -1  14   0    4.77    1.27
   1 -14   1   22.33    4.31
  -1  14  -1   16.96    3.18
   1 -14   2   27.96    6.19
  -1  14  -2   29.55   15.73
   1 -14   3   39.66    9.33
  -1  14  -3   51.77    4.81
  -1  14  -3   46.25    4.19
   1 -14   4   16.60    3.25
  -1  14  -4   23.69    3.57
  -1  14  -4   11.77    2.22
   1 -14   5    1.22    0.48
  -1  14  -5    1.45    1.22
  -1  14  -5    1.52    1.11
   1 -14   6    0.41    0.41
  -1  14  -6    2.53    1.35
   1 -14   7   96.17   14.20
  -1  14  -7   85.13    6.69
   1 -14   8   10.68    1.99
  -1  14  -8    9.00    1.86
   1 -14   9    4.06    0.88
  -1  14  -9    4.17    1.87
   1 -14  10    3.23    1.25
  -1  14 -10    3.85    1.56
   1 -14  11    2.78    1.24
  -1  14 -11    1.15    1.26
   1 -14  12   29.54    6.68
  -1  14 -12   21.83    2.95
   1 -14  13   94.90   16.87
  -1  14 -13   78.73    5.09
   1 -14  14    8.90    3.24
  -1  14 -14    7.69    2.21
   1 -14  15    2.93    1.87
  -1  14 -15    0.41    1.48
   1 -14  16   20.13    5.33
  -1  14 -16   20.84    2.81
   1 -14  17    4.01    2.10
  -1  14 -17    3.99    2.14
   1 -14  18    1.43    1.22
  -1  14 -18    1.69    1.55
   1 -14  19   -0.64    1.65
  -1  14 -19   -1.38    1.61
   1 -14  20   27.40    9.24
  -1  14 -20   13.38    5.47
   1 -14  21    1.05    1.93
  -1  14 -21   -0.95    1.99
   1 -13 -12    0.00    1.75
  -1  13  12   -0.43    1.72
   1 -13 -11    1.02    1.62
  -1  13  11   -0.84    1.67
   1 -13 -10    2.07    1.78
  -1  13  10    1.84    1.81
   1 -13  -9    0.91    1.50
  -1  13   9    0.17    1.53
   1 -13  -8   -2.04    1.37
  -1  13   8   -0.14    1.52
   1 -13  -7    0.37    1.38
  -1  13   7    2.07    1.69
   1 -13  -6   -0.49    1.33
  -1  13   6    1.70    1.59
   1 -13  -5    0.72    1.13
  -1  13   5    2.75    1.53
   1 -13  -4    1.20    0.51
  -1  13   4   -0.77    1.28
   1 -13  -3    0.42    0.97
  -1  13   3   -0.43    1.28
  -1  13   2    4.57    2.19
   1 -13  -1    1.06    0.91
  -1  13   1    0.34    1.09
   1 -13   0    1.51    1.09
  -1  13   0    1.81    1.44
   1 -13   1    0.65    0.57
  -1  13  -1    0.17    0.96
   1 -13   2    1.31    0.55
  -1  13  -2    2.04    1.63
  -1  13  -2    1.13    1.21
   1 -13   3    0.63    0.60
  -1  13  -3    0.43    1.08
  -1  13  -3    0.10    0.75
   1 -13   4   -0.87    0.81
  -1  13  -4    1.50    1.17
  -1  13  -4   -0.01    0.68
   1 -13   5   -0.85    0.80
  -1  13  -5    0.34    1.11
  -1  13  -5    0.79    0.33
   1 -13   6    0.91    0.64
  -1  13  -6    0.63    1.16
  -1  13  -6    0.93    0.68
   1 -13   7    1.19    0.93
  -1  13  -7    1.51    1.26
   1 -13   8   -0.01    1.05
  -1  13  -8    3.81    1.92
   1 -13   9    1.72    0.81
  -1  13  -9   -0.82    1.25
   1 -13  10   -1.31    1.09
  -1  13 -10   -0.23    1.25
   1 -13  11    1.80    0.99
  -1  13 -11    0.19    1.34
   1 -13  12    2.60    1.42
  -1  13 -12    1.73    1.49
   1 -13  13    0.90    0.85
  -1  13 -13    1.80    1.86
   1 -13  14    2.45    1.67
  -1  13 -14    0.87    1.38
   1 -13  15    2.48    1.79
  -1  13 -15    2.99    2.03
   1 -13  16    1.37    1.05
  -1  13 -16    0.36    1.51
   1 -13  17    0.62    1.54
  -1  13 -17    3.22    1.54
   1 -13  18    1.42    1.35
  -1  13 -18   -0.11    1.51
   1 -13  19    2.57    1.86
  -1  13 -19   -0.18    1.49
   1 -13  20    1.62    0.71
  -1  13 -20    0.59    1.62
   1 -13  21   -1.93    1.84
  -1  13 -21    0.84    1.82
   1 -12 -13   15.09    5.82
  -1  12  13   18.21    5.41
   1 -12 -12    2.87    1.98
  -1  12  12    0.84    1.91
   1 -12 -11  138.96   43.84
  -1  12  11  102.51   11.07
   1 -12 -10    7.10    2.31
  -1  12  10    4.69    1.96
   1 -12  -9   12.95    2.30
  -1  12   9   16.48    4.56
   1 -12  -8   19.80    3.09
  -1  12   8   16.76    2.85
   1 -12  -7   36.88    3.63
  -1  12   7   35.25    3.93
   1 -12  -6    0.00    1.26
  -1  12   6    0.46    1.50
   1 -12  -5    1.67    0.70
  -1  12   5    1.30    1.43
   1 -12  -4   11.32    2.75
  -1  12   4    9.44    2.26
   1 -12  -3   24.97    4.23
  -1  12   3   25.72    2.66
   1 -12  -2   19.70    3.27
  -1  12   2   16.87    3.06
   1 -12  -1    6.51    1.71
  -1  12   1    6.37    1.66
   1 -12   0   24.71    3.54
  -1  12   0   17.70    2.12
   1 -12   1   41.75    8.86
  -1  12  -1   51.38    3.68
   1 -12   2  124.42    7.10
  -1  12  -2  119.56    6.71
  -1  12  -2  106.97    5.41
   1 -12   3   12.86    2.92
  -1  12  -3   12.99    2.02
  -1  12  -3    7.97    2.23
   1 -12   4    0.67    0.79
  -1  12  -4    2.01    1.16
  -1  12  -4    0.29    0.70
   1 -12   5  291.86   11.98
  -1  12  -5  251.06   11.09
  -1  12  -5  221.14   10.87
   1 -12   6   -0.02    0.99
  -1  12  -6    1.99    1.27
  -1  12  -6    0.32    0.58
   1 -12   7    4.43    0.99
  -1  12  -7    2.64    1.50
   1 -12   8   85.62    8.80
  -1  12  -8   69.13    4.63
   1 -12   9    7.82    1.58
  -1  12  -9    3.95    1.39
   1 -12  10   14.84    2.87
  -1  12 -10    8.43    1.67
   1 -12  11    3.41    1.20
  -1  12 -11    1.53    1.35
   1 -12  12   17.57    3.23
  -1  12 -12    8.30    1.96
   1 -12  13    9.05    1.69
  -1  12 -13   10.56    2.12
   1 -12  14   32.82    6.35
  -1  12 -14   20.62    3.73
   1 -12  15   -0.54    1.54
  -1  12 -15    3.83    1.70
   1 -12  16    2.58    1.07
  -1  12 -16    2.69    2.12
   1 -12  17   17.12    2.99
  -1  12 -17   10.47    2.19
   1 -12  18   57.79   11.35
  -1  12 -18   47.73   10.17
   1 -12  19   19.51    5.20
  -1  12 -19   18.26    3.44
   1 -12  20   20.81    5.26
  -1  12 -20   12.99    2.69
   1 -12  21    8.24    3.01
  -1  12 -21    8.11    3.55
   1 -12  22    3.65    2.50
  -1  12 -22    4.95    2.42
  -1  11  15    1.95    2.02
   1 -11 -14    1.24    2.06
  -1  11  14    0.79    2.00
   1 -11 -13    0.72    2.27
  -1  11  13   -1.21    1.93
   1 -11 -12    1.65    1.76
  -1  11  12    4.06    2.69
   1 -11 -11    1.79    1.58
  -1  11  11    2.30    2.32
   1 -11 -10   -0.96    1.51
  -1  11  10    1.26    1.57
   1 -11  -9   -0.19    1.41
  -1  11   9    0.49    1.49
   1 -11  -8   -0.23    1.38
  -1  11   8    0.48    1.53
   1 -11  -7    1.15    1.43
  -1  11   7    0.72    1.57
   1 -11  -6   -1.62    1.20
  -1  11   6    1.29    1.55
   1 -11  -5   -0.72    1.35
  -1  11   5    3.69    2.06
   1 -11  -4   -0.83    1.33
  -1  11   4    1.14    1.38
   1 -11  -3   -0.45    1.27
  -1  11   3    0.90    1.31
   1 -11  -2   -0.22    1.19
  -1  11   2    0.20    1.18
   1 -11  -1   -0.31    1.17
  -1  11   1    1.21    1.19
   1 -11   0    0.05    0.64
   1 -11   0    0.07    0.64
  -1  11   0    1.69    1.12
   1 -11   1   -0.42    0.60
  -1  11  -1    2.33    1.36
  -1  11  -1   -0.56    0.92
   1 -11   2   -0.14    0.60
  -1  11  -2   -0.53    1.04
  -1  11  -2    0.65    0.86
   1 -11   3    0.68    0.37
  -1  11  -3   -0.58    0.98
  -1  11  -3    0.85    0.82
   1 -11   4    2.76    1.05
  -1  11  -4    0.66    1.08
  -1  11  -4    0.64    0.75
   1 -11   5    0.34    0.69
  -1  11  -5    0.12    1.07
  -1  11  -5   -0.26    0.62
   1 -11   6    1.45    0.80
  -1  11  -6    0.64    1.16
  -1  11  -6    0.58    0.44
   1 -11   7    0.67    0.77
  -1  11  -7    1.35    0.56
   1 -11   8    1.38    0.58
  -1  11  -8    2.66    1.67
   1 -11   9    1.87    0.47
  -1  11  -9    3.01    1.27
   1 -11  10    0.75    0.83
  -1  11 -10    1.82    1.29
   1 -11  11   -1.61    1.38
  -1  11 -11    1.34    1.29
   1 -11  12   -0.39    1.46
  -1  11 -12    0.63    0.76
   1 -11  13    0.81    1.25
  -1  11 -13    1.18    1.32
   1 -11  14   -1.04    1.44
  -1  11 -14    0.38    1.33
   1 -11  15    1.34    0.86
  -1  11 -15    2.12    1.38
   1 -11  16   -0.07    1.41
  -1  11 -16    0.34    1.38
   1 -11  17    0.40    1.43
  -1  11 -17   -1.67    1.50
   1 -11  18   -0.06    1.00
  -1  11 -18    1.16    1.56
   1 -11  19    2.86    1.12
  -1  11 -19   -0.38    1.66
   1 -11  20    0.96    1.05
  -1  11 -20    0.30    1.74
   1 -11  21   -0.28    1.53
  -1  11 -21    2.32    2.53
   1 -11  22    0.05    1.61
  -1  11 -22   -0.92    1.93
  -1  11 -23    0.44    2.04
   1 -10 -16    2.55    2.18
  -1  10  16    0.22    1.89
   1 -10 -15    4.78    2.31
  -1  10  15    1.50    1.86
   1 -10 -14  131.68   41.66
  -1  10  14   99.03   10.82
   1 -10 -13  177.70    8.68
  -1  10  13  138.64   14.50
   1 -10 -12   11.74    2.47
  -1  10  12    6.42    1.93
   1 -10 -11    5.61    1.76
  -1  10  11    4.88    2.30
   1 -10 -10    1.78    1.02
  -1  10  10    1.05    1.63
   1 -10  -9   15.15    3.18
  -1  10   9   10.90    2.37
   1 -10  -8    2.64    1.34
  -1  10   8    3.08    1.45
   1 -10  -7    1.78    1.92
  -1  10   7   -0.50    1.36
   1 -10  -6  112.79    6.62
  -1  10   6  113.83    7.35
   1 -10  -5  563.18  310.07
  -1  10   5  566.40   22.00
   1 -10  -4  359.74   15.02
  -1  10   4  361.62   14.79
   1 -10  -3    1.02    0.60
  -1  10   3   -1.74    1.38
   1 -10  -2  382.73    9.22
  -1  10   2  407.98    8.13
   1 -10  -1  282.11    4.30
   1 -10  -1  254.75   14.53
  -1  10   1  245.58    6.41
   1 -10   0  376.38   11.37
  -1  10   0  324.92   10.86
   1 -10   1    0.91    0.41
  -1  10  -1    0.68    1.02
  -1  10  -1    2.34    1.07
   1 -10   2    4.22    0.95
  -1  10  -2    5.24    1.36
  -1  10  -2    4.02    1.16
   1 -10   3   38.68    8.20
  -1  10  -3   36.07    2.62
  -1  10  -3   31.64    1.90
   1 -10   4    7.50    1.46
  -1  10  -4    8.75    1.58
  -1  10  -4    4.71    1.52
   1 -10   5    2.01    0.89
  -1  10  -5    0.60    1.03
  -1  10  -5    3.20    0.76
   1 -10   6   12.52    2.25
  -1  10  -6    9.70    1.45
  -1  10  -6    6.76    1.21
   1 -10   7   31.08    6.91
  -1  10  -7   22.98    7.67
   1 -10   8   26.60    5.01
  -1  10  -8   21.33    2.27
   1 -10   9   21.25    6.06
  -1  10  -9   23.28    2.32
   1 -10  10    0.64    0.81
  -1  10 -10    1.68    0.67
   1 -10  11  146.10   19.11
  -1  10 -11  113.01    5.27
   1 -10  12  347.43   14.81
  -1  10 -12  301.17   13.02
   1 -10  13   44.75    6.97
  -1  10 -13   38.57    3.25
   1 -10  14    0.32    0.69
   1 -10  15    1.69    0.61
  -1  10 -15    0.70    1.42
   1 -10  16    9.40    2.18
  -1  10 -16    4.74    2.11
   1 -10  17    2.14    1.63
  -1  10 -17    0.12    1.53
   1 -10  18    5.47    1.87
  -1  10 -18    1.10    1.66
   1 -10  19   67.15   11.74
  -1  10 -19   53.04    4.73
   1 -10  20   95.54   10.55
  -1  10 -20   64.83    7.68
   1 -10  21    4.30    0.96
  -1  10 -21    2.71    1.84
   1 -10  22    8.00    2.08
  -1  10 -22    8.94    3.17
  -1  10 -23   18.83    5.87
  -1   9  17    1.34    1.76
   1  -9 -16    1.12    1.99
  -1   9  16    1.42    1.72
   1  -9 -15    2.54    1.79
   1  -9 -14    2.56    0.95
  -1   9  14    1.18    1.67
   1  -9 -13   -0.06    1.79
  -1   9  13    1.64    1.81
   1  -9 -12    0.92    1.64
  -1   9  12    3.28    1.76
   1  -9 -11    1.28    1.59
  -1   9  11    1.31    1.64
   1  -9 -10   -0.44    1.44
  -1   9  10    0.61    1.51
   1  -9  -9   -0.13    0.93
  -1   9   9   -0.18    1.45
   1  -9  -8    0.73    1.36
  -1   9   8    0.56    1.02
   1  -9  -7    0.38    1.30
  -1   9   7    0.99    0.76
   1  -9  -6   -0.02    1.39
  -1   9   6    3.74    1.95
  -1   9   5    2.09    1.15
   1  -9  -4   -0.09    0.89
  -1   9   4    3.04    1.72
   1  -9  -3    0.13    1.01
  -1   9   3    1.00    0.61
  -1   9   2    1.29    1.11
   1  -9  -1    0.09    0.26
   1  -9  -1    1.08    0.61
  -1   9   1   -1.10    0.90
   1  -9   0   -0.04    0.45
  -1   9   0    0.56    0.96
  -1   9   0    1.31    1.12
   1  -9   1    0.32    0.28
  -1   9  -1    0.71    0.90
  -1   9  -1    0.45    0.73
   1  -9   2    0.55    0.46
  -1   9  -2    0.98    1.17
  -1   9  -2    0.62    0.66
   1  -9   3    0.58    0.51
  -1   9  -3    0.45    0.99
  -1   9  -3   -0.08    0.55
   1  -9   4    0.54    0.39
  -1   9  -4    1.83    1.51
  -1   9  -4   -0.03    0.53
   1  -9   5    0.45    0.58
  -1   9  -5    0.69    0.66
  -1   9  -5    0.21    0.47
   1  -9   6    0.84    0.65
  -1   9  -6    1.36    1.08
  -1   9  -6    0.05    0.42
   1  -9   7   -0.03    0.92
  -1   9  -7   -0.75    0.99
   1  -9   8    0.63    0.69
  -1   9  -8    1.66    1.20
   1  -9   9   -0.09    1.17
  -1   9  -9    0.86    0.68
   1  -9  10   -2.28    1.29
  -1   9 -10   -0.11    1.16
   1  -9  11   -0.12    0.99
  -1   9 -11   -0.61    1.33
   1  -9  12    0.79    1.53
  -1   9 -12   -1.26    1.27
   1  -9  13    0.25    0.48
  -1   9 -13   -0.08    1.23
   1  -9  14   -0.90    1.18
  -1   9 -14    3.03    1.96
   1  -9  15    2.16    0.84
  -1   9 -15   -0.95    1.40
   1  -9  16    0.12    1.33
  -1   9 -16    3.15    1.59
   1  -9  17   -0.10    1.35
  -1   9 -17    0.39    1.43
   1  -9  18    3.03    1.53
  -1   9 -18   -0.19    1.56
   1  -9  19   -0.12    0.79
  -1   9 -19   -0.36    1.54
   1  -9  20    2.27    1.52
  -1   9 -20    1.93    1.74
   1  -9  21    0.69    1.68
  -1   9 -21    4.30    1.97
   1  -9  22    0.65    0.74
  -1   9 -22   -0.04    1.79
  -1   9 -23    3.40    2.79
   1  -8 -18    0.72    2.07
   1  -8 -17    7.75    2.41
  -1   8  17    8.53    3.18
   1  -8 -16    9.71    3.10
  -1   8  16    8.52    2.75
   1  -8 -15   36.31   11.51
  -1   8  15   13.03    3.21
   1  -8 -14   -1.77    1.74
  -1   8  14   -0.47    1.51
   1  -8 -13    2.25    1.78
  -1   8  13    1.96    2.20
   1  -8 -12    6.58    1.85
  -1   8  12    8.73    2.22
   1  -8 -11    0.51    1.63
  -1   8  11    0.90    1.34
   1  -8 -10    0.09    0.68
  -1   8  10    8.24    2.50
   1  -8  -9    5.49    1.93
  -1   8   9    4.06    1.84
   1  -8  -8   50.04   29.23
  -1   8   8   51.70    3.90
   1  -8  -7   42.32    3.22
  -1   8   7   38.20    8.81
   1  -8  -6  213.51    6.66
  -1   8   6  214.60    7.95
   1  -8  -5  746.15   22.83
  -1   8   5  816.56   26.07
   1  -8  -4  160.52    6.82
  -1   8   4  165.13    6.70
   1  -8  -3  271.47   12.37
  -1   8   3  282.29   11.42
   1  -8  -2  381.47   13.52
   1  -8  -2  316.64   12.57
  -1   8   2  356.04   13.72
   1  -8  -1   73.98    2.22
   1  -8  -1   60.90    2.99
  -1   8   1   71.70    3.12
   1  -8   0   16.51    2.69
  -1   8   0   17.06    1.72
  -1   8   0   15.94    1.47
   1  -8   1   37.78    5.37
  -1   8  -1   36.84    2.36
  -1   8  -1   35.66    1.98
   1  -8   2  121.02    4.05
  -1   8  -2  114.70    4.17
  -1   8  -2  117.11    3.54
   1  -8   3  350.77    8.09
  -1   8  -3  347.43    8.75
  -1   8  -3  349.80    7.75
   1  -8   4  360.63    9.40
  -1   8  -4  379.76   10.56
  -1   8  -4  366.23    7.80
   1  -8   5  374.41    9.04
  -1   8  -5  359.52    9.01
  -1   8  -5  333.01    7.00
   1  -8   6  160.55    6.45
  -1   8  -6  152.70    5.22
  -1   8  -6  130.43    3.16
   1  -8   7  125.73    4.33
  -1   8  -7  112.68    4.52
   1  -8   8   53.33    8.58
  -1   8  -8   37.53    2.58
   1  -8   9   48.95    7.42
  -1   8  -9   38.28    2.77
   1  -8  10  469.00   14.98
  -1   8 -10  412.32   13.50
   1  -8  11   27.55    4.67
  -1   8 -11   20.75    2.23
   1  -8  12    9.69    1.81
  -1   8 -12   11.38    2.00
   1  -8  13    2.03    1.90
  -1   8 -13    0.54    1.21
   1  -8  14   29.83    6.18
  -1   8 -14   21.37    2.63
   1  -8  15    5.48    1.63
  -1   8 -15    0.53    1.41
   1  -8  16   52.46   10.15
  -1   8 -16   40.88    3.53
   1  -8  17    0.08    1.21
  -1   8 -17    0.26    1.47
   1  -8  18    1.57    1.08
  -1   8 -18   -0.16    1.48
   1  -8  19    2.63    0.69
  -1   8 -19    4.13    2.39
   1  -8  20    1.86    1.42
  -1   8 -20   -0.83    1.62
   1  -8  21   -1.53    1.45
  -1   8 -21    0.00    1.66
   1  -8  22   21.52    8.09
  -1   8 -22   20.87    3.99
  -1   8 -23   30.45    7.98
  -1   8 -24    3.05    3.17
   1  -7 -18    0.18    2.05
  -1   7  18    3.48    2.32
   1  -7 -17    0.36    1.85
  -1   7  17    0.15    1.59
   1  -7 -16   -0.74    1.99
  -1   7  16    0.13    1.25
   1  -7 -15    2.83    1.93
  -1   7  15   -0.87    1.21
   1  -7 -14    0.14    1.64
  -1   7  14    1.71    1.56
   1  -7 -13    1.05    1.63
  -1   7  13    0.14    1.48
   1  -7 -12    1.25    1.72
  -1   7  12    3.52    1.70
   1  -7 -11   -0.05    1.54
  -1   7  11    1.32    1.39
   1  -7 -10   -1.31    1.51
  -1   7  10   -0.72    1.30
   1  -7  -9    0.88    1.58
  -1   7   9   -0.98    1.21
   1  -7  -8    1.16    0.90
  -1   7   8    1.88    1.48
   1  -7  -7    0.31    0.83
  -1   7   7   -0.84    1.31
   1  -7  -6    1.01    0.69
  -1   7   6    1.34    0.82
   1  -7  -5    2.24    0.91
  -1   7   5   -0.66    1.11
   1  -7  -4    1.71    0.97
  -1   7   4    3.02    1.24
   1  -7  -3   -1.13    0.88
  -1   7   3   -0.54    1.00
   1  -7  -2    0.32    0.27
   1  -7  -2    0.38    0.56
  -1   7   2    0.72    0.92
   1  -7  -1   -0.13    0.29
   1  -7  -1   -0.87    0.86
  -1   7   1    0.12    0.58
   1  -7   0    0.29    0.19
  -1   7   0    1.00    0.84
  -1   7   0    0.66    0.43
   1  -7   1   -0.09    0.43
  -1   7  -1    0.34    0.76
  -1   7  -1    0.34    0.46
   1  -7   2   -0.05    0.47
  -1   7  -2    0.32    0.92
  -1   7  -2   -0.27    0.49
   1  -7   3   -0.71    0.58
  -1   7  -3   -1.97    0.95
  -1   7  -3    0.37    0.47
   1  -7   4    0.61    0.45
  -1   7  -4   -0.04    0.94
  -1   7  -4    0.58    0.43
   1  -7   5    0.36    0.50
  -1   7  -5    1.03    0.99
  -1   7  -5    0.01    0.15
   1  -7   6    0.80    0.54
  -1   7  -6    0.19    0.46
  -1   7  -6    0.28    0.17
   1  -7   7   -0.43    0.84
  -1   7  -7   -0.16    1.00
   1  -7   8   -1.12    0.91
  -1   7  -8    0.85    1.14
  -1   7  -9    1.49    1.28
   1  -7  10    0.70    0.87
  -1   7 -10   -0.74    1.16
   1  -7  11    0.25    0.49
  -1   7 -11    1.46    1.31
   1  -7  12   -0.06    1.10
  -1   7 -12   -0.17    1.30
   1  -7  13    0.99    0.66
  -1   7 -13   -0.01    1.21
   1  -7  14    1.77    1.22
  -1   7 -14    2.03    1.43
   1  -7  15    0.18    1.15
  -1   7 -15    3.32    1.60
   1  -7  16   -0.15    1.22
  -1   7 -16    0.66    1.52
   1  -7  17    0.47    0.68
  -1   7 -17    4.08    1.83
   1  -7  18    0.76    0.71
  -1   7 -18    0.40    1.68
   1  -7  19   -0.39    1.15
  -1   7 -19    1.97    1.70
   1  -7  20   -0.54    1.15
  -1   7 -20    2.72    1.81
   1  -7  21    0.01    1.34
  -1   7 -21    0.03    1.68
   1  -7  22    0.46    0.78
  -1   7 -22    3.19    2.19
  -1   7 -23   -0.57    1.79
  -1   7 -24   -0.40    1.98
   1  -6 -20   -2.06    2.03
   1  -6 -19    2.44    2.26
   1  -6 -18   16.52    3.50
  -1   6  18   15.79    3.28
   1  -6 -17   16.61    3.55
  -1   6  17   10.73    2.86
   1  -6 -16   19.45    3.21
  -1   6  16   17.91    3.21
   1  -6 -15   12.03    3.41
  -1   6  15   13.03    2.40
   1  -6 -14   48.63   10.81
  -1   6  14   37.72    3.84
   1  -6 -13   -0.32    1.30
  -1   6  13    1.26    1.39
   1  -6 -12   12.66    2.47
  -1   6  12    8.32    1.71
   1  -6 -11   24.91    2.86
  -1   6  11   23.42    2.67
   1  -6 -10   20.70    2.46
  -1   6  10   17.55    2.83
   1  -6  -9   34.50    7.47
  -1   6   9   27.39    2.63
   1  -6  -8  244.62    9.13
  -1   6   8  260.66    9.58
   1  -6  -7   34.15    8.30
  -1   6   7   34.31    2.54
   1  -6  -6   19.82    4.05
  -1   6   6   14.52    1.87
   1  -6  -5   18.48    2.46
  -1   6   5   19.87    1.83
   1  -6  -4   32.40    6.17
  -1   6   4   38.72    2.42
   1  -6  -3  321.81    9.67
  -1   6   3  390.00    8.91
   1  -6  -2    0.01    0.19
   1  -6  -2   -0.11    0.80
  -1   6   2   -1.70    0.93
   1  -6  -1    0.87    0.36
   1  -6   0  152.39    6.09
  -1   6   0  145.18    6.40
  -1   6   0  158.31   46.54
  -1   6  -1  384.89    6.61
   1  -6   2  159.30    4.56
  -1   6  -2  145.44    4.75
  -1   6  -2  154.65    4.38
   1  -6   3   69.62    4.22
  -1   6  -3   77.96    3.12
  -1   6  -3   86.91    4.31
   1  -6   4  110.57    3.77
  -1   6  -4  104.58    3.86
  -1   6  -4  104.91    4.08
   1  -6   5  265.51    6.34
  -1   6  -5  245.50    6.27
  -1   6  -5  213.66    4.21
   1  -6   6  578.37   11.59
  -1   6  -6  536.73   11.11
   1  -6   7   91.42    8.03
  -1   6  -7   87.85    4.57
   1  -6   8    4.92    1.09
  -1   6  -8    3.16    1.11
   1  -6   9   70.87    5.38
  -1   6  -9   67.02    3.44
   1  -6  10   28.40    4.73
  -1   6 -10   28.36    2.47
   1  -6  11    1.22    0.61
  -1   6 -11    1.10    1.32
   1  -6  12   43.33    9.12
  -1   6 -12   37.51    3.16
   1  -6  13  130.82    4.82
  -1   6 -13  114.36    4.87
   1  -6  14   -0.55    1.14
  -1   6 -14   -0.30    1.41
   1  -6  15    3.64    1.24
  -1   6 -15    4.07    1.85
   1  -6  16   11.25    2.73
  -1   6 -16    8.49    3.29
   1  -6  17    2.02    1.36
  -1   6 -17    0.81    0.87
   1  -6  18    2.20    1.14
  -1   6 -18    3.06    1.85
   1  -6  19   17.11    3.51
  -1   6 -19   12.45    3.09
   1  -6  20    0.57    0.91
  -1   6 -20    1.77    1.72
   1  -6  21    0.30    0.81
  -1   6 -21    2.42    0.87
  -1   6 -22    0.74    1.92
  -1   6 -23    1.08    1.44
  -1   6 -24    0.34    1.98
   1  -5 -20   -0.92    2.18
   1  -5 -19    3.65    2.74
  -1   5  19   -0.14    1.43
   1  -5 -18    0.85    1.87
  -1   5  18    1.17    1.54
   1  -5 -17   -0.73    1.82
  -1   5  17   -0.33    1.42
   1  -5 -16    2.16    1.74
  -1   5  16   -0.63    1.38
   1  -5 -15    0.27    1.71
  -1   5  15   -0.64    1.27
   1  -5 -14    5.26    2.60
  -1   5  14    1.77    0.75
   1  -5 -13    2.32    2.31
  -1   5  13    0.60    1.36
   1  -5 -12   -0.76    1.63
  -1   5  12    0.98    0.88
   1  -5 -11    0.94    1.53
  -1   5  11   -0.29    1.19
   1  -5 -10    1.86    1.53
  -1   5  10    0.42    1.20
   1  -5  -9    0.80    1.36
  -1   5   9   -0.86    1.22
   1  -5  -8    1.20    1.19
  -1   5   8   -0.53    0.86
   1  -5  -7    0.98    1.51
  -1   5   7    0.51    1.17
   1  -5  -6    0.27    0.88
  -1   5   6   -1.31    1.08
   1  -5  -5    0.29    0.63
  -1   5   5   -0.25    0.97
   1  -5  -4    0.35    0.49
  -1   5   4   -0.61    0.93
   1  -5  -3    0.86    0.57
  -1   5   3    2.20    0.92
   1  -5  -2    0.12    0.08
   1  -5  -2    0.75    0.77
  -1   5   2    1.44    1.32
   1  -5  -1    0.13    0.13
  -1   5   1    0.83    0.85
  -1   5   1    2.18    0.78
   1  -5   0   -0.05    0.26
  -1   5   0    1.60    1.01
  -1   5   0    0.18    0.63
   1  -5   1   -0.23    0.32
  -1   5  -1   -0.42    0.65
  -1   5  -1   -0.28    0.42
   1  -5   2    0.18    0.34
  -1   5  -2   -0.60    0.67
  -1   5  -2   -0.12    0.34
   1  -5   3    0.30    0.31
  -1   5  -3   -0.18    0.69
  -1   5  -3    0.16    0.16
   1  -5   4   -0.27    0.56
  -1   5  -4    0.06    0.78
   1  -5   5   -0.06    0.67
  -1   5  -5    1.70    1.20
   1  -5   6    0.36    0.46
  -1   5  -6   -0.30    1.02
   1  -5   7    0.38    0.36
  -1   5  -7    0.32    1.13
   1  -5   8    1.52    0.51
  -1   5  -8    0.11    1.16
   1  -5   9    0.21    0.59
  -1   5  -9    0.34    1.07
  -1   5 -10    1.82    1.30
   1  -5  11    0.41    0.43
  -1   5 -11   -0.40    1.19
   1  -5  12    0.86    0.98
  -1   5 -12    1.04    1.34
   1  -5  13    1.27    0.52
  -1   5 -13    0.23    1.38
   1  -5  14    2.22    0.91
  -1   5 -14    0.90    1.12
   1  -5  15    1.83    0.59
   1  -5  16    0.88    0.55
   1  -5  17   -0.18    1.17
  -1   5 -17    1.32    1.55
   1  -5  18    0.34    0.52
  -1   5 -18    0.41    1.64
   1  -5  19    0.00    1.18
  -1   5 -19    0.68    1.63
   1  -5  20    0.91    0.73
  -1   5 -20    4.86    2.57
   1  -5  21    0.55    0.88
  -1   5 -21    1.28    1.73
  -1   5 -22    0.24    2.06
  -1   5 -23    2.79    3.06
  -1   5 -24    1.24    2.16
   1  -4 -21    0.04    2.07
   1  -4 -20   -0.10    2.06
   1  -4 -19    4.06    2.85
  -1   4  19    1.72    1.50
   1  -4 -18    8.47    2.19
  -1   4  18   12.89    3.15
   1  -4 -17   43.79    4.56
  -1   4  17   21.63    5.94
   1  -4 -16   65.66    6.00
  -1   4  16   58.58    5.45
   1  -4 -15    2.93    1.61
  -1   4  15    1.57    1.39
   1  -4 -14   39.17    7.12
  -1   4  14   29.22    9.47
   1  -4 -13    0.63    1.13
  -1   4  13    0.21    1.22
   1  -4 -12   23.87    2.71
  -1   4  12   21.44    2.33
   1  -4 -11   19.81    2.61
  -1   4  11   17.75    2.08
   1  -4 -10   11.68    2.14
  -1   4  10    9.56    2.12
   1  -4  -9    9.35    1.77
  -1   4   9    9.27    1.61
   1  -4  -8    8.08    1.88
  -1   4   8    7.52    1.60
   1  -4  -7  251.69    7.19
  -1   4   7  263.17    7.33
   1  -4  -6   97.08    4.84
  -1   4   6  101.20    5.43
   1  -4  -5  666.76   13.12
  -1   4   5  803.52   15.37
   1  -4  -4  405.35    6.85
  -1   4   4  477.85    7.86
   1  -4  -3 2053.63   21.39
  -1   4   3 2455.83   25.07
   1  -4  -2  226.42    5.16
   1  -4  -2  168.51    4.97
  -1   4   2  210.36    6.38
   1  -4  -1  484.12    5.30
  -1   4   1  448.93    6.52
  -1   4   1  449.97    6.59
   1  -4   0  332.51    7.60
  -1   4   0  313.50    7.80
  -1   4   0  330.83    7.89
   1  -4   1   79.40    1.83
  -1   4  -1   70.34    4.17
  -1   4  -1   76.81    1.76
   1  -4   2  407.37    5.59
  -1   4  -2  364.27    5.54
  -1   4  -2  378.74    4.61
   1  -4   3 1345.61   14.21
  -1   4  -3 1226.13   13.39
  -1   4  -3 1311.20   12.22
   1  -4   4    3.20    1.20
  -1   4  -4    3.50    0.69
   1  -4   5  624.56    8.46
  -1   4  -5  615.50    8.52
   1  -4   6  307.56    8.50
  -1   4  -6  322.35    8.63
   1  -4   7   84.86    4.27
  -1   4  -7   81.51    4.25
   1  -4   8  696.37   15.28
  -1   4  -8  655.65   13.08
   1  -4   9  144.68    6.64
  -1   4  -9  129.50    6.11
   1  -4   9  109.23    4.25
   1  -4  10  335.79    8.88
  -1   4 -10  318.91    8.51
   1  -4  10  270.63    5.68
   1  -4  11   39.43    7.19
  -1   4 -11   32.48    2.58
   1  -4  11   20.32    3.45
   1  -4  12    7.31    1.24
  -1   4 -12    8.67    1.84
   1  -4  12    5.67    0.74
   1  -4  13  216.62    8.21
  -1   4 -13  198.99    6.13
   1  -4  14  155.68   14.43
  -1   4 -14  123.91    5.50
   1  -4  15   12.77    2.99
  -1   4 -15    9.83    2.33
   1  -4  16   22.37    4.45
  -1   4 -16   22.87    2.93
   1  -4  17    0.99    0.79
  -1   4 -17    1.75    1.73
   1  -4  18   48.62   10.09
  -1   4 -18   38.04    8.23
   1  -4  19    2.40    1.12
  -1   4 -19    0.67    0.97
   1  -4  20    1.82    1.32
  -1   4 -20    2.69    1.67
  -1   4 -21   46.40    6.40
  -1   4 -22    8.89    2.50
  -1   4 -23   13.69    4.12
  -1   4 -24   12.30    4.25
   1  -3 -21   -0.31    2.19
   1  -3 -20   -0.51    1.41
   1  -3 -19    1.24    2.07
  -1   3  19   -0.17    1.23
   1  -3 -18    2.67    1.97
  -1   3  18    0.28    0.50
   1  -3 -17    1.72    1.82
  -1   3  17    3.51    1.83
   1  -3 -16   -0.73    1.70
  -1   3  16   -0.45    1.13
   1  -3 -15    1.27    1.72
  -1   3  15    0.44    0.92
   1  -3 -14    4.09    1.94
  -1   3  14    0.05    1.23
   1  -3 -13   -0.11    1.60
  -1   3  13    4.21    1.76
   1  -3 -12   -0.56    1.46
  -1   3  12   -1.02    1.06
   1  -3 -11    1.59    1.25
  -1   3  11   -2.37    1.04
   1  -3 -10    3.46    1.40
  -1   3  10    0.73    0.63
   1  -3  -9    0.07    1.16
  -1   3   9    0.27    0.86
  -1   3   8    0.17    0.11
   1  -3  -8    1.55    1.50
  -1   3   8   -0.76    0.76
  -1   3   7    0.03    0.06
   1  -3  -7    0.81    0.74
  -1   3   7   -0.19    0.75
  -1   3   6    0.00    0.04
   1  -3  -6    1.00    0.93
  -1   3   6    0.44    0.76
   1  -3  -5   -0.76    0.76
  -1   3   5   -0.42    0.89
  -1   3   4    0.19    0.74
   1  -3  -3    0.23    0.40
  -1   3   3    0.05    0.61
   1  -3  -2    0.43    0.22
   1  -3  -2   -0.05    0.35
  -1   3   2   -0.33    0.62
   1  -3  -1    0.23    0.22
  -1   3   1    2.54    0.94
  -1   3   1   -0.41    0.58
   1  -3   0    0.70    0.39
  -1   3   0    1.87    0.98
   1  -3   1   91.62    2.70
   1  -3   2    0.78    0.54
  -1   3  -2    3.39    0.95
  -1   3  -2    2.67    0.62
   1  -3   3    0.91    0.85
  -1   3  -3   -0.44    0.90
   1  -3   3    2.81    0.39
   1  -3   4   -0.68    0.53
   1  -3   5   -0.02    0.54
  -1   3  -5    2.36    0.84
  -1   3  -5    0.53    0.24
   1  -3   6   -0.34    0.62
  -1   3  -6    3.12    1.52
   1  -3   6    0.17    0.09
   1  -3   7    0.33    0.74
  -1   3  -7    1.50    1.72
   1  -3   7    1.15    0.62
   1  -3   8    0.44    0.75
  -1   3  -8   -0.17    1.26
   1  -3   8    0.51    0.44
   1  -3   9    0.31    0.59
  -1   3  -9    1.02    0.83
   1  -3   9    0.54    0.49
   1  -3  10   -1.49    0.83
  -1   3 -10    3.35    1.86
   1  -3  10    0.14    0.24
   1  -3  11   -0.46    0.77
  -1   3 -11    4.96    1.84
   1  -3  11    0.23    0.31
   1  -3  12    1.32    0.53
  -1   3 -12    1.78    1.47
   1  -3  12   -0.08    0.27
   1  -3  13    0.24    0.43
  -1   3 -13   -1.49    1.40
   1  -3  13    0.29    0.42
   1  -3  14    0.99    0.45
  -1   3 -14    0.79    1.61
   1  -3  14    0.87    0.57
   1  -3  15    0.70    1.07
  -1   3 -15   -1.23    1.63
   1  -3  15    0.80    0.59
   1  -3  16    1.48    0.54
  -1   3 -16   -2.86    1.72
   1  -3  17    0.25    0.58
  -1   3 -17    1.40    2.25
   1  -3  18    0.48    1.15
  -1   3 -18    2.95    1.93
   1  -3  19   -1.13    1.03
  -1   3 -19   -1.82    1.65
  -1   3 -20    1.28    1.93
  -1   3 -21    3.75    2.07
  -1   3 -22    1.17    1.85
  -1   3 -23   -0.69    1.99
   1  -2 -22   18.04    7.68
   1  -2 -21    5.74    3.41
   1  -2 -20    2.40    2.24
   1  -2 -19   18.04    4.05
  -1   2  19   10.13    2.33
   1  -2 -18   10.78    2.84
  -1   2  18    8.63    2.11
   1  -2 -17    2.14    1.95
  -1   2  17    0.79    0.84
   1  -2 -16   52.50    5.07
  -1   2  16   43.20    9.93
   1  -2 -15   71.15    4.55
  -1   2  15   62.16    3.71
   1  -2 -14   49.37    4.22
  -1   2  14   41.18    3.01
   1  -2 -13    1.33    1.03
  -1   2  13   -0.09    1.11
   1  -2 -12    0.39    1.48
  -1   2  12   -0.28    1.02
  -1   2  11   79.32    2.32
   1  -2 -11   79.42    3.97
  -1   2  11   68.55    3.31
  -1   2  10  219.58    8.27
   1  -2 -10  229.20    9.74
  -1   2  10  221.11    9.24
  -1   2   9  134.38    3.00
   1  -2  -9  130.08    4.78
  -1   2   9  118.93    4.11
  -1   2   8   11.95    1.93
   1  -2  -8   13.76    2.73
  -1   2   8   13.34    1.40
  -1   2   7  248.32    4.77
   1  -2  -7  266.49    6.66
  -1   2   7  273.39    6.63
  -1   2   6  245.71    5.70
   1  -2  -6  245.23    6.90
  -1   2   5   63.89    3.48
   1  -2  -5   68.86    4.27
  -1   2   5   80.66    2.47
   1  -2  -4   10.30    0.68
   1  -2  -4    9.66    1.11
  -1   2   4   12.92    1.34
   1  -2  -3  711.46    6.69
   1  -2  -3  648.82    8.00
  -1   2   3  788.76    9.29
   1  -2  -2    6.84    0.99
   1  -2  -2    6.68    1.40
  -1   2   2   10.34    1.23
   1  -2  -1  419.76    4.49
  -1   2   1  408.07    3.82
   1  -2   0  172.44    4.09
  -1   2   0  150.25    3.82
  -1   2   0  185.26    4.48
   1  -2   1  723.54    7.64
  -1   2  -1  634.19    6.93
  -1   2  -1  733.57    7.30
   1  -2   2   38.84    2.36
  -1   2  -2   29.44    1.89
  -1   2  -2   32.33    1.83
   1  -2   3  575.30    7.83
  -1   2  -3  532.15    6.69
  -1   2  -3  424.82    4.33
   1  -2   4  146.83    4.23
  -1   2  -4  132.49    3.97
   1  -2   4  122.69    2.99
   1  -2   5   99.01    3.86
  -1   2  -5  111.65    3.63
   1  -2   5   91.00    2.37
   1  -2   6 1626.39   17.32
  -1   2  -6 1490.25   16.23
   1  -2   6 1382.13   13.58
   1  -2   7    3.56    1.90
  -1   2  -7    6.98    1.50
   1  -2   7    2.49    0.58
   1  -2   8  619.40   12.21
  -1   2  -8  573.75   11.70
   1  -2   8  511.13    9.49
   1  -2   9  594.00   12.16
  -1   2  -9  578.63   12.06
   1  -2   9  484.70    9.11
   1  -2  10   45.85    2.34
  -1   2 -10   40.08    2.73
   1  -2  10   32.73    1.60
   1  -2  11    0.70    0.84
  -1   2 -11    0.76    1.33
   1  -2  11    0.60    0.57
  -1   2 -12    3.23    2.03
   1  -2  12   -0.08    0.55
   1  -2  13    5.21    1.06
  -1   2 -13    3.97    1.75
   1  -2  13    0.21    0.60
   1  -2  14   89.72    4.00
  -1   2 -14   74.79    4.25
   1  -2  14   71.51    3.10
   1  -2  15   10.47    1.94
  -1   2 -15   14.13    2.15
   1  -2  15    8.82    1.28
   1  -2  16    2.88    1.16
  -1   2 -16    3.23    0.89
   1  -2  16    3.34    1.01
   1  -2  17    2.08    1.18
  -1   2 -17    1.99    1.78
   1  -2  18    1.88    1.27
  -1   2 -18    6.27    2.50
  -1   2 -19   83.42   19.75
  -1   2 -20   20.29    3.59
  -1   2 -21   50.70    6.63
  -1   2 -22    2.36    1.95
  -1   2 -23   14.97    4.89
   1  -1 -22    1.31    1.96
   1  -1 -21   -1.55    1.94
   1  -1 -20   -0.33    1.80
   1  -1 -19    2.17    1.78
  -1   1  19    2.59    1.79
   1  -1 -18   -0.37    1.58
  -1   1  18   -0.41    1.18
   1  -1 -17   -1.78    1.80
  -1   1  17    1.18    1.16
   1  -1 -16   -1.04    1.65
  -1   1  16    0.49    0.85
   1  -1 -15    2.97    1.92
  -1   1  15    0.87    1.05
  -1   1  14    0.36    0.22
   1  -1 -14   -0.79    1.68
  -1   1  14    0.26    1.00
  -1   1  13    0.22    0.55
   1  -1 -13    3.49    2.41
  -1   1  13    0.93    0.56
  -1   1  12    0.21    0.45
   1  -1 -12   -0.26    1.45
  -1   1  12    1.34    1.08
  -1   1  11   -0.14    0.40
   1  -1 -11   -0.91    1.31
  -1   1  11    1.42    1.02
  -1   1  10    0.02    0.43
   1  -1 -10   -2.47    1.33
  -1   1  10   -0.82    0.79
  -1   1   9    0.91    0.32
   1  -1  -9    1.67    1.26
  -1   1   9   -0.04    0.74
  -1   1   8    0.10    0.33
   1  -1  -8    0.69    1.14
  -1   1   8   -0.96    0.74
  -1   1   7    0.14    0.17
   1  -1  -7    0.14    1.01
  -1   1   7    0.42    0.73
  -1   1   6    0.46    0.32
   1  -1  -6    0.79    0.94
  -1   1   6    1.51    0.96
   1  -1  -5    0.99    0.52
   1  -1  -5    1.72    1.07
  -1   1   5    0.02    0.63
   1  -1  -4    0.10    0.17
   1  -1  -4   -0.16    0.64
  -1   1   4    0.14    0.73
   1  -1  -3   -0.22    0.27
   1  -1  -3    0.39    0.48
   1  -1  -2   -0.05    0.18
   1  -1  -2    0.09    0.16
  -1   1   2    0.12    0.74
   1  -1  -1    0.55    0.31
  -1   1   1    2.60    0.83
   1  -1   0    1.10    0.68
  -1   1   0    1.21    0.52
  -1   1   0    1.22    0.65
   1  -1   1    4.63    0.59
  -1   1  -1    3.24    0.40
  -1   1  -1    4.26    0.55
   1  -1   2    0.26    0.26
  -1   1  -2    0.19    0.36
  -1   1  -2    0.30    0.15
   1  -1   3    0.01    0.26
   1  -1   3    0.26    0.20
   1  -1   4   -0.28    0.50
  -1   1  -4    0.82    1.19
   1  -1   4    0.12    0.51
  -1   1  -5    0.85    0.98
   1  -1   5    0.57    0.42
   1  -1   6   -0.16    0.50
   1  -1   7    0.28    0.56
  -1   1  -7    1.39    1.50
   1  -1   8   -0.19    0.38
  -1   1  -8    2.32    1.54
   1  -1   8    1.20    0.81
   1  -1   9   -0.05    0.61
  -1   1  -9    0.74    1.11
   1  -1   9   -0.34    0.53
   1  -1  10    0.17    0.27
  -1   1 -10    3.61    1.81
   1  -1  10    1.14    0.69
   1  -1  11    0.46    0.42
  -1   1 -11    0.11    1.34
   1  -1  11   -0.40    0.69
   1  -1  12    0.41    0.42
  -1   1 -12    1.24    1.57
   1  -1  12    1.37    0.82
   1  -1  13   -0.41    0.73
  -1   1 -13   -1.32    1.59
   1  -1  13    0.01    0.72
   1  -1  14    0.05    0.83
  -1   1 -14    0.78    1.68
   1  -1  14    1.22    0.45
   1  -1  15    0.64    0.72
  -1   1 -15    0.62    1.61
   1  -1  15    0.50    0.79
   1  -1  16    0.34    0.57
  -1   1 -16    1.53    1.73
   1  -1  16   -0.18    0.79
   1  -1  17    0.31    1.01
  -1   1 -17    1.63    1.33
   1  -1  17    0.30    0.81
  -1   1 -18    0.88    2.48
  -1   1 -19   -0.41    1.86
  -1   1 -20    1.12    2.17
  -1   1 -21    3.65    2.18
  -1   1 -22   -0.08    1.95
  -1   1 -23    2.10    2.17
   1   0 -23    1.86    1.14
   1   0 -22    2.89    2.90
   1   0 -21    2.25    2.62
   1   0 -20    0.63    1.67
   1   0 -19   13.07    2.82
  -1   0  19   10.29    1.89
   1   0 -18    3.67    2.44
  -1   0  18   -0.55    1.19
   1   0 -17   16.13    3.02
  -1   0  17   11.55    1.82
   1   0 -16    3.82    2.24
  -1   0  16   -0.43    0.91
  -1   0  15   30.37    2.36
   1   0 -15   32.05    3.25
  -1   0  15   25.06    4.22
  -1   0  14  256.60    6.88
   1   0 -14  242.17    8.18
  -1   0  14  207.80    8.07
  -1   0  13   17.68    3.04
   1   0 -13   17.71    2.20
  -1   0  13   16.82    2.04
  -1   0  12  445.95   14.69
   1   0 -12  466.04   15.08
  -1   0  12  450.96   14.03
  -1   0  11   50.96    2.38
   1   0 -11   39.51    2.84
  -1   0  11   47.65    5.18
  -1   0  10   17.19    2.77
   1   0 -10   17.86    2.04
  -1   0  10   12.43    1.32
  -1   0   9    1.00    0.29
   1   0  -9    0.04    1.17
  -1   0   9    1.24    1.05
  -1   0   8  116.93    5.18
   1   0  -8  122.46    5.70
  -1   0   8  135.06    5.98
  -1   0   7   73.05    2.92
   1   0  -7   87.57    3.44
  -1   0   7   90.12    3.25
   1   0  -6  116.63    3.40
   1   0  -6  103.19    3.56
  -1   0   6  115.63    3.62
   1   0  -5 2792.44   25.81
   1   0  -5 2716.24   26.12
  -1   0   5 2900.18   27.56
   1   0  -3 1815.20   17.01
   1   0  -3 1824.16   17.25
  -1   0   3 2103.48   19.87
   1   0  -2 1122.62   10.84
   1   0  -2 1123.28   10.68
   1   0  -1   89.41    2.11
   1   0   2    9.20    0.78
  -1   0  -2    9.70    0.76
   1   0   2    9.80    1.95
   1   0   3    9.09    0.89
  -1   0  -3   11.52    1.27
   1   0   3    7.53    0.86
   1   0   4   49.05    3.00
  -1   0  -4   47.03    2.96
   1   0   4   42.52    2.63
   1   0   5   73.36    4.29
  -1   0  -5   68.20    4.12
   1   0   5   71.16    1.93
   1   0   6   13.04    3.08
  -1   0  -6   13.89    1.83
   1   0   6   13.32    1.50
   1   0   7  164.77    6.76
  -1   0  -7  150.20    6.60
   1   0   7  130.76    5.58
   1   0   8  141.72    6.00
  -1   0  -8  128.54    5.95
   1   0   8  117.14    5.14
   1   0   9  149.84   48.82
  -1   0  -9  137.20    4.47
   1   0   9  124.03    3.60
   1   0  10   27.20    1.67
  -1   0 -10   24.00    2.35
   1   0  10   20.01    1.56
   1   0  11  194.16    7.99
  -1   0 -11  177.10    8.06
   1   0  11  158.42    6.77
   1   0  12   89.35    3.26
  -1   0 -12   86.45   14.44
   1   0  12   73.09    3.10
   1   0  13   62.74    2.80
  -1   0 -13   53.81    3.57
   1   0  13   50.72    2.71
   1   0  14   15.53    3.23
  -1   0 -14   14.26    2.34
   1   0  14   14.07    2.37
   1   0  15    1.76    0.61
  -1   0 -15    3.58    1.84
   1   0  15    1.57    1.25
   1   0  16    4.06    1.07
  -1   0 -16    2.99    1.58
   1   0  16    4.90    1.30
  -1   0 -17    0.05    1.89
   1   0  17    0.72    1.48
  -1   0 -18   -0.82    1.81
   1   0  18    1.27    1.14
  -1   0 -19   44.49    9.68
  -1   0 -20   74.58    8.89
  -1   0 -21   52.67   13.96
  -1   0 -22   -1.73    2.13
   1   1 -23    0.44    2.23
   1   1 -22    0.89    1.88
   1   1 -21    1.53    0.70
   1   1 -20    1.23    1.38
   1   1 -19   -1.14    1.62
   1   1 -18    2.10    2.02
  -1  -1  18    0.70    0.68
  -1  -1  17    0.16    0.75
   1   1 -17    1.88    1.88
  -1  -1  17   -0.54    0.81
  -1  -1  16    1.83    1.12
   1   1 -16   -0.10    1.54
  -1  -1  16    0.05    0.64
  -1  -1  15   -0.20    0.62
   1   1 -15   -0.59    1.57
  -1  -1  15    1.40    0.92
  -1  -1  14   -0.58    0.63
   1   1 -14    3.60    2.18
  -1  -1  14   -0.51    0.81
  -1  -1  13   -0.29    0.64
   1   1 -13    3.20    1.74
  -1  -1  13    0.88    0.86
  -1  -1  12    0.80    0.51
   1   1 -12    5.48    1.50
  -1  -1  11    0.60    0.33
   1   1 -11    1.31    1.17
  -1  -1  11   -0.28    0.73
  -1  -1  10    0.13    0.24
   1   1 -10    1.22    1.32
  -1  -1  10    1.28    0.74
  -1  -1   9   -0.04    0.49
   1   1  -9   -0.15    1.08
  -1  -1   9   -0.27    0.61
  -1  -1   8    0.45    0.30
   1   1  -8    0.32    1.11
  -1  -1   8    0.68    0.64
   1   1  -7    0.14    0.73
   1   1  -7    4.11    1.63
  -1  -1   7    0.65    0.54
   1   1  -6   -0.02    0.64
   1   1  -6   -0.44    0.92
   1   1  -5   -0.96    0.87
   1   1  -5   -0.18    0.78
  -1  -1   5   -0.59    0.61
   1   1  -4    0.34    1.15
   1   1  -4    3.91    0.88
  -1  -1   4    3.32    1.32
   1   1  -3   -0.07    0.42
  -1  -1   3    1.47    1.03
   1   1  -2    0.23    0.36
   1   1  -2    0.37    0.31
  -1  -1   2    0.34    0.40
  -1  -1   1    0.06    0.09
   1   1  -1    0.30    0.17
  -1  -1   1    0.39    0.23
   1   1   0    0.58    0.36
  -1  -1   0    0.14    0.08
  -1  -1   0    0.37    0.23
   1   1   1   -0.17    0.33
  -1  -1  -1    0.21    0.20
   1   1   1   -0.09    0.38
   1   1   2    0.24    0.30
   1   1   2    1.68    0.89
   1   1   3   -0.03    0.44
  -1  -1  -3    1.31    0.89
   1   1   3    0.91    0.88
   1   1   4    0.62    0.50
  -1  -1  -4   -1.48    0.69
   1   1   4   -0.03    0.57
   1   1   5    0.50    0.50
  -1  -1  -5   -1.03    0.95
   1   1   5   -1.23    0.64
   1   1   6    0.55    0.53
  -1  -1  -6    1.36    1.27
   1   1   6    0.76    0.83
   1   1   7    0.07    0.47
  -1  -1  -7    2.12    1.02
   1   1   7    1.03    0.79
   1   1   8    0.21    0.53
  -1  -1  -8    1.28    1.07
   1   1   8   -0.56    0.75
   1   1   9    3.86    0.64
  -1  -1  -9    2.19    1.40
   1   1   9    1.77    1.15
   1   1  10    0.85    0.68
  -1  -1 -10   -1.05    1.24
   1   1  10    0.77    0.87
   1   1  11   -0.54    0.61
  -1  -1 -11    2.06    1.55
   1   1  11    0.57    1.02
   1   1  12   -0.57    0.74
  -1  -1 -12    0.19    1.52
   1   1  12    0.23    0.98
   1   1  13    1.10    0.93
  -1  -1 -13    0.94    1.63
   1   1  13   -0.81    0.93
   1   1  14    0.10    0.66
  -1  -1 -14    3.95    2.48
   1   1  15   -0.04    0.63
  -1  -1 -15    1.53    2.52
   1   1  15   -0.48    0.94
  -1  -1 -16    0.15    1.72
   1   1  16    0.95    1.05
  -1  -1 -17   -0.57    1.62
  -1  -1 -18    1.70    1.74
   1   1  18   -0.94    1.10
  -1  -1 -19    1.07    2.05
  -1  -1 -20    1.57    2.09
  -1  -1 -21   -2.27    2.20
  -1  -1 -22    1.54    1.07
   1   2 -23    1.44    2.31
   1   2 -22   -0.20    1.78
   1   2 -21   20.05    3.94
   1   2 -20    6.97    2.02
   1   2 -19   11.88    2.70
  -1  -2  18    8.54    2.49
   1   2 -18   11.59    2.73
  -1  -2  18    6.20    1.52
  -1  -2  17    2.84    1.11
   1   2 -17    2.19    2.36
  -1  -2  17    0.11    0.78
  -1  -2  16    9.58    2.38
   1   2 -16   10.23    2.85
  -1  -2  16    5.90    1.29
  -1  -2  15    1.25    0.54
   1   2 -15   -0.19    1.42
  -1  -2  15    0.18    0.69
  -1  -2  14    7.21    1.03
   1   2 -14    8.78    2.40
  -1  -2  14    6.28    1.16
  -1  -2  13   26.50    3.50
   1   2 -13   25.93    2.58
  -1  -2  13   20.54    2.66
  -1  -2  12    7.32    1.31
   1   2 -12    7.40    1.43
  -1  -2  12    6.15    1.05
  -1  -2  11   43.61    2.54
   1   2 -11   44.98    2.78
  -1  -2  11   45.37    2.23
  -1  -2  10   30.36   11.42
   1   2 -10   30.84    2.23
  -1  -2  10   30.67    5.75
  -1  -2   9   13.89    2.57
   1   2  -9   14.65    1.53
  -1  -2   9   17.97    5.42
  -1  -2   8   16.57    6.02
   1   2  -8   24.38    2.02
  -1  -2   8   22.20    6.68
   1   2  -7 3489.51   33.42
   1   2  -7 3369.87   15.79
   1   2  -6  225.84    6.09
   1   2  -6  216.49    5.94
  -1  -2   6  225.53    5.85
   1   2  -5 2659.15   25.67
   1   2  -5 2643.35   25.30
  -1  -2   5 2662.45   25.04
   1   2  -4 8954.00   20.88
   1   2  -3 2648.36   24.93
   1   2  -3 2802.00   25.49
  -1  -2   3 2370.24   22.32
   1   2  -2   12.59    1.16
   1   2  -2    8.64    0.70
  -1  -2   2    7.48    1.73
   1   2  -1  301.41    7.09
   1   2  -1  300.17    6.65
  -1  -2   1  224.15    5.43
   1   2   0   39.50    2.38
  -1  -2   0   33.96    1.95
   1   2   0   43.59    2.77
   1   2   1  710.22    7.77
  -1  -2  -1  611.70    6.73
   1   2   2    3.46    0.65
  -1  -2  -2    2.88    0.42
   1   2   2    2.17    0.63
   1   2   4  516.99    6.32
  -1  -2  -4  467.59    6.59
   1   2   4  475.12    7.18
   1   2   5 2876.02   26.78
  -1  -2  -5 2662.22   26.49
   1   2   5 2576.65   25.89
   1   2   6   41.30    2.16
  -1  -2  -6   47.26    5.05
   1   2   6   31.21    3.74
   1   2   7  518.92    9.95
  -1  -2  -7  486.83   10.30
   1   2   7  487.64   10.15
   1   2   8   69.87    2.32
  -1  -2  -8   58.78    2.78
   1   2   8   54.72    2.64
   1   2   9    6.05    0.85
  -1  -2  -9    6.28    1.47
   1   2   9    5.54    1.20
   1   2  10  194.54    7.56
  -1  -2 -10  179.69    8.04
   1   2  10  158.74    7.02
   1   2  11  114.93    4.29
  -1  -2 -11  113.08    5.48
   1   2  11  100.48    4.68
   1   2  12    0.14    0.65
  -1  -2 -12    0.94    1.55
   1   2  12    0.47    1.05
   1   2  13    1.12    0.78
  -1  -2 -13    4.67    2.36
   1   2  13    1.37    1.13
  -1  -2 -14   31.69    3.18
   1   2  14   23.70    2.70
  -1  -2 -15   35.85    3.50
   1   2  15   30.41    2.83
  -1  -2 -16   19.61    2.95
   1   2  16   13.16    2.28
  -1  -2 -17   38.89    3.85
   1   2  17   35.74    3.39
  -1  -2 -18   19.43    2.88
   1   2  18   13.95    2.15
  -1  -2 -19   30.04    4.81
  -1  -2 -20   -0.52    1.87
  -1  -2 -21    4.65    2.30
   1   3 -24    2.47    1.47
   1   3 -23    1.26    2.14
   1   3 -22    1.95    1.91
   1   3 -21   -0.17    1.81
   1   3 -20   -0.48    1.69
  -1  -3  19    0.93    0.92
   1   3 -19   -0.06    1.64
  -1  -3  18    0.79    1.09
   1   3 -18    1.42    1.72
  -1  -3  17    0.38    0.55
   1   3 -17    1.19    1.63
  -1  -3  17   -0.39    0.86
  -1  -3  16    0.24    0.74
   1   3 -16   -1.26    1.52
  -1  -3  16   -0.12    0.75
  -1  -3  15    1.40    1.15
   1   3 -15    1.98    0.71
  -1  -3  15    0.95    0.80
  -1  -3  14   -0.06    0.83
   1   3 -14    2.60    1.08
  -1  -3  14    1.20    0.56
  -1  -3  13   -0.65    0.75
   1   3 -13    0.55    0.85
  -1  -3  13   -0.17    0.61
  -1  -3  12    0.68    0.60
   1   3 -12   -0.08    0.77
  -1  -3  12    1.35    0.99
  -1  -3  11   -0.51    0.77
   1   3 -11    0.45    0.88
  -1  -3  11    1.02    0.65
  -1  -3  10    0.90    0.59
   1   3 -10   -0.35    1.11
  -1  -3  10   -0.11    0.55
  -1  -3   9    0.84    0.69
   1   3  -9   -0.35    1.09
  -1  -3   9   -1.02    0.52
   1   3  -8   -0.32    0.98
   1   3  -8    0.19    1.06
  -1  -3   8    0.80    0.83
   1   3  -7   -0.76    1.06
   1   3  -7   -0.16    1.16
  -1  -3   7   -0.08    0.69
   1   3  -6   -0.51    0.83
   1   3  -5   -1.51    0.75
   1   3  -5    0.65    0.76
  -1  -3   5    0.52    0.62
   1   3  -4   -0.05    0.96
   1   3  -4   -0.11    0.48
  -1  -3   4    0.29    0.26
   1   3  -3   -0.15    0.69
   1   3  -3   -0.43    0.47
  -1  -3   3   -0.87    0.52
   1   3  -2    0.44    0.60
   1   3  -2    0.18    0.42
  -1  -3   2    0.21    0.62
   1   3  -1    0.30    0.44
   1   3  -1    0.74    0.58
   1   3  -1   -0.52    1.00
   1   3   0   -0.75    0.36
   1   3   0   -1.85    0.79
   1   3   1    1.33    0.73
  -1  -3  -1   -0.16    0.38
   1   3   1   -0.26    0.77
   1   3   2    0.00    0.26
  -1  -3  -2    0.38    0.24
   1   3   2    0.23    0.39
   1   3   3    0.27    0.29
  -1  -3  -3    0.46    0.44
   1   3   3   -1.18    0.92
   1   3   4    0.43    0.37
  -1  -3  -4    0.33    0.40
   1   3   4   -1.57    1.06
   1   3   5    0.51    0.40
  -1  -3  -5    0.57    0.77
   1   3   5   -0.19    0.92
   1   3   6    0.37    0.41
  -1  -3  -6   -0.17    0.81
   1   3   6    0.22    0.88
   1   3   7    0.26    0.42
  -1  -3  -7    1.03    1.00
   1   3   7   -0.64    0.99
   1   3   8    0.42    0.34
  -1  -3  -8    0.73    0.94
   1   3   8    0.34    0.95
   1   3   9    1.07    0.67
  -1  -3  -9   -1.85    1.14
   1   3   9    1.17    1.05
   1   3  10    3.32    0.56
  -1  -3 -10    1.31    1.45
   1   3  10   -0.43    1.00
   1   3  11    1.17    0.35
  -1  -3 -11    4.02    2.12
   1   3  11    1.42    1.17
  -1  -3 -12    1.40    1.51
   1   3  12    0.82    1.14
  -1  -3 -13    0.32    1.60
   1   3  13    0.98    1.48
  -1  -3 -14   -0.41    1.65
   1   3  14    2.33    1.61
  -1  -3 -15    1.17    1.68
   1   3  15   -1.00    1.04
  -1  -3 -16    2.41    1.88
   1   3  16    0.68    1.22
  -1  -3 -17    2.73    1.88
   1   3  17   -0.93    1.09
  -1  -3 -18   -1.14    1.67
   1   3  18    1.18    1.46
  -1  -3 -19    0.45    1.87
  -1  -3 -20    0.14    1.93
  -1  -3 -21    1.74    2.16
   1   4 -23    4.61    2.37
   1   4 -22    0.60    0.68
   1   4 -21   12.10    3.11
  -1  -4  20    3.19    1.41
   1   4 -20    2.90    1.78
  -1  -4  19    7.18    1.75
   1   4 -19    5.21    2.03
  -1  -4  18    8.80    2.35
   1   4 -18    7.06    1.75
  -1  -4  17   26.74    5.16
   1   4 -17   23.14    2.85
  -1  -4  16   11.99    2.25
   1   4 -16    9.87    2.19
  -1  -4  16    4.68    0.94
  -1  -4  15   25.19    5.14
   1   4 -15   17.66    2.12
  -1  -4  15   12.74    1.37
  -1  -4  14   13.22    3.38
   1   4 -14   11.32    1.71
  -1  -4  14    5.75    1.22
  -1  -4  13   98.81    3.81
   1   4 -13  104.13    4.25
  -1  -4  13   90.05    2.85
  -1  -4  12   42.25    7.22
   1   4 -12   35.50    2.52
  -1  -4  12   30.68    2.64
  -1  -4  11   12.44    2.62
   1   4 -11   13.00    3.29
  -1  -4  11   12.27    1.21
  -1  -4  10  176.76    9.30
   1   4 -10  196.58    5.97
  -1  -4  10  198.33    4.93
  -1  -4   9   77.90    4.91
   1   4  -9   84.44    4.37
  -1  -4   9   80.36    3.67
   1   4  -8  115.86    5.70
   1   4  -8  107.77    5.07
  -1  -4   8  114.69    4.91
   1   4  -7  619.30   12.20
   1   4  -7  598.50   11.59
  -1  -4   7  586.94   10.59
   1   4  -6  103.83    3.71
   1   4  -6  102.25    3.70
  -1  -4   6   92.73    3.06
   1   4  -5   75.91    4.65
   1   4  -5   68.76    4.14
  -1  -4   5   60.65    3.69
   1   4  -4    0.93    0.81
   1   4  -4    1.57    0.88
  -1  -4   4    0.28    0.36
   1   4  -3    1.32    0.68
  -1  -4   3    1.61    0.86
   1   4  -2  423.10    5.55
   1   4  -1   53.48    3.30
   1   4  -1   47.82    2.92
   1   4  -1   51.62    3.24
   1   4   0  181.99    4.81
   1   4   0  163.95    4.82
   1   4   1   65.96    3.85
  -1  -4  -1   61.91    3.92
   1   4   1   56.16    3.57
   1   4   2 1589.30   15.86
  -1  -4  -2 1469.33   16.89
   1   4   3   11.79    2.10
  -1  -4  -3   12.41    2.34
   1   4   3   14.73    1.77
   1   4   4  697.34   12.15
  -1  -4  -4  666.80   12.70
   1   4   4  694.31   13.57
   1   4   5  236.48    5.07
  -1  -4  -5  242.66    6.10
   1   4   5  232.86    6.41
   1   4   6  133.69    3.10
  -1  -4  -6  133.52   43.56
   1   4   6  127.74    4.18
   1   4   7  352.05    7.33
  -1  -4  -7  370.48    9.20
   1   4   7  336.15    8.68
   1   4   8   37.03    2.05
  -1  -4  -8   41.59    2.97
   1   4   8   34.51    2.66
   1   4   9    4.92    1.05
  -1  -4  -9    7.92    1.22
   1   4   9    4.78    1.47
  -1  -4 -10   38.94    6.95
   1   4  10   32.60    2.58
  -1  -4 -11   -0.68    1.28
   1   4  11   -0.81    1.20
  -1  -4 -12   13.02    2.25
   1   4  12   11.41    2.10
  -1  -4 -13   62.17    4.14
   1   4  13   46.76    3.34
  -1  -4 -14   29.89    3.39
   1   4  14   26.36    2.74
  -1  -4 -15   15.12    2.50
   1   4  15   11.54    2.51
  -1  -4 -16   30.21    4.06
   1   4  16   20.82    2.79
  -1  -4 -17   55.35    4.54
   1   4  17   33.96    8.48
  -1  -4 -18   -0.20    1.72
   1   4  18   -0.42    1.19
  -1  -4 -19   -0.52    2.02
  -1  -4 -20    3.21    2.29
   1   5 -24   -0.28    2.19
   1   5 -23   -1.27    1.82
   1   5 -22   -0.20    1.56
   1   5 -21    4.23    1.97
  -1  -5  20    1.74    1.26
   1   5 -20    4.80    2.52
  -1  -5  19    0.50    0.97
   1   5 -19    4.09    1.68
  -1  -5  18    0.76    0.92
   1   5 -18   -0.95    1.49
  -1  -5  17   -0.43    1.01
   1   5 -17    1.02    1.49
  -1  -5  16    1.89    0.81
   1   5 -16    0.86    1.41
  -1  -5  15   -0.33    0.92
   1   5 -15    4.41    1.67
  -1  -5  14   -0.18    0.49
   1   5 -14    1.91    1.44
  -1  -5  14    0.63    0.60
  -1  -5  13    0.17    0.48
   1   5 -13   -1.24    1.26
  -1  -5  13    2.82    1.13
  -1  -5  12    0.72    0.50
   1   5 -12    2.49    1.75
  -1  -5  12    0.31    0.58
  -1  -5  11    1.06    0.58
   1   5 -11   -0.03    0.91
  -1  -5  11    0.50    0.58
  -1  -5  10    1.12    0.51
   1   5 -10    0.46    0.80
  -1  -5  10    0.06    0.49
  -1  -5   9    0.51    0.41
   1   5  -9    0.90    0.60
  -1  -5   9    0.69    0.54
   1   5  -8    0.70    0.57
   1   5  -8   -0.88    0.88
  -1  -5   8   -0.06    0.45
   1   5  -7   -1.65    1.08
   1   5  -7   -0.28    0.89
   1   5  -6   -0.07    0.93
   1   5  -6    1.64    1.28
  -1  -5   6    1.43    0.59
   1   5  -5    0.02    0.77
   1   5  -5    0.97    0.98
  -1  -5   5    1.23    0.68
   1   5  -4    0.67    0.83
   1   5  -4    1.36    0.92
   1   5  -3    1.14    0.88
   1   5  -3    1.99    0.66
   1   5  -3    2.67    0.83
   1   5  -2    0.03    0.62
   1   5  -2    1.65    0.85
   1   5  -2    4.15    1.37
   1   5  -1    2.66    0.85
   1   5  -1    1.07    0.91
   1   5   0    0.91    0.59
   1   5   0    0.37    0.43
   1   5   1    0.55    0.50
  -1  -5  -1    0.13    0.24
   1   5   1   -0.67    0.82
   1   5   2    1.31    0.42
  -1  -5  -2    0.34    0.26
   1   5   2    1.32    1.01
   1   5   3   -0.18    0.37
  -1  -5  -3    0.18    0.26
   1   5   3   -1.45    0.94
   1   5   4    0.15    0.37
  -1  -5  -4   -0.45    0.68
   1   5   4   -0.05    1.01
   1   5   5    0.36    0.33
  -1  -5  -5   -0.04    0.83
   1   5   5    1.01    1.01
   1   5   6    0.14    0.33
  -1  -5  -6    0.63    1.01
   1   5   6    0.19    1.06
   1   5   7   -0.14    0.31
  -1  -5  -7    1.15    1.15
   1   5   7   -0.18    0.96
  -1  -5  -8    0.48    1.20
   1   5   8   -0.58    1.02
  -1  -5  -9    1.38    0.88
   1   5   9    0.27    1.09
  -1  -5 -10   -0.99    1.32
   1   5  10    0.64    1.10
  -1  -5 -11   -0.06    1.50
   1   5  11    0.50    1.21
  -1  -5 -12   -1.30    1.43
   1   5  12    1.61    1.32
  -1  -5 -13   -0.14    1.44
   1   5  13   -0.09    1.24
  -1  -5 -14   -0.14    1.65
   1   5  14    1.16    1.37
  -1  -5 -15    0.19    1.72
   1   5  15    1.26    1.35
  -1  -5 -16    1.45    1.67
   1   5  16   -1.18    1.29
  -1  -5 -17    0.17    1.75
   1   5  17    1.46    1.59
  -1  -5 -18   -0.83    1.84
   1   5  18    0.87    0.80
  -1  -5 -19    1.72    2.60
   1   6 -23    4.40    2.66
   1   6 -22   46.38    5.99
  -1  -6  21    0.37    0.81
   1   6 -21    1.80    1.66
  -1  -6  20   16.92    4.15
   1   6 -20   13.14    2.75
  -1  -6  19    2.10    0.54
   1   6 -19    3.56    1.78
  -1  -6  18   -0.90    0.95
   1   6 -18    2.06    1.58
  -1  -6  17    0.78    0.78
   1   6 -17    1.77    1.47
  -1  -6  16    3.97    0.74
   1   6 -16    3.20    1.45
  -1  -6  15   50.10    8.89
   1   6 -15   50.55    4.04
  -1  -6  14   30.26    4.79
   1   6 -14   29.81    2.79
  -1  -6  13   30.99    5.38
   1   6 -13   21.96    2.36
  -1  -6  12   45.83    8.16
   1   6 -12   41.53    2.94
  -1  -6  12   31.97    3.11
  -1  -6  11   36.44    6.88
   1   6 -11   35.19    2.58
  -1  -6  11   36.77    1.79
  -1  -6  10   13.51    2.50
   1   6 -10   12.86    1.60
  -1  -6  10   15.03    1.18
   1   6  -8    2.51    1.51
   1   6  -8    1.30    0.80
  -1  -6   8    0.15    0.42
   1   6  -7   20.60    6.34
   1   6  -7   14.97    1.38
  -1  -6   7   14.93    3.18
   1   6  -6  241.50    6.30
   1   6  -6  211.10    5.37
  -1  -6   6  176.63    4.27
   1   6  -5   67.73    3.69
   1   6  -5   60.78    3.14
  -1  -6   5   52.22    2.72
   1   6  -4    2.12    0.85
   1   6  -4    1.93    0.70
  -1  -6   4    1.31    0.37
   1   6  -3  142.35    6.26
   1   6  -3  122.86    5.36
   1   6  -3  124.36    5.42
   1   6  -2 1443.79   24.76
   1   6  -2 1343.81   23.00
   1   6  -2 1398.32   24.05
   1   6  -1    0.53    0.66
   1   6  -1    0.56    0.58
   1   6   0   16.08    1.15
  -1  -6   0   14.19    2.45
   1   6   0   14.45    1.29
   1   6   1    1.14    0.68
  -1  -6  -1    0.59    0.26
   1   6   1   -0.09    0.84
   1   6   2  177.34   52.09
  -1  -6  -2  163.60   48.12
   1   6   2  167.25   49.21
   1   6   3  437.19    8.89
  -1  -6  -3  402.56    9.61
   1   6   3  458.44   11.08
   1   6   4    4.52    0.71
  -1  -6  -4    4.35    1.21
   1   6   4    5.05    1.35
   1   6   5    2.54    0.55
  -1  -6  -5    4.23    1.04
   1   6   5    3.19    1.64
   1   6   6   34.17    1.50
  -1  -6  -6   31.45    2.28
   1   6   6   39.55    2.82
  -1  -6  -7   52.53    8.62
   1   6   7   52.82    3.14
  -1  -6  -8   29.76    2.56
   1   6   8   27.00    2.46
  -1  -6  -9    0.57    1.27
   1   6   9    0.09    1.21
  -1  -6 -10    4.10    1.84
   1   6  10    3.95    1.89
  -1  -6 -11   80.90   15.66
   1   6  11   73.89    4.48
  -1  -6 -12    6.91    3.08
   1   6  12    1.32    1.31
  -1  -6 -13    2.66    1.75
   1   6  13    0.99    1.33
  -1  -6 -14   89.89    5.29
   1   6  14   72.77    4.61
  -1  -6 -15    6.30    2.30
   1   6  15    4.32    1.60
  -1  -6 -16   11.43    2.70
   1   6  16    9.22    2.51
  -1  -6 -17   -0.14    1.80
   1   6  17    0.75    1.10
  -1  -6 -18    5.09    2.89
  -1  -6 -19    1.75    2.63
   1   7 -23   -1.45    1.64
   1   7 -22    0.85    1.69
  -1  -7  21    2.48    1.48
   1   7 -21   -0.55    1.62
  -1  -7  20    0.64    0.56
   1   7 -20    0.03    1.59
  -1  -7  19   -0.33    1.12
   1   7 -19    0.63    1.46
   1   7 -18    2.35    1.50
  -1  -7  17    1.75    1.10
   1   7 -17    0.39    1.28
  -1  -7  16    1.95    0.65
   1   7 -16    3.31    1.88
  -1  -7  15   -0.46    1.16
   1   7 -15   -0.41    1.12
  -1  -7  14    0.24    0.65
   1   7 -14    1.35    1.22
  -1  -7  13    2.04    0.75
   1   7 -13    0.76    1.10
  -1  -7  12   -0.08    0.97
   1   7 -12    0.93    1.04
  -1  -7  11   -0.23    1.10
   1   7 -11   -0.25    0.88
  -1  -7  10   -0.09    0.45
   1   7 -10    1.49    1.06
  -1  -7   9    0.69    0.55
   1   7  -9    1.22    0.95
  -1  -7   9    0.25    0.32
   1   7  -8   -0.20    1.11
   1   7  -8   -1.30    0.85
  -1  -7   8    1.34    0.58
   1   7  -7   -1.55    1.01
  -1  -7   7    0.65    0.40
   1   7  -6   -2.03    0.96
   1   7  -6    0.50    0.77
  -1  -7   6   -0.43    0.41
   1   7  -5    0.62    0.91
   1   7  -5    0.23    0.71
  -1  -7   5    0.43    0.31
   1   7  -4   -0.34    0.76
   1   7  -4   -0.33    0.68
   1   7  -4    0.21    0.31
   1   7  -3   -0.19    0.70
   1   7  -3    1.00    0.73
   1   7  -3    0.17    0.68
   1   7  -2   -0.29    0.67
   1   7  -2    0.24    0.58
   1   7  -2   -0.80    0.72
   1   7  -1    0.55    0.65
   1   7  -1   -0.63    0.55
   1   7  -1    1.13    0.60
   1   7   0   -0.26    0.57
  -1  -7   0    0.48    0.43
   1   7   0    0.90    0.40
   1   7   1    0.15    0.53
  -1  -7  -1   -0.36    0.70
   1   7   1    0.61    0.88
   1   7   2    0.48    0.55
  -1  -7  -2    0.71    0.48
   1   7   2   -1.08    0.93
   1   7   3   -0.61    0.43
  -1  -7  -3    0.03    0.44
   1   7   3    0.25    0.94
   1   7   4    0.17    0.38
  -1  -7  -4    1.02    0.81
   1   7   4    0.05    1.05
   1   7   5    0.71    0.31
  -1  -7  -5    1.31    1.11
   1   7   5    1.50    1.20
  -1  -7  -6    2.18    1.52
   1   7   6    2.12    1.26
  -1  -7  -7    2.07    1.30
   1   7   7   -0.94    1.17
  -1  -7  -8    2.00    1.67
   1   7   8    0.57    1.19
  -1  -7  -9   -0.18    1.25
   1   7   9    2.43    1.86
  -1  -7 -10   -0.40    1.29
   1   7  10    0.36    1.31
  -1  -7 -11    0.22    1.36
   1   7  11    2.58    1.60
  -1  -7 -12    1.92    1.58
   1   7  12    1.48    1.54
  -1  -7 -13    2.16    1.73
   1   7  13   -0.37    1.42
  -1  -7 -14    0.77    1.58
   1   7  14    0.02    1.28
  -1  -7 -15   -0.32    1.46
   1   7  15   -0.19    1.01
  -1  -7 -16    1.69    1.76
   1   7  16    0.00    1.62
  -1  -7 -17   -0.08    1.90
   1   7  17    0.71    1.00
   1   8 -23   21.08    5.60
  -1  -8  22   21.76    3.91
   1   8 -22   21.62    4.12
  -1  -8  21    4.47    1.99
   1   8 -21    5.12    1.84
  -1  -8  20    1.00    0.89
   1   8 -20    1.31    1.59
  -1  -8  19   -0.53    1.20
   1   8 -19    2.02    1.53
  -1  -8  18    1.14    1.38
   1   8 -18    0.02    1.30
  -1  -8  17    3.17    1.05
   1   8 -17    6.20    2.06
  -1  -8  16    4.58    0.99
   1   8 -16    1.46    1.34
  -1  -8  15   45.46    5.56
   1   8 -15   35.94    3.05
  -1  -8  14   82.04   12.02
   1   8 -14   71.16    4.77
  -1  -8  13   34.91    5.44
   1   8 -13   31.78    2.69
  -1  -8  12    8.22    1.61
   1   8 -12    8.47    1.44
  -1  -8  11   98.55    4.86
   1   8 -11  100.63    4.12
  -1  -8  10  502.45   16.06
   1   8 -10  496.96   15.47
  -1  -8  10  468.10   13.50
  -1  -8   9   94.91    7.13
   1   8  -9  100.53    8.50
  -1  -8   9   79.52    3.60
   1   8  -8   45.19    2.79
   1   8  -8   41.09    2.53
  -1  -8   8   30.62    5.32
   1   8  -7   12.90    1.73
   1   8  -7   11.86    1.46
  -1  -8   7    8.49    1.94
   1   8  -6   10.78    1.45
   1   8  -6   10.47    1.34
  -1  -8   6    8.52    1.93
   1   8  -5   22.35    1.89
   1   8  -5   23.61    3.90
  -1  -8   5   15.33    3.80
   1   8  -4    1.95    0.91
   1   8  -4    2.70    0.81
   1   8  -4    1.92    0.76
   1   8  -3   23.88    1.72
   1   8  -3   24.68    1.89
   1   8  -3   23.34    1.69
   1   8  -2    6.03    1.02
   1   8  -2    5.41    1.21
   1   8  -2    5.06    0.95
   1   8  -1   29.76    1.89
   1   8  -1   27.23    2.29
   1   8  -1   33.85    5.38
   1   8   0   33.43    1.82
  -1  -8   0   27.11    9.66
   1   8   0   38.55    4.53
   1   8   1   39.34    1.92
  -1  -8  -1   41.05    5.36
   1   8   1   36.73    2.38
   1   8   2  620.73    6.93
  -1  -8  -2  564.09    8.40
   1   8   2  587.17   22.21
   1   8   3  312.23    9.35
  -1  -8  -3  301.40   10.12
   1   8   3  313.41   10.93
   1   8   4   18.45    1.18
  -1  -8  -4   19.93    3.21
   1   8   4   16.08    3.64
  -1  -8  -5    3.09    1.58
   1   8   5   -2.95    1.21
  -1  -8  -6   27.47    5.02
   1   8   6   27.47    2.73
  -1  -8  -7    6.87    1.76
   1   8   7    7.70    2.02
  -1  -8  -8   19.66    3.94
   1   8   8   15.21    2.30
  -1  -8  -9  140.66    5.63
   1   8   9  115.16    5.39
  -1  -8 -10   28.79    3.22
   1   8  10   23.79    2.95
  -1  -8 -11   13.06    2.37
   1   8  11   15.34    3.64
  -1  -8 -12    3.18    1.78
   1   8  12    5.46    1.85
  -1  -8 -13    4.00    2.53
   1   8  13    0.82    1.56
  -1  -8 -14   24.68    5.93
   1   8  14   16.86    5.86
  -1  -8 -15   83.07    9.17
   1   8  15   46.37   13.08
  -1  -8 -16    6.60    2.08
   1   8  16    6.52    2.55
   1   9 -23    5.09    2.83
  -1  -9  22   -1.25    1.45
   1   9 -22    2.04    1.80
  -1  -9  21   -0.40    1.41
   1   9 -21    0.60    1.76
  -1  -9  20   -0.73    1.36
   1   9 -20    0.34    1.50
  -1  -9  19   -0.24    0.77
   1   9 -19    1.28    1.46
  -1  -9  18    0.85    0.83
   1   9 -18    1.03    1.44
  -1  -9  17   11.85    1.99
   1   9 -17    2.05    1.44
  -1  -9  16    1.27    1.06
   1   9 -16    3.10    1.42
  -1  -9  15    1.19    0.91
   1   9 -15   -0.34    1.11
  -1  -9  14   -0.93    1.25
   1   9 -14    0.27    1.27
  -1  -9  13    0.97    0.73
   1   9 -13    0.20    1.18
  -1  -9  12    0.71    0.66
   1   9 -12    0.63    1.06
  -1  -9  11    1.27    0.59
   1   9 -11   -0.24    1.02
  -1  -9  10   -0.19    1.24
   1   9 -10    0.24    0.93
  -1  -9  10    1.31    0.66
  -1  -9   9   -0.32    0.76
   1   9  -9   -0.13    0.86
  -1  -9   9    0.25    0.48
   1   9  -8   -0.06    0.81
  -1  -9   8    0.27    0.31
   1   9  -7    0.17    0.98
   1   9  -7    0.93    0.87
  -1  -9   7    0.56    0.41
   1   9  -6    2.26    1.07
   1   9  -6   -0.35    0.74
  -1  -9   6    0.69    0.46
   1   9  -5    0.12    0.92
   1   9  -5   -0.56    0.76
   1   9  -4    0.09    0.88
   1   9  -4    1.56    1.21
   1   9  -4   -0.31    0.75
   1   9  -3    0.83    0.87
   1   9  -3    0.37    0.74
   1   9  -3   -0.67    0.81
   1   9  -2   -0.76    0.72
   1   9  -2    0.11    0.75
   1   9  -2    0.89    0.89
   1   9  -1    0.72    0.70
   1   9  -1   -0.49    0.87
   1   9   0    0.53    0.75
  -1  -9   0   -0.12    0.55
   1   9   0    0.82    0.76
   1   9   1   -0.38    0.60
  -1  -9  -1    1.53    0.82
   1   9   1   -0.21    1.05
   1   9   2    1.37    0.83
  -1  -9  -2    0.22    0.64
   1   9   2    0.36    1.23
   1   9   3   -0.07    0.50
  -1  -9  -3   -0.02    1.06
   1   9   3    1.27    1.25
  -1  -9  -4    0.51    0.51
   1   9   4    0.63    0.73
  -1  -9  -5    0.92    1.00
   1   9   5    1.82    0.80
  -1  -9  -6   -0.69    1.06
   1   9   6    1.38    1.67
  -1  -9  -7    2.54    1.10
   1   9   7    0.58    1.22
  -1  -9  -8    1.01    1.11
   1   9   8    1.13    1.46
  -1  -9  -9    1.16    1.47
   1   9   9   -0.54    1.42
  -1  -9 -10    2.53    2.17
   1   9  10    1.24    1.71
  -1  -9 -11    0.44    1.00
   1   9  11   -0.24    1.51
  -1  -9 -12    2.25    0.96
   1   9  12    2.09    1.03
  -1  -9 -13    1.74    1.19
   1   9  13   -1.41    1.54
  -1  -9 -14    0.75    1.75
   1   9  14    0.32    1.73
  -1  -9 -15   -2.11    1.78
   1   9  15   -0.09    1.75
   1   9  16    2.54    2.62
  -1 -10  22    2.73    1.15
   1  10 -22   -0.04    1.45
  -1 -10  21    4.06    1.57
   1  10 -21    2.40    1.70
  -1 -10  20    3.51    1.14
   1  10 -20   -0.98    1.51
  -1 -10  19    5.70    1.34
   1  10 -19    4.70    1.96
  -1 -10  18   -0.14    1.42
   1  10 -18   -0.48    1.23
  -1 -10  17   18.95    3.81
   1  10 -17   16.71    2.66
  -1 -10  16   23.08    3.47
   1  10 -16   17.63    2.42
  -1 -10  15    1.39    1.11
   1  10 -15    0.95    1.32
  -1 -10  14   67.06   11.33
   1  10 -14   49.94    3.33
  -1 -10  13  272.32    7.98
   1  10 -13  223.02   10.89
  -1 -10  12   96.65    6.95
   1  10 -12   80.11    5.10
  -1 -10  11   19.79    4.68
   1  10 -11   20.51    2.03
  -1 -10  10    0.92    1.20
   1  10 -10    0.46    0.99
  -1 -10   9   24.33    5.75
   1  10  -9   20.15    2.04
  -1 -10   9   15.71    2.57
  -1 -10   8   49.57    9.81
   1  10  -8   48.63    2.80
  -1 -10   8   39.87    6.83
   1  10  -7  138.60    4.67
  -1 -10   7  117.34    3.40
   1  10  -6   16.54    1.94
   1  10  -6   13.54    1.71
  -1 -10   6   11.04    3.13
   1  10  -5   43.91    7.81
   1  10  -5   31.25    2.26
   1  10  -5   31.39    6.12
   1  10  -4  379.03   12.55
   1  10  -4  332.14   10.99
   1  10  -4  308.73   10.33
   1  10  -3  948.78   27.09
   1  10  -3  805.81   23.48
   1  10  -3  810.65   23.68
   1  10  -2    1.03    1.01
   1  10  -2    1.46    0.58
   1  10  -2    2.50    1.00
   1  10  -1  120.97    3.78
  -1 -10   1   97.72   14.66
   1  10  -1  108.91    4.04
   1  10   0  389.12    6.40
  -1 -10   0  312.81    6.94
   1  10   0  341.16    7.83
   1  10   1   75.06    3.12
  -1 -10  -1   74.59   11.31
   1  10   1   62.09    6.03
   1  10   2   28.14    1.81
  -1 -10  -2   34.93    5.49
   1  10   2   24.87    2.37
  -1 -10  -3    2.92    0.68
   1  10   3    3.08    1.22
  -1 -10  -4    6.12    1.14
   1  10   4    4.57    1.82
  -1 -10  -5    1.25    1.12
   1  10   5    2.65    1.28
  -1 -10  -6    1.33    1.18
   1  10   6    0.28    0.73
  -1 -10  -7    1.31    1.30
   1  10   7   -0.03    1.43
  -1 -10  -8    3.04    2.01
   1  10   8    1.64    1.00
  -1 -10  -9   27.34    3.43
   1  10   9   20.49    3.84
  -1 -10 -10    8.09    2.30
   1  10  10    8.72    2.31
  -1 -10 -11    2.03    0.91
   1  10  11    0.51    1.64
  -1 -10 -12   59.06    7.08
   1  10  12   46.90    6.24
  -1 -10 -13  101.19   11.06
   1  10  13   93.97   10.53
  -1 -10 -14   16.13    4.82
   1  10  14   18.93    5.51
   1  10  15    2.74    2.35
  -1 -11  22    0.26    1.10
  -1 -11  21   -0.46    1.38
   1  11 -21   -0.18    1.39
  -1 -11  20    1.00    0.64
   1  11 -20    0.53    1.61
  -1 -11  19   -0.96    1.48
   1  11 -19   -1.37    1.28
  -1 -11  18   -0.82    1.44
   1  11 -18    0.74    1.21
  -1 -11  17    2.05    1.13
   1  11 -17   -1.49    1.09
  -1 -11  16   -0.26    1.41
   1  11 -16    1.01    1.20
  -1 -11  15    1.24    1.09
   1  11 -15    1.82    1.69
  -1 -11  14    0.19    0.85
   1  11 -14    1.47    1.26
  -1 -11  13    1.16    0.78
   1  11 -13    0.34    1.13
  -1 -11  12    0.31    0.57
   1  11 -12    1.06    1.12
  -1 -11  11   -0.08    1.32
   1  11 -11    1.92    1.19
  -1 -11  10    2.28    0.97
   1  11 -10   -1.16    1.17
  -1 -11   9    1.22    0.63
   1  11  -9    0.52    1.11
  -1 -11   8    0.84    0.69
   1  11  -8    0.93    1.11
  -1 -11   8    0.46    0.35
  -1 -11   7    0.46    0.62
   1  11  -7    2.07    0.87
  -1 -11   7    0.49    0.58
  -1 -11   6   -0.90    0.97
   1  11  -6    0.14    1.00
  -1 -11   6    0.75    0.42
   1  11  -5   -0.03    1.12
   1  11  -5    0.89    1.08
   1  11  -5    0.09    0.50
   1  11  -4    1.09    1.46
   1  11  -4    0.68    1.09
   1  11  -4    0.35    0.56
   1  11  -3    0.73    0.98
   1  11  -3   -1.44    1.04
   1  11  -3   -0.38    1.02
   1  11  -2    0.28    0.61
   1  11  -2    0.95    1.03
   1  11  -1   -0.34    0.79
  -1 -11   1    0.97    0.76
   1  11  -1    0.87    1.10
   1  11   0   -0.21    0.66
  -1 -11   0    1.12    0.49
   1  11   0    0.92    0.54
   1  11   1   -0.56    0.59
  -1 -11  -1   -0.64    0.85
   1  11   1    1.11    1.21
  -1 -11  -2   -0.70    0.92
   1  11   2    1.81    1.24
  -1 -11  -3   -0.43    1.02
   1  11   3    0.43    1.26
  -1 -11  -4    1.62    0.92
   1  11   4    0.07    1.27
  -1 -11  -5   -0.42    1.16
   1  11   5    0.03    1.43
  -1 -11  -6   -0.16    1.16
   1  11   6    0.41    1.55
  -1 -11  -7   -0.08    1.17
   1  11   7   -0.29    1.50
  -1 -11  -8    1.56    1.39
   1  11   8    1.92    1.65
  -1 -11  -9   -0.36    1.39
   1  11   9    0.11    1.43
  -1 -11 -10   -0.37    1.40
   1  11  10    2.44    1.60
  -1 -11 -11    1.55    0.95
   1  11  11    2.16    2.34
  -1 -11 -12    1.41    1.79
   1  11  12    1.85    1.93
  -1 -11 -13    0.26    1.71
   1  11  13   -1.32    1.73
   1  11  14    0.59    1.82
  -1 -12  22    0.62    0.74
  -1 -12  21    2.56    1.99
   1  12 -21    1.71    1.74
  -1 -12  20    6.31    1.95
   1  12 -20    0.47    1.45
  -1 -12  19   14.52    2.78
   1  12 -19   10.78    2.77
  -1 -12  18   15.15    3.43
   1  12 -18    9.21    2.56
  -1 -12  17    6.25    1.75
   1  12 -17    3.95    1.44
  -1 -12  16    2.78    1.50
   1  12 -16    2.67    0.71
  -1 -12  15   -0.27    1.40
   1  12 -15    3.72    2.29
  -1 -12  14    4.53    2.35
   1  12 -14    4.60    1.61
  -1 -12  13   12.06    2.44
   1  12 -13    7.73    1.50
  -1 -12  12    1.57    0.72
   1  12 -12    1.86    1.53
  -1 -12  11    0.28    1.01
   1  12 -11    0.86    1.10
  -1 -12  10    3.99    0.79
   1  12 -10    3.50    1.48
  -1 -12   9   14.79    2.14
   1  12  -9    8.30    1.64
  -1 -12   8    4.86    1.12
   1  12  -8    1.37    1.12
  -1 -12   8    1.98    0.96
  -1 -12   7   75.45   13.25
   1  12  -7   72.28    4.63
  -1 -12   7   55.05   10.74
  -1 -12   6  374.32   17.24
   1  12  -6  377.21   16.90
  -1 -12   6  313.37   13.82
  -1 -12   5  100.52    6.41
   1  12  -5  102.29    5.89
   1  12  -5  102.98    6.88
  -1 -12   4  212.39   10.07
   1  12  -4  225.47   10.84
   1  12  -4  211.04   10.07
  -1 -12   3  237.41   10.98
   1  12  -3  252.51   11.85
   1  12  -3  270.15   12.43
  -1 -12   2   25.39    4.38
  -1 -12   2   40.90    6.73
   1  12  -2   44.49    3.63
  -1 -12   1   -0.68    0.68
  -1 -12   1    1.58    0.88
   1  12  -1   -1.36    1.05
  -1 -12   0    0.17    0.56
  -1 -12   0    0.96    0.57
   1  12   0    1.23    1.18
  -1 -12  -1   27.73    4.81
   1  12   1   24.17    6.13
  -1 -12  -2   24.37    4.63
   1  12   2   27.92    2.77
  -1 -12  -3   59.06    8.58
   1  12   3   63.43   13.53
  -1 -12  -4  110.03   19.39
   1  12   4  114.46   12.71
  -1 -12  -5    1.28    1.27
   1  12   5    2.55    1.81
  -1 -12  -6   86.07    4.78
   1  12   6   90.71    5.11
  -1 -12  -7   22.20    3.03
   1  12   7   15.31    2.77
  -1 -12  -8   25.57    3.15
   1  12   8   22.75    3.31
  -1 -12  -9   -0.67    1.45
   1  12   9   -1.66    1.59
  -1 -12 -10    1.48    2.21
   1  12  10    0.12    1.72
  -1 -12 -11   28.57   10.26
   1  12  11   29.91    7.68
   1  12  12    3.19    2.05
   1  12  13   -1.93    1.72
  -1 -13  21   -1.29    1.85
  -1 -13  20    1.26    0.84
  -1 -13  19    1.95    1.35
   1  13 -19    0.91    1.43
  -1 -13  18   -0.53    1.47
   1  13 -18    1.47    1.52
   1  13 -17   -1.15    1.23
  -1 -13  16    2.44    1.15
   1  13 -16   -0.29    1.01
  -1 -13  15    0.77    0.67
   1  13 -15    0.54    1.09
  -1 -13  14    0.78    1.06
   1  13 -14   -0.29    1.03
  -1 -13  13    1.39    1.43
   1  13 -13   -0.83    0.97
  -1 -13  12    1.59    0.88
   1  13 -12   -1.55    1.00
  -1 -13  11    1.38    0.96
   1  13 -11    0.36    1.03
  -1 -13  10   -0.64    1.23
   1  13 -10    0.69    0.44
  -1 -13   9   -0.10    1.19
   1  13  -9    0.16    0.98
  -1 -13   8   -0.19    1.06
   1  13  -8    1.18    1.04
  -1 -13   7    1.06    0.89
   1  13  -7    0.21    1.00
  -1 -13   7    0.50    0.46
  -1 -13   6    0.69    0.58
   1  13  -6    2.44    0.85
  -1 -13   6    0.41    0.41
  -1 -13   5   -0.07    0.98
   1  13  -5    0.68    1.09
   1  13  -5   -0.06    0.80
  -1 -13   4   -0.11    0.53
   1  13  -4    0.22    1.00
   1  13  -4    0.62    0.64
  -1 -13   3    0.95    0.50
   1  13  -3    1.18    1.12
  -1 -13   2   -0.30    0.76
  -1 -13   2    0.24    0.81
   1  13  -2    1.62    1.07
  -1 -13   1   -0.03    0.71
  -1 -13   1    0.30    0.56
   1  13  -1    0.67    1.14
  -1 -13   0   -0.24    1.03
   1  13   0    0.55    1.15
  -1 -13  -1    0.73    0.93
   1  13   1    0.26    1.27
  -1 -13  -2    0.42    0.54
   1  13   2    1.47    1.43
  -1 -13  -3    1.36    1.05
   1  13   3    1.57    1.51
  -1 -13  -4   -0.48    1.10
   1  13   4    2.45    1.59
  -1 -13  -5    1.23    1.31
   1  13   5    1.24    1.64
  -1 -13  -6    2.01    1.93
   1  13   6    0.64    0.98
  -1 -13  -7    1.28    0.97
   1  13   7    0.83    1.01
  -1 -13  -8   -0.33    1.30
   1  13   8    0.40    0.84
  -1 -13  -9    1.52    2.11
   1  13   9   -1.71    1.79
   1  13  10    1.42    0.87
   1  13  11    0.42    1.67
  -1 -14  21    4.22    1.86
  -1 -14  20    4.52    1.00
  -1 -14  19    4.22    2.00
  -1 -14  18    1.36    1.21
   1  14 -18   -0.15    1.36
  -1 -14  17    0.24    1.65
   1  14 -17    0.54    1.27
  -1 -14  16    1.85    0.90
   1  14 -16    1.49    1.46
  -1 -14  15    7.12    1.70
   1  14 -15    3.54    1.45
  -1 -14  14   -1.20    1.49
   1  14 -14   -0.42    1.05
  -1 -14  13   32.15    9.39
   1  14 -13   23.03    2.73
  -1 -14  12   15.40    3.82
   1  14 -12   11.10    2.06
  -1 -14  11    2.95    0.92
   1  14 -11    3.39    1.66
  -1 -14  10    1.22    0.80
   1  14 -10    0.34    1.05
  -1 -14   9   11.13    2.89
   1  14  -9   12.25    1.99
  -1 -14   8   34.34    6.66
   1  14  -8   33.98    4.60
  -1 -14   7   32.94    7.76
   1  14  -7   35.33    7.03
  -1 -14   6    4.33    0.83
   1  14  -6    6.05    1.64
  -1 -14   6    4.89    1.32
  -1 -14   5    6.40    1.86
   1  14  -5    8.53    2.10
   1  14  -5    2.91    1.38
  -1 -14   4    0.47    0.51
   1  14  -4    3.23    1.63
   1  14  -4    0.02    0.77
  -1 -14   3   14.83    4.18
  -1 -14   3   14.65    3.15
   1  14  -3   18.33    2.88
  -1 -14   2   14.74    2.89
   1  14  -2   12.33    3.83
  -1 -14   1    8.05    1.84
   1  14  -1    4.01    1.35
  -1 -14   0    3.98    0.94
   1  14   0    7.03    2.09
  -1 -14  -1   10.79    2.27
   1  14   1   11.29    3.22
  -1 -14  -2   12.94    2.18
   1  14   2   11.61    2.29
  -1 -14  -3   65.45   10.20
   1  14   3   59.66    6.92
  -1 -14  -4    7.06    1.74
   1  14   4    9.25    1.76
  -1 -14  -5   28.60    5.36
   1  14   5   30.42   10.24
  -1 -14  -6    1.70    1.41
   1  14   6    3.99    1.89
  -1 -14  -7    9.95    2.28
   1  14   7   17.46    4.15
   1  14   8    6.56    2.85
   1  14   9    1.28    1.78
   1  14  10    5.35    2.37
  -1 -15  20    1.19    0.94
  -1 -15  19    0.39    0.88
  -1 -15  18    3.51    1.90
  -1 -15  17   -0.20    0.98
  -1 -15  16   -1.14    1.67
   1  15 -16    1.23    1.39
  -1 -15  15   -1.15    1.51
   1  15 -15    1.29    1.30
  -1 -15  14    1.42    0.75
   1  15 -14   -0.01    1.13
  -1 -15  13   -0.58    1.35
   1  15 -13    0.23    1.20
  -1 -15  12   -0.05    1.40
   1  15 -12    0.60    1.26
  -1 -15  11    0.00    1.37
   1  15 -11    1.11    1.23
  -1 -15  10    0.83    0.74
   1  15 -10    0.45    1.18
  -1 -15   9   -1.00    1.11
   1  15  -9    1.10    1.20
  -1 -15   8    0.93    0.72
   1  15  -8   -1.85    0.92
  -1 -15   7    0.52    0.77
   1  15  -7   -0.04    0.93
  -1 -15   6   -0.76    1.04
   1  15  -6    0.37    0.97
  -1 -15   5    0.85    0.63
   1  15  -5    1.24    1.49
  -1 -15   4   -0.82    0.87
  -1 -15   4   -0.03    0.97
   1  15  -4   -0.35    1.07
  -1 -15   3    0.17    0.64
   1  15  -3    1.80    0.88
  -1 -15   2   -0.56    0.95
   1  15  -2    0.90    1.36
  -1 -15   1   -0.33    0.97
   1  15  -1   -0.92    1.34
  -1 -15   0    0.44    0.69
   1  15   0   -0.12    1.20
  -1 -15  -1    0.50    0.64
   1  15   1    1.93    1.43
  -1 -15  -2    2.63    0.84
   1  15   2   -0.80    1.18
  -1 -15  -3    1.31    1.22
   1  15   3    0.48    1.06
  -1 -15  -4    1.91    1.42
   1  15   4   -0.80    1.58
   1  15   5    1.59    1.53
   1  15   6    0.97    1.53
   1  15   7   -0.31    1.79
   1  15   8   -1.26    1.96
  -1 -16  18    0.66    1.20
  -1 -16  17    1.13    1.12
  -1 -16  16   -0.48    1.66
  -1 -16  15   11.57    3.05
  -1 -16  14   -0.74    1.55
   1  16 -14    2.21    1.53
  -1 -16  13   11.62    3.34
   1  16 -13    5.41    1.94
  -1 -16  12    1.17    0.82
   1  16 -12    1.15    1.28
  -1 -16  11   12.22    3.13
   1  16 -11    7.52    1.73
  -1 -16  10    5.53    2.32
   1  16 -10    3.55    1.88
  -1 -16   9    1.13    0.52
   1  16  -9    1.38    1.21
  -1 -16   8   33.23    5.45
   1  16  -8   32.83    3.69
  -1 -16   7    7.21    2.40
   1  16  -7    7.91    2.23
   1  16  -6   14.05    2.63
  -1 -16   5    0.87    0.92
  -1 -16   4    0.70    0.61
  -1 -16   3    2.51    0.81
   1  16  -3    1.22    2.06
  -1 -16   2   37.62    7.38
   1  16  -2   43.38    5.49
  -1 -16   1    6.16    1.46
   1  16  -1    5.30    1.59
  -1 -16   0    5.41    1.76
   1  16   0    4.49    1.42
   1  16   1    1.89    1.47
   1  16   2    0.30    1.51
   1  16   3   11.69    3.51
   1  16   4   37.55    9.36
   1  16   5    5.89    2.35
  -1 -17  16   -0.11    1.58
  -1 -17  15   -2.55    1.71
  -1 -17  14    0.70    1.16
  -1 -17  13    0.41    0.83
  -1 -17  12   -0.21    1.38
  -1 -17  11    0.92    0.84
  -1 -17  10    0.30    0.99
   1  17  -7    2.05    1.36
   2 -19   4   -0.20    1.36
   2 -19   5   -0.32    1.45
   2 -19   6   -0.10    1.65
  -2  19  -7    2.46    1.99
  -2  19  -8    1.68    1.90
  -2  19  -9   -0.44    1.85
  -2  19 -10    2.36    2.74
  -2  19 -11    0.98    1.75
   2 -18  -1    3.63    1.39
   2 -18   0    5.01    1.46
   2 -18   1    3.18    1.37
   2 -18   2    0.27    0.72
   2 -18   3    7.16    2.13
   2 -18   4    5.56    2.04
  -2  18  -6    8.65    3.70
  -2  18  -7    8.84    2.66
  -2  18  -8    2.24    1.75
  -2  18  -9    8.59    2.20
  -2  18 -10    2.91    1.81
  -2  18 -11    1.35    1.69
  -2  18 -12    1.50    1.61
  -2  18 -13    1.61    2.43
  -2  18 -14    3.48    2.11
  -2  18 -15   21.13    6.15
   2 -17  -4   -0.46    1.49
   2 -17  -3    0.13    0.84
   2 -17  -2    0.45    1.02
   2 -17  -1   -0.65    1.53
   2 -17   0   -0.51    1.48
   2 -17   1    1.14    1.32
   2 -17   2    0.15    0.66
   2 -17   3    2.16    0.57
   2 -17   4    0.44    0.58
  -2  17  -6    0.29    1.60
  -2  17  -7    4.07    2.44
  -2  17  -8    2.18    1.76
  -2  17  -9    0.91    1.75
   2 -17  10   -0.57    1.39
  -2  17 -10    0.22    1.67
   2 -17  11    1.81    1.51
  -2  17 -11    1.14    1.64
   2 -17  12    1.00    1.45
  -2  17 -12   -0.14    1.53
   2 -17  13   -0.33    1.51
  -2  17 -13    0.66    1.61
   2 -17  14    1.65    1.11
  -2  17 -14    1.08    1.71
   2 -17  15    0.78    0.49
  -2  17 -15    0.51    0.81
   2 -17  16    1.29    0.94
  -2  17 -16   -1.09    1.80
   2 -17  17   -0.04    0.95
  -2  17 -17   -0.04    1.99
   2 -16  -7    0.73    0.98
   2 -16  -6    4.47    0.95
  -2  16   6    2.11    1.72
   2 -16  -5    1.21    0.94
  -2  16   5    4.53    2.42
   2 -16  -4    3.35    1.41
  -2  16   4    2.83    2.15
   2 -16  -3    2.83    1.56
  -2  16   3   -0.23    1.44
  -2  16   2   12.16    2.67
   2 -16  -1    7.26    2.37
  -2  16   1    7.01    1.97
   2 -16   0    1.54    1.42
  -2  16   0   -0.77    1.38
   2 -16   1   79.65   15.23
   2 -16   2    0.66    0.81
   2 -16   3    8.52    1.97
  -2  16  -4    4.31    1.66
  -2  16  -5    2.38    1.61
  -2  16  -6    1.31    2.06
   2 -16   7    0.59    0.93
  -2  16  -7    2.41    1.62
   2 -16   8    3.07    1.89
  -2  16  -8    3.79    1.58
   2 -16   9    0.58    0.67
  -2  16  -9    0.00    1.45
   2 -16  10    2.96    1.50
  -2  16 -10    0.23    1.33
   2 -16  11    1.02    1.28
  -2  16 -11    0.31    1.40
   2 -16  12    6.58    1.66
  -2  16 -12    2.54    1.77
   2 -16  13    7.82    2.29
  -2  16 -13    9.37    2.93
   2 -16  14   29.29    5.75
  -2  16 -14   18.75    3.63
   2 -16  15    0.32    1.68
  -2  16 -15    1.77    0.79
   2 -16  16    0.91    1.08
  -2  16 -16    0.77    1.84
   2 -16  17    0.14    1.06
  -2  16 -17    1.57    1.89
   2 -16  18   -0.47    1.84
  -2  16 -18    0.59    1.86
   2 -16  19    2.84    2.09
  -2  16 -19   -1.32    2.05
  -2  15   9    3.70    2.11
   2 -15  -8    0.13    1.61
  -2  15   8   -0.39    1.57
   2 -15  -7    1.51    1.76
  -2  15   7    2.42    1.66
   2 -15  -6   -0.94    1.56
  -2  15   6    1.67    1.61
   2 -15  -5   -0.58    1.42
  -2  15   5    1.40    1.59
   2 -15  -4    0.62    0.44
  -2  15   4    0.36    1.29
   2 -15  -3    0.87    1.22
  -2  15   3    0.10    1.20
   2 -15  -2    0.20    0.78
  -2  15   2    4.43    1.95
   2 -15  -1    1.15    0.97
  -2  15   1    0.33    1.28
  -2  15   0    0.66    1.24
   2 -15   1    4.06    0.76
  -2  15  -1    1.19    1.22
   2 -15   2    1.13    0.60
  -2  15  -2    1.08    1.11
  -2  15  -3    1.73    1.52
  -2  15  -3    1.16    1.09
  -2  15  -4    0.29    1.39
   2 -15   5    0.04    0.51
  -2  15  -5    1.99    1.55
   2 -15   6    1.92    1.19
  -2  15  -6    1.28    1.47
   2 -15   7    0.58    0.75
  -2  15  -7    2.32    2.12
   2 -15   8    0.80    1.25
  -2  15  -8   -0.14    1.39
   2 -15   9    1.24    0.51
  -2  15  -9    0.57    1.54
  -2  15 -10    1.35    1.55
   2 -15  11   -1.27    1.42
  -2  15 -11    1.72    1.52
   2 -15  12   -0.26    1.34
  -2  15 -12   -0.54    1.33
   2 -15  13    1.68    1.60
  -2  15 -13   -0.17    1.35
   2 -15  14    1.89    0.82
  -2  15 -14    1.80    1.61
   2 -15  15   -1.45    1.36
   2 -15  16   -0.25    1.48
  -2  15 -16    0.25    1.63
   2 -15  17   -2.16    1.79
  -2  15 -17   -0.17    1.67
   2 -15  18   -1.07    1.76
  -2  15 -18    0.45    1.78
   2 -15  19   -0.02    1.76
  -2  15 -19    1.66    2.03
   2 -15  20    0.65    1.10
  -2  15 -20    2.60    2.93
   2 -14 -11    6.37    2.90
  -2  14  11    1.20    2.11
   2 -14 -10    1.04    1.78
  -2  14  10    0.43    1.87
   2 -14  -9   -0.40    1.64
  -2  14   9   -0.33    1.66
   2 -14  -8    9.20    3.06
  -2  14   8    6.62    2.00
   2 -14  -7    4.11    1.79
  -2  14   7    9.19    2.84
   2 -14  -6    4.22    0.89
  -2  14   6    2.54    1.86
   2 -14  -5  121.15   17.71
  -2  14   5  101.76    5.67
   2 -14  -4   17.97    4.36
  -2  14   4   15.46    2.46
   2 -14  -3   40.82    8.01
  -2  14   3   45.90    3.60
   2 -14  -2   13.63    2.86
  -2  14   2   16.49    2.66
   2 -14  -1    3.74    1.36
  -2  14   1   -0.42    1.09
   2 -14   0    4.96    2.29
  -2  14   0    5.46    1.50
   2 -14   1   14.75    2.99
  -2  14  -1   16.35    2.48
  -2  14  -2   14.32    2.57
  -2  14  -2   11.74    1.96
  -2  14  -3    1.26    1.48
  -2  14  -3    1.48    0.85
   2 -14   4   -0.12    0.80
  -2  14  -4   -0.16    1.34
  -2  14  -4    0.02    0.57
   2 -14   5   12.45    2.08
  -2  14  -5   10.51    2.08
   2 -14   6   14.20    3.37
  -2  14  -6   18.38    2.63
   2 -14   7   -0.13    1.12
  -2  14  -7    1.99    1.58
   2 -14   8  213.16   13.69
  -2  14  -8  168.64   11.60
   2 -14   9   23.23    3.69
  -2  14  -9   18.54    3.30
   2 -14  10    6.91    1.76
  -2  14 -10    6.83    2.03
   2 -14  11   14.17    2.37
  -2  14 -11   11.39    3.38
   2 -14  12    0.63    1.39
  -2  14 -12   -0.01    1.43
   2 -14  13    5.11    1.52
  -2  14 -13    4.22    2.04
   2 -14  14   29.72    3.24
  -2  14 -14   21.47    3.09
   2 -14  15    3.60    1.19
  -2  14 -15    3.69    1.73
   2 -14  16    2.26    1.91
  -2  14 -16    1.43    1.63
   2 -14  17    1.17    1.90
  -2  14 -17    2.37    2.23
   2 -14  18    5.42    1.33
  -2  14 -18    2.79    2.30
   2 -14  19   -1.29    1.87
  -2  14 -19    0.21    1.78
   2 -14  20    5.58    2.18
  -2  14 -20    3.11    2.07
   2 -14  21    1.13    1.07
  -2  14 -21   -2.29    2.03
   2 -13 -12    4.94    2.86
  -2  13  12    0.85    1.80
   2 -13 -11   -0.01    1.64
  -2  13  11    2.99    1.90
   2 -13 -10    2.49    2.16
  -2  13  10    0.09    1.61
   2 -13  -9    0.81    0.81
  -2  13   9    0.44    1.63
   2 -13  -8    1.02    0.83
  -2  13   8    0.08    1.60
   2 -13  -7    1.00    0.85
  -2  13   7    0.97    1.65
   2 -13  -6    3.12    1.61
  -2  13   6    3.22    2.22
   2 -13  -5    0.14    0.74
  -2  13   5    2.50    1.53
   2 -13  -4    0.29    1.19
  -2  13   4    3.58    1.58
   2 -13  -3    1.00    0.79
  -2  13   3    1.06    1.26
   2 -13  -2   -1.05    1.33
  -2  13   2   -0.46    1.05
   2 -13  -1    0.84    0.78
  -2  13   1   -0.38    0.96
   2 -13   0    0.56    0.78
  -2  13   0    0.23    0.91
   2 -13   1    2.01    1.00
  -2  13  -1    0.65    0.97
   2 -13   2    1.06    0.72
  -2  13  -2    0.98    0.81
  -2  13  -2    0.33    0.32
   2 -13   3   -0.26    0.77
  -2  13  -3   -0.01    1.22
  -2  13  -3    0.39    0.78
   2 -13   4    0.44    0.59
  -2  13  -4    0.85    1.24
  -2  13  -4   -0.37    0.64
   2 -13   5    0.69    0.64
  -2  13  -5   -0.15    1.22
  -2  13  -5    0.12    0.38
   2 -13   6   -0.46    0.92
  -2  13  -6    0.31    1.29
   2 -13   7    1.38    0.71
  -2  13  -7    1.84    1.39
   2 -13   8   -0.27    1.10
  -2  13  -8   -0.18    1.33
   2 -13   9   -0.81    1.15
  -2  13  -9    2.50    0.89
   2 -13  10    0.25    1.21
  -2  13 -10    0.07    0.67
   2 -13  11    0.98    1.35
  -2  13 -11    1.15    1.43
   2 -13  12    2.80    1.75
  -2  13 -12    0.73    1.46
   2 -13  13    0.95    1.57
  -2  13 -13    1.98    1.45
   2 -13  14   -0.35    1.50
  -2  13 -14    0.72    1.49
   2 -13  15   -0.45    1.66
  -2  13 -15    0.17    1.49
   2 -13  16    1.11    1.66
  -2  13 -16    0.28    1.52
   2 -13  17    3.87    2.47
  -2  13 -17    3.25    1.78
   2 -13  18    0.79    0.99
  -2  13 -18   -0.82    1.58
   2 -13  19   -0.20    1.72
  -2  13 -19    0.96    0.84
   2 -13  20   -0.02    1.75
  -2  13 -20    0.61    1.70
   2 -13  21    1.78    2.12
  -2  13 -21   -0.17    1.77
  -2  13 -22   -1.49    2.01
   2 -12 -14    4.64    1.77
  -2  12  14    9.31    3.56
   2 -12 -13   19.99    5.71
  -2  12  13   12.84    4.49
   2 -12 -12   11.09    3.68
  -2  12  12   11.97    4.25
   2 -12 -11    3.94    2.64
  -2  12  11    1.53    1.83
   2 -12 -10   -0.51    1.75
  -2  12  10    1.52    1.77
   2 -12  -9    3.22    1.88
  -2  12   9    4.20    2.33
   2 -12  -8    8.19    2.09
  -2  12   8    8.44    2.54
   2 -12  -7   23.11    5.47
  -2  12   7   22.67    2.99
   2 -12  -6   -0.13    1.48
  -2  12   6   -1.18    1.36
   2 -12  -5    1.57    0.76
  -2  12   5    0.95    1.41
   2 -12  -4   40.01    7.83
  -2  12   4   35.15    4.05
   2 -12  -3   20.79    4.57
  -2  12   3   21.40    2.33
   2 -12  -2   42.48    6.34
  -2  12   2   27.15    2.64
   2 -12  -1  128.99    7.48
  -2  12   1  139.23    7.61
   2 -12   0   46.35    9.02
  -2  12   0   48.16    3.80
   2 -12   1  114.35    5.21
  -2  12  -1  103.18    6.04
  -2  12  -1  100.78    5.44
   2 -12   2   60.81    5.95
  -2  12  -2   55.93    4.13
  -2  12  -2   66.44    4.09
   2 -12   3   15.06    3.76
  -2  12  -3    8.16    1.97
  -2  12  -3    9.20    1.45
   2 -12   4   49.21    2.79
  -2  12  -4   37.14    3.08
  -2  12  -4   38.59    2.43
   2 -12   5   55.38   31.16
  -2  12  -5   43.55    3.19
  -2  12  -5   40.37    2.30
   2 -12   6   19.10    5.98
  -2  12  -6   16.11    2.24
   2 -12   7   -0.13    1.03
  -2  12  -7    1.69    1.78
   2 -12   8    3.21    1.41
  -2  12  -8    3.39    0.74
   2 -12   9  248.80   12.06
  -2  12  -9  174.67    9.19
   2 -12  10   14.70    2.81
  -2  12 -10    8.71    1.78
   2 -12  11   -0.35    1.34
  -2  12 -11    0.85    1.36
   2 -12  12   53.12    8.39
  -2  12 -12   47.82    3.73
   2 -12  13   45.99    4.69
  -2  12 -13   33.25    3.72
   2 -12  14    9.76    2.13
  -2  12 -14   11.15    2.66
   2 -12  15   54.52    8.93
  -2  12 -15   48.57    4.87
   2 -12  16   40.30    3.73
  -2  12 -16   27.65    3.14
   2 -12  17    4.78    0.86
  -2  12 -17    4.90    1.78
   2 -12  18    4.70    1.30
  -2  12 -18    4.30    1.87
   2 -12  19  115.59   12.43
  -2  12 -19   90.29   10.09
   2 -12  20    1.29    1.38
  -2  12 -20    1.62    2.03
   2 -12  21    9.96    3.47
  -2  12 -21    9.04    3.40
   2 -12  22   -1.14    1.97
  -2  12 -22    2.28    2.06
   2 -11 -15    0.54    1.63
  -2  11  15    0.19    1.84
   2 -11 -14   -0.68    2.02
  -2  11  14    0.56    1.93
   2 -11 -13    2.52    2.07
  -2  11  13    0.90    1.94
   2 -11 -12   -0.47    1.67
  -2  11  12   -1.28    1.68
   2 -11 -11    2.12    0.57
  -2  11  11    0.12    1.53
   2 -11 -10    0.97    1.10
  -2  11  10    3.88    1.69
   2 -11  -9   -0.25    1.44
  -2  11   9    1.53    1.66
   2 -11  -8    1.85    0.89
  -2  11   8    1.05    1.19
   2 -11  -7   -0.79    1.55
  -2  11   7    2.77    1.59
   2 -11  -6    0.65    0.84
  -2  11   6    1.55    1.50
   2 -11  -5    1.98    1.08
  -2  11   5    1.51    0.83
   2 -11  -4    0.97    0.66
  -2  11   4    1.06    1.32
   2 -11  -3    0.94    0.90
  -2  11   3    0.88    1.19
   2 -11  -2    0.92    1.00
  -2  11   2    0.22    1.17
   2 -11  -1   -1.17    1.30
  -2  11   1   -1.52    1.05
   2 -11   0   -0.24    0.56
  -2  11   0    0.76    0.82
   2 -11   1    1.09    0.65
  -2  11  -1    0.24    1.37
  -2  11  -1    0.17    0.90
   2 -11   2    0.14    0.58
  -2  11  -2    0.07    1.21
  -2  11  -2   -0.37    0.77
   2 -11   3    0.57    0.35
  -2  11  -3    0.40    1.18
  -2  11  -3    1.88    0.84
   2 -11   4   -0.23    0.77
  -2  11  -4   -1.87    1.18
  -2  11  -4   -0.09    0.64
   2 -11   5    1.27    0.93
  -2  11  -5    0.21    1.32
  -2  11  -5    0.31    0.58
   2 -11   6    1.19    0.77
  -2  11  -6   -1.14    1.07
  -2  11  -6    0.20    0.50
   2 -11   7    1.57    1.07
  -2  11  -7    0.07    1.13
   2 -11   8    1.50    1.16
  -2  11  -8    1.91    1.30
   2 -11   9    0.11    1.15
  -2  11  -9   -0.57    1.20
   2 -11  10    0.54    1.25
  -2  11 -10    0.97    1.26
   2 -11  11   -1.07    1.44
  -2  11 -11    1.33    1.45
   2 -11  12    1.59    1.99
  -2  11 -12   -0.51    1.03
   2 -11  13   -1.15    1.54
  -2  11 -13    1.68    1.58
   2 -11  14    0.22    1.56
  -2  11 -14    0.25    1.54
   2 -11  15    1.42    1.01
  -2  11 -15   -0.20    1.20
   2 -11  16   -0.53    1.51
  -2  11 -16   -0.65    1.72
   2 -11  17   -0.15    1.49
  -2  11 -17    0.81    1.62
   2 -11  18    0.35    1.14
  -2  11 -18    3.02    2.44
   2 -11  19   -0.19    1.62
  -2  11 -19   -1.85    1.70
   2 -11  20    1.40    1.46
  -2  11 -20    2.87    2.67
   2 -11  21   -0.75    1.58
  -2  11 -21    0.62    1.87
   2 -11  22    1.41    1.23
  -2  11 -22    0.93    1.76
  -2  11 -23    2.68    2.23
   2 -10 -16   25.42    9.19
  -2  10  16   29.61    7.69
   2 -10 -15    7.24    2.34
  -2  10  15    7.58    2.30
   2 -10 -14    7.60    2.89
  -2  10  14   14.85    3.64
   2 -10 -13    1.29    1.83
  -2  10  13    1.49    1.73
   2 -10 -12   -0.41    1.60
  -2  10  12   -0.12    1.41
   2 -10 -11   18.68    4.84
  -2  10  11   13.21    2.39
   2 -10 -10   19.70    4.32
  -2  10  10   21.53    3.02
   2 -10  -9   97.25   11.23
  -2  10   9   74.55   19.04
   2 -10  -8   57.58   12.68
  -2  10   8   45.09    9.28
   2 -10  -7    2.71    1.10
  -2  10   7    5.63    1.53
   2 -10  -6    8.93    2.53
  -2  10   6    6.76    1.63
   2 -10  -5    9.05    5.18
  -2  10   5   10.39    1.69
   2 -10  -4    4.20    0.99
  -2  10   4   -1.07    1.33
   2 -10  -3  182.02    7.57
  -2  10   3  203.67    6.79
   2 -10  -2  208.65    7.25
  -2  10   2  232.53    8.21
   2 -10  -1   81.71    4.55
  -2  10   1   91.81    3.73
   2 -10   0   71.90    7.60
  -2  10   0   60.94    3.69
  -2  10   0   62.23    3.31
   2 -10   1   57.38    2.33
  -2  10  -1   47.49    3.22
  -2  10  -1   49.79    8.19
   2 -10   2   11.61    2.11
  -2  10  -2    9.18    1.89
  -2  10  -2    9.10    1.98
   2 -10   3   65.26   10.03
  -2  10  -3   53.08    3.17
  -2  10  -3   50.60    7.80
   2 -10   4   -0.22    0.76
  -2  10  -4    3.78    1.75
  -2  10  -4   -0.26    0.51
   2 -10   5    0.30    0.53
  -2  10  -5    1.43    1.26
  -2  10  -5    1.32    0.62
   2 -10   6   12.25    1.47
  -2  10  -6    7.81    1.59
  -2  10  -6    5.39    1.49
   2 -10   7    0.96    1.05
  -2  10  -7    2.51    1.87
   2 -10   8   76.88    3.68
  -2  10  -8   64.37    3.60
   2 -10   9   78.97    3.76
  -2  10  -9   77.13    3.97
   2 -10  10  321.90    9.41
  -2  10 -10  280.22    8.68
   2 -10  11  189.59    8.90
  -2  10 -11  166.92    8.32
   2 -10  12   -0.27    1.53
  -2  10 -12    3.15    1.58
   2 -10  13    8.94    2.24
  -2  10 -13    6.99    2.06
   2 -10  14   48.03    8.62
  -2  10 -14   39.70    3.56
   2 -10  15  193.51   14.34
  -2  10 -15  161.52   11.27
   2 -10  16  235.08    8.43
  -2  10 -16  186.48   20.07
   2 -10  17    1.62    1.21
  -2  10 -17    0.07    1.79
   2 -10  18   30.46    3.52
  -2  10 -18   19.26    3.05
   2 -10  19   19.37    3.10
  -2  10 -19   16.72    2.88
   2 -10  20    4.73    1.53
  -2  10 -20    6.28    2.68
   2 -10  21   -1.60    1.45
  -2  10 -21    2.82    2.14
   2 -10  22   16.84    6.92
  -2  10 -22   14.45    4.30
  -2  10 -23   11.97    3.80
   2  -9 -17    2.67    1.81
  -2   9  17    0.17    1.87
   2  -9 -16    1.28    1.44
  -2   9  16    4.54    2.02
   2  -9 -15   -0.10    1.80
  -2   9  15    2.59    2.59
   2  -9 -14   -0.13    1.64
  -2   9  14   -0.47    1.64
   2  -9 -13   -0.35    1.61
  -2   9  13    0.45    1.67
   2  -9 -12   -0.23    1.57
  -2   9  12    1.32    1.61
   2  -9 -11    0.38    1.46
  -2   9  11    0.66    1.20
   2  -9 -10    0.00    1.65
  -2   9  10    0.18    1.56
   2  -9  -9   -0.24    1.62
  -2   9   9   -0.61    1.55
   2  -9  -8    2.98    1.74
  -2   9   8    3.72    1.73
   2  -9  -7   -0.18    1.42
  -2   9   7    1.30    1.43
   2  -9  -6    0.82    0.73
  -2   9   6   -0.18    1.30
   2  -9  -5    0.49    0.76
  -2   9   5    1.34    1.28
   2  -9  -4   -0.35    1.25
  -2   9   4   -0.22    1.16
   2  -9  -3    1.19    0.63
  -2   9   3    0.67    1.09
   2  -9  -2    1.18    1.03
  -2   9   2   -0.30    0.94
   2  -9  -1    0.44    0.42
   2  -9  -1    0.14    0.75
  -2   9   1    0.15    0.83
   2  -9   0    0.26    0.33
  -2   9   0    0.94    0.80
  -2   9   0    0.25    0.79
   2  -9   1   -0.30    0.55
  -2   9  -1    1.31    1.12
  -2   9  -1   -0.02    0.71
   2  -9   2   -0.13    0.60
  -2   9  -2    1.75    1.53
  -2   9  -2   -0.02    0.60
   2  -9   3   -0.27    0.63
  -2   9  -3   -0.16    1.07
   2  -9   4    0.54    0.80
  -2   9  -4    0.50    1.07
   2  -9   5    0.73    0.80
  -2   9  -5   -0.13    1.13
  -2   9  -5    0.38    0.45
   2  -9   6   -0.57    0.81
  -2   9  -6    0.12    1.13
  -2   9  -6    0.10    0.31
   2  -9   7    0.35    0.93
  -2   9  -7    0.25    1.12
   2  -9   8    0.35    0.59
  -2   9  -8    0.32    1.21
   2  -9   9    0.60    0.94
  -2   9  -9    0.28    0.64
   2  -9  10   -2.91    1.39
  -2   9 -10   -0.15    1.35
   2  -9  11    2.23    1.52
  -2   9 -11    0.90    0.54
   2  -9  12    0.94    1.38
  -2   9 -12    1.10    1.42
   2  -9  13    1.27    1.02
  -2   9 -13    0.09    1.27
   2  -9  14   -0.60    1.37
  -2   9 -14    0.42    1.32
   2  -9  15    0.35    0.79
  -2   9 -15    2.19    1.67
   2  -9  16    0.77    0.86
  -2   9 -16    0.74    1.66
   2  -9  17   -1.51    1.47
  -2   9 -17    0.19    1.70
   2  -9  18   -0.46    1.46
  -2   9 -18    0.88    1.69
   2  -9  19   -1.37    1.37
   2  -9  20   -1.14    1.60
  -2   9 -20    3.08    1.90
   2  -9  21    0.78    0.67
  -2   9 -21   -0.56    1.87
   2  -9  22    0.22    0.61
  -2   9 -22   -0.70    1.99
  -2   9 -23    1.08    1.94
   2  -8 -18    2.32    2.29
   2  -8 -17    4.05    1.95
  -2   8  17    2.34    1.67
   2  -8 -16   28.83    6.25
  -2   8  16   20.10    4.17
   2  -8 -15    1.47    2.18
  -2   8  15    2.32    1.59
   2  -8 -14    1.90    1.77
  -2   8  14    0.34    1.64
   2  -8 -13    0.28    1.60
  -2   8  13   -0.98    1.57
   2  -8 -12   38.43    4.29
  -2   8  12   32.32    6.28
   2  -8 -11    7.39    2.41
  -2   8  11    4.76    1.98
   2  -8 -10  180.18    7.18
  -2   8  10  163.57    6.93
   2  -8  -9  879.30  145.26
  -2   8   9  872.96   14.05
   2  -8  -8   74.21   14.19
  -2   8   8   60.71    4.37
   2  -8  -7   59.67   10.34
  -2   8   7   55.34    3.52
   2  -8  -6  109.55    4.63
  -2   8   6  115.07    4.60
   2  -8  -5   30.38    5.86
  -2   8   5   31.97    2.57
   2  -8  -4   50.46    8.88
  -2   8   4   57.03    3.01
   2  -8  -3   16.57    2.99
  -2   8   3   18.28    4.70
   2  -8  -2   39.86    2.36
   2  -8  -2   38.01    5.77
  -2   8   2   41.14    7.53
   2  -8  -1   55.30    3.90
  -2   8   1   48.59    2.47
   2  -8   0  200.70    4.98
  -2   8   0  173.20    5.72
  -2   8   0  180.40    5.42
   2  -8   1  132.86    3.64
  -2   8  -1  125.37    4.48
  -2   8  -1  132.65    4.91
   2  -8   2    5.27    1.14
  -2   8  -2    3.79    1.16
  -2   8  -2    4.43    0.95
   2  -8   3    0.73    0.55
  -2   8  -3    1.53    0.84
   2  -8   4  747.90   15.55
  -2   8  -4  643.35   14.26
  -2   8  -4  649.34   12.78
   2  -8   5   70.87    4.47
  -2   8  -5   66.52    3.27
  -2   8  -5   60.52    1.88
   2  -8   6  123.45    4.20
  -2   8  -6  102.95    4.05
  -2   8  -6   84.25    4.30
   2  -8   7    6.17    1.32
  -2   8  -7    6.72    1.26
   2  -8   8  100.80    5.20
  -2   8  -8   94.88    5.04
   2  -8   9  107.97    5.04
  -2   8  -9   87.12    3.79
   2  -8  10    0.97    1.45
  -2   8 -10    0.37    1.29
   2  -8  11   32.34    2.81
  -2   8 -11   31.51    2.85
   2  -8  12   38.04    6.68
  -2   8 -12   22.56    2.33
   2  -8  13   17.14    2.42
  -2   8 -13   12.17    1.97
   2  -8  14    1.95    0.93
  -2   8 -14    0.49    1.48
   2  -8  15  139.02   22.58
  -2   8 -15  113.53    5.40
   2  -8  16  156.36    6.63
  -2   8 -16  115.25    6.10
   2  -8  17    3.21    1.21
  -2   8 -17    0.15    1.78
   2  -8  18    6.03    1.07
  -2   8 -18    5.48    2.36
   2  -8  19   12.25    3.53
  -2   8 -19    7.29    2.56
   2  -8  20    7.18    2.07
  -2   8 -20    6.29    2.42
   2  -8  21   23.71    6.58
  -2   8 -21   23.44    4.36
   2  -8  22   23.14    6.29
  -2   8 -22   22.17    6.13
  -2   8 -23    8.76    3.63
   2  -7 -19    0.87    2.26
   2  -7 -18    4.85    3.20
  -2   7  18    1.87    1.65
   2  -7 -17    4.85    3.30
  -2   7  17    4.04    2.17
   2  -7 -16    0.28    2.13
  -2   7  16   -0.06    1.39
   2  -7 -15    2.18    1.57
  -2   7  15    0.66    1.14
   2  -7 -14    0.58    0.88
  -2   7  14    0.13    1.63
   2  -7 -13    0.85    1.14
  -2   7  13    1.04    0.90
   2  -7 -12    0.77    1.88
  -2   7  12    3.41    1.74
   2  -7 -11    3.02    2.49
  -2   7  11    1.28    1.53
   2  -7 -10    1.66    0.98
  -2   7  10    2.60    1.56
   2  -7  -9   -1.13    1.78
  -2   7   9    0.13    0.92
   2  -7  -8    0.89    1.32
  -2   7   8   -0.63    1.35
   2  -7  -7   -0.73    1.20
  -2   7   7   -1.20    1.25
   2  -7  -6   -1.39    1.00
  -2   7   6   -0.22    1.19
   2  -7  -5    0.84    0.83
  -2   7   5    0.36    1.11
   2  -7  -4    1.05    0.45
  -2   7   4    0.44    0.99
   2  -7  -3    0.90    0.55
  -2   7   3    0.06    0.98
   2  -7  -2   -0.09    0.34
   2  -7  -2   -0.97    0.87
  -2   7   2    0.08    0.92
   2  -7  -1    0.38    0.20
  -2   7   1   -1.76    0.96
  -2   7   1    0.38    0.74
   2  -7   0   -0.86    0.44
  -2   7   0    1.00    0.88
  -2   7   0   -0.01    0.73
   2  -7   1   -0.26    0.52
  -2   7  -1   -0.41    0.81
  -2   7  -1    0.37    0.66
   2  -7   2    0.39    0.58
  -2   7  -2    0.92    0.94
  -2   7  -2   -0.10    0.54
   2  -7   3   -0.18    0.68
  -2   7  -3    1.26    0.82
  -2   7  -3   -0.48    0.45
   2  -7   4    0.62    0.52
  -2   7  -4    0.12    0.95
  -2   7  -4   -0.06    0.37
   2  -7   5   -0.18    0.76
  -2   7  -5   -0.74    0.95
  -2   7  -5   -0.27    0.25
   2  -7   6    0.39    0.83
   2  -7   7   -0.64    0.89
  -2   7  -7    0.97    1.04
   2  -7   8    0.02    0.95
  -2   7  -8    1.02    1.20
   2  -7   9    0.72    1.05
  -2   7  -9    1.61    1.19
   2  -7  10   -0.22    1.10
  -2   7 -10    1.85    1.78
   2  -7  11   -0.39    1.19
  -2   7 -11    0.60    1.78
   2  -7  12    1.20    0.67
  -2   7 -12    0.55    1.35
   2  -7  13   -1.11    1.19
  -2   7 -13   -1.85    1.24
   2  -7  14    2.32    1.56
  -2   7 -14   -0.55    1.33
   2  -7  15    0.94    1.78
  -2   7 -15   -1.16    1.41
   2  -7  16   -1.23    1.32
  -2   7 -16    0.58    1.61
   2  -7  17    1.60    1.01
  -2   7 -17    1.72    1.71
   2  -7  18    0.36    1.30
  -2   7 -18    0.80    1.79
   2  -7  19    2.57    1.01
  -2   7 -19    1.15    1.70
   2  -7  20    1.14    0.80
  -2   7 -20    0.27    1.62
   2  -7  21    0.91    1.42
  -2   7 -21   -0.05    1.68
  -2   7 -22   -0.58    1.85
  -2   7 -23    0.52    1.88
   2  -6 -20    2.59    2.48
   2  -6 -19    0.04    2.05
   2  -6 -18    9.58    2.73
  -2   6  18    4.39    2.30
   2  -6 -17    6.58    2.67
  -2   6  17    6.60    2.24
   2  -6 -16    6.47    1.88
  -2   6  16    3.41    0.90
   2  -6 -15    3.95    1.00
  -2   6  15    5.02    1.45
   2  -6 -14   -0.75    1.68
  -2   6  14    0.47    1.60
   2  -6 -13   42.58    4.59
  -2   6  13   43.92    4.41
   2  -6 -12  115.07    5.71
  -2   6  12  103.33    7.83
   2  -6 -11   -0.27    1.59
  -2   6  11   -1.48    1.54
   2  -6 -10   11.09    2.25
  -2   6  10   12.70    3.10
   2  -6  -9  319.33    9.51
  -2   6   9  322.20    9.46
   2  -6  -8   10.88    2.20
  -2   6   8   10.60    1.97
   2  -6  -7   14.25    1.95
  -2   6   7   14.72    1.76
   2  -6  -6   63.31   10.48
  -2   6   6   66.87    3.99
   2  -6  -5    3.39    1.12
  -2   6   5    2.78    0.98
   2  -6  -4    0.81    0.46
  -2   6   4    1.53    1.06
   2  -6  -3   15.30    1.52
   2  -6  -3   16.90    3.19
  -2   6   3   15.63    3.33
   2  -6  -2  370.89    6.85
   2  -6  -2  277.24    7.66
  -2   6   2  357.55    8.16
   2  -6  -1   13.79    2.31
  -2   6   1   14.78    1.38
  -2   6   1   15.72    1.32
   2  -6   0  108.47    4.61
  -2   6   0  112.94    5.44
  -2   6   0  100.75    4.56
   2  -6   1  335.99    6.94
  -2   6  -1  291.83    7.01
  -2   6  -1  292.29    6.30
   2  -6   2 2163.16   35.91
  -2   6  -2 1871.25   31.92
  -2   6  -2 2003.84   32.93
   2  -6   3    2.91    0.79
  -2   6  -3    2.64    1.00
  -2   6  -3   -1.00    0.58
   2  -6   4  288.60    8.24
  -2   6  -4  243.57    6.18
  -2   6  -4  245.97    4.91
   2  -6   5   13.64    1.35
  -2   6  -5   15.19    3.41
  -2   6  -5   13.57    0.72
   2  -6   6  247.26    6.36
  -2   6  -6  211.16    6.92
   2  -6   7    2.28    1.31
  -2   6  -7    5.78    1.09
   2  -6   8   18.22    2.30
  -2   6  -8   17.24    1.88
   2  -6   9    9.16    1.33
  -2   6  -9    8.92    1.54
   2  -6  10   15.15    2.77
  -2   6 -10   17.81    1.99
   2  -6  11   10.66    2.01
  -2   6 -11    7.18    1.67
   2  -6  12   -0.27    1.05
  -2   6 -12    0.51    1.38
   2  -6  13    3.31    1.48
  -2   6 -13    2.09    1.17
   2  -6  14    5.10    1.13
  -2   6 -14    4.09    1.60
   2  -6  15  128.60    7.15
  -2   6 -15  124.79    7.57
   2  -6  16   10.82    2.42
  -2   6 -16    8.58    2.29
   2  -6  17    3.85    1.67
  -2   6 -17    1.80    1.56
   2  -6  18    4.76    0.96
  -2   6 -18    4.03    1.86
   2  -6  19    2.15    1.36
  -2   6 -19    4.39    2.55
   2  -6  20    2.04    2.01
  -2   6 -20    4.44    2.77
   2  -6  21    1.15    1.39
  -2   6 -21   -1.00    1.85
  -2   6 -22    1.77    2.10
  -2   6 -23    0.92    2.00
   2  -5 -20    0.19    2.07
   2  -5 -19    2.91    2.10
  -2   5  19    0.53    1.46
   2  -5 -18    2.48    2.83
  -2   5  18   -0.98    1.49
   2  -5 -17    0.35    1.73
  -2   5  17    1.28    1.45
   2  -5 -16   -0.15    1.58
  -2   5  16    0.45    0.90
   2  -5 -15    0.69    1.34
  -2   5  15   -0.61    1.51
   2  -5 -14    2.60    1.96
  -2   5  14   -0.86    1.48
   2  -5 -13    1.38    1.16
  -2   5  13   -1.44    1.36
   2  -5 -12    1.01    0.92
  -2   5  12    0.76    0.71
   2  -5 -11    2.03    1.63
  -2   5  11    2.44    1.83
   2  -5 -10    0.48    1.26
  -2   5  10   -0.16    1.22
   2  -5  -9   -0.49    1.20
  -2   5   9    2.02    1.29
   2  -5  -8    0.58    1.15
  -2   5   8   -0.15    1.15
   2  -5  -7   -0.95    0.97
  -2   5   7   -0.07    0.88
   2  -5  -6    1.62    0.72
  -2   5   6   -0.37    1.09
   2  -5  -5   -0.57    0.88
  -2   5   5    0.68    1.09
   2  -5  -4   -0.31    0.87
  -2   5   4    0.45    1.00
   2  -5  -3    0.10    0.21
   2  -5  -3   -1.79    0.83
  -2   5   3   -0.53    0.88
   2  -5  -2   -0.12    0.36
  -2   5   2    1.92    1.18
   2  -5  -1    0.17    0.44
  -2   5   1   -0.47    0.75
  -2   5   1    0.02    0.77
   2  -5   0    0.57    0.52
  -2   5   0    1.65    1.05
  -2   5   0   -0.06    0.65
   2  -5   1   -0.85    0.49
  -2   5  -1    1.88    1.09
  -2   5  -1   -0.11    0.53
   2  -5   2    0.72    0.68
  -2   5  -2    1.80    1.06
   2  -5   3    0.41    0.69
  -2   5  -3    0.07    0.38
   2  -5   4    0.76    0.77
  -2   5  -4    1.41    1.10
  -2   5  -4    1.19    0.62
   2  -5   5    0.96    0.77
   2  -5   6    0.54    0.37
  -2   5  -6   -0.33    0.95
   2  -5   7    0.34    0.65
  -2   5  -7   -0.90    0.97
   2  -5   8   -0.65    0.86
  -2   5  -8   -0.88    1.01
   2  -5   9    2.30    1.13
   2  -5  10   -0.75    1.01
  -2   5 -10    2.12    1.72
   2  -5  11   -1.25    1.00
  -2   5 -11    0.09    1.23
   2  -5  12    0.30    0.49
  -2   5 -12    0.63    1.31
   2  -5  13   -0.22    1.06
  -2   5 -13    2.66    1.57
   2  -5  14   -0.17    1.12
  -2   5 -14    0.70    1.60
   2  -5  15    2.32    1.03
  -2   5 -15    0.96    1.60
   2  -5  16    0.60    1.00
  -2   5 -16   -0.56    1.64
   2  -5  17    0.17    1.12
  -2   5 -17   -0.70    1.58
   2  -5  18    4.72    1.78
  -2   5 -18    0.69    1.66
   2  -5  19    1.60    1.42
  -2   5 -19    2.05    1.85
   2  -5  20   -0.07    1.34
  -2   5 -20    0.62    1.90
  -2   5 -21   -0.19    1.99
  -2   5 -22   -1.05    1.84
  -2   5 -23    1.51    2.09
   2  -4 -21    3.49    2.58
   2  -4 -20    7.32    2.59
   2  -4 -19    0.14    1.87
  -2   4  19    0.91    1.06
   2  -4 -18    6.98    2.58
  -2   4  18    0.82    1.05
   2  -4 -17    8.53    2.64
  -2   4  17    6.97    1.81
   2  -4 -16    5.58    1.89
  -2   4  16    3.97    1.44
   2  -4 -15   12.42    2.37
  -2   4  15    8.72    2.10
   2  -4 -14   17.84    2.74
  -2   4  14   18.30    2.64
   2  -4 -13   34.97    3.20
  -2   4  13   29.49    6.63
   2  -4 -12   79.39   12.79
  -2   4  12   69.24    4.64
   2  -4 -11   98.26    4.76
  -2   4  11   88.12    4.53
   2  -4 -10   14.99    1.81
  -2   4  10   14.87    1.72
   2  -4  -9   51.68    3.20
  -2   4   9   46.69    9.14
   2  -4  -8   -0.78    1.03
  -2   4   8    0.29    1.06
   2  -4  -7  428.72   10.40
  -2   4   7  451.48   10.84
   2  -4  -6  138.64    4.67
  -2   4   6  161.41    5.29
   2  -4  -5  665.02   14.26
  -2   4   5  768.87   15.00
   2  -4  -4    0.27    0.27
   2  -4  -4    0.40    0.54
  -2   4   4    2.18    1.23
   2  -4  -3  619.58    6.70
   2  -4  -3  512.98    7.80
  -2   4   3  649.39    9.45
   2  -4  -2  472.49    7.87
   2  -4  -1  111.37    3.15
  -2   4   1  106.84    5.73
  -2   4   1  109.61    3.72
   2  -4   0  119.08    3.44
  -2   4   0   98.69    3.35
  -2   4   0  114.61    3.56
   2  -4   1  296.82    7.33
  -2   4  -1  251.06    6.60
  -2   4  -1  289.55    7.12
   2  -4   2   93.31    3.12
  -2   4  -2   85.76    3.04
  -2   4  -2   94.20    2.81
   2  -4   3    0.76    0.52
  -2   4  -3   -0.14    0.69
  -2   4  -3    0.63    0.51
   2  -4   4    2.05    0.84
  -2   4  -4    5.02    1.09
  -2   4  -4    5.83    0.82
   2  -4   5    9.27    2.29
  -2   4  -5    7.23    1.08
  -2   4  -5    7.39    1.53
   2  -4   6  211.57   62.23
  -2   4  -6  195.43    5.29
  -2   4  -6  176.41    3.41
   2  -4   7  579.25   12.32
  -2   4  -7  572.69   11.67
  -2   4  -7  457.13    7.85
   2  -4   8  615.04   12.63
  -2   4  -8  566.12   11.93
  -2   4  -8  424.89    7.43
   2  -4   9  402.51   10.53
  -2   4  -9  384.60    9.57
  -2   4  -9  269.59    5.47
   2  -4  10   58.32    6.63
  -2   4 -10   48.19    2.89
   2  -4  11   -0.91    1.11
  -2   4 -11    1.37    1.35
   2  -4  11    0.21    0.24
   2  -4  12   53.39    3.13
  -2   4 -12   41.06    2.91
   2  -4  13   19.78    3.32
  -2   4 -13   19.01    2.51
   2  -4  14   97.63    8.21
  -2   4 -14   84.18    5.22
   2  -4  15    2.80    1.29
  -2   4 -15    1.65    1.63
   2  -4  16    0.46    1.24
  -2   4 -16   -0.08    1.64
   2  -4  17    2.38    1.33
  -2   4 -17    2.42    2.47
   2  -4  18    4.05    0.93
  -2   4 -18    2.16    1.78
   2  -4  19   28.71    7.40
  -2   4 -19   33.30    3.88
   2  -4  20    2.76    0.69
  -2   4 -20    3.62    2.17
  -2   4 -21    5.25    3.00
  -2   4 -22    2.17    2.11
  -2   4 -23    1.60    2.19
   2  -3 -21   -0.35    2.18
   2  -3 -20   -0.70    1.83
   2  -3 -19    0.02    1.15
  -2   3  19    0.48    0.70
   2  -3 -18    0.76    1.84
  -2   3  18   -0.90    1.20
   2  -3 -17    0.97    1.66
  -2   3  17    0.65    1.20
   2  -3 -16    0.35    1.97
  -2   3  16   -0.59    1.17
   2  -3 -15    5.27    2.24
  -2   3  15   -1.37    1.23
   2  -3 -14    0.93    1.66
  -2   3  14    2.09    1.90
  -2   3  13    0.04    1.29
   2  -3 -12    1.65    1.44
  -2   3  12    1.43    1.36
   2  -3 -11   -1.55    1.33
  -2   3  11    0.96    1.22
   2  -3 -10    0.86    0.64
  -2   3  10   -0.05    1.20
   2  -3  -9    1.29    1.14
  -2   3   9   -1.36    1.01
  -2   3   8    0.19    0.17
   2  -3  -8    1.18    1.00
  -2   3   8   -0.12    0.86
   2  -3  -7   -0.37    0.21
   2  -3  -7    0.39    0.39
   2  -3  -6    0.31    0.79
  -2   3   6    1.90    1.10
   2  -3  -5    0.38    0.28
   2  -3  -5   -0.61    0.68
  -2   3   5    1.44    1.04
   2  -3  -4    0.74    0.49
  -2   3   4    0.35    0.95
   2  -3  -3    0.18    0.22
   2  -3  -3   -0.08    0.61
  -2   3   3    2.49    0.80
   2  -3  -2    0.40    0.29
   2  -3  -2   -0.14    0.57
  -2   3   2   -0.36    0.84
   2  -3  -1    1.64    0.99
  -2   3   1    0.25    0.26
  -2   3   1    0.93    0.80
   2  -3   0   -0.74    0.61
  -2   3   0   -0.51    0.63
   2  -3   1    0.09    1.12
  -2   3  -1   -0.05    0.41
  -2   3  -1   -0.32    0.69
   2  -3   2    0.92    0.68
  -2   3  -2   -0.32    0.51
  -2   3  -2   -0.15    0.51
   2  -3   3    0.69    0.49
  -2   3  -3    0.39    0.58
  -2   3  -3    0.67    0.50
  -2   3  -4   -1.05    0.41
   2  -3   5    0.33    0.52
  -2   3  -5    3.21    1.17
   2  -3   6    1.50    0.88
  -2   3  -6   -0.50    1.12
   2  -3   7    0.94    0.60
  -2   3  -7    2.28    1.41
  -2   3  -7    0.41    0.26
   2  -3   8    0.88    0.58
  -2   3  -8    0.84    1.07
   2  -3   8    0.23    0.36
   2  -3   9    2.08    0.87
  -2   3  -9    2.18    1.38
   2  -3   9   -0.04    0.40
   2  -3  10    2.48    1.22
  -2   3 -10   -0.72    1.16
   2  -3  10   -0.14    0.44
   2  -3  11   -0.35    0.91
  -2   3 -11    1.10    1.11
   2  -3  11    0.37    0.49
   2  -3  12    2.69    1.18
  -2   3 -12    1.78    1.49
   2  -3  12    0.73    0.70
   2  -3  13   -1.27    1.05
  -2   3 -13    0.97    1.52
   2  -3  13   -0.39    0.47
   2  -3  14    0.87    1.10
  -2   3 -14    0.53    1.62
   2  -3  14   -0.16    0.55
   2  -3  15   -1.33    1.21
  -2   3 -15    1.74    1.84
   2  -3  16    0.73    0.80
  -2   3 -16   -0.91    1.69
   2  -3  17    0.69    1.24
  -2   3 -17    1.28    1.90
   2  -3  18   -0.76    1.11
  -2   3 -18    0.84    1.31
   2  -3  19    0.82    0.53
  -2   3 -19   -0.16    1.74
  -2   3 -20   -0.97    1.67
  -2   3 -21   -0.09    1.88
  -2   3 -22    1.98    2.16
  -2   3 -23    1.81    2.12
   2  -2 -22    3.99    2.40
   2  -2 -21    3.43    2.52
   2  -2 -20    0.65    1.94
   2  -2 -19   10.04    2.80
  -2   2  19    1.20    0.68
   2  -2 -18    3.63    1.95
  -2   2  18    2.59    1.29
   2  -2 -17    1.28    1.61
  -2   2  17    1.38    0.81
   2  -2 -16   -0.69    1.82
  -2   2  16    2.35    1.36
   2  -2 -15   20.52    3.01
  -2   2  15   19.91    2.29
   2  -2 -14    2.98    1.44
  -2   2  14    2.98    1.23
   2  -2 -13   11.99    2.31
  -2   2  13   13.97    2.05
   2  -2 -12  308.38    9.77
  -2   2  12  297.32   10.90
  -2   2  11  701.49   19.56
   2  -2 -11  798.09   23.80
  -2   2  11  731.92   21.98
  -2   2  10  113.99    6.10
   2  -2 -10  139.03    6.88
  -2   2  10  125.14    5.99
  -2   2   9   81.39    3.59
   2  -2  -9   99.09    3.95
  -2   2   9   91.68    3.91
   2  -2  -8   58.81    1.88
   2  -2  -8   60.08    2.89
  -2   2   8   58.69    2.97
   2  -2  -7    5.46    0.63
   2  -2  -7    5.21    1.13
  -2   2   7    7.63    1.46
   2  -2  -6    4.16    1.74
  -2   2   6    5.03    1.12
   2  -2  -5    0.93    0.52
   2  -2  -5    0.33    1.05
  -2   2   5   -1.02    0.91
   2  -2  -4  171.34    4.34
   2  -2  -4  157.66    4.60
  -2   2   4  200.88    5.81
   2  -2  -3  165.27    4.24
   2  -2  -3  143.79    4.12
  -2   2   3  188.34    5.39
   2  -2  -2  626.97    7.36
   2  -2  -2  501.84    6.45
  -2   2   2  676.48    8.54
   2  -2  -1  212.61    5.34
  -2   2   1  176.00    4.55
  -2   2   1  199.01    5.33
  -2   2   0 1694.77   16.84
  -2   2  -1 4439.13   12.72
   2  -2   3   19.57    1.62
  -2   2  -3   14.57    1.29
  -2   2  -3   15.96    1.69
  -2   2  -4  755.23    9.13
  -2   2  -4  582.78    7.30
   2  -2   5 1816.77   19.23
  -2   2  -5 1663.04   17.61
  -2   2  -5 1209.96   12.54
   2  -2   6  177.02    6.57
  -2   2  -6  179.00    5.57
   2  -2   6  162.00    4.37
   2  -2   7   80.61    3.99
  -2   2  -7   81.65    4.30
   2  -2   7   70.97    3.22
   2  -2   8   47.69    2.80
  -2   2  -8   42.64    2.73
   2  -2   8   42.73    2.27
   2  -2   9  217.76    6.09
  -2   2  -9  194.66    5.86
   2  -2   9  177.96    4.57
   2  -2  10  395.09   10.27
  -2   2 -10  379.12    9.65
   2  -2  10  316.85    7.36
   2  -2  11    0.80    0.54
  -2   2 -11   -1.14    1.39
   2  -2  11   -0.41    0.63
   2  -2  12   14.75    2.40
  -2   2 -12   17.48    2.51
   2  -2  12    8.98    1.00
   2  -2  13   62.45   11.36
  -2   2 -13   62.97    3.81
   2  -2  13   38.35    4.40
   2  -2  14  378.15   15.17
  -2   2 -14  338.65   14.26
   2  -2  14  254.61   10.32
   2  -2  15  216.92   11.92
  -2   2 -15  206.64   10.55
   2  -2  15  151.03   10.26
   2  -2  16   59.62   11.42
  -2   2 -16   54.81    4.09
   2  -2  17   32.26    7.01
  -2   2 -17   43.55    5.87
   2  -2  18    1.76    1.15
  -2   2 -18    4.27    2.47
  -2   2 -19   59.07   15.13
  -2   2 -20   27.93    4.24
  -2   2 -21    8.61    2.41
  -2   2 -22    8.38    3.25
  -2   2 -23   -0.68    2.03
   2  -1 -22    1.92    2.32
   2  -1 -21    1.47    1.04
   2  -1 -20    0.85    1.88
   2  -1 -19   -1.07    1.80
  -2   1  19    0.00    1.16
   2  -1 -18   -2.29    1.72
  -2   1  18   -1.23    1.18
   2  -1 -17    2.09    1.94
  -2   1  17    3.17    1.72
   2  -1 -16    0.64    1.67
  -2   1  16    0.08    1.09
   2  -1 -15    1.16    1.64
  -2   1  15   -0.15    1.05
   2  -1 -14   -0.84    1.39
  -2   1  14    1.72    1.20
  -2   1  13    0.80    0.50
   2  -1 -13   -0.69    1.44
  -2   1  13    0.82    1.19
  -2   1  12   -0.21    0.52
   2  -1 -12    2.34    2.00
  -2   1  12    0.66    1.18
  -2   1  11    0.34    0.26
   2  -1 -11    4.10    1.87
  -2   1  11   -0.18    0.97
  -2   1  10    0.12    0.19
   2  -1 -10    3.18    1.88
  -2   1  10   -1.17    0.92
   2  -1  -9    0.30    0.32
   2  -1  -9    0.41    0.60
  -2   1   9    1.90    1.01
   2  -1  -8    4.03    0.82
  -2   1   8    0.11    0.74
   2  -1  -7    0.25    0.40
   2  -1  -7    0.94    0.65
  -2   1   7    0.49    0.39
   2  -1  -6    0.22    0.44
   2  -1  -6    0.40    0.69
  -2   1   6   -0.15    1.01
   2  -1  -5   -0.18    0.40
   2  -1  -5    1.67    0.91
   2  -1  -4   -0.43    0.37
   2  -1  -4   -0.16    0.41
  -2   1   4   -0.98    0.96
   2  -1  -3   -0.19    0.34
   2  -1  -3    0.40    0.23
   2  -1  -2   -0.65    0.57
   2  -1  -2   -0.30    0.34
  -2   1   2   -1.32    1.12
   2  -1  -1    0.46    0.69
   2  -1  -1   -0.02    0.30
  -2   1   1   -0.20    1.31
   2  -1   0    3.71    1.09
  -2   1   0    1.76    0.81
  -2   1   0    5.84    1.45
   2  -1   1    1.28    0.82
  -2   1  -1    0.93    0.61
   2  -1   2   -0.21    0.67
  -2   1  -2   -0.73    0.48
  -2   1  -2   -0.71    0.64
  -2   1  -3    0.16    0.60
  -2   1  -3   -0.10    0.41
   2  -1   4   -0.34    0.68
  -2   1  -4    0.95    0.78
  -2   1  -4   -0.03    0.21
   2  -1   5    0.06    0.73
   2  -1   5    1.28    0.67
   2  -1   6    0.54    0.51
   2  -1   6    1.40    0.84
  -2   1  -7    3.77    1.24
   2  -1   7    0.33    0.43
   2  -1   8    0.44    0.95
  -2   1  -8    1.29    1.12
   2  -1   8   -0.01    0.55
   2  -1   9    0.72    0.65
  -2   1  -9    1.59    1.21
   2  -1   9   -0.16    0.64
   2  -1  10    0.90    0.49
  -2   1 -10    0.71    1.20
   2  -1  10    0.15    0.47
   2  -1  11    0.96    0.56
  -2   1 -11    0.34    1.27
   2  -1  11    0.61    0.71
   2  -1  12    0.76    0.60
  -2   1 -12    1.17    0.74
   2  -1  12   -0.59    0.70
   2  -1  13    1.52    1.21
  -2   1 -13    4.04    2.38
   2  -1  13    0.23    0.76
   2  -1  14    0.70    0.95
  -2   1 -14   -1.15    1.61
   2  -1  14    1.35    1.20
   2  -1  15    0.55    0.91
  -2   1 -15   -1.83    1.65
   2  -1  15    1.37    1.16
   2  -1  16    0.57    0.96
  -2   1 -16    0.69    1.02
   2  -1  16    0.70    0.53
   2  -1  17   -0.44    0.93
  -2   1 -17    2.46    1.81
  -2   1 -18   -0.37    1.70
  -2   1 -19   -0.53    1.65
  -2   1 -20    0.52    1.66
  -2   1 -21    1.46    2.06
  -2   1 -22    0.44    2.06
   2   0 -22    0.55    2.16
   2   0 -21   -1.50    1.82
   2   0 -20   20.43    5.61
   2   0 -19   32.47    3.75
  -2   0  19   24.21    2.77
   2   0 -18   22.63    3.30
  -2   0  18   10.33    2.02
   2   0 -17   10.65    2.74
  -2   0  17    4.01    1.51
   2   0 -16   87.42    5.37
  -2   0  16   61.27    3.59
  -2   0  15   26.78    4.50
   2   0 -15   39.36    3.40
  -2   0  15   31.12    2.58
  -2   0  14   99.83    5.51
   2   0 -14  109.81    6.20
  -2   0  14   85.64    4.83
  -2   0  13  216.59    7.76
   2   0 -13  241.01    7.82
  -2   0  13  225.60    6.99
  -2   0  12   16.96    3.45
   2   0 -12   12.08    1.95
  -2   0  12   15.98    2.02
  -2   0  11    7.12    1.09
   2   0 -11    7.47    1.43
  -2   0  11   12.46    1.68
   2   0 -10   69.71    3.99
   2   0  -9  176.62    4.79
   2   0  -9  174.70    5.47
  -2   0   9  175.11    5.27
   2   0  -8  483.07    9.49
   2   0  -8  491.22   10.38
  -2   0   8  502.34   10.49
   2   0  -7  416.36    8.26
   2   0  -7  402.24    8.60
  -2   0   7  451.29    9.49
   2   0  -6    3.87    0.69
   2   0  -6    5.31    1.09
  -2   0   6   11.22    1.75
   2   0  -5    5.18    0.80
   2   0  -5    6.34    1.25
  -2   0   5    6.77    1.07
   2   0  -4  513.51    6.69
   2   0  -4  511.99    6.40
  -2   0   4  567.79    7.95
   2   0  -3   60.43    3.59
   2   0  -3   59.78    3.40
  -2   0   3   61.46    3.86
   2   0  -2  540.43    6.81
   2   0   1   31.15    2.23
  -2   0  -1   39.55    2.30
  -2   0  -1   22.39    4.07
  -2   0  -2  325.15    5.14
   2   0   3  138.27    4.17
  -2   0  -3  124.47    3.54
   2   0   3  102.45    3.19
   2   0   4  413.73    6.27
  -2   0  -4  378.68    4.47
   2   0   4  347.51    4.56
   2   0   5   58.46    3.74
  -2   0  -5   58.46    3.75
   2   0   5   51.37    3.33
   2   0   6  113.99    5.10
  -2   0  -6  104.98    4.83
   2   0   6   89.42    4.14
   2   0   7   76.44    3.81
  -2   0  -7   69.27    3.65
   2   0   7   61.17    3.14
   2   0   8    8.27    1.04
  -2   0  -8    7.58    1.33
   2   0   8    6.69    1.11
   2   0   9  121.95    3.89
  -2   0  -9  110.27    4.01
   2   0   9   96.19    3.38
   2   0  10    9.42    1.34
  -2   0 -10    8.91    1.81
   2   0  10    7.59    1.06
   2   0  11  221.97    7.78
  -2   0 -11  202.83    7.79
   2   0  11  169.99    6.35
   2   0  12  871.75   11.15
  -2   0 -12  829.23   11.77
   2   0  12  675.08    9.51
   2   0  13   77.66    5.29
  -2   0 -13   73.74    6.21
   2   0  13   50.42    2.66
   2   0  14    0.71    0.96
  -2   0 -14    0.67    1.62
   2   0  14   -0.79    0.92
   2   0  15  176.70    5.21
  -2   0 -15  167.15    6.44
   2   0  15  123.72    4.50
   2   0  16  256.56  134.88
  -2   0 -16  242.53  127.61
   2   0  16  174.42   11.18
  -2   0 -17  142.06   10.22
   2   0  17   83.16   15.57
  -2   0 -18   -0.09    1.18
  -2   0 -19    6.10    2.26
  -2   0 -20    1.85    1.90
  -2   0 -21    3.70    2.21
  -2   0 -22    1.33    1.91
   2   1 -23    3.94    3.29
   2   1 -22   -0.28    1.00
   2   1 -21    1.27    1.63
   2   1 -20    0.54    0.95
   2   1 -19    0.45    1.76
  -2  -1  19    0.29    0.54
   2   1 -18   -1.18    1.64
  -2  -1  18   -0.97    1.04
   2   1 -17    0.64    1.57
  -2  -1  17   -0.04    0.90
  -2  -1  16   -0.28    0.78
   2   1 -16    0.25    1.59
  -2  -1  16    1.14    1.35
  -2  -1  15   -0.39    0.64
   2   1 -15   -0.08    1.49
  -2  -1  15   -0.71    0.88
  -2  -1  14   -0.25    0.63
   2   1 -14   -1.49    1.39
  -2  -1  14   -0.17    0.94
  -2  -1  13    2.56    0.88
  -2  -1  12   -0.15    0.38
   2   1 -12    1.29    1.37
  -2  -1  12    0.72    0.98
  -2  -1  11   -0.37    0.59
   2   1 -11    1.90    1.08
  -2  -1  11    0.58    0.94
   2   1 -10   -0.18    0.69
   2   1 -10    0.38    0.91
   2   1  -9   -1.02    0.88
   2   1  -9    1.20    1.15
  -2  -1   9    1.47    1.00
   2   1  -8   -1.33    1.00
   2   1  -8    0.03    1.00
  -2  -1   8   -0.61    1.06
   2   1  -7   -0.94    0.65
   2   1  -7    0.23    0.95
  -2  -1   7    3.06    1.45
   2   1  -6   -0.42    0.55
   2   1  -6    0.70    0.78
  -2  -1   6    2.15    1.72
   2   1  -5   -0.32    0.63
  -2  -1   5    0.22    1.13
   2   1  -4    0.40    0.47
   2   1  -4   -0.34    0.41
  -2  -1   4    3.39    1.45
   2   1  -3    0.37    0.63
   2   1  -3   -0.04    0.33
  -2  -1   3   -0.23    0.79
   2   1  -2    0.35    0.64
   2   1  -2   -0.23    0.25
  -2  -1   2   -1.96    1.14
  -2  -1   1   -1.01    0.87
   2   1   0   -0.48    0.55
   2   1   0   -0.01    0.04
  -2  -1   0    0.53    0.24
  -2  -1   0   -1.11    0.76
   2   1   1   -0.42    0.54
  -2  -1  -1   -0.34    0.23
  -2  -1  -1   -0.61    0.64
   2   1   2    0.27    0.63
   2   1   2    1.18    0.71
   2   1   3    0.32    0.61
  -2  -1  -3    0.63    0.81
   2   1   3   -0.72    0.69
   2   1   4    0.04    0.53
   2   1   4    2.94    0.93
   2   1   5    0.87    0.72
   2   1   5    3.73    1.09
   2   1   6    0.22    0.66
  -2  -1  -6   -1.47    0.98
   2   1   7    0.66    0.57
  -2  -1  -7   -0.60    0.99
   2   1   7   -0.24    0.74
   2   1   8   -0.33    0.75
  -2  -1  -8   -0.06    1.08
   2   1   8    1.33    0.83
   2   1   9    0.99    0.80
  -2  -1  -9    1.23    1.21
   2   1   9    1.70    0.96
   2   1  10    0.94    0.77
  -2  -1 -10   -0.58    1.21
   2   1  10    0.12    1.07
   2   1  11    0.92    0.66
   2   1  12   -0.44    0.86
  -2  -1 -12   -0.84    1.33
   2   1  12    0.19    1.02
   2   1  13    1.08    0.79
  -2  -1 -13    1.10    1.47
   2   1  13    2.01    1.08
   2   1  14    2.22    0.81
  -2  -1 -14   -1.46    1.46
   2   1  14    0.66    0.97
   2   1  15   -0.27    0.78
  -2  -1 -15    1.62    1.59
   2   1  15    0.60    1.10
  -2  -1 -16    0.68    0.94
   2   1  16   -1.76    1.13
  -2  -1 -17    3.51    2.66
   2   1  17    0.83    1.33
  -2  -1 -18    0.94    1.77
  -2  -1 -19    0.25    1.71
  -2  -1 -20   -0.01    1.77
  -2  -1 -21    1.39    1.86
   2   2 -23    0.50    2.03
   2   2 -22   -0.18    1.64
   2   2 -21   -0.24    1.63
   2   2 -20    5.61    2.16
   2   2 -19   31.43    3.31
  -2  -2  18    1.87    0.93
   2   2 -18   -0.35    1.58
  -2  -2  18    0.46    0.93
  -2  -2  17    1.58    0.66
   2   2 -17    0.98    1.54
  -2  -2  17    1.75    1.27
  -2  -2  16   39.43    8.92
   2   2 -16   44.14    3.45
  -2  -2  16   28.05    8.03
  -2  -2  15   22.61    2.42
   2   2 -15   20.00    4.39
  -2  -2  15   21.76    1.94
  -2  -2  14    8.02    2.30
   2   2 -14    5.10    1.45
  -2  -2  14    5.53    1.23
  -2  -2  13    2.60    0.67
   2   2 -13    2.18    1.13
  -2  -2  13    1.96    0.76
  -2  -2  12  154.33    6.16
   2   2 -12  171.81    6.84
  -2  -2  12  168.47    6.41
   2   2 -11  315.15   12.14
   2   2 -11  280.04   11.23
  -2  -2  11  299.40   11.67
   2   2 -10    1.21    0.93
   2   2 -10   -0.27    1.54
  -2  -2  10    0.07    0.90
   2   2  -9 2467.46   44.98
   2   2  -9 2314.44   42.61
  -2  -2   9 2470.03  802.88
   2   2  -8 2930.69   48.40
   2   2  -8 2825.97   47.15
  -2  -2   8 3052.39  895.01
   2   2  -7   46.22    2.70
   2   2  -7   48.30    2.73
  -2  -2   7   50.60    4.91
   2   2  -6  169.59    5.11
   2   2  -6  169.31    5.83
  -2  -2   6  177.94    5.49
   2   2  -5   31.50    2.30
   2   2  -5   36.59    2.39
  -2  -2   5   42.06    3.46
   2   2  -4   78.00    2.88
   2   2  -4   78.95    1.80
  -2  -2   4   75.34    2.81
   2   2  -3  194.25    5.39
   2   2  -3  195.21    4.59
  -2  -2   3  176.11    5.12
   2   2  -2  119.85    3.73
   2   2  -2  111.19    2.62
  -2  -2   2   99.44    3.27
   2   2  -1 1122.94   12.55
  -2  -2   1  905.79    8.22
  -2  -2   1  910.51   10.71
   2   2   0  240.02    6.26
  -2  -2   0  225.60    5.01
  -2  -2   0  192.26    6.24
   2   2   1  414.39    6.79
  -2  -2  -1  394.08    4.56
   2   2   2   20.33    3.54
  -2  -2  -2   14.94    1.12
   2   2   2   10.43    1.36
  -2  -2  -3  183.03    4.85
   2   2   3  181.54    5.44
   2   2   5  609.72   11.47
  -2  -2  -5  560.39   11.00
   2   2   5  554.65   11.50
   2   2   6    9.96    1.53
  -2  -2  -6    8.49    1.33
   2   2   6   11.22    1.74
   2   2   7  196.17    5.19
  -2  -2  -7  186.88    5.42
   2   2   7  181.82    5.50
   2   2   8   24.50    3.78
  -2  -2  -8   21.87    1.96
   2   2   8   23.09    1.92
   2   2   9    1.13    0.76
  -2  -2  -9    2.83    1.45
   2   2   9    0.56    1.10
   2   2  10  170.13    6.11
  -2  -2 -10  162.67    6.69
   2   2  10  137.55    5.70
   2   2  11    0.11    0.77
  -2  -2 -11    0.06    1.28
   2   2  11    0.66    0.73
   2   2  12   20.19    1.83
  -2  -2 -12   23.41    2.64
   2   2  12   20.96    2.05
   2   2  13    3.03    0.90
  -2  -2 -13    3.82    1.80
   2   2  13    5.33    1.52
   2   2  14   12.81    1.64
  -2  -2 -14   11.90    2.76
   2   2  14    8.03    1.44
  -2  -2 -15   55.07    5.15
   2   2  15   48.67    4.29
  -2  -2 -16  145.00   10.14
   2   2  16   98.82   12.85
  -2  -2 -17   28.81    3.63
   2   2  17   17.42    2.42
  -2  -2 -18   -0.71    1.56
  -2  -2 -19    4.36    1.91
  -2  -2 -20    0.93    1.88
  -2  -2 -21   -0.30    1.78
   2   3 -23   -0.15    1.96
   2   3 -22   -0.22    1.59
   2   3 -21   -1.18    1.75
   2   3 -20   -0.48    1.76
  -2  -3  19    0.64    0.58
   2   3 -19    1.76    1.76
  -2  -3  18    0.50    0.34
   2   3 -18    0.63    1.52
  -2  -3  18    1.75    1.22
  -2  -3  17   -0.81    0.94
   2   3 -17    2.30    2.22
  -2  -3  17   -0.78    0.74
  -2  -3  16    0.73    0.64
   2   3 -16   -0.59    1.42
  -2  -3  16    1.35    0.93
  -2  -3  15    1.39    0.90
   2   3 -15    1.29    0.86
  -2  -3  15    1.15    0.92
  -2  -3  14   -0.46    0.74
   2   3 -14    0.29    1.36
  -2  -3  14    0.61    0.76
  -2  -3  13   -0.15    0.79
   2   3 -13    1.28    0.89
  -2  -3  13    1.15    1.07
  -2  -3  12    1.05    0.63
   2   3 -12   -1.13    1.13
  -2  -3  12    0.54    0.33
   2   3 -11    0.54    1.05
   2   3 -11    1.11    0.70
  -2  -3  11    0.05    0.81
   2   3 -10    3.67    1.12
   2   3 -10    4.13    0.72
  -2  -3  10    3.65    1.16
   2   3  -9   -0.93    1.12
   2   3  -9    1.79    0.91
  -2  -3   9   -0.62    0.79
   2   3  -8   -2.13    1.22
   2   3  -8    1.48    0.95
  -2  -3   8    0.28    0.83
   2   3  -7   -0.62    0.92
   2   3  -7   -0.20    0.79
  -2  -3   7    1.83    1.18
   2   3  -6    0.41    0.89
   2   3  -6    5.91    1.12
   2   3  -5    1.43    0.99
   2   3  -4    1.75    1.20
   2   3  -4    2.17    0.58
   2   3  -3    0.29    0.72
   2   3  -3    0.21    0.19
  -2  -3   3   -1.36    0.94
   2   3  -2    0.52    0.71
   2   3  -2    0.07    0.19
  -2  -3   2   -1.33    0.84
   2   3  -1    0.33    0.69
  -2  -3   1   -0.89    0.75
   2   3   0   -0.46    0.64
  -2  -3   0    0.11    0.21
   2   3   0    1.81    1.38
   2   3   1    2.86    1.02
   2   3   2    0.89    0.45
  -2  -3  -2    0.86    0.53
   2   3   2    2.46    1.25
   2   3   3   -0.10    0.46
  -2  -3  -3    0.68    0.52
   2   3   3   -0.16    1.14
   2   3   4   -0.06    0.48
  -2  -3  -4    0.76    0.62
   2   3   4   -0.91    0.97
   2   3   5   -0.09    0.59
  -2  -3  -5   -0.13    0.63
   2   3   5   -0.95    0.90
   2   3   6   -0.35    0.59
  -2  -3  -6    0.21    0.77
   2   3   6    0.43    0.93
   2   3   7   -0.40    0.61
  -2  -3  -7    1.30    1.06
   2   3   7   -0.15    0.96
   2   3   8    0.39    0.57
  -2  -3  -8    0.93    1.31
   2   3   8    0.33    1.04
   2   3   9    1.45    0.91
  -2  -3  -9   -0.94    1.12
   2   3   9    0.94    1.16
   2   3  10    0.40    0.64
  -2  -3 -10    0.28    1.21
   2   3  10   -0.77    1.06
   2   3  11    0.47    0.96
  -2  -3 -11    0.45    1.28
   2   3  11    1.56    1.38
   2   3  12   -0.23    0.59
  -2  -3 -12   -0.78    1.37
   2   3  12    1.52    1.12
  -2  -3 -13   -0.72    1.43
   2   3  13    0.15    1.04
  -2  -3 -14    0.86    0.36
   2   3  14    2.05    1.59
  -2  -3 -15    0.29    1.63
   2   3  15    0.86    1.19
  -2  -3 -16    3.90    2.11
   2   3  16    0.12    1.07
  -2  -3 -17    0.95    1.66
   2   3  17    1.66    1.27
  -2  -3 -18    0.02    1.57
  -2  -3 -19   -0.87    1.79
  -2  -3 -20   -0.06    1.80
   2   4 -23    1.02    1.90
   2   4 -22    3.39    1.15
   2   4 -21    1.57    1.23
   2   4 -20    3.24    1.95
  -2  -4  19    2.28    0.67
   2   4 -19   -0.35    1.55
  -2  -4  18   13.02    3.32
   2   4 -18   12.18    3.27
  -2  -4  17    9.12    1.54
   2   4 -17    9.63    2.22
  -2  -4  17    5.30    1.28
  -2  -4  16   33.10    4.72
   2   4 -16   27.89    2.66
  -2  -4  16   25.28    2.15
  -2  -4  15   43.10    8.24
   2   4 -15   42.98    3.30
  -2  -4  15   40.18    2.57
  -2  -4  14   18.74    2.40
   2   4 -14   18.74    2.19
  -2  -4  14   12.22    1.43
  -2  -4  13    3.80    0.63
   2   4 -13    4.50    1.52
  -2  -4  13    2.44    0.75
  -2  -4  12  199.85    7.63
   2   4 -12  217.55    8.00
  -2  -4  12  219.90    7.52
   2   4 -11  235.46    9.78
   2   4 -11  213.22    8.88
  -2  -4  11  233.08    9.22
   2   4 -10   16.36    1.77
   2   4 -10   14.19    1.55
  -2  -4  10   15.45    1.59
   2   4  -9  193.10    6.00
   2   4  -9  176.90    5.23
  -2  -4   9  195.40    5.49
   2   4  -8  526.95   11.85
   2   4  -8  491.38   10.56
  -2  -4   8  490.48   10.60
   2   4  -7  208.19    5.72
   2   4  -7  198.15    4.98
  -2  -4   7  197.15    4.95
   2   4  -6    8.51    1.23
   2   4  -6    6.91    0.91
  -2  -4   6    8.73    1.31
   2   4  -5   68.39    3.58
   2   4  -5   67.70    3.10
  -2  -4   5   61.17    3.82
   2   4  -4  278.17    7.57
   2   4  -4  256.85    6.28
  -2  -4   4  233.55    6.49
   2   4  -3  378.11    6.47
   2   4  -3  339.63    4.57
  -2  -4   3  307.80    5.80
   2   4  -2    7.52    1.10
   2   4  -2    6.62    0.66
  -2  -4   2    8.99    2.50
   2   4  -1 1780.03   18.91
  -2  -4   1 1379.86   15.65
   2   4   0    2.64    0.62
  -2  -4   0    2.02    0.47
   2   4   0    5.56    1.46
   2   4   1   55.43    2.88
  -2  -4  -1   49.77    3.89
   2   4   1   53.57    3.21
   2   4   2  384.27    8.37
  -2  -4  -2  363.73    7.27
   2   4   2  380.09    8.73
   2   4   3  575.97   11.06
  -2  -4  -3  539.18   10.37
   2   4   3  538.90   11.39
   2   4   4   12.77    1.07
  -2  -4  -4   12.80    1.18
   2   4   4   10.21    1.45
   2   4   5   49.17    2.09
  -2  -4  -5   48.41    2.31
   2   4   5   42.86    2.52
   2   4   6  284.76    6.71
  -2  -4  -6  268.40    8.39
   2   4   6  272.15    7.58
   2   4   7   84.45    3.91
  -2  -4  -7   80.34    4.52
   2   4   7   79.56    4.39
   2   4   8    6.33    1.02
  -2  -4  -8    8.94    1.61
   2   4   8    6.67    1.37
  -2  -4  -9  196.30    5.76
   2   4   9  183.76    5.63
   2   4  10    0.47    0.31
  -2  -4 -10    0.24    1.23
   2   4  10   -0.68    1.42
   2   4  11   43.12    4.21
  -2  -4 -11   51.27    5.13
   2   4  11   46.98   26.05
  -2  -4 -12   11.47    2.05
   2   4  12    8.79    2.35
  -2  -4 -13    6.40    1.63
   2   4  13    5.70    1.42
  -2  -4 -14   12.92    2.19
   2   4  14    8.40    2.08
  -2  -4 -15    8.65    2.46
   2   4  15    4.74    1.06
  -2  -4 -16   15.70    2.92
   2   4  16   14.27    2.41
  -2  -4 -17    2.99    1.79
   2   4  17    1.65    1.08
  -2  -4 -18    2.40    1.82
  -2  -4 -19   -1.79    1.73
   2   5 -23   -0.89    1.96
   2   5 -22    2.78    1.92
   2   5 -21    4.83    2.09
  -2  -5  20    0.40    0.86
   2   5 -20    0.63    1.67
  -2  -5  19   -1.12    1.11
   2   5 -19    2.07    1.75
  -2  -5  18    1.96    1.12
   2   5 -18    0.15    1.45
  -2  -5  17   -1.74    1.04
   2   5 -17    1.57    0.60
  -2  -5  16   -0.92    1.14
   2   5 -16    0.36    1.36
  -2  -5  15   -0.13    0.94
   2   5 -15    0.99    1.29
  -2  -5  15    0.86    0.78
  -2  -5  14   -0.47    0.99
   2   5 -14    0.93    1.26
  -2  -5  14   -0.26    0.80
  -2  -5  13    1.14    0.44
   2   5 -13    1.99    1.00
  -2  -5  13   -0.60    0.79
   2   5 -12   -0.15    1.10
  -2  -5  12    0.62    0.74
   2   5 -11   -0.17    1.00
   2   5 -11    2.03    1.41
  -2  -5  11    0.12    0.82
   2   5 -10    0.18    0.98
   2   5 -10   -0.26    0.71
  -2  -5  10    1.31    0.72
   2   5  -9    0.49    1.23
   2   5  -9    1.80    1.21
  -2  -5   9   -0.13    0.68
   2   5  -8   -1.76    1.23
  -2  -5   8    0.72    0.62
   2   5  -7   -0.26    0.92
   2   5  -7   -0.13    0.59
  -2  -5   7   -0.25    0.58
   2   5  -6    0.71    0.91
   2   5  -6    0.53    0.54
  -2  -5   6    0.48    0.33
   2   5  -5   -0.99    0.83
   2   5  -5   -0.03    0.46
  -2  -5   5    0.06    0.37
   2   5  -4   -0.74    0.83
  -2  -5   4    2.86    0.87
   2   5  -3   -0.74    0.73
   2   5  -3    0.52    0.47
  -2  -5   3    1.13    0.66
   2   5  -2    2.70    1.10
   2   5  -2    0.19    0.24
   2   5  -1    0.34    0.71
   2   5   0    0.51    0.67
  -2  -5   0    0.28    0.30
   2   5   0   -0.98    0.85
   2   5   1    0.28    0.63
  -2  -5  -1    0.14    0.27
   2   5   1   -0.75    1.00
   2   5   2   -0.50    0.61
  -2  -5  -2   -0.26    0.48
   2   5   2    0.34    0.51
   2   5   3    0.62    0.50
   2   5   3   -0.01    0.99
   2   5   4    1.06    0.67
  -2  -5  -4    0.70    0.36
   2   5   4    1.32    1.30
   2   5   5    0.69    0.60
  -2  -5  -5    0.35    0.78
   2   5   5    0.00    1.04
   2   5   6    0.01    0.51
  -2  -5  -6   -0.05    0.87
   2   5   6    1.24    1.21
   2   5   7    0.54    0.51
  -2  -5  -7    0.91    0.63
   2   5   7    0.37    1.08
   2   5   8    0.18    0.52
  -2  -5  -8    1.51    1.13
   2   5   8    1.21    1.14
   2   5   9    0.07    0.28
  -2  -5  -9   -1.27    1.22
   2   5   9   -0.86    1.11
  -2  -5 -10    2.73    1.88
   2   5  10    1.67    1.07
  -2  -5 -11    1.72    1.45
   2   5  11   -0.95    1.19
  -2  -5 -12    0.97    1.56
   2   5  12    0.93    1.31
  -2  -5 -13    1.13    1.44
   2   5  13    0.05    1.29
  -2  -5 -14    1.02    1.50
   2   5  14   -0.37    1.17
  -2  -5 -15    0.24    1.60
   2   5  15   -0.58    1.34
  -2  -5 -16    0.76    1.63
   2   5  16    1.97    1.46
  -2  -5 -17   -1.08    1.81
   2   5  17    0.07    0.87
  -2  -5 -18   -2.39    1.71
   2   6 -23    2.02    1.94
   2   6 -22    0.11    1.69
   2   6 -21   24.62    3.97
  -2  -6  20    8.19    1.42
   2   6 -20    7.16    2.25
  -2  -6  19   21.39    3.30
   2   6 -19   14.78    2.54
  -2  -6  18   -0.87    0.99
   2   6 -18    0.32    1.37
  -2  -6  17    2.44    0.67
   2   6 -17    0.40    1.32
  -2  -6  16   65.08   11.35
   2   6 -16   57.09    3.83
  -2  -6  15    2.85    0.72
   2   6 -15    3.01    1.14
  -2  -6  14   44.84    8.08
   2   6 -14   43.53    3.10
  -2  -6  14   36.25    2.31
  -2  -6  13    0.99    0.47
   2   6 -13   -0.74    1.06
  -2  -6  13   -0.47    0.72
   2   6 -12   51.08    3.31
   2   6 -12   48.13    2.90
  -2  -6  12   44.83    2.32
   2   6 -11   35.35    4.21
   2   6 -11   32.84    2.32
  -2  -6  11   33.25    1.93
   2   6 -10    3.04    0.99
   2   6 -10    4.31    1.10
  -2  -6  10    3.34    0.74
   2   6  -9   86.80    4.73
   2   6  -9   80.07    4.17
  -2  -6   9   73.86    3.66
   2   6  -8  183.16    5.95
   2   6  -8  162.12    4.81
  -2  -6   8  155.37    4.56
   2   6  -7   41.91    2.62
   2   6  -7   40.70    2.05
  -2  -6   7   37.80    2.08
   2   6  -6  330.73    8.45
   2   6  -6  294.49    6.88
  -2  -6   6  271.56    6.71
   2   6  -5    0.89    0.57
   2   6  -4  628.27   12.79
   2   6  -4  583.96   11.00
  -2  -6   4  471.68    9.91
   2   6  -3  715.19   14.03
   2   6  -3  618.31   11.42
  -2  -6   3  511.92   10.76
   2   6  -2  432.91    9.33
   2   6  -2  400.98    8.00
   2   6  -2  418.60    9.34
   2   6  -1  287.56    6.85
  -2  -6   1  231.47    6.48
   2   6  -1  284.42    7.11
   2   6   0   58.27    2.46
  -2  -6   0   45.62    2.03
   2   6   0   58.90    4.94
   2   6   1   18.06    1.63
  -2  -6  -1   15.30    2.71
   2   6   1   17.42    1.79
   2   6   2   62.66    2.57
  -2  -6  -2   57.08    8.25
   2   6   2   66.04    3.11
   2   6   3   38.36    2.04
  -2  -6  -3   36.46    2.04
   2   6   3   48.53    9.24
   2   6   4  118.63    5.09
  -2  -6  -4  117.89    5.38
   2   6   4  119.05    6.55
   2   6   5    4.10    0.83
  -2  -6  -5    2.01    1.12
   2   6   5    3.60    1.10
   2   6   6    4.27    0.89
  -2  -6  -6    5.77    1.16
   2   6   6    2.10    1.53
   2   6   7   10.59    2.01
  -2  -6  -7   14.74    1.79
   2   6   7   16.25    3.72
   2   6   8   16.97    1.25
  -2  -6  -8   24.53    5.26
   2   6   8   18.80    2.27
  -2  -6  -9  219.95    9.79
   2   6   9  212.81    9.83
  -2  -6 -10    5.57    1.74
   2   6  10    5.97    2.09
  -2  -6 -11    0.76    0.84
   2   6  11    0.25    1.28
  -2  -6 -12   12.56    2.36
   2   6  12   10.67    1.94
  -2  -6 -13    3.12    1.77
   2   6  13    4.14    1.65
  -2  -6 -14    1.15    1.64
   2   6  14    1.27    1.41
  -2  -6 -15   16.51    2.96
   2   6  15   16.11    2.86
  -2  -6 -16    4.10    2.06
   2   6  16    3.31    1.21
  -2  -6 -17    3.03    2.15
   2   6  17    3.17    1.65
   2   7 -22   -0.02    1.48
  -2  -7  21   -0.84    1.28
   2   7 -21    3.89    2.54
  -2  -7  20    0.78    0.62
   2   7 -20    1.47    1.35
  -2  -7  19    1.47    1.03
   2   7 -19   -0.88    1.13
  -2  -7  18    1.23    1.02
   2   7 -18    0.58    1.18
  -2  -7  17   -1.29    1.08
   2   7 -17    1.00    1.19
  -2  -7  16   -0.40    1.03
   2   7 -16    2.39    1.41
  -2  -7  15    2.18    0.73
   2   7 -15    0.06    1.19
  -2  -7  14   -0.38    1.15
   2   7 -14   -0.61    1.18
  -2  -7  13   -0.13    1.06
   2   7 -13    2.36    1.65
  -2  -7  13    3.12    1.07
   2   7 -12    0.37    0.71
   2   7 -12    1.26    1.07
  -2  -7  12   -0.25    0.72
   2   7 -11   -1.18    1.13
   2   7 -11    0.13    0.97
  -2  -7  11    1.74    0.79
   2   7 -10   -0.60    1.23
   2   7 -10   -0.20    0.90
  -2  -7  10    0.80    0.61
   2   7  -9   -1.11    1.19
   2   7  -9    1.24    1.15
  -2  -7   9    0.11    0.72
   2   7  -8    0.60    1.09
  -2  -7   8    1.66    0.97
   2   7  -7   -0.88    0.93
   2   7  -7    0.44    0.72
  -2  -7   7    0.33    0.46
   2   7  -6    1.73    1.07
   2   7  -6    0.87    0.89
  -2  -7   6   -0.07    0.60
   2   7  -5    2.26    1.33
   2   7  -5   -0.14    0.33
  -2  -7   5    0.87    0.57
   2   7  -4    0.79    0.90
   2   7  -4    0.79    0.60
  -2  -7   4    0.88    0.70
   2   7  -3   -0.03    0.85
   2   7  -3    0.06    0.52
  -2  -7   3    1.25    0.69
   2   7  -2    0.46    0.81
   2   7  -2    0.25    0.55
   2   7  -2   -0.41    0.85
   2   7  -1    1.02    0.78
  -2  -7   1   -0.12    0.54
   2   7  -1   -0.02    0.91
   2   7   0    1.30    0.68
  -2  -7   0    0.27    0.34
   2   7   0   -0.45    0.96
   2   7   1    1.58    0.69
  -2  -7  -1    0.67    0.50
   2   7   1    0.90    1.03
   2   7   2    0.28    0.56
  -2  -7  -2    0.43    0.55
   2   7   2   -1.76    0.94
   2   7   3    0.55    0.63
  -2  -7  -3   -0.20    0.71
   2   7   3    0.36    1.12
   2   7   4    0.48    0.58
  -2  -7  -4    2.99    1.34
   2   7   4    0.86    1.19
   2   7   5    0.21    0.52
  -2  -7  -5    1.22    0.96
   2   7   5    0.32    0.74
   2   7   6    0.51    0.54
  -2  -7  -6    2.26    1.22
   2   7   6    0.67    1.20
  -2  -7  -7   -0.18    0.95
   2   7   7    1.85    1.29
  -2  -7  -8    3.92    1.81
   2   7   8   -0.26    1.23
  -2  -7  -9    1.90    0.87
   2   7   9   -1.23    1.25
  -2  -7 -10    1.01    0.79
   2   7  10    2.60    1.58
  -2  -7 -11   -0.21    1.29
   2   7  11   -0.53    1.49
   2   7  12   -0.39    1.41
  -2  -7 -13    1.92    1.44
   2   7  13   -0.82    1.34
  -2  -7 -14    1.54    1.90
   2   7  14    0.74    1.35
  -2  -7 -15    2.60    1.88
   2   7  15    0.90    0.99
  -2  -7 -16   -0.66    1.64
   2   7  16   -2.20    1.56
   2   8 -22   20.41    5.75
  -2  -8  21   12.56    2.18
   2   8 -21   13.72    2.50
  -2  -8  20    9.92    5.18
   2   8 -20    2.15    1.50
  -2  -8  19   -0.65    1.14
   2   8 -19    0.73    1.16
  -2  -8  18    8.09    2.14
   2   8 -18    8.83    2.01
  -2  -8  17    8.31    1.37
   2   8 -17    5.97    1.83
  -2  -8  16    0.43    0.64
   2   8 -16    1.28    1.11
  -2  -8  15   -0.75    1.21
   2   8 -15   -1.29    1.00
  -2  -8  14   15.95    4.98
   2   8 -14   11.00    1.61
  -2  -8  13    3.99    0.85
   2   8 -13    3.25    1.31
   2   8 -12   46.00    2.85
  -2  -8  12   49.51    2.59
   2   8 -11   28.70    2.82
   2   8 -11   25.88    2.16
  -2  -8  11   27.81    1.86
   2   8 -10  338.26    8.00
   2   8 -10  282.16    6.17
  -2  -8  10  272.08    5.12
   2   8  -9  232.24    8.76
   2   8  -9  197.09    7.19
  -2  -8   9  196.50    6.77
   2   8  -8   86.91    3.90
   2   8  -8   75.25    3.02
  -2  -8   8   66.14    4.78
   2   8  -7   27.09    2.33
   2   8  -7   18.77    1.73
  -2  -8   7   17.13    3.79
   2   8  -6   15.68    1.85
   2   8  -6   12.96    1.28
  -2  -8   6   13.44    2.67
   2   8  -5   10.99    1.48
   2   8  -5   10.26    1.15
  -2  -8   5    9.41    1.74
   2   8  -4   -0.25    0.89
   2   8  -4    0.15    0.55
  -2  -8   4    0.40    0.39
   2   8  -3   21.79    1.85
   2   8  -3   25.29    1.67
   2   8  -2    1.77    0.93
   2   8  -2   -0.25    0.58
   2   8  -2    0.38    0.46
   2   8  -1  159.73    6.85
  -2  -8   1  132.78    5.88
   2   8  -1  158.77    7.11
   2   8   0   10.03    1.23
  -2  -8   0   10.00    1.53
   2   8   0   13.65    1.58
   2   8   1   11.64    1.21
  -2  -8  -1   12.51    1.61
   2   8   1    9.34    1.39
   2   8   2   54.24    2.68
  -2  -8  -2   52.65    7.04
   2   8   2   56.86    3.14
   2   8   3  508.27    6.88
  -2  -8  -3  494.73    8.05
   2   8   3  512.68    9.89
   2   8   4   20.74    1.62
  -2  -8  -4   19.66    5.19
   2   8   4   21.04    2.49
   2   8   5   85.00    3.15
  -2  -8  -5   90.50    4.30
   2   8   5   85.80    4.52
  -2  -8  -6   69.73    4.21
   2   8   6   71.34   12.77
  -2  -8  -7   29.21    2.57
   2   8   7   33.02    5.10
  -2  -8  -8   37.46    3.01
   2   8   8   36.35    3.23
  -2  -8  -9    0.97    0.94
   2   8   9   -0.49    1.51
  -2  -8 -10   21.60    3.88
   2   8  10   20.24    2.89
  -2  -8 -11   15.54    2.84
   2   8  11   18.78    2.70
  -2  -8 -12    8.67    2.28
   2   8  12    9.53    1.80
  -2  -8 -13    1.09    1.77
   2   8  13    2.50    0.84
  -2  -8 -14    2.31    1.67
   2   8  14    1.76    1.11
  -2  -8 -15   16.69    3.16
   2   8  15   12.94    2.62
   2   8  16   57.22   13.57
  -2  -9  22    3.13    0.99
  -2  -9  21   -0.92    1.34
   2   9 -21    0.15    1.36
  -2  -9  20   -0.68    1.43
   2   9 -20    1.48    1.47
  -2  -9  19   -2.23    1.48
   2   9 -19   -0.64    1.15
  -2  -9  18    1.70    1.10
   2   9 -18    1.21    1.60
  -2  -9  17    1.03    1.12
   2   9 -17   -1.10    1.01
  -2  -9  16   -0.04    1.22
   2   9 -16    1.32    1.14
  -2  -9  15    1.32    0.72
   2   9 -15    0.93    1.05
  -2  -9  14    0.01    0.76
   2   9 -14    1.76    1.08
  -2  -9  13    0.86    0.37
   2   9 -13   -0.67    1.05
  -2  -9  12   -0.60    1.19
   2   9 -12   -0.35    0.95
   2   9 -11   -0.97    1.40
   2   9 -11    0.20    0.88
  -2  -9  11   -0.30    0.66
   2   9 -10    0.62    1.36
   2   9 -10    0.55    0.45
  -2  -9  10    0.30    0.40
   2   9  -9    0.29    1.22
   2   9  -9    1.12    1.10
  -2  -9   9    0.63    0.71
   2   9  -8    0.03    1.13
   2   9  -8    2.66    1.33
  -2  -9   8    0.20    0.51
   2   9  -7    1.30    1.08
   2   9  -7    0.62    0.77
  -2  -9   7    0.99    0.77
   2   9  -6    1.27    0.99
   2   9  -6    0.26    0.68
  -2  -9   6   -0.59    0.66
   2   9  -5    0.51    0.97
   2   9  -5   -0.07    0.62
  -2  -9   5    1.31    0.65
   2   9  -4    0.41    0.90
   2   9  -4   -0.18    0.64
  -2  -9   4    0.73    0.76
   2   9  -3    1.74    1.31
   2   9  -3    0.86    0.73
   2   9  -3    1.12    0.73
   2   9  -2    0.48    0.92
   2   9  -2   -0.17    0.98
   2   9  -1   -0.33    0.82
  -2  -9   1    0.71    0.54
   2   9  -1   -0.83    1.10
   2   9   0    0.97    0.82
  -2  -9   0    0.52    0.58
   2   9   0    0.77    1.16
   2   9   1    0.53    0.81
  -2  -9  -1   -0.01    0.70
   2   9   1   -0.52    1.10
   2   9   2    0.34    0.71
  -2  -9  -2    0.78    0.47
   2   9   2    0.84    0.51
   2   9   3    0.78    0.69
  -2  -9  -3   -0.13    0.80
   2   9   3   -0.12    1.28
   2   9   4    0.85    0.60
  -2  -9  -4    0.25    0.51
   2   9   4   -1.32    1.27
  -2  -9  -5    2.13    1.22
   2   9   5    5.84    2.07
  -2  -9  -6   -0.04    1.00
   2   9   6    0.82    1.34
  -2  -9  -7    1.58    1.20
   2   9   7   -1.68    1.49
  -2  -9  -8    0.99    1.21
   2   9   8   -1.11    1.51
  -2  -9  -9    3.18    2.17
   2   9   9   -0.04    0.97
  -2  -9 -10    1.52    1.52
   2   9  10    1.96    1.28
  -2  -9 -11    1.40    1.51
   2   9  11   -0.85    1.64
  -2  -9 -12   -0.02    1.45
   2   9  12    2.83    1.82
  -2  -9 -13   -0.36    1.57
   2   9  13    0.60    1.72
  -2  -9 -14   -0.58    1.64
   2   9  14    1.15    1.87
   2   9  15   -1.68    1.87
  -2 -10  21    5.02    0.89
  -2 -10  20    2.41    1.47
   2  10 -20    4.59    1.65
  -2 -10  19   25.93    5.40
   2  10 -19   21.97    3.57
  -2 -10  18    5.81    2.23
   2  10 -18    3.65    1.82
  -2 -10  17   37.82    6.42
   2  10 -17   36.63    3.25
  -2 -10  16    8.48    1.53
   2  10 -16    5.56    1.48
  -2 -10  15   23.64    4.24
   2  10 -15   23.48    2.48
  -2 -10  14    2.96    1.48
   2  10 -14    3.51    1.40
  -2 -10  13    5.94    1.54
   2  10 -13    7.44    1.69
  -2 -10  12   90.94    5.33
   2  10 -12   73.15   13.47
   2  10 -11    0.22    1.43
   2  10 -11    1.21    1.04
  -2 -10  11    1.03    0.96
   2  10 -10   -0.92    1.22
   2  10 -10    1.37    1.18
  -2 -10  10    1.27    0.85
   2  10  -9   24.25    2.57
   2  10  -9   20.43    2.03
  -2 -10   9   18.14    3.56
   2  10  -8   30.93    2.86
   2  10  -8   25.91    2.28
  -2 -10   8   20.87    4.50
   2  10  -7  160.77    6.16
   2  10  -7  118.40    4.46
  -2 -10   7  110.05    4.75
   2  10  -6   14.00    1.75
   2  10  -6   16.07    1.85
  -2 -10   6   10.88    2.49
   2  10  -5   37.00    2.68
   2  10  -5   32.47    2.15
  -2 -10   5   28.92    6.03
   2  10  -4   52.43    3.01
   2  10  -4   41.44    2.49
  -2 -10   4   41.74    9.83
   2  10  -3   10.47    1.59
   2  10  -3    8.78    1.78
   2  10  -3    7.91    1.52
   2  10  -2    1.73    0.78
  -2 -10   2    1.91    0.48
   2  10  -2    1.97    0.62
   2  10  -1   34.58    4.04
  -2 -10   1   30.21    4.94
   2  10  -1   33.46    2.60
   2  10   0   74.53    3.44
  -2 -10   0   62.75   10.40
   2  10   0   74.21    4.27
   2  10   1  102.73    5.02
  -2 -10  -1   92.25   12.15
   2  10   1  111.41    6.22
   2  10   2    9.84    1.29
  -2 -10  -2   10.15    1.78
   2  10   2   11.66    2.18
   2  10   3    0.78    0.67
  -2 -10  -3    0.73    0.49
   2  10   3    0.61    1.24
  -2 -10  -4    5.59    1.58
   2  10   4    4.23    1.46
  -2 -10  -5   74.29   13.47
   2  10   5   84.79   12.23
  -2 -10  -6    1.40    1.14
   2  10   6    4.02    1.82
  -2 -10  -7    4.60    1.46
   2  10   7    1.75    1.72
  -2 -10  -8   37.85    4.02
   2  10   8   30.46    3.76
  -2 -10  -9   16.09    2.64
   2  10   9   12.44    2.95
  -2 -10 -10    1.05    1.36
   2  10  10   -0.38    1.58
  -2 -10 -11    5.43    1.67
   2  10  11    0.96    1.86
  -2 -10 -12    9.07    2.71
   2  10  12    8.13    2.86
   2  10  13   61.54   14.45
   2  10  14   -0.28    1.82
  -2 -11  21   -0.60    1.36
  -2 -11  20   -0.87    1.31
   2  11 -20   -1.57    1.34
  -2 -11  19   -0.17    1.52
   2  11 -19   -1.19    1.23
  -2 -11  18    0.26    0.80
   2  11 -18   -0.11    1.23
  -2 -11  17    0.95    0.97
   2  11 -17    0.65    1.25
  -2 -11  16    1.30    1.29
   2  11 -16    0.57    1.18
  -2 -11  15   -0.63    1.34
   2  11 -15   -0.06    1.04
  -2 -11  14    0.75    0.89
   2  11 -14    0.66    1.10
  -2 -11  13   -0.47    1.39
   2  11 -13    0.42    0.98
  -2 -11  12    0.91    0.79
   2  11 -12    2.43    1.56
  -2 -11  11   -0.21    1.32
   2  11 -11    1.62    1.10
   2  11 -10   -0.15    1.31
   2  11 -10    0.71    0.95
  -2 -11  10    0.14    0.67
   2  11  -9    1.51    0.80
   2  11  -9   -0.52    0.97
  -2 -11   9    0.33    0.44
   2  11  -8   -0.61    1.22
   2  11  -8   -0.04    0.84
  -2 -11   8   -0.14    0.93
   2  11  -7    0.35    1.27
   2  11  -7    1.04    0.70
  -2 -11   7    0.88    0.55
   2  11  -6    1.39    1.16
   2  11  -6   -0.82    0.77
  -2 -11   6    0.60    0.52
   2  11  -5    0.19    1.13
   2  11  -5    0.76    0.90
  -2 -11   5   -0.10    0.82
   2  11  -4   -0.69    0.95
   2  11  -4    0.09    0.78
  -2 -11   4   -0.54    0.79
   2  11  -3    1.28    1.35
   2  11  -3   -1.04    1.02
   2  11  -2    0.02    0.95
  -2 -11   2    0.54    0.41
   2  11  -2    0.15    1.08
   2  11  -1    0.90    0.98
  -2 -11   1    0.84    0.37
   2  11  -1   -1.15    1.15
   2  11   0   -0.05    0.85
  -2 -11   0    0.70    0.51
   2  11   0   -0.39    1.12
   2  11   1    0.79    0.80
  -2 -11  -1    1.35    0.50
   2  11   1    0.09    1.37
   2  11   2   -0.72    0.74
  -2 -11  -2   -0.46    0.79
   2  11   2   -1.20    1.35
  -2 -11  -3    1.32    0.50
   2  11   3   -1.54    1.35
  -2 -11  -4    0.90    1.03
   2  11   4    0.27    1.48
  -2 -11  -5    1.22    0.68
   2  11   5    0.67    1.67
  -2 -11  -6    0.41    0.81
   2  11   6    0.77    0.64
  -2 -11  -7    1.81    1.34
   2  11   7   -2.23    1.52
  -2 -11  -8    2.19    1.19
   2  11   8    1.90    1.14
  -2 -11  -9   -0.31    1.24
   2  11   9   -0.44    1.47
  -2 -11 -10    0.90    1.47
   2  11  10   -1.13    1.47
   2  11  11   -1.19    1.67
   2  11  12   -0.58    1.67
   2  11  13   -0.71    1.90
  -2 -12  21    2.49    0.97
  -2 -12  20    9.29    2.86
  -2 -12  19    3.10    0.72
  -2 -12  18   17.11    4.03
   2  12 -18    7.88    1.81
  -2 -12  17    1.98    0.85
   2  12 -17    0.33    1.25
  -2 -12  16    3.63    1.29
   2  12 -16    4.66    1.73
  -2 -12  15    4.59    1.21
   2  12 -15    2.42    1.25
  -2 -12  14    0.49    0.66
   2  12 -14    0.89    1.17
  -2 -12  13    6.50    1.91
   2  12 -13    4.25    1.58
  -2 -12  12    4.13    1.82
   2  12 -12    2.40    1.65
  -2 -12  11  200.55   18.04
   2  12 -11  195.97   12.57
  -2 -12  10   56.45   13.93
   2  12 -10   55.01    3.31
   2  12  -9   35.70    6.60
   2  12  -9   24.82    2.37
  -2 -12   9   17.65    3.75
   2  12  -8  536.98   12.41
   2  12  -7   44.73    3.34
   2  12  -7   38.40    2.93
  -2 -12   7   33.40    8.23
   2  12  -6   17.92    2.28
   2  12  -6   15.93    2.46
  -2 -12   6   11.52    2.87
   2  12  -5   -0.48    1.25
   2  12  -5    1.44    0.95
  -2 -12   5   -0.15    0.47
   2  12  -4   11.08    2.57
   2  12  -4    5.97    1.29
  -2 -12   4    6.32    2.37
   2  12  -3   12.84    1.81
  -2 -12   3    8.89    2.58
   2  12  -3    9.61    2.34
   2  12  -2    4.74    1.27
  -2 -12   2    3.67    0.68
   2  12  -2    4.92    1.42
   2  12  -1    3.57    0.99
  -2 -12   1    3.94    0.80
   2  12  -1    5.09    1.38
   2  12   0   66.88    3.47
  -2 -12   0   51.55    7.24
   2  12   0   61.36    7.68
  -2 -12  -1   60.92    8.43
   2  12   1   66.22    5.52
  -2 -12  -2    2.56    0.70
   2  12   2    3.33    1.64
  -2 -12  -3   11.00    3.03
   2  12   3   13.80    2.25
  -2 -12  -4    3.48    1.58
   2  12   4    1.83    1.44
  -2 -12  -5   65.17    8.05
   2  12   5   57.64    4.40
  -2 -12  -6    4.89    1.38
   2  12   6    5.86    2.01
  -2 -12  -7   14.85    2.56
   2  12   7   10.94    2.61
  -2 -12  -8    0.39    1.33
   2  12   8    1.97    1.81
   2  12   9    3.99    2.59
   2  12  10    1.78    2.54
   2  12  11    4.61    2.23
   2  12  12    3.58    2.15
  -2 -13  20   -0.54    1.60
  -2 -13  19    1.52    1.02
  -2 -13  18   -0.15    1.54
  -2 -13  17    2.10    1.01
  -2 -13  16   -0.90    1.49
   2  13 -16    0.85    1.24
  -2 -13  15    0.66    0.89
   2  13 -15    0.50    1.15
  -2 -13  14    2.72    0.94
   2  13 -14    0.15    1.23
  -2 -13  13    1.08    1.21
   2  13 -13    0.36    1.28
  -2 -13  12    0.13    0.42
   2  13 -12    1.54    0.78
  -2 -13  11    0.85    1.07
   2  13 -11    0.80    0.83
  -2 -13  10    0.14    0.66
   2  13 -10    0.66    1.16
  -2 -13   9    1.15    1.36
   2  13  -9   -0.33    1.06
  -2 -13   8   -2.14    1.13
   2  13  -8    0.57    1.07
  -2 -13   8    1.07    0.55
   2  13  -7    0.76    1.45
   2  13  -7    0.68    1.03
  -2 -13   7    0.06    0.47
   2  13  -6    0.90    1.33
   2  13  -6   -0.08    0.95
  -2 -13   6    0.76    0.77
   2  13  -5   -0.01    1.12
   2  13  -5    0.44    0.99
  -2 -13   5    0.12    0.69
   2  13  -4    1.76    1.22
  -2 -13   4    0.95    0.89
  -2 -13   4    2.04    0.70
   2  13  -3    0.67    1.10
  -2 -13   3   -0.43    0.80
   2  13  -3    0.57    0.59
   2  13  -2    2.03    1.08
  -2 -13   2    1.01    0.62
   2  13  -2    0.95    0.61
   2  13  -1    0.92    1.27
  -2 -13   1    0.39    0.42
   2  13  -1   -1.14    1.15
  -2 -13   0   -0.07    0.94
   2  13   0    0.47    1.38
  -2 -13  -1    1.00    0.47
   2  13   1    0.53    0.77
  -2 -13  -2    2.29    1.01
   2  13   2    1.95    1.58
   2  13   3   -1.24    1.42
  -2 -13  -4   -0.41    1.12
   2  13   4    0.53    1.54
  -2 -13  -5    1.22    1.29
   2  13   5   -0.65    1.59
  -2 -13  -6    1.28    1.37
   2  13   6   -1.21    1.53
   2  13   7    0.98    1.15
   2  13   8   -1.38    1.75
   2  13   9   -1.41    1.76
   2  13  10   -0.13    1.70
   2  13  11   -0.67    1.77
  -2 -14  20    2.49    1.10
  -2 -14  19    0.58    0.91
  -2 -14  18    0.57    1.02
  -2 -14  17    5.81    2.23
  -2 -14  16    1.58    0.80
  -2 -14  15    1.24    0.96
   2  14 -15    2.51    1.83
  -2 -14  14   12.15    3.63
   2  14 -14   10.20    1.91
  -2 -14  13    7.64    3.27
   2  14 -13    9.15    1.92
  -2 -14  12    6.32    2.10
   2  14 -12    2.46    1.41
  -2 -14  11   90.48   17.39
   2  14 -11   79.40    4.36
  -2 -14  10    9.04    2.71
   2  14 -10   15.24    2.44
  -2 -14   9    2.52    0.78
   2  14  -9    1.50    1.08
  -2 -14   8   22.57    9.68
   2  14  -8   19.47    5.54
  -2 -14   7   39.66    8.58
   2  14  -7   42.10    3.97
  -2 -14   6    5.21    1.61
   2  14  -6    8.27    1.78
  -2 -14   6    3.99    1.85
  -2 -14   5    0.43    0.45
  -2 -14   5    0.39    0.54
   2  14  -4    5.28    1.34
  -2 -14   4    3.66    1.35
  -2 -14   4    3.47    1.59
   2  14  -3   25.40    2.83
  -2 -14   3   16.96    3.31
   2  14  -3   22.19    9.08
   2  14  -2   26.11    2.58
  -2 -14   2   22.07    3.39
   2  14  -2   21.57    4.54
  -2 -14   1   16.92    3.65
   2  14  -1   12.12    2.02
  -2 -14   0   71.89   12.13
   2  14   0   75.66   18.76
  -2 -14  -1    0.92    0.85
   2  14   1    0.63    1.18
  -2 -14  -2    0.26    0.74
   2  14   2    0.92    0.60
   2  14   3   31.63    3.78
   2  14   4    1.93    0.76
   2  14   5    0.69    1.49
   2  14   6    9.33    2.90
   2  14   7   21.98    6.16
   2  14   8    3.35    2.80
   2  14   9    1.07    2.83
  -2 -15  19   -0.31    1.73
  -2 -15  18    2.95    1.55
  -2 -15  17   -1.03    1.63
  -2 -15  16   -0.66    1.63
  -2 -15  15    0.73    1.01
  -2 -15  14    1.35    1.16
  -2 -15  13   -0.40    1.46
  -2 -15  12   -0.96    1.26
  -2 -15  11    0.27    0.86
  -2 -15  10    1.49    0.99
   2  15 -10   -0.21    0.92
  -2 -15   9    1.15    0.67
   2  15  -9    1.68    1.13
  -2 -15   8    1.56    1.07
   2  15  -8    0.19    1.05
  -2 -15   7    1.46    0.53
   2  15  -7    1.05    1.09
  -2 -15   6   -0.04    1.03
  -2 -15   5    0.58    0.81
  -2 -15   5   -0.48    1.05
  -2 -15   5    0.56    0.70
  -2 -15   4    1.43    0.58
   2  15  -2    1.33    0.89
   2  15  -1   -0.88    1.31
   2  15   0    0.72    1.38
   2  15   1    1.22    0.42
   2  15   2    0.99    1.68
   2  15   3   -1.60    1.54
   2  15   4    1.14    1.60
   2  15   5    3.70    2.35
   2  15   6   -1.52    1.82
   2  15   7   -0.47    2.07
  -2 -16  18    2.50    1.34
  -2 -16  17    1.33    0.96
  -2 -16  16    4.17    1.96
  -2 -16  15    8.71    3.37
  -2 -16  14    3.56    1.30
  -2 -16  13    3.22    1.49
  -2 -16  12    3.15    0.94
  -2 -16  11    3.28    1.23
  -2 -16  10    0.43    0.82
  -2 -16   9   18.79    4.46
  -2 -16   8    4.32    0.95
  -2 -16   7    1.12    0.84
   2  16  -2   28.34    6.36
   2  16  -1   13.85    2.38
   2  16   0   15.76    5.71
   2  16   1    1.07    1.42
   2  16   2   -0.11    1.46
   2  16   3    0.45    1.67
  -2 -17  13    0.00    1.54
  -2 -17  12    2.45    1.04
   3 -19   3    1.32    1.37
   3 -19   4    2.34    1.80
   3 -19   5    0.99    1.31
  -3  19  -7   -0.10    1.91
  -3  19  -8    2.35    2.15
  -3  19  -9    1.27    2.12
  -3  19 -10    0.35    2.13
  -3  19 -11    4.21    2.43
   3 -18  -2    2.38    1.43
   3 -18  -1    1.23    1.24
   3 -18   0    1.30    0.91
   3 -18   1    5.88    1.74
   3 -18   2    1.40    1.25
   3 -18   3    3.99    3.85
   3 -18   4    4.48    1.46
  -3  18  -6    2.19    1.98
  -3  18  -7   11.85    4.13
  -3  18  -8   36.10    9.10
  -3  18  -9    1.80    2.54
  -3  18 -12    3.35    2.08
  -3  18 -13   12.99    4.47
  -3  18 -14    4.27    2.98
  -3  18 -15   -1.23    2.10
   3 -17  -5    0.78    0.93
   3 -17  -4   -0.02    1.65
   3 -17  -3   -0.14    1.65
   3 -17  -2    0.48    1.32
   3 -17  -1    0.31    0.99
   3 -17   1    1.22    0.66
   3 -17   2    1.72    0.92
   3 -17   3    0.74    0.72
  -3  17  -5    4.79    1.99
  -3  17  -6    1.57    2.41
  -3  17  -8    4.11    2.34
  -3  17  -9    0.85    1.71
  -3  17 -10    0.47    2.44
   3 -17  11   -0.22    1.46
  -3  17 -11   -0.44    1.64
   3 -17  12   -0.37    1.53
  -3  17 -12    0.20    1.76
   3 -17  13    2.05    1.26
  -3  17 -13    1.11    1.79
   3 -17  14    1.03    0.72
  -3  17 -14    0.93    1.70
   3 -17  15   -0.78    1.65
  -3  17 -15   -1.41    1.70
  -3  17 -16    1.69    1.96
  -3  17 -17    3.80    2.25
   3 -16  -7    2.95    2.10
   3 -16  -6    0.73    1.10
   3 -16  -5   -0.15    1.66
  -3  16   5    1.38    1.79
   3 -16  -4   29.90   10.40
  -3  16   4   33.54    8.25
   3 -16  -3    5.57    1.18
  -3  16   3    2.21    1.65
   3 -16  -2   11.39    3.14
  -3  16   2   10.99    2.65
   3 -16  -1    1.47    0.66
   3 -16   0    0.84    1.18
   3 -16   1   12.48    3.79
   3 -16   2    2.43    1.68
  -3  16  -4    4.46    1.99
  -3  16  -5    0.71    1.59
  -3  16  -6    4.09    2.04
  -3  16  -7    5.79    1.99
   3 -16   8   -0.07    1.41
  -3  16  -8    8.05    2.47
   3 -16   9    5.12    1.70
  -3  16  -9    6.77    1.87
   3 -16  10    0.74    0.94
  -3  16 -10    3.57    1.63
   3 -16  11    0.60    1.49
  -3  16 -11    0.70    1.44
   3 -16  12   12.30    2.65
  -3  16 -12    9.67    2.44
   3 -16  13    3.21    1.86
  -3  16 -13    0.88    1.14
   3 -16  14    8.80    2.05
  -3  16 -14    7.19    2.57
   3 -16  15    9.46    2.59
  -3  16 -15    2.65    1.96
   3 -16  16   -0.24    1.81
  -3  16 -16    2.99    2.62
   3 -16  17    1.81    1.35
  -3  16 -17    2.02    1.79
   3 -16  18    6.52    2.20
  -3  16 -18    7.03    2.89
   3 -15  -9    0.67    1.15
   3 -15  -8    0.99    1.88
  -3  15   8    0.22    1.64
   3 -15  -7   -0.04    1.68
  -3  15   7    0.60    1.48
   3 -15  -6    1.12    1.26
  -3  15   6    0.64    1.55
   3 -15  -5    1.45    1.52
  -3  15   5   -0.07    1.56
   3 -15  -4    0.94    0.89
  -3  15   4    1.44    1.45
   3 -15  -3   -0.34    1.50
  -3  15   3    0.86    1.80
   3 -15  -2   -0.22    1.33
  -3  15   2   -1.01    1.32
   3 -15  -1   -0.10    1.36
  -3  15   1    0.18    1.28
   3 -15   0    3.05    2.34
  -3  15   0    2.93    1.43
   3 -15   1    0.99    0.83
  -3  15  -1    0.15    1.03
   3 -15   2   -0.60    1.35
  -3  15  -2    0.43    0.68
  -3  15  -3    0.53    1.47
  -3  15  -4   -0.06    1.52
   3 -15   5    0.00    0.54
  -3  15  -5    2.25    1.69
   3 -15   6    1.32    1.19
  -3  15  -6    1.22    1.06
   3 -15   7    1.63    1.27
  -3  15  -7    0.76    1.55
   3 -15   8    1.22    0.74
  -3  15  -8    0.70    1.55
   3 -15   9   -0.52    1.11
  -3  15  -9    0.09    1.52
   3 -15  10   -0.69    1.21
  -3  15 -10    2.43    1.57
   3 -15  11   -0.25    0.71
  -3  15 -11   -0.60    1.46
   3 -15  12    0.20    0.75
  -3  15 -12    2.46    1.44
   3 -15  13    3.01    1.66
  -3  15 -13    1.63    1.63
   3 -15  14    0.28    1.51
  -3  15 -14   -0.32    1.49
   3 -15  15    2.31    0.86
  -3  15 -15   -2.04    1.56
   3 -15  16    1.93    1.83
  -3  15 -16    2.49    1.83
   3 -15  17    2.06    1.16
  -3  15 -17    1.59    1.96
   3 -15  18    1.86    1.96
  -3  15 -18    2.12    1.87
   3 -15  19   -1.47    1.81
  -3  15 -19    3.35    2.00
   3 -15  20    2.22    1.31
  -3  15 -20    1.10    2.08
   3 -14 -11    2.68    1.81
   3 -14 -10    0.56    1.34
  -3  14  10    2.66    2.16
   3 -14  -9   18.24    6.89
  -3  14   9   10.45    3.30
   3 -14  -8    6.74    2.95
  -3  14   8    4.02    2.42
   3 -14  -7   53.54   14.90
  -3  14   7   60.56    7.17
   3 -14  -6   11.44    2.81
  -3  14   6   11.87    3.08
   3 -14  -5    3.03    1.13
  -3  14   5    2.28    1.52
   3 -14  -4    1.96    0.95
  -3  14   4    4.42    1.79
   3 -14  -3   22.08    3.03
  -3  14   3   19.20    2.63
   3 -14  -2    5.03    1.28
  -3  14   2    4.33    1.64
   3 -14  -1    0.82    0.81
  -3  14   1    2.52    1.67
   3 -14   0   -0.22    1.49
  -3  14   0    0.15    1.06
   3 -14   1   22.47    2.96
  -3  14  -1   17.71    2.31
  -3  14  -2    0.39    1.47
  -3  14  -2    0.74    0.95
  -3  14  -3    3.62    1.78
  -3  14  -3    3.95    1.45
   3 -14   4   39.88    8.12
  -3  14  -4   42.33    4.67
   3 -14   5   34.92    3.04
  -3  14  -5   30.15    3.92
   3 -14   6   26.16   10.32
  -3  14  -6   30.15    3.32
   3 -14   7   29.30    6.98
  -3  14  -7   26.71    3.34
   3 -14   8   -0.34    1.09
  -3  14  -8   -0.61    1.56
   3 -14   9    8.52    2.12
  -3  14  -9    5.31    2.20
   3 -14  10   29.56    3.45
  -3  14 -10   23.12   10.24
   3 -14  11    5.41    1.59
  -3  14 -11    5.26    1.77
   3 -14  12   -0.87    1.42
  -3  14 -12    3.83    2.23
   3 -14  13    1.95    1.61
  -3  14 -13    3.11    1.89
   3 -14  14    5.13    1.14
  -3  14 -14    1.96    1.79
   3 -14  15   10.37    3.41
  -3  14 -15    2.64    1.80
   3 -14  16    1.57    1.02
  -3  14 -16   -0.27    1.54
   3 -14  17   -0.11    1.84
  -3  14 -17    2.43    1.92
   3 -14  18   10.04    3.27
  -3  14 -18   12.61    3.21
   3 -14  19    4.36    2.17
  -3  14 -19    4.10    2.86
   3 -14  20    2.00    1.09
  -3  14 -20    2.60    1.97
   3 -13 -12   -0.29    1.82
  -3  13  12   -0.32    1.88
   3 -13 -11   -2.02    1.88
  -3  13  11    2.11    2.58
   3 -13 -10    0.29    1.12
  -3  13  10    0.91    1.79
   3 -13  -9    0.74    1.60
  -3  13   9   -0.77    1.67
   3 -13  -8    2.14    1.59
  -3  13   8    2.38    0.94
   3 -13  -7   -0.67    1.35
  -3  13   7   -0.02    0.84
   3 -13  -6   -0.54    1.39
  -3  13   6    0.38    1.48
   3 -13  -5    1.35    1.24
  -3  13   5    0.03    1.18
   3 -13  -4    0.33    1.90
  -3  13   4    1.13    1.27
   3 -13  -3    0.47    1.06
  -3  13   3   -0.70    1.08
   3 -13  -2    1.16    1.05
  -3  13   2    1.28    1.15
   3 -13  -1    0.67    0.96
  -3  13   1   -0.38    0.99
   3 -13   0    0.02    0.67
  -3  13   0   -0.14    1.01
  -3  13  -1    1.60    1.04
   3 -13   2    0.07    0.72
  -3  13  -2    1.31    0.68
  -3  13  -2    0.32    0.77
   3 -13   3    0.27    0.53
  -3  13  -3    1.97    1.66
  -3  13  -3   -0.05    0.74
   3 -13   4    0.52    0.57
  -3  13  -4    3.87    2.28
  -3  13  -4    0.03    0.65
   3 -13   5   -0.10    1.03
  -3  13  -5    0.25    1.57
   3 -13   6    2.53    1.24
  -3  13  -6   -0.84    1.50
   3 -13   7    0.25    1.06
  -3  13  -7    0.04    1.39
   3 -13   8   -0.38    1.13
  -3  13  -8   -0.55    1.38
   3 -13   9    0.17    1.23
  -3  13  -9   -0.65    1.48
   3 -13  10   -0.71    1.29
  -3  13 -10    1.65    0.91
   3 -13  11    2.56    1.54
  -3  13 -11    2.44    1.61
   3 -13  12   -0.04    1.40
  -3  13 -12   -0.45    1.50
   3 -13  13   -0.71    1.51
  -3  13 -13   -0.33    1.55
   3 -13  14   -1.51    1.69
  -3  13 -14    0.32    1.52
   3 -13  15    1.15    2.36
  -3  13 -15    1.94    1.63
   3 -13  16    5.16    2.07
  -3  13 -16    0.41    1.56
   3 -13  17    1.25    1.30
  -3  13 -17    2.20    1.73
   3 -13  18   -2.00    1.81
  -3  13 -18    0.61    1.15
   3 -13  19    0.56    1.99
  -3  13 -19    3.43    1.96
   3 -13  20    0.99    0.72
  -3  13 -20    1.23    1.94
   3 -13  21   -1.64    1.94
  -3  13 -21    0.62    0.99
   3 -12 -13   14.33    4.26
  -3  12  13   10.62    3.67
   3 -12 -12  124.14   28.10
  -3  12  12   74.33   21.83
   3 -12 -11   34.38    9.46
  -3  12  11   22.52    6.36
   3 -12 -10    3.57    1.86
  -3  12  10    7.02    2.49
   3 -12  -9    6.83    2.79
  -3  12   9    3.88    1.19
   3 -12  -8   10.53    2.61
  -3  12   8   12.77    5.15
   3 -12  -7   56.35   11.96
  -3  12   7   48.96    7.90
   3 -12  -6   74.97   11.82
  -3  12   6   64.63    5.69
   3 -12  -5    1.25    0.90
  -3  12   5   -0.21    1.43
   3 -12  -4    7.71    1.12
  -3  12   4    7.74    1.30
   3 -12  -3   11.86    7.21
  -3  12   3   22.91    2.90
   3 -12  -2   38.76    5.57
  -3  12   2   34.36    4.74
   3 -12  -1   66.38    4.30
  -3  12   1   63.08    9.85
   3 -12   0   64.40   11.96
  -3  12   0   55.55    3.32
  -3  12  -1  405.63   18.42
  -3  12  -1  361.97   16.17
   3 -12   2    6.63    1.26
  -3  12  -2    6.57    1.97
  -3  12  -2    3.30    0.81
   3 -12   3    7.11    1.31
  -3  12  -3    5.03    1.87
  -3  12  -3    7.25    1.34
   3 -12   4   18.64    3.40
  -3  12  -4   14.63    2.37
  -3  12  -4   10.73    2.17
   3 -12   5  309.17   13.80
  -3  12  -5  245.86   11.95
  -3  12  -5  222.12    9.78
   3 -12   6   12.00    2.50
  -3  12  -6   10.63    2.30
   3 -12   7   96.46   12.60
  -3  12  -7   73.35    5.10
   3 -12   8    1.26    0.99
  -3  12  -8    0.71    0.73
   3 -12   9   78.15    4.24
  -3  12  -9   58.34    3.92
   3 -12  10    1.94    1.23
  -3  12 -10    2.23    1.57
   3 -12  11   22.54    4.09
  -3  12 -11   20.54    2.90
   3 -12  12  107.72    8.08
  -3  12 -12   78.60    6.59
   3 -12  13   76.90   14.45
  -3  12 -13   63.37    7.78
   3 -12  14    2.34    1.47
  -3  12 -14    2.06    2.49
   3 -12  15   38.01    6.20
  -3  12 -15   33.10    7.19
   3 -12  16   -0.84    1.67
  -3  12 -16    0.11    1.61
   3 -12  17   52.00   10.70
  -3  12 -17   39.33    3.78
   3 -12  18    8.55    2.29
  -3  12 -18    6.44    1.98
   3 -12  19   12.12    4.19
  -3  12 -19   11.92    2.71
   3 -12  20    1.68    0.87
  -3  12 -20    0.62    0.76
   3 -12  21    2.95    2.17
  -3  12 -21    3.23    2.15
  -3  12 -22    1.68    1.96
   3 -11 -15   -0.31    2.16
  -3  11  15    0.61    1.92
   3 -11 -14   -1.16    1.92
  -3  11  14    1.86    1.97
   3 -11 -13    7.13    2.42
  -3  11  13    0.89    1.90
   3 -11 -12    1.24    1.79
  -3  11  12    3.17    1.94
   3 -11 -11    2.01    1.27
  -3  11  11    0.62    1.09
   3 -11 -10   -0.71    1.52
  -3  11  10    0.16    1.50
   3 -11  -9    1.57    1.59
  -3  11   9    0.12    0.91
   3 -11  -8    0.43    1.58
  -3  11   8    1.23    0.93
   3 -11  -7    1.46    1.55
  -3  11   7    2.38    1.69
   3 -11  -6    1.89    1.50
  -3  11   6   -0.38    1.44
   3 -11  -5   -0.22    1.42
  -3  11   5   -0.22    1.26
   3 -11  -4   -0.14    1.42
  -3  11   4   -0.09    1.19
   3 -11  -3    1.17    0.97
  -3  11   3    0.85    1.20
   3 -11  -2    1.00    1.27
  -3  11   2   -1.25    1.17
   3 -11  -1    0.38    0.62
  -3  11   1    0.97    1.13
   3 -11   0   -0.36    0.65
  -3  11   0    2.67    1.40
   3 -11   1   -0.34    0.67
  -3  11  -1    1.60    1.89
  -3  11  -1   -1.17    0.80
   3 -11   2    1.72    1.34
  -3  11  -2    4.46    2.08
  -3  11  -2    0.06    0.30
   3 -11   3    0.83    0.83
  -3  11  -3    1.25    1.39
  -3  11  -3    0.18    0.43
   3 -11   4    0.58    0.72
  -3  11  -4    0.42    1.35
  -3  11  -4    0.30    0.64
   3 -11   5   -0.81    1.02
  -3  11  -5    0.88    1.19
  -3  11  -5    1.00    0.60
   3 -11   6   -0.77    1.01
  -3  11  -6    1.63    1.25
   3 -11   7   -0.28    1.00
  -3  11  -7    0.95    1.23
   3 -11   8    1.06    0.77
  -3  11  -8    1.38    1.25
   3 -11   9    1.84    1.09
  -3  11  -9    0.61    1.31
   3 -11  10    1.01    0.98
  -3  11 -10    0.49    1.36
   3 -11  11    2.17    1.09
  -3  11 -11    1.88    1.52
   3 -11  12   -1.31    1.58
  -3  11 -12    1.52    1.63
   3 -11  13   -0.33    1.67
  -3  11 -13   -0.60    1.63
   3 -11  14   -0.69    1.61
  -3  11 -14   -0.62    1.56
   3 -11  15    0.89    1.08
  -3  11 -15    0.42    1.71
   3 -11  16    3.66    1.44
  -3  11 -16    3.87    1.92
   3 -11  17    0.93    1.41
  -3  11 -17    1.07    1.58
   3 -11  18    1.36    0.87
  -3  11 -18    0.59    1.65
   3 -11  19    2.09    0.61
  -3  11 -19    1.81    1.75
   3 -11  20   -0.65    1.71
  -3  11 -20    0.77    1.79
   3 -11  21    0.11    1.68
  -3  11 -21   -1.95    1.91
  -3  11 -22   -0.43    1.91
   3 -10 -16    2.76    2.48
  -3  10  16    0.97    1.51
   3 -10 -15   27.45    7.02
  -3  10  15   21.07    5.93
   3 -10 -14   28.75   10.05
  -3  10  14   24.27    9.26
   3 -10 -13   24.59    4.25
  -3  10  13   25.83    4.30
   3 -10 -12    6.15    2.42
  -3  10  12    3.95    1.93
   3 -10 -11    5.39    2.36
  -3  10  11    3.71    1.36
   3 -10 -10    9.92    2.43
  -3  10  10    8.98    2.41
   3 -10  -9    0.42    1.55
  -3  10   9   -0.38    1.42
   3 -10  -8    1.80    1.62
  -3  10   8    2.06    1.60
   3 -10  -7    9.67    2.94
  -3  10   7    9.82    2.03
   3 -10  -6    0.94    0.68
  -3  10   6    0.62    0.67
   3 -10  -5    3.17    0.99
  -3  10   5    2.09    1.22
   3 -10  -4  102.61   17.97
  -3  10   4   78.16    4.93
   3 -10  -3  107.67    5.94
  -3  10   3  113.26    5.96
   3 -10  -2   82.00   11.98
  -3  10   2   64.64    3.59
   3 -10  -1  427.93   12.83
  -3  10   1  449.46   11.01
   3 -10   0    0.52    0.83
  -3  10   0    0.60    1.27
  -3  10   0   -1.75    0.90
   3 -10   1    9.95    1.68
  -3  10  -1    8.80    1.70
  -3  10  -1    7.63    1.64
   3 -10   2   29.34    2.02
  -3  10  -2   22.76    2.36
  -3  10  -2   25.30    1.98
   3 -10   3    0.93    0.83
  -3  10  -3   -0.40    1.09
  -3  10  -3    0.52    0.83
   3 -10   4   69.63    7.03
  -3  10  -4   57.73    3.52
  -3  10  -4   49.45    2.42
   3 -10   5   68.43    3.67
  -3  10  -5   65.54    3.64
  -3  10  -5   53.80    2.68
   3 -10   6   11.56    2.43
  -3  10  -6   10.10    1.92
   3 -10   7    7.02    1.36
  -3  10  -7    6.05    1.82
   3 -10   8   30.06    5.99
  -3  10  -8   25.20    2.61
   3 -10   9   12.87    1.78
  -3  10  -9   12.70    2.17
   3 -10  10  294.72   12.70
  -3  10 -10  228.02   10.48
   3 -10  11    7.69    1.63
  -3  10 -11    5.79    1.99
   3 -10  12  833.23   14.24
  -3  10 -12  641.36   27.48
   3 -10  13   -1.38    2.71
  -3  10 -13    0.62    1.59
   3 -10  14   86.03   15.26
  -3  10 -14   67.57    5.82
   3 -10  15   48.06    9.39
  -3  10 -15   34.99    4.85
   3 -10  16    2.57    2.45
  -3  10 -16   -1.14    1.58
   3 -10  17    1.38    0.99
  -3  10 -17    3.77    2.40
   3 -10  18    0.85    0.75
  -3  10 -18    3.11    2.49
   3 -10  19    2.91    1.92
  -3  10 -19    0.87    1.98
   3 -10  20   14.49    2.92
  -3  10 -20   12.10    2.92
   3 -10  21    3.75    1.84
  -3  10 -21    3.43    2.00
   3 -10  22    2.20    1.20
  -3  10 -22    0.26    1.87
   3  -9 -17   -1.20    2.36
   3  -9 -16    0.66    1.19
  -3   9  16   -0.19    1.69
   3  -9 -15   -0.53    1.87
  -3   9  15    1.90    1.38
   3  -9 -14    0.77    0.79
  -3   9  14    1.58    1.27
   3  -9 -13    0.90    1.65
  -3   9  13    0.78    1.98
   3  -9 -12   -0.02    1.51
  -3   9  12    2.05    1.79
   3  -9 -11    2.06    1.75
  -3   9  11    3.30    1.80
   3  -9 -10   -0.69    1.65
  -3   9  10    0.03    1.51
   3  -9  -9    0.28    0.87
  -3   9   9    2.15    1.29
   3  -9  -8    1.23    1.50
  -3   9   8    1.29    1.49
   3  -9  -7    0.93    0.83
  -3   9   7   -0.48    1.32
   3  -9  -6   -2.54    1.28
  -3   9   6    1.19    1.27
   3  -9  -5    0.83    0.78
  -3   9   5    0.37    1.19
   3  -9  -4    1.31    1.38
  -3   9   4    1.41    0.98
   3  -9  -3    1.61    0.81
  -3   9   3   -1.22    1.02
   3  -9  -2    0.46    0.62
  -3   9   2   -0.83    0.95
   3  -9  -1    0.74    0.33
  -3   9   1    0.05    0.88
   3  -9   0    0.04    0.73
  -3   9   0    1.31    0.69
  -3   9   0    0.02    0.77
   3  -9   1    0.34    0.35
  -3   9  -1    0.82    0.82
  -3   9  -1   -0.25    0.72
   3  -9   2    0.28    0.77
  -3   9  -2   -0.12    0.99
  -3   9  -2    0.80    0.70
  -3   9  -3    3.21    1.28
  -3   9  -3    0.82    0.60
   3  -9   4    0.75    0.70
  -3   9  -4    1.85    1.22
  -3   9  -4    0.41    0.47
   3  -9   5    0.32    0.95
  -3   9  -5   -0.07    1.08
  -3   9  -5    0.02    0.20
   3  -9   6    0.69    0.75
  -3   9  -6    2.18    1.26
  -3   9  -6    0.32    0.37
   3  -9   7    0.97    0.72
  -3   9  -7    2.71    1.34
   3  -9   8    0.18    1.14
  -3   9  -8    1.32    1.29
   3  -9   9    0.54    1.50
  -3   9  -9    2.39    1.42
   3  -9  10    0.97    1.57
  -3   9 -10   -1.07    1.39
   3  -9  11    1.35    0.89
  -3   9 -11    1.31    1.59
   3  -9  12   -1.23    1.79
  -3   9 -12    0.51    1.62
   3  -9  13   -1.10    1.42
  -3   9 -13   -0.91    1.33
   3  -9  14    0.28    0.72
  -3   9 -14   -0.62    1.43
   3  -9  15   -0.32    1.53
  -3   9 -15   -1.29    1.39
   3  -9  16    0.83    0.82
  -3   9 -16    0.56    1.62
   3  -9  17    1.02    1.39
  -3   9 -17    0.85    1.65
   3  -9  18    0.64    1.33
  -3   9 -18    0.84    1.72
   3  -9  19   -1.53    1.55
  -3   9 -19    2.82    1.96
   3  -9  20    1.15    1.68
  -3   9 -20    1.15    1.92
   3  -9  21   -1.37    1.48
  -3   9 -21    1.89    1.85
   3  -9  22    0.52    1.15
  -3   9 -22    1.87    2.11
   3  -8 -17    2.47    1.66
  -3   8  17    0.55    0.82
   3  -8 -16   19.24    4.04
  -3   8  16    8.89    2.35
   3  -8 -15   -0.27    1.90
  -3   8  15    1.42    1.44
   3  -8 -14  149.46    7.21
  -3   8  14  112.79    6.33
   3  -8 -13   79.28    5.35
  -3   8  13   64.38    4.63
   3  -8 -12   60.92    5.62
  -3   8  12   63.05   12.38
   3  -8 -11   -0.08    1.57
  -3   8  11   -0.12    1.49
   3  -8 -10   12.86    3.58
  -3   8  10    6.62    2.28
   3  -8  -9    2.39    1.17
  -3   8   9    2.51    1.57
   3  -8  -8    4.57    2.11
  -3   8   8    1.48    1.47
   3  -8  -7    0.97    0.98
  -3   8   7    1.31    1.38
   3  -8  -6    1.71    0.50
  -3   8   6    0.98    1.23
   3  -8  -5    4.23    0.82
  -3   8   5    4.31    1.56
   3  -8  -4   22.18    4.01
  -3   8   4   12.32    1.62
   3  -8  -3   23.45    3.82
  -3   8   3   20.54    4.02
   3  -8  -2   84.14    5.89
   3  -8  -2   80.36   26.06
  -3   8   2   77.72    3.34
   3  -8  -1   89.05    3.94
  -3   8   1   79.37    4.16
   3  -8   0   71.31    3.44
  -3   8   0   65.43    3.92
  -3   8   0   64.23    3.51
   3  -8   1    1.65    0.49
  -3   8  -1    2.00    1.44
  -3   8  -1    0.06    0.73
   3  -8   2   64.06    3.69
  -3   8  -2   53.72    2.97
  -3   8  -2   54.93    2.25
   3  -8   3  226.01    9.03
  -3   8  -3  197.27    8.48
  -3   8  -3  196.65    7.68
   3  -8   4    3.96    0.98
  -3   8  -4    2.66    0.76
  -3   8  -4    1.10    0.54
   3  -8   5    4.16    1.16
  -3   8  -5    1.18    1.04
  -3   8  -5    1.30    0.67
   3  -8   6    0.88    0.68
  -3   8  -6    2.12    1.19
  -3   8  -6    0.29    0.32
   3  -8   7    6.51    1.66
  -3   8  -7    4.03    1.35
   3  -8   8    1.16    0.88
  -3   8  -8    0.67    0.98
   3  -8   9  110.38    8.22
  -3   8  -9   89.28   28.85
   3  -8  10  192.61    5.98
  -3   8 -10  149.53    5.48
   3  -8  11  887.15   19.55
  -3   8 -11  748.82   12.11
   3  -8  12  243.42   11.68
  -3   8 -12  224.52   10.46
   3  -8  13    0.13    1.39
  -3   8 -13    0.39    1.56
   3  -8  14   15.62    3.02
  -3   8 -14   11.91    2.03
   3  -8  15    2.42    1.42
  -3   8 -15    3.50    2.16
   3  -8  16   12.51    3.19
  -3   8 -16   12.04    2.52
   3  -8  17    4.65    2.15
  -3   8 -17    2.75    1.55
   3  -8  18   15.50    2.78
  -3   8 -18   19.63    3.16
   3  -8  19   34.99    4.21
  -3   8 -19   19.63    3.22
   3  -8  20    2.06    1.10
  -3   8 -20    0.96    1.87
   3  -8  21   34.66    4.74
  -3   8 -21   31.46    4.89
  -3   8 -22   -0.01    1.85
  -3   8 -23    0.10    1.96
   3  -7 -18   -1.15    2.21
  -3   7  18   -0.17    1.68
   3  -7 -17    1.39    2.09
  -3   7  17    1.96    1.76
   3  -7 -16    2.43    2.01
  -3   7  16    2.05    1.63
   3  -7 -15    0.74    1.71
  -3   7  15    3.17    1.77
   3  -7 -14    2.66    2.46
  -3   7  14    3.74    1.85
   3  -7 -13    2.25    1.78
  -3   7  13    1.68    1.67
   3  -7 -12   -0.72    1.71
  -3   7  12   -0.10    1.51
   3  -7 -11    0.16    1.60
  -3   7  11    0.90    1.52
   3  -7 -10    0.50    1.03
  -3   7  10   -0.98    1.44
   3  -7  -9   -0.63    1.38
  -3   7   9   -1.15    1.31
   3  -7  -8   -2.21    1.23
  -3   7   8    0.52    1.39
   3  -7  -7    1.85    0.72
  -3   7   7    2.16    1.38
   3  -7  -6   -0.02    0.93
  -3   7   6    0.61    1.22
   3  -7  -5   -0.25    0.86
  -3   7   5   -0.66    1.13
   3  -7  -4    0.80    0.71
  -3   7   4   -0.09    1.03
   3  -7  -3   -0.09    0.40
   3  -7  -3   -0.27    0.88
  -3   7   3    2.79    1.15
   3  -7  -2    0.52    0.55
   3  -7  -2    1.32    0.68
  -3   7   2    0.67    0.88
   3  -7  -1    2.10    0.94
  -3   7   1   -1.09    0.96
  -3   7   1    1.38    1.16
   3  -7   0   -0.40    0.73
  -3   7   0    3.72    1.49
  -3   7   0    0.02    0.70
   3  -7   1    0.62    0.63
  -3   7  -1    1.71    1.35
   3  -7   2    0.41    0.60
  -3   7  -2   -0.03    0.92
  -3   7  -2    0.30    0.65
   3  -7   3    1.12    0.56
  -3   7  -3   -0.70    0.92
  -3   7  -3    1.07    0.77
   3  -7   4   -0.05    0.83
  -3   7  -4    0.88    0.98
  -3   7  -4    0.00    0.44
   3  -7   5    1.26    0.95
  -3   7  -5    1.20    1.09
  -3   7  -5   -0.05    0.31
   3  -7   6    0.91    0.57
  -3   7  -6   -0.03    1.00
  -3   7  -6    0.15    0.30
   3  -7   7    1.06    0.97
  -3   7  -7    0.43    0.60
   3  -7   8    1.28    0.60
  -3   7  -8    0.83    1.07
   3  -7   9   -0.54    1.28
  -3   7  -9   -0.91    1.14
   3  -7  10    0.75    1.08
  -3   7 -10    1.83    1.37
   3  -7  11   -1.91    1.51
  -3   7 -11    0.63    1.35
   3  -7  12    2.61    1.23
  -3   7 -12    3.16    1.49
   3  -7  13   -1.11    1.27
  -3   7 -13   -0.07    1.34
   3  -7  14    0.74    0.75
  -3   7 -14   -0.29    1.29
   3  -7  15    1.89    1.47
  -3   7 -15   -1.74    1.40
   3  -7  16   -0.14    1.27
  -3   7 -16    1.50    1.58
   3  -7  17    1.19    1.47
  -3   7 -17    2.77    1.77
   3  -7  18    2.75    2.27
  -3   7 -18   -0.52    1.70
   3  -7  19    1.47    0.80
  -3   7 -19    1.64    1.84
   3  -7  20   -0.58    1.47
  -3   7 -20    0.62    1.70
   3  -7  21   -0.12    1.50
  -3   7 -21    1.87    2.06
  -3   7 -22    0.54    1.86
   3  -6 -19    1.03    2.57
   3  -6 -18   -1.05    1.99
  -3   6  18    1.57    1.02
   3  -6 -17   39.71    5.62
  -3   6  17   35.23    5.00
   3  -6 -16    3.55    2.02
  -3   6  16    1.82    1.58
   3  -6 -15   44.32   10.65
  -3   6  15   31.14    7.55
   3  -6 -14  130.38   19.59
  -3   6  14  105.10    5.89
   3  -6 -13  188.00   20.57
  -3   6  13  162.87   17.68
   3  -6 -12   89.84    4.96
  -3   6  12   87.03    5.03
   3  -6 -11    2.07    1.55
  -3   6  11    0.07    1.43
   3  -6 -10   32.70    5.70
  -3   6  10   26.25    2.81
   3  -6  -9   14.33    2.13
  -3   6   9   19.51    3.60
   3  -6  -8   17.17    2.16
  -3   6   8   12.36    1.75
   3  -6  -7   18.84    3.82
  -3   6   7   16.46    2.09
   3  -6  -6  131.71    7.73
  -3   6   6  156.71    6.53
   3  -6  -5   15.67    2.83
  -3   6   5   12.51    1.78
   3  -6  -4    7.03    1.11
   3  -6  -4    7.97    1.52
  -3   6   4    8.52    1.56
   3  -6  -3  715.23   15.36
  -3   6   3  873.69   18.13
   3  -6  -2    1.66    0.47
   3  -6  -2    0.60    0.59
  -3   6   2    1.80    1.09
   3  -6  -1  255.70    5.96
  -3   6   1  216.93    6.25
  -3   6   1  237.83    6.37
   3  -6   0   69.03    3.41
  -3   6   0   53.31    3.14
  -3   6   0   59.32    3.24
   3  -6   1  374.62    8.02
  -3   6  -1  318.50    7.57
  -3   6  -1  353.01    7.78
   3  -6   2   74.99    3.78
  -3   6  -2   55.03    3.18
  -3   6  -2   68.78    3.47
   3  -6   3    3.90    0.99
  -3   6  -3    1.68    0.69
  -3   6  -3    2.43    0.65
   3  -6   4   29.88    6.65
  -3   6  -4   20.28    6.16
  -3   6  -4   23.86    1.57
   3  -6   5  130.95    4.24
  -3   6  -5  105.25    3.71
  -3   6  -5  113.75    2.75
   3  -6   6   16.56    1.92
  -3   6  -6   14.12    1.52
  -3   6  -6   14.81    0.97
   3  -6   7  101.35    4.04
  -3   6  -7   94.39    4.28
  -3   6  -7   95.00    2.15
   3  -6   8   73.92    8.37
  -3   6  -8   60.18    3.64
   3  -6   9   49.10    3.11
  -3   6  -9   35.55    2.41
   3  -6  10   72.07    9.57
  -3   6 -10   63.30    3.56
   3  -6  11   44.64    4.04
  -3   6 -11   38.53    2.87
   3  -6  12    7.87    1.57
  -3   6 -12    6.46    1.65
   3  -6  13   42.49    3.17
  -3   6 -13   33.98    3.04
   3  -6  14   24.47    2.75
  -3   6 -14   22.68    2.49
   3  -6  15    0.59    1.37
  -3   6 -15    1.30    1.65
   3  -6  16    4.02    1.96
  -3   6 -16    6.26    2.11
   3  -6  17    0.62    0.61
  -3   6 -17    6.11    2.58
   3  -6  18   24.28    3.11
  -3   6 -18   10.94    2.80
   3  -6  19   14.63    4.02
  -3   6 -19   18.98    3.25
   3  -6  20    5.18    1.77
  -3   6 -20    0.95    1.71
   3  -6  21    2.70    1.45
  -3   6 -21    5.18    2.14
  -3   6 -22   31.65    8.13
  -3   6 -23   -1.39    1.91
   3  -5 -20    0.66    2.41
   3  -5 -19    2.28    2.37
  -3   5  19    0.25    0.87
   3  -5 -18    0.96    1.99
  -3   5  18    0.65    1.63
   3  -5 -17    3.51    2.17
  -3   5  17    3.52    2.25
   3  -5 -16    2.05    2.47
  -3   5  16    1.45    1.05
   3  -5 -15   -1.13    1.69
  -3   5  15   -1.05    1.70
   3  -5 -14    0.55    1.73
  -3   5  14   -0.18    1.58
   3  -5 -13   -3.73    1.54
  -3   5  13   -0.99    1.35
   3  -5 -12    0.77    0.82
  -3   5  12    3.86    2.09
   3  -5 -11    0.84    1.47
  -3   5  11    1.01    1.01
   3  -5 -10    1.54    1.35
  -3   5  10    1.98    1.36
   3  -5  -9   -0.28    1.04
  -3   5   9    0.91    1.38
   3  -5  -8    1.51    1.09
  -3   5   8    1.10    1.31
   3  -5  -7    0.85    0.57
  -3   5   7    0.62    1.25
   3  -5  -6    1.45    0.78
  -3   5   6    0.01    1.10
   3  -5  -5   -0.02    0.29
   3  -5  -5   -0.08    0.82
  -3   5   5    0.56    1.20
  -3   5   4    8.22    1.49
   3  -5  -3    0.58    0.44
   3  -5  -3    0.94    0.50
  -3   5   3    0.27    0.97
   3  -5  -2    0.00    0.49
  -3   5   2    0.34    0.75
   3  -5  -1    0.46    0.59
  -3   5   1   -1.35    0.81
  -3   5   1   -0.52    0.81
   3  -5   0    0.89    0.68
  -3   5   0   -0.79    0.77
  -3   5   0   -0.22    0.82
  -3   5  -1    1.44    1.06
  -3   5  -1   -0.17    0.74
  -3   5  -2    0.09    0.71
   3  -5   3   -0.02    0.42
  -3   5  -3    1.71    0.84
  -3   5  -3   -0.29    0.58
   3  -5   4    0.10    0.87
  -3   5  -4   -0.70    0.77
  -3   5  -4   -0.19    0.50
   3  -5   5    0.21    0.91
  -3   5  -5   -0.87    0.83
  -3   5  -5    1.02    0.49
   3  -5   6    0.99    0.59
  -3   5  -6    0.77    0.86
  -3   5  -6    0.15    0.36
   3  -5   7   -0.47    0.97
  -3   5  -7    1.37    0.97
   3  -5   8    1.21    1.52
  -3   5  -8   -0.54    1.01
  -3   5  -8   -0.03    0.18
   3  -5   9   -1.08    1.15
  -3   5  -9    1.61    1.13
   3  -5  10    1.92    1.35
  -3   5 -10    0.99    1.21
   3  -5  11    0.03    1.08
  -3   5 -11    0.28    1.21
   3  -5  12   -1.38    1.13
  -3   5 -12    2.54    1.90
   3  -5  13   -0.58    1.20
  -3   5 -13    1.55    1.37
   3  -5  14    2.01    0.96
  -3   5 -14    0.96    1.48
   3  -5  15    0.79    0.82
  -3   5 -15    0.73    1.57
   3  -5  16   -0.64    1.30
  -3   5 -16    2.50    2.01
   3  -5  17    0.18    0.88
  -3   5 -17    0.92    1.71
   3  -5  18   -1.09    1.10
  -3   5 -18    0.76    0.83
   3  -5  19   -0.97    1.23
  -3   5 -19   -0.30    1.44
   3  -5  20    1.79    1.51
  -3   5 -20   -1.75    1.62
  -3   5 -21    3.08    2.04
  -3   5 -22    0.99    1.83
   3  -4 -20    0.92    2.21
   3  -4 -19    3.84    2.07
  -3   4  19    2.19    1.66
   3  -4 -18   14.15    3.53
  -3   4  18   13.35    3.17
   3  -4 -17  118.76    6.45
  -3   4  17  116.46    5.94
   3  -4 -16   31.34    3.55
  -3   4  16   22.61    6.69
   3  -4 -15    0.21    1.65
  -3   4  15   -0.32    1.44
   3  -4 -14    3.52    1.83
  -3   4  14    6.22    2.01
   3  -4 -13   20.22    2.65
  -3   4  13   17.89    2.45
   3  -4 -12    7.07    1.60
  -3   4  12    5.46    1.53
   3  -4 -11    8.56    1.58
  -3   4  11    8.28    1.91
   3  -4 -10   -0.86    1.11
  -3   4  10    0.29    1.28
   3  -4  -9    4.32    1.27
  -3   4   9    2.46    1.12
   3  -4  -8    1.22    0.60
  -3   4   8    1.52    0.83
   3  -4  -7  203.59    7.46
   3  -4  -7  227.95    9.46
  -3   4   7  211.38    9.07
   3  -4  -6  387.76    9.61
   3  -4  -5  133.08    3.07
   3  -4  -5  119.25    4.46
  -3   4   5  147.64    5.22
   3  -4  -4  111.32    4.67
   3  -4  -4  106.85    5.27
  -3   4   4  120.14    5.80
   3  -4  -3  236.21    5.15
   3  -4  -3  195.96    5.19
  -3   4   3  250.52    6.40
  -3   4   2  299.11    7.08
   3  -4  -1   21.63    7.40
  -3   4   1   23.01    2.94
  -3   4   1   23.52    1.96
   3  -4   0  113.41    5.01
  -3   4   0   84.97    4.01
  -3   4   0  110.89    5.14
   3  -4   1    8.87    0.93
  -3   4  -1    9.52    1.12
  -3   4  -1   13.16    1.64
   3  -4   2   69.10    3.52
  -3   4  -2   58.69    3.13
  -3   4  -2   65.36    3.42
  -3   4  -3   -0.08    0.62
   3  -4   4  265.94    6.55
  -3   4  -4  217.88    5.44
  -3   4  -4  235.70    5.41
   3  -4   5  138.02    6.65
  -3   4  -5  126.72    5.68
  -3   4  -5  117.78    4.90
   3  -4   6   35.54    3.07
  -3   4  -6   30.94    2.21
  -3   4  -6   28.98    1.65
   3  -4   7  213.27    6.23
  -3   4  -7  179.36    5.37
  -3   4  -7  156.63    3.83
   3  -4   8  177.79    5.88
  -3   4  -8  160.16    5.28
  -3   4  -8  125.15    3.29
   3  -4   9   23.39    3.26
  -3   4  -9   16.97    2.23
  -3   4  -9   12.53    1.95
   3  -4  10  148.95    6.75
  -3   4 -10  133.37    5.72
  -3   4 -10   99.40    3.55
   3  -4  11   76.64    5.30
  -3   4 -11   64.35   11.11
  -3   4 -11   41.49    3.75
   3  -4  12   20.14    2.32
  -3   4 -12   13.96    1.96
   3  -4  13   26.39    5.83
  -3   4 -13   22.51    2.65
   3  -4  14    8.74    1.80
  -3   4 -14    7.24    2.04
   3  -4  15   -0.84    1.27
  -3   4 -15    0.02    1.42
   3  -4  16    0.51    0.60
  -3   4 -16    0.86    1.54
   3  -4  17    1.46    0.47
  -3   4 -17    0.79    1.63
   3  -4  18    2.31    1.50
  -3   4 -18    2.88    1.88
   3  -4  19    9.78    2.21
  -3   4 -19    5.93    2.23
   3  -4  20    4.95    1.62
  -3   4 -20    7.63    2.46
  -3   4 -21    7.55    2.54
  -3   4 -22    1.94    1.16
   3  -3 -21    1.09    2.26
   3  -3 -20    0.79    1.84
   3  -3 -19    0.76    1.77
  -3   3  19    0.28    1.40
   3  -3 -18   -0.90    1.77
  -3   3  18   -0.64    1.53
   3  -3 -17    0.99    1.83
  -3   3  17    1.01    0.68
   3  -3 -16    1.23    1.70
  -3   3  16    3.38    1.54
   3  -3 -15    1.86    1.61
  -3   3  15   -0.15    1.41
   3  -3 -14   -0.70    1.61
  -3   3  14    1.24    1.35
   3  -3 -13   -0.52    1.47
  -3   3  13    0.40    1.31
   3  -3 -12    0.45    1.31
  -3   3  12    3.02    1.43
   3  -3 -11   -0.10    1.28
  -3   3  11    3.48    1.94
   3  -3 -10   -0.44    1.20
   3  -3  -9    0.18    0.39
   3  -3  -9    1.83    1.10
  -3   3   9   -0.89    1.11
   3  -3  -8   -0.06    0.39
   3  -3  -8    0.29    0.85
  -3   3   8    2.52    1.62
   3  -3  -7   -0.10    0.37
   3  -3  -7    1.24    0.61
  -3   3   7    0.17    1.28
   3  -3  -6   -0.63    0.41
   3  -3  -6   -0.57    0.75
  -3   3   6   -0.78    1.20
   3  -3  -5    0.29    0.21
   3  -3  -5    1.34    0.47
  -3   3   5    1.41    1.20
   3  -3  -4    0.36    0.42
   3  -3  -4    0.36    0.34
  -3   3   4   -0.86    1.12
   3  -3  -3    1.02    0.26
   3  -3  -3    0.49    0.34
  -3   3   3    0.44    1.14
   3  -3  -2    0.52    0.51
   3  -3  -2    0.50    0.30
  -3   3   2    2.80    0.97
   3  -3  -1    0.87    0.78
  -3   3   1    1.05    0.50
  -3   3   1    2.21    1.15
   3  -3   0    0.47    0.65
  -3   3   0    2.84    1.18
   3  -3   2   -0.47    0.73
   3  -3   3    0.07    0.81
  -3   3  -3    1.15    0.78
   3  -3   4   -0.29    0.83
  -3   3  -4    0.29    0.72
   3  -3   5   -0.23    0.87
  -3   3  -5   -0.23    0.53
   3  -3   6    0.11    0.89
  -3   3  -6    0.04    0.78
  -3   3  -6   -0.19    0.43
   3  -3   7    0.73    0.55
  -3   3  -7   -0.37    0.80
  -3   3  -7    0.08    0.32
   3  -3   8   -0.07    1.04
  -3   3  -8    2.12    1.22
  -3   3  -8    0.14    0.37
   3  -3   9   -0.73    1.12
  -3   3  -9    0.74    1.16
  -3   3  -9   -0.35    0.41
   3  -3  10    4.05    1.92
  -3   3 -10    1.39    1.15
  -3   3 -10    0.88    0.27
   3  -3  11   -0.12    0.73
  -3   3 -11    0.64    1.19
  -3   3 -11    0.45    0.35
   3  -3  12    0.59    0.90
  -3   3 -12   -1.47    1.20
   3  -3  13    1.67    0.77
  -3   3 -13   -1.04    1.28
   3  -3  13    0.00    0.37
   3  -3  14    0.50    0.72
  -3   3 -14    3.55    2.05
   3  -3  15    0.10    1.26
  -3   3 -15    1.86    1.61
   3  -3  16    0.39    1.01
  -3   3 -16    2.17    1.59
   3  -3  17   -0.02    1.21
  -3   3 -17   -0.07    1.50
   3  -3  18    0.63    1.22
  -3   3 -18    0.54    1.70
   3  -3  19   -0.44    1.38
  -3   3 -19    0.93    1.56
  -3   3 -20    1.54    1.67
  -3   3 -21    4.09    2.58
  -3   3 -22    0.43    1.89
   3  -2 -21    0.86    2.05
   3  -2 -20    2.76    1.93
   3  -2 -19    3.39    1.96
  -3   2  19    1.19    1.43
   3  -2 -18    2.87    1.69
  -3   2  18    2.79    1.73
   3  -2 -17    1.62    1.86
  -3   2  17   -0.90    1.15
   3  -2 -16    6.74    2.35
  -3   2  16    3.25    1.37
   3  -2 -15   38.04    4.07
  -3   2  15   26.59    5.43
   3  -2 -14    2.62    1.64
  -3   2  14    3.15    1.28
   3  -2 -13   13.23    2.37
  -3   2  13   16.03    2.21
   3  -2 -12   76.86    4.36
  -3   2  12   55.40    3.74
   3  -2 -10   87.20    2.60
   3  -2 -10   93.70    4.04
  -3   2  10   89.07    3.96
   3  -2  -9   36.92    1.84
   3  -2  -9   41.29    8.49
  -3   2   9   39.28    3.13
   3  -2  -8    9.09    1.00
   3  -2  -8    9.88    1.35
  -3   2   8   10.51    3.13
   3  -2  -7   11.56    1.36
  -3   2   7   12.45    1.66
   3  -2  -6  431.26    8.48
   3  -2  -6  456.08    9.58
  -3   2   6  509.23   11.11
   3  -2  -5  149.20    6.19
   3  -2  -5  143.01    6.16
  -3   2   5  176.88   52.06
   3  -2  -4  142.36    5.94
   3  -2  -4  145.92   43.47
  -3   2   4  153.80    6.94
   3  -2  -3   34.21    4.05
   3  -2  -3   30.62    5.40
  -3   2   3   50.50    3.94
   3  -2  -2  659.83    8.78
   3  -2  -2  526.62    6.85
  -3   2   2  666.07   10.01
  -3   2   1  699.65    9.82
   3  -2   0  154.65    4.77
  -3   2   0  143.49    3.92
  -3   2   0  153.32    4.83
   3  -2   1  766.28   10.67
  -3   2  -1  633.93    8.68
  -3   2  -1  663.27    9.27
   3  -2   2 2465.43   25.01
  -3   2  -2 2044.88   20.31
  -3   2  -2 2059.24   21.00
   3  -2   3   28.79    6.64
  -3   2  -3   26.29    1.98
  -3   2  -3   22.48    2.41
   3  -2   4   44.48    2.77
  -3   2  -4   37.84    2.18
  -3   2  -4   34.78    3.57
   3  -2   5  540.65   11.32
  -3   2  -5  485.46    9.66
  -3   2  -5  386.86    8.11
   3  -2   6  670.63   13.35
  -3   2  -6  577.46   11.36
  -3   2  -6  435.80    8.68
   3  -2   7  115.71    4.03
  -3   2  -7   98.55    3.37
  -3   2  -7   78.23    2.65
   3  -2   8  136.68    5.49
  -3   2  -8  120.50    4.07
  -3   2  -8   95.25    3.07
   3  -2   9  156.48    7.02
  -3   2  -9  142.46    6.59
   3  -2  10  208.86    7.80
  -3   2 -10  188.62    7.17
   3  -2  10  169.96    6.74
   3  -2  11    0.76    1.25
  -3   2 -11    1.72    1.76
   3  -2  11    2.37    0.51
   3  -2  12  205.39    6.78
  -3   2 -12  188.30    6.57
   3  -2  12  166.02    5.03
   3  -2  13   10.73    1.66
  -3   2 -13   11.27    1.81
   3  -2  13    8.24    1.51
   3  -2  14   26.14    2.56
  -3   2 -14   18.09    2.30
   3  -2  14   16.59    1.63
   3  -2  15   22.24    7.11
  -3   2 -15   26.81    2.81
   3  -2  16   16.64    5.55
  -3   2 -16   16.11    2.63
   3  -2  17   12.74    2.14
  -3   2 -17   12.90    2.19
   3  -2  18   18.62    2.70
  -3   2 -18   15.80    2.83
  -3   2 -19   10.68    3.51
  -3   2 -20    0.11    1.57
  -3   2 -21    0.02    1.83
  -3   2 -22   -1.31    1.72
   3  -1 -21    0.84    1.82
   3  -1 -20    0.56    1.69
   3  -1 -19   -0.14    1.88
  -3   1  19   -0.91    1.11
   3  -1 -18   -3.36    1.85
  -3   1  18    0.18    1.07
   3  -1 -17    2.10    1.79
  -3   1  17   -0.06    1.17
   3  -1 -16   -0.01    1.57
  -3   1  16    0.67    1.04
   3  -1 -15    1.29    1.58
  -3   1  15    1.46    1.20
   3  -1 -14   -0.33    1.41
  -3   1  13   -0.28    0.51
   3  -1 -13    1.39    1.44
  -3   1  13    1.50    1.32
  -3   1  12    0.42    0.40
   3  -1 -12    0.65    1.38
  -3   1  12    2.37    1.37
   3  -1 -11    0.37    0.51
   3  -1 -11   -0.24    1.23
  -3   1  11    2.08    1.79
   3  -1 -10    1.09    0.83
   3  -1 -10    0.43    1.11
  -3   1  10    1.18    1.15
   3  -1  -9   -0.21    0.42
   3  -1  -9    0.44    0.81
  -3   1   9    0.99    0.99
   3  -1  -8    0.13    0.58
   3  -1  -8    1.29    0.78
  -3   1   8   -0.30    0.91
   3  -1  -7    0.69    0.58
   3  -1  -7    0.99    0.84
  -3   1   7    0.71    1.03
   3  -1  -6    0.08    0.55
   3  -1  -6    0.59    0.69
  -3   1   6    0.55    0.90
   3  -1  -5    0.29    0.51
   3  -1  -5   -0.53    0.48
  -3   1   5   -0.79    1.30
   3  -1  -4    0.20    0.48
   3  -1  -4   -0.01    0.43
  -3   1   4    1.60    1.28
   3  -1  -3    0.33    0.68
   3  -1  -3   -0.14    0.30
   3  -1  -2    0.72    0.39
   3  -1  -2   -0.24    0.26
   3  -1  -1   -0.59    0.60
   3  -1  -1    0.27    0.20
   3  -1   0    0.26    0.33
  -3   1   0   -0.79    0.30
   3  -1   1    1.71    1.01
  -3   1  -1    1.20    0.75
   3  -1   2    1.28    0.71
  -3   1  -2    0.55    0.47
  -3   1  -2    4.05    1.99
   3  -1   3   -0.27    0.75
  -3   1  -3    0.65    0.67
  -3   1  -3    1.47    0.92
   3  -1   4   -0.20    0.83
  -3   1  -4   -0.38    0.72
  -3   1  -4    1.60    0.56
   3  -1   5    1.13    0.70
  -3   1  -5    1.46    1.06
  -3   1  -5   -0.58    0.65
   3  -1   6   -0.22    0.96
  -3   1  -6    0.75    0.69
  -3   1  -6    0.81    0.72
   3  -1   7    0.72    0.99
  -3   1  -7    1.12    1.01
   3  -1   8    0.17    0.98
  -3   1  -8    1.41    1.30
   3  -1   8    0.18    0.76
   3  -1   9    2.09    1.18
  -3   1  -9    3.82    1.60
   3  -1   9    0.92    0.91
   3  -1  10   -0.77    1.00
  -3   1 -10   -0.57    1.08
   3  -1  10   -0.26    0.86
   3  -1  11    0.85    1.04
  -3   1 -11    1.38    1.26
   3  -1  11    0.58    0.80
   3  -1  12    1.09    1.16
  -3   1 -12    2.30    1.43
   3  -1  12    0.73    0.82
   3  -1  13    0.25    1.22
  -3   1 -13    1.61    2.09
   3  -1  13    0.74    0.87
   3  -1  14   -0.61    1.22
  -3   1 -14    1.21    1.45
   3  -1  14   -0.16    0.76
   3  -1  15   -0.72    1.17
  -3   1 -15    1.76    1.55
   3  -1  15   -1.26    0.79
   3  -1  16   -0.30    1.07
  -3   1 -16   -0.15    1.51
   3  -1  17   -0.07    0.96
  -3   1 -17    1.22    1.74
  -3   1 -18    0.70    1.60
  -3   1 -19    0.37    1.51
  -3   1 -20    1.29    1.74
  -3   1 -21   -0.55    1.72
   3   0 -22    1.91    2.27
   3   0 -21    0.14    1.61
   3   0 -20    2.42    1.98
   3   0 -19   16.49    3.01
  -3   0  19   15.09    2.46
   3   0 -18    8.72    2.37
  -3   0  18    5.78    1.80
   3   0 -17   26.42    3.25
  -3   0  17   17.07    3.09
   3   0 -16    1.36    1.57
  -3   0  16   -0.01    1.04
  -3   0  15    1.19    0.52
   3   0 -15    2.07    1.51
  -3   0  15   -0.25    1.08
  -3   0  14    1.86    0.48
   3   0 -14    0.97    1.38
  -3   0  14    0.68    1.15
  -3   0  13    7.36    1.10
   3   0 -13   11.24    1.96
  -3   0  13   17.69    2.46
   3   0 -12   38.51    2.22
   3   0 -12   32.63    2.63
  -3   0  12   39.64    2.79
   3   0 -11   35.50    2.06
   3   0 -11   39.47    2.70
  -3   0  11   33.69    2.69
   3   0 -10   -0.48    0.62
   3   0 -10    0.58    0.88
  -3   0  10    0.50    1.04
   3   0  -9   28.40    1.87
   3   0  -9   27.50    2.20
  -3   0   9   29.98    2.32
   3   0  -8   82.17    2.93
   3   0  -8   92.30    3.42
  -3   0   8   96.16    3.97
   3   0  -7   59.95    3.18
   3   0  -7   59.80    3.19
  -3   0   7   69.18    3.93
   3   0  -6  238.60    5.76
   3   0  -6  228.05    5.35
  -3   0   6  249.04    6.55
   3   0  -5  362.12    7.73
   3   0  -5  363.21    7.26
  -3   0   5  397.20    9.01
   3   0  -4  360.82    5.24
   3   0  -4  345.16    8.15
  -3   0   4  371.98   10.15
   3   0  -3  179.46    5.24
   3   0  -3  159.45    4.07
   3   0  -2   18.72    1.70
   3   0  -2   14.12    1.05
   3   0  -1  177.02    5.21
   3   0  -1  135.66    3.20
  -3   0   1  161.74    5.43
   3   0   2  302.89    8.11
  -3   0  -2  263.14    6.24
  -3   0  -2  211.88    6.34
   3   0   3  295.42    7.96
  -3   0  -3  272.43    6.71
  -3   0  -3  201.11    6.92
   3   0   4    0.44    0.42
  -3   0  -4    0.75    0.62
  -3   0  -4    1.42    0.52
   3   0   5  178.28    7.67
  -3   0  -5  147.28    6.22
  -3   0  -5  115.12    8.86
   3   0   6  113.23    5.45
  -3   0  -6  104.84    4.81
   3   0   6  104.14    4.89
   3   0   7  147.74    4.54
  -3   0  -7  133.96   43.69
   3   0   7  124.17    3.86
   3   0   8  458.51   10.84
  -3   0  -8  416.29   15.64
   3   0   8  373.97   14.02
   3   0   9   22.95    4.30
  -3   0  -9   15.19    2.83
   3   0   9   18.03    3.18
   3   0  10   96.21    5.74
  -3   0 -10   88.41    3.75
   3   0  10   79.66    3.24
   3   0  11   51.00    4.43
  -3   0 -11   41.21    5.06
   3   0  11   39.59    7.03
   3   0  12  458.90   11.14
  -3   0 -12  424.08   11.43
   3   0  12  348.39    9.15
   3   0  13  330.38   15.27
  -3   0 -13  327.65   15.03
   3   0  13  277.20   12.49
   3   0  14    4.83    1.70
  -3   0 -14    5.02    1.07
   3   0  14    3.01    0.99
   3   0  15   60.81    4.88
  -3   0 -15   52.45    8.06
   3   0  15   44.90    3.88
   3   0  16    7.90    1.81
  -3   0 -16   10.80    2.46
   3   0  16    5.57    1.40
  -3   0 -17    9.63    2.52
  -3   0 -18    6.13    2.53
  -3   0 -19   13.13    3.16
  -3   0 -20    0.22    1.72
  -3   0 -21    6.32    2.80
   3   1 -22   -0.07    1.87
   3   1 -21    1.13    1.78
   3   1 -20    1.31    1.97
   3   1 -19    1.04    1.69
  -3  -1  19   -0.97    1.16
   3   1 -18   -2.25    1.55
  -3  -1  18   -0.23    1.15
   3   1 -17    1.12    2.10
  -3  -1  17    0.38    1.05
  -3  -1  16   -0.67    0.78
   3   1 -16    0.42    1.48
  -3  -1  16    0.82    1.08
  -3  -1  15   -0.38    0.69
   3   1 -15   -0.29    1.35
  -3  -1  15    0.83    1.13
  -3  -1  14    0.12    0.48
   3   1 -14    0.57    1.33
  -3  -1  14    1.13    1.63
   3   1 -13    0.27    1.16
  -3  -1  13    5.87    2.12
   3   1 -12    0.11    0.76
   3   1 -12    3.73    1.37
  -3  -1  12    0.81    1.17
   3   1 -11    1.03    0.82
   3   1 -11    0.78    0.63
  -3  -1  11    1.74    1.17
   3   1 -10   -0.03    0.69
   3   1 -10    2.44    1.33
  -3  -1  10   -0.52    1.01
   3   1  -9    0.33    0.72
   3   1  -9   -0.32    0.74
  -3  -1   9   -0.13    1.02
   3   1  -8    0.20    0.72
   3   1  -8    0.42    0.68
  -3  -1   8    2.70    1.74
   3   1  -7   -0.06    0.73
   3   1  -7    0.23    0.73
  -3  -1   7   -0.31    0.87
   3   1  -6    0.04    0.65
   3   1  -6    0.46    0.78
  -3  -1   6   -1.25    0.92
   3   1  -5    0.18    0.64
   3   1  -5    0.26    0.53
  -3  -1   5    1.28    1.41
   3   1  -4    0.89    0.80
   3   1  -4    0.58    0.47
  -3  -1   4    4.38    2.03
   3   1  -3    1.15    0.90
   3   1  -2   -0.92    0.67
   3   1  -2    0.73    0.32
   3   1  -1    2.11    1.20
   3   1   0    0.70    0.72
  -3  -1   0    4.41    0.99
   3   1   1   -0.28    0.62
  -3  -1  -1    1.77    0.78
  -3  -1  -1    1.48    1.63
   3   1   2    1.34    0.73
  -3  -1  -2   -0.17    0.35
  -3  -1  -2    0.56    1.07
   3   1   3    1.22    0.78
  -3  -1  -3    0.80    0.47
  -3  -1  -3    0.36    0.61
   3   1   4   -0.07    0.71
  -3  -1  -4    1.89    0.64
  -3  -1  -4   -0.32    0.67
   3   1   5    1.31    0.86
  -3  -1  -5   -0.88    0.64
   3   1   5    0.19    0.83
   3   1   6    0.42    0.87
  -3  -1  -6    0.71    0.79
   3   1   6   -0.12    0.87
   3   1   7    0.43    0.50
  -3  -1  -7    0.05    0.88
   3   1   7    1.89    0.99
   3   1   8    1.57    0.98
  -3  -1  -8    0.38    0.97
   3   1   8   -0.22    0.93
   3   1   9    1.01    1.28
  -3  -1  -9    0.28    0.97
   3   1   9    1.06    0.70
   3   1  10    1.44    0.91
  -3  -1 -10    0.97    1.20
   3   1  10   -0.61    1.05
   3   1  11    1.76    1.43
  -3  -1 -11    1.48    1.38
   3   1  12    3.76    1.14
  -3  -1 -12    2.19    1.07
   3   1  12    2.83    1.48
   3   1  13    0.78    1.24
  -3  -1 -13    0.48    1.38
   3   1  13   -0.87    1.03
   3   1  14    1.03    0.95
  -3  -1 -14    4.00    2.17
   3   1  14   -1.27    1.03
   3   1  15    1.07    1.14
  -3  -1 -15    1.45    1.46
   3   1  15   -0.08    0.98
  -3  -1 -16   -0.09    1.38
   3   1  16    2.07    1.35
  -3  -1 -17    1.07    1.01
  -3  -1 -18   -0.79    1.55
  -3  -1 -19    1.97    1.90
  -3  -1 -20    1.68    1.24
   3   2 -22    7.09    2.74
   3   2 -21   11.24    2.81
   3   2 -20    3.55    2.66
   3   2 -19    9.68    2.65
   3   2 -18    3.16    1.59
  -3  -2  18    0.22    1.10
  -3  -2  17   14.89    3.34
   3   2 -17   21.78    2.76
  -3  -2  17   13.30    1.83
  -3  -2  16   27.50    6.54
   3   2 -16   31.59    9.75
  -3  -2  16   28.00    2.96
  -3  -2  15   23.90    4.24
   3   2 -15   31.14    5.72
  -3  -2  15   28.99    2.69
  -3  -2  14   15.25    2.55
   3   2 -14   21.84    3.04
  -3  -2  14   20.00    2.33
   3   2 -13  462.09   11.33
   3   2 -13  417.86   10.87
  -3  -2  13  401.67   10.73
   3   2 -12  176.53    4.98
   3   2 -12  160.33    4.82
  -3  -2  12  156.47    4.97
   3   2 -11   42.13    2.51
   3   2 -11   38.69    2.42
  -3  -2  11   42.32    2.65
   3   2 -10   23.16    1.93
   3   2 -10   20.93    1.77
  -3  -2  10   19.68    1.93
   3   2  -9  230.33    6.52
   3   2  -9  225.70    6.14
  -3  -2   9  236.64    6.67
   3   2  -8   99.36    3.62
   3   2  -8   97.41    3.26
  -3  -2   8  110.75    4.35
   3   2  -7  163.92   48.25
   3   2  -7  149.39    6.65
  -3  -2   7  152.97    7.03
   3   2  -6   42.68    2.70
   3   2  -6   41.19    2.33
  -3  -2   6   44.46    2.82
   3   2  -5   76.08    4.33
   3   2  -5   71.82    3.66
  -3  -2   5   74.55    3.97
   3   2  -4    3.73    0.98
   3   2  -4    3.36    0.84
  -3  -2   4    4.56    1.12
   3   2  -3    1.00    0.85
   3   2  -3    1.31    0.56
  -3  -2   3    1.76    1.87
   3   2  -2  157.04    4.97
  -3  -2   2  136.69    6.78
   3   2  -1  213.52    6.54
  -3  -2   1  173.08    7.40
   3   2   0  534.93    8.19
  -3  -2   0  424.27    8.90
   3   2   1   32.01    5.06
  -3  -2  -1   27.47    1.53
  -3  -2  -1   22.24    3.63
   3   2   2  145.14    6.33
  -3  -2  -2  140.77    5.55
  -3  -2  -2  116.13    5.35
   3   2   3    0.56    0.69
  -3  -2  -3    1.03    0.52
  -3  -2  -4  767.43   13.70
   3   2   5  195.82    5.96
  -3  -2  -6  220.75    5.81
   3   2   6  215.57    6.28
   3   2   7   14.43    2.54
  -3  -2  -7   11.49    1.41
   3   2   7    7.77    1.30
   3   2   8   56.33    2.71
  -3  -2  -8   52.98    2.79
   3   2   8   50.84    2.81
   3   2   9   93.49    3.49
  -3  -2  -9   85.46    3.65
   3   2   9   70.34    3.36
   3   2  10    0.50    0.51
  -3  -2 -10    0.56    0.90
   3   2  10   -0.23    1.36
   3   2  11  330.42   20.15
  -3  -2 -11  332.34   13.62
   3   2  11  269.75   12.95
   3   2  12  635.52   26.55
  -3  -2 -12  618.91   26.17
   3   2  12  503.14   21.79
   3   2  13   41.37    7.42
  -3  -2 -13   58.14    3.77
   3   2  13   40.37    7.26
   3   2  14    0.80    0.33
  -3  -2 -14    2.12    1.72
   3   2  14    1.57    1.06
  -3  -2 -15    6.09    2.17
   3   2  15    8.43    2.26
  -3  -2 -16   14.63    2.71
   3   2  16   10.62    2.04
  -3  -2 -17   18.79    2.90
  -3  -2 -18   14.90    3.51
  -3  -2 -19   31.58    9.55
   3   3 -22   -1.47    1.75
   3   3 -21    1.92    1.44
   3   3 -20    0.01    1.58
   3   3 -19    1.54    1.53
  -3  -3  18    1.27    0.98
   3   3 -18   -0.93    1.35
  -3  -3  18    0.09    0.95
  -3  -3  17   -0.32    1.01
   3   3 -17   -0.36    1.27
  -3  -3  17    2.60    1.74
  -3  -3  16    0.88    0.60
   3   3 -16    3.05    1.51
  -3  -3  16    1.56    0.74
  -3  -3  15    0.28    0.35
   3   3 -15    1.72    1.82
  -3  -3  15    0.75    0.99
  -3  -3  14    1.17    0.56
   3   3 -14    2.33    1.37
  -3  -3  14    0.09    0.99
   3   3 -13    0.72    1.27
   3   3 -13    0.79    0.59
  -3  -3  13    0.39    1.02
   3   3 -12   -0.84    1.04
   3   3 -12    0.17    0.56
  -3  -3  12   -0.34    0.99
   3   3 -11   -0.21    0.94
   3   3 -11   -0.56    0.85
  -3  -3  11    2.41    1.15
   3   3 -10    1.19    0.98
   3   3 -10    0.63    0.63
  -3  -3  10   -0.19    1.04
   3   3  -9    1.17    0.95
   3   3  -9   -0.05    0.66
  -3  -3   9    0.14    1.03
   3   3  -8    2.22    1.69
   3   3  -8    1.27    0.90
   3   3  -7    0.13    0.91
   3   3  -7    0.23    0.21
  -3  -3   7    0.40    0.95
   3   3  -6   -0.27    0.97
   3   3  -6   -0.15    0.51
  -3  -3   6    0.02    0.91
   3   3  -5    1.49    0.97
   3   3  -5    0.13    0.35
  -3  -3   5   -0.40    0.98
   3   3  -4    0.61    0.83
   3   3  -4    0.15    0.23
  -3  -3   4   -1.08    1.04
   3   3  -3    0.40    0.79
   3   3  -3    0.25    0.16
  -3  -3   3    2.53    1.14
   3   3  -2    0.11    0.79
  -3  -3   2    2.70    0.82
   3   3  -1    2.06    0.86
  -3  -3   1    1.87    0.74
   3   3   0    1.02    0.75
  -3  -3   0    0.16    0.17
  -3  -3   0    1.34    0.59
   3   3   1    0.22    0.73
  -3  -3  -1    0.28    0.29
  -3  -3  -1    1.78    0.88
   3   3   2    0.90    0.58
  -3  -3  -2    0.22    0.39
  -3  -3  -2   -0.30    0.76
   3   3   3    0.97    0.70
  -3  -3  -3    0.59    0.49
   3   3   3    1.13    0.54
   3   3   4    1.56    0.68
  -3  -3  -4    0.87    0.58
   3   3   4    0.18    0.51
   3   3   5    0.90    0.32
  -3  -3  -5    0.60    0.74
   3   3   5   -0.17    0.70
  -3  -3  -6    0.81    0.84
   3   3   6    0.45    1.09
   3   3   7    0.62    0.41
  -3  -3  -7    2.09    1.33
   3   3   7    0.71    1.15
   3   3   8    0.71    0.59
  -3  -3  -8    1.08    1.12
   3   3   8    1.79    1.30
   3   3   9   -0.58    0.80
  -3  -3  -9    0.03    1.09
   3   3   9    0.77    1.18
   3   3  10    3.03    0.98
  -3  -3 -10    2.15    1.25
   3   3  10    0.29    1.20
   3   3  11    1.38    0.73
  -3  -3 -11    1.82    1.34
   3   3  12    0.82    0.59
  -3  -3 -12    1.02    1.39
   3   3  12   -0.09    1.10
   3   3  13    0.06    0.42
  -3  -3 -13   -0.36    1.53
   3   3  13    0.86    1.20
  -3  -3 -14    3.71    2.05
   3   3  14    1.84    1.64
  -3  -3 -15    1.53    1.52
   3   3  15    0.02    1.11
  -3  -3 -16   -0.35    1.54
   3   3  16    1.06    1.20
  -3  -3 -17    1.13    1.75
   3   3  17    1.96    1.80
  -3  -3 -18    2.50    1.88
   3   4 -22    2.31    1.98
   3   4 -21   -0.49    1.72
   3   4 -20   10.68    2.44
  -3  -4  19    0.96    0.63
   3   4 -19    2.93    1.63
  -3  -4  18    2.08    1.07
   3   4 -18    2.83    1.82
  -3  -4  17    9.29    2.14
   3   4 -17    9.12    2.16
  -3  -4  17    7.56    1.70
  -3  -4  16   91.53   14.87
   3   4 -16  107.58    5.01
  -3  -4  16   93.40    4.17
  -3  -4  15   55.62   11.18
   3   4 -15   57.85    3.55
  -3  -4  15   53.24    3.47
   3   4 -14    0.95    1.15
   3   4 -14   -0.06    1.23
  -3  -4  14    0.26    0.92
   3   4 -13  395.36   10.46
   3   4 -13  339.95    9.14
  -3  -4  13  362.45    9.38
   3   4 -12  363.43    7.80
   3   4 -12  310.65    6.61
  -3  -4  12  328.02    6.68
   3   4 -11   78.11    3.61
   3   4 -11   67.90    3.05
  -3  -4  11   70.66    3.57
   3   4 -10    5.96    1.57
   3   4 -10    6.13    1.95
  -3  -4  10    7.35    1.50
   3   4  -9    2.46    1.08
   3   4  -9    1.13    0.55
  -3  -4   9    3.98    1.46
   3   4  -8   60.29    3.06
   3   4  -8   58.27    2.36
  -3  -4   8   57.53    9.41
   3   4  -7    1.00    1.09
   3   4  -7    0.95    0.80
  -3  -4   7    1.13    0.99
   3   4  -6  202.30    6.04
   3   4  -6  186.11    4.49
  -3  -4   6  183.98    5.51
   3   4  -5  330.02    8.04
   3   4  -5  293.50    5.78
  -3  -4   5  277.70    6.97
   3   4  -4   11.94    1.41
   3   4  -4   10.81    0.71
  -3  -4   4   13.16    2.18
   3   4  -3   28.19    2.26
   3   4  -3   24.49    1.26
  -3  -4   3   25.07    5.08
   3   4  -2  119.68    5.75
  -3  -4   2   91.71    4.36
  -3  -4   2   86.11    4.43
  -3  -4   1    0.06    0.14
  -3  -4   1    0.92    0.60
   3   4   0  141.93    6.43
  -3  -4   0  125.50    5.32
  -3  -4   0  103.03    5.13
   3   4   1  127.53    5.85
  -3  -4  -1  119.05    4.85
  -3  -4  -1  100.78    9.73
   3   4   2  528.52   11.55
  -3  -4  -2  480.46    9.74
   3   4   2  498.42   11.86
   3   4   3   13.11    1.28
  -3  -4  -3   12.64    1.17
   3   4   3   16.63    3.68
   3   4   4   19.24    2.62
  -3  -4  -4   16.48    1.36
   3   4   4   16.22    1.89
   3   4   5   88.18    4.53
  -3  -4  -5   83.72    6.81
   3   4   5   84.35    4.66
   3   4   6  118.05    6.53
  -3  -4  -6  118.15    4.94
   3   4   6  110.83    5.12
   3   4   7   -0.06    0.34
  -3  -4  -7   -0.96    0.94
   3   4   7    0.64    1.14
   3   4   8    1.52    0.89
  -3  -4  -8    3.19    1.17
   3   4   8    3.13    0.98
   3   4   9   11.48    2.06
  -3  -4  -9   13.15    2.01
   3   4   9   13.11    1.99
   3   4  10    0.19    0.25
  -3  -4 -10    1.86    1.00
   3   4  10    0.66    1.32
   3   4  11    0.57    0.45
  -3  -4 -11    1.24    1.27
   3   4  11    0.04    1.23
  -3  -4 -12   12.24    2.15
   3   4  12   14.81    2.33
  -3  -4 -13   12.99    2.37
   3   4  13    7.19    1.76
  -3  -4 -14   14.97    2.18
   3   4  14   16.03    2.42
  -3  -4 -15   22.97    3.05
   3   4  15   18.56    2.62
  -3  -4 -16   18.62    3.78
   3   4  16   13.10    3.21
  -3  -4 -17    2.04    1.72
   3   5 -21   -0.76    1.55
   3   5 -20    3.16    1.75
  -3  -5  19    1.90    1.10
   3   5 -19    2.00    1.56
  -3  -5  18   -0.46    1.05
   3   5 -18   -0.67    1.18
  -3  -5  17    1.84    0.93
   3   5 -17    2.05    1.68
  -3  -5  16   -0.43    1.13
   3   5 -16   -0.03    1.17
  -3  -5  16    0.73    0.87
  -3  -5  15    0.62    0.55
   3   5 -15    1.61    1.23
  -3  -5  15    1.15    0.68
   3   5 -14   -0.30    1.21
   3   5 -14    1.29    1.64
  -3  -5  14    1.47    1.05
   3   5 -13    0.63    1.32
   3   5 -13    0.96    0.97
  -3  -5  13   -0.54    0.90
   3   5 -12    1.51    1.23
   3   5 -12    1.83    1.22
  -3  -5  12    0.11    0.79
   3   5 -11    0.72    1.28
   3   5 -11   -0.37    0.74
  -3  -5  11    0.88    0.76
   3   5 -10    0.17    1.09
   3   5 -10    0.90    0.76
  -3  -5  10    1.15    0.67
   3   5  -9    0.62    0.79
   3   5  -9    0.05    0.58
  -3  -5   9    0.60    0.72
   3   5  -8    0.20    0.96
   3   5  -8   -0.47    0.49
  -3  -5   8    1.07    0.96
   3   5  -7   -0.94    1.05
   3   5  -7    0.61    0.67
  -3  -5   7   -0.36    0.91
   3   5  -6   -0.54    1.04
   3   5  -6   -0.26    0.43
  -3  -5   6    0.51    0.94
   3   5  -5    1.64    1.44
   3   5  -5    0.32    0.37
  -3  -5   5    0.73    0.70
   3   5  -4   -0.02    0.90
   3   5  -4    0.33    0.32
  -3  -5   4   -0.61    0.87
   3   5  -3    1.55    0.95
   3   5  -3    0.00    0.28
  -3  -5   3   -0.33    0.82
   3   5  -2    0.35    0.84
  -3  -5   2    0.19    0.16
  -3  -5   2    0.40    0.36
   3   5  -1    1.05    0.87
  -3  -5   1    0.16    0.26
  -3  -5   1    0.27    0.85
   3   5   0    1.94    1.23
  -3  -5   0    0.26    0.24
  -3  -5   0    1.63    1.10
   3   5   1    1.14    0.79
  -3  -5  -1    0.39    0.32
   3   5   1   -0.10    1.12
   3   5   2    0.63    0.77
  -3  -5  -2    0.73    0.63
   3   5   2   -0.67    1.10
   3   5   3   -0.33    0.65
  -3  -5  -3   -0.12    0.53
   3   5   3    2.05    1.64
   3   5   4    0.12    0.67
  -3  -5  -4    0.33    0.69
   3   5   4    0.39    0.47
   3   5   5    0.69    0.74
  -3  -5  -5   -0.03    0.91
   3   5   5   -0.05    1.08
   3   5   6    0.54    0.52
  -3  -5  -6    0.74    0.97
   3   5   6    0.53    1.14
   3   5   7   -0.59    0.71
  -3  -5  -7    1.98    1.26
   3   5   7    1.38    1.19
   3   5   8    0.17    0.46
  -3  -5  -8   -0.08    0.99
   3   5   8   -0.19    1.20
   3   5   9    0.62    0.36
  -3  -5  -9   -0.15    1.11
   3   5   9    0.99    0.99
   3   5  10   -0.53    0.68
  -3  -5 -10    1.84    1.25
   3   5  10    0.15    1.23
  -3  -5 -11    1.34    1.21
   3   5  11    0.63    1.29
  -3  -5 -12   -0.17    1.37
   3   5  12   -1.41    1.25
  -3  -5 -13    0.19    1.47
   3   5  13   -0.02    1.21
  -3  -5 -14   -1.81    1.41
   3   5  14    2.59    1.57
  -3  -5 -15    2.00    1.75
   3   5  15   -0.93    1.37
  -3  -5 -16    0.87    1.53
   3   5  16    0.27    1.35
   3   6 -21    2.27    1.80
  -3  -6  20    7.70    1.75
   3   6 -20    6.73    1.78
  -3  -6  19    7.70    1.45
   3   6 -19    8.20    2.22
  -3  -6  18    7.42    1.79
   3   6 -18   12.90    2.69
  -3  -6  17    9.61    1.79
   3   6 -17   11.44    2.27
  -3  -6  16   95.14   18.71
   3   6 -16  113.45    8.10
  -3  -6  15    5.52    1.46
   3   6 -15    8.50    1.69
  -3  -6  15    4.40    1.29
   3   6 -14    4.89    1.29
   3   6 -14    3.92    1.03
  -3  -6  14    4.12    1.21
   3   6 -13    8.46    1.76
   3   6 -13    9.55    5.48
  -3  -6  13   11.60    1.57
   3   6 -12    6.19    1.63
   3   6 -12    8.49    1.39
  -3  -6  12    6.96    1.27
   3   6 -11   40.72    2.99
   3   6 -11   35.05    2.34
  -3  -6  11   39.11    2.67
   3   6 -10   74.30    3.89
   3   6 -10   60.54    2.66
  -3  -6  10   64.61    3.19
   3   6  -9   75.82    3.70
   3   6  -9   65.67    2.60
  -3  -6   9   64.56    2.95
   3   6  -8  172.54    7.91
   3   6  -8  147.67    6.11
  -3  -6   8  154.08    6.83
   3   6  -7  242.03   10.23
   3   6  -7  203.94    7.92
  -3  -6   7  203.91    8.43
   3   6  -6  314.17   12.56
   3   6  -6  272.44   10.08
  -3  -6   6  271.36   10.72
   3   6  -5   97.54    3.96
   3   6  -5   96.21    2.69
  -3  -6   5   82.18    3.41
   3   6  -4   35.03    2.55
   3   6  -4   25.48    1.31
  -3  -6   4   27.82    5.67
   3   6  -3   22.95    2.04
   3   6  -3   23.71    1.25
  -3  -6   3   23.38    5.30
   3   6  -2  157.10    5.24
  -3  -6   2  121.04    3.35
  -3  -6   2  121.81    4.56
   3   6  -1   31.78   10.55
  -3  -6   1   26.15    4.58
  -3  -6   1   27.17    5.51
   3   6   0   30.41    2.43
  -3  -6   0   20.65    2.87
   3   6   1   47.80    2.70
  -3  -6  -1   40.04    1.87
   3   6   1   50.06    8.17
   3   6   2   32.99    2.21
  -3  -6  -2   26.82    1.71
   3   6   2   28.51    6.31
   3   6   3  130.15    5.20
  -3  -6  -3  126.71    6.97
   3   6   3  119.89    7.62
   3   6   4   39.04    2.29
  -3  -6  -4   37.94    2.15
   3   6   4   39.48    3.07
   3   6   5  243.78    5.29
  -3  -6  -5  252.16    5.34
   3   6   5  235.27    6.65
   3   6   6    1.27    1.09
  -3  -6  -6    0.71    0.87
   3   6   6    3.71    1.63
   3   6   7    1.03    0.88
  -3  -6  -7    1.59    1.02
   3   6   7    2.86    1.41
   3   6   8    0.89    0.66
  -3  -6  -8   -0.41    0.98
   3   6   8    2.10    0.65
   3   6   9    5.62    1.49
  -3  -6  -9    8.94    1.63
   3   6   9    9.75    2.90
  -3  -6 -10    1.41    1.20
   3   6  10    2.29    1.57
  -3  -6 -11   37.11    4.87
   3   6  11   34.54    4.73
  -3  -6 -12    4.81    1.83
   3   6  12    2.27    0.85
  -3  -6 -13    8.13    1.68
   3   6  13   10.24    2.68
  -3  -6 -14   11.64    2.08
   3   6  14   10.44    2.54
  -3  -6 -15    6.76    1.82
   3   6  15    6.81    1.96
   3   6  16   23.38    3.79
  -3  -7  21    2.69    0.88
   3   7 -21    0.03    1.44
  -3  -7  20    0.77    0.75
   3   7 -20    1.61    1.47
  -3  -7  19    0.06    0.85
   3   7 -19    2.14    1.24
  -3  -7  18    1.62    1.04
   3   7 -18   -0.36    1.15
  -3  -7  17    0.33    0.66
   3   7 -17   -0.25    1.14
  -3  -7  16   -0.38    1.23
   3   7 -16    0.80    1.25
  -3  -7  15   -0.73    1.11
   3   7 -15   -0.12    1.07
  -3  -7  15    0.21    0.82
   3   7 -14    2.09    1.84
   3   7 -14    0.94    1.05
  -3  -7  14   -0.13    0.85
   3   7 -13    0.59    1.24
   3   7 -13    1.09    0.93
  -3  -7  13    0.28    0.89
   3   7 -12   -0.16    1.23
   3   7 -12   -0.09    0.75
  -3  -7  12    1.97    1.03
   3   7 -11    0.10    1.28
   3   7 -11   -0.54    0.70
  -3  -7  11   -0.28    0.82
   3   7 -10   -0.44    1.29
   3   7 -10   -0.54    0.71
  -3  -7  10    0.39    0.74
   3   7  -9   -1.28    1.12
   3   7  -9    0.06    0.73
  -3  -7   9    2.75    1.24
   3   7  -8    1.62    1.23
   3   7  -8    1.09    0.89
  -3  -7   8    0.32    0.84
   3   7  -7    0.39    1.08
   3   7  -7    0.62    0.55
  -3  -7   7    0.89    0.91
   3   7  -6    0.33    0.99
   3   7  -6    0.56    0.35
  -3  -7   6    2.48    0.66
   3   7  -5    1.54    1.03
   3   7  -5    0.78    0.46
  -3  -7   5   -0.05    0.83
   3   7  -4   -0.45    0.90
   3   7  -4    0.32    0.33
  -3  -7   4   -0.43    0.85
   3   7  -3    0.89    0.87
   3   7  -3    1.36    0.68
  -3  -7   3    1.22    0.62
   3   7  -2    0.46    0.94
  -3  -7   2    0.31    0.24
  -3  -7   2    0.32    0.60
   3   7  -1    0.49    0.88
  -3  -7   1    0.46    0.37
  -3  -7   1    1.21    0.69
   3   7   0   -0.06    0.82
  -3  -7   0    0.66    0.25
   3   7   0    0.70    0.49
   3   7   1    0.25    0.86
  -3  -7  -1    1.19    0.55
   3   7   1    0.28    0.55
   3   7   2   -0.93    0.83
  -3  -7  -2    0.36    0.65
   3   7   2   -1.75    1.32
   3   7   3    0.43    0.81
  -3  -7  -3    0.67    0.75
   3   7   3    0.08    1.31
   3   7   4    1.18    0.86
   3   7   4   -0.80    1.17
   3   7   5    0.60    0.71
  -3  -7  -5   -0.53    0.76
   3   7   5    0.79    0.54
   3   7   6    0.78    0.71
  -3  -7  -6    0.87    0.70
   3   7   6    1.96    1.41
   3   7   7    0.43    0.65
  -3  -7  -7    1.30    0.78
  -3  -7  -8   -0.83    1.01
   3   7   8   -1.13    1.25
  -3  -7  -9   -0.62    0.98
   3   7   9    0.98    0.83
  -3  -7 -10    1.53    0.70
   3   7  10    0.60    1.13
  -3  -7 -11    1.92    1.14
   3   7  11    2.47    1.67
  -3  -7 -12    0.69    1.23
   3   7  12   -0.41    1.35
  -3  -7 -13    0.57    1.35
   3   7  13    1.56    1.49
  -3  -7 -14    0.51    1.60
   3   7  14    0.58    0.91
   3   7  15   -0.23    1.64
  -3  -8  21    1.14    0.80
  -3  -8  20    1.28    0.88
   3   8 -20    0.45    1.41
  -3  -8  19    1.22    1.20
   3   8 -19   -0.09    1.18
  -3  -8  18    1.82    0.94
   3   8 -18    3.40    1.93
  -3  -8  17   -0.33    1.21
   3   8 -17   -1.33    1.05
  -3  -8  16    0.36    0.72
   3   8 -16    1.65    1.15
  -3  -8  15   -0.05    1.13
   3   8 -15   -0.59    0.97
   3   8 -14   15.34    2.53
   3   8 -14   14.93    1.95
   3   8 -13    6.22    1.59
   3   8 -13    2.57    1.07
  -3  -8  13    3.18    1.15
   3   8 -12   27.81    3.04
   3   8 -12   20.05    1.95
  -3  -8  12   18.45    5.41
   3   8 -11  478.43   19.16
   3   8 -11  380.56   14.76
  -3  -8  11  412.22   15.97
   3   8 -10   24.37    2.81
   3   8 -10   15.59    1.47
  -3  -8  10   15.19    1.61
   3   8  -9    5.28    1.35
   3   8  -9    5.22    0.89
  -3  -8   9    4.78    1.21
   3   8  -8   21.33    2.37
   3   8  -8   16.57    1.56
  -3  -8   8   16.90    2.07
   3   8  -7    6.95    1.38
   3   8  -7    5.51    0.92
  -3  -8   7    4.58    1.52
   3   8  -6   90.63    4.11
   3   8  -6   80.51    2.72
  -3  -8   6   75.35    6.71
   3   8  -5  127.71    5.61
   3   8  -5  114.39    4.36
  -3  -8   5  100.24    6.36
   3   8  -4    2.46    0.92
   3   8  -4    2.27    0.60
  -3  -8   4    1.27    0.68
   3   8  -3   23.60    7.83
  -3  -8   3   21.02    2.93
   3   8  -2    1.99    1.04
  -3  -8   2    0.79    0.36
  -3  -8   2   -0.63    0.91
   3   8  -1  102.93    4.05
  -3  -8   1   77.13    8.91
  -3  -8   1   77.78    3.75
   3   8   0   24.79    2.26
  -3  -8   0   18.66    3.34
   3   8   0   20.00    2.23
   3   8   1  208.22    5.38
  -3  -8  -1  182.19    4.25
   3   8   1  182.55    5.88
   3   8   2  721.24   15.32
  -3  -8  -2  690.22   14.23
   3   8   2  712.15   16.36
   3   8   3    0.25    0.86
  -3  -8  -3    0.29    0.70
   3   8   3    0.14    0.68
   3   8   4   25.88    1.93
  -3  -8  -4   25.98    4.76
   3   8   4   22.76    2.62
   3   8   5   19.72    1.72
  -3  -8  -5   17.78    1.82
   3   8   5   21.11    4.26
   3   8   6   46.10    2.57
  -3  -8  -6   47.52    6.92
   3   8   6   50.30    4.02
  -3  -8  -7    0.62    1.05
   3   8   7    0.77    1.61
  -3  -8  -8   45.75    8.13
   3   8   8   46.55    4.60
  -3  -8  -9    2.89    1.88
   3   8   9    2.00    0.97
  -3  -8 -10    7.75    1.95
   3   8  10    7.37    2.48
  -3  -8 -11    6.53    1.55
   3   8  11    9.65    2.15
  -3  -8 -12   14.37    2.62
   3   8  12   14.10    3.43
   3   8  13   67.96    8.38
   3   8  14   75.76    8.66
   3   8  15    2.09    1.83
  -3  -9  21    1.37    0.85
  -3  -9  20    3.00    1.53
  -3  -9  19    0.79    1.10
   3   9 -19    0.28    1.31
  -3  -9  18   -0.80    1.40
   3   9 -18    1.55    1.21
  -3  -9  17    1.37    1.49
   3   9 -17    0.42    1.23
  -3  -9  16   -0.42    1.24
   3   9 -16    2.67    1.86
  -3  -9  15    1.81    1.10
   3   9 -15   -0.13    1.08
   3   9 -14    1.72    1.32
   3   9 -14    0.43    0.92
   3   9 -13    1.98    1.08
   3   9 -13    0.75    0.87
  -3  -9  13   -0.38    0.85
   3   9 -12    0.10    1.45
   3   9 -12    0.28    0.75
  -3  -9  12    0.58    0.47
   3   9 -11   -2.86    1.51
   3   9 -11    0.93    0.62
  -3  -9  11   -1.40    0.96
   3   9 -10    0.74    1.41
   3   9 -10    0.80    0.68
  -3  -9  10    0.83    1.19
   3   9  -9    0.38    1.25
   3   9  -9   -0.09    0.58
  -3  -9   9    2.24    1.04
   3   9  -8    0.14    1.23
   3   9  -8    0.53    0.31
  -3  -9   8    2.72    1.10
   3   9  -7    2.05    1.71
   3   9  -7   -0.25    0.65
  -3  -9   7    0.85    0.55
   3   9  -6    0.16    1.07
   3   9  -6   -0.27    0.60
  -3  -9   6    0.07    0.37
   3   9  -5    0.50    1.08
   3   9  -5    0.14    0.61
  -3  -9   5    0.03    0.70
   3   9  -4    0.36    0.93
   3   9  -4    0.95    0.87
  -3  -9   4    0.22    0.72
   3   9  -3   -0.28    0.95
  -3  -9   3    0.36    0.40
  -3  -9   3    0.57    0.46
   3   9  -2    0.99    0.97
  -3  -9   2    0.40    0.31
  -3  -9   2   -0.20    0.44
   3   9  -1    0.58    0.92
  -3  -9   1   -0.23    0.56
   3   9  -1    0.83    0.82
   3   9   0    0.41    0.88
  -3  -9   0    0.32    0.41
   3   9   0   -0.50    1.23
   3   9   1    2.42    1.38
  -3  -9  -1    0.71    0.60
   3   9   1    0.84    0.89
   3   9   2    1.23    0.95
  -3  -9  -2    0.04    0.67
   3   9   2    2.14    1.88
   3   9   3    0.61    0.88
  -3  -9  -3   -0.24    0.45
   3   9   3   -0.43    1.27
   3   9   4   -0.06    0.78
  -3  -9  -4    0.74    0.55
   3   9   4   -0.79    1.34
   3   9   5    0.13    0.77
  -3  -9  -5    1.37    0.93
   3   9   5    1.00    1.53
  -3  -9  -6    0.20    0.91
   3   9   6    0.57    1.50
  -3  -9  -7   -0.69    1.00
   3   9   7    0.23    1.49
  -3  -9  -8    1.10    0.86
   3   9   8    2.18    1.74
  -3  -9  -9   -0.62    1.20
   3   9   9    0.12    1.60
  -3  -9 -10    2.14    1.51
   3   9  10    2.14    1.77
  -3  -9 -11    0.85    2.11
   3   9  11    3.26    1.72
   3   9  12   -0.16    1.58
   3   9  13    1.41    1.88
   3   9  14    0.90    1.42
  -3 -10  21    0.10    0.74
  -3 -10  20    1.68    1.52
  -3 -10  19    2.35    1.28
  -3 -10  18    7.03    1.17
   3  10 -18    5.09    1.96
  -3 -10  17   18.81    4.25
   3  10 -17   14.03    2.14
  -3 -10  16   21.39    4.58
   3  10 -16   23.20    2.54
  -3 -10  15   10.95    2.53
   3  10 -15    6.53    1.60
  -3 -10  14    0.69    0.77
   3  10 -14    1.69    1.15
   3  10 -13    0.54    1.46
   3  10 -13    1.05    0.93
   3  10 -12    2.03    1.44
   3  10 -12    2.26    1.42
   3  10 -11   17.70    2.34
   3  10 -11   14.87    1.76
  -3 -10  11   13.46    2.92
   3  10 -10    1.32    1.56
   3  10 -10    1.16    0.81
  -3 -10  10    0.32    0.74
   3  10  -9    7.32    1.88
   3  10  -9    4.91    1.06
  -3 -10   9    4.95    1.09
   3  10  -8    6.99    1.96
   3  10  -8    3.62    0.84
  -3 -10   8    5.23    0.96
   3  10  -7   37.65    3.14
   3  10  -7   29.16    1.98
  -3 -10   7   31.64    6.23
   3  10  -6    1.09    1.10
   3  10  -6    1.32    0.89
  -3 -10   6    0.61    0.44
   3  10  -5   11.68    1.72
   3  10  -5   12.26    1.53
  -3 -10   5    9.23    2.39
   3  10  -4  108.14    5.86
   3  10  -4   94.48    4.68
  -3 -10   4   74.35    4.50
   3  10  -3   50.06    3.17
  -3 -10   3   33.56    6.82
  -3 -10   3   39.99    9.99
   3  10  -2    1.18    1.08
  -3 -10   2    0.97    0.39
  -3 -10   2    0.79    0.55
   3  10  -1   29.47    2.42
  -3 -10   1   22.99    3.36
   3  10  -1   29.36    4.18
   3  10   0  108.90    5.99
  -3 -10   0   84.29   11.67
   3  10   0  115.47   18.00
   3  10   1   35.92    2.52
  -3 -10  -1   27.61    4.78
   3  10   1   40.31    6.93
   3  10   2   26.23    2.17
  -3 -10  -2   26.61    2.12
   3  10   2   27.20    4.84
   3  10   3   18.75    1.89
  -3 -10  -3   19.42    3.55
   3  10   3   19.05    2.89
  -3 -10  -4   38.11    5.06
   3  10   4   36.75    8.95
  -3 -10  -5    0.10    0.94
   3  10   5   -0.65    1.49
  -3 -10  -6    5.69    1.62
   3  10   6    4.06    1.91
  -3 -10  -7    1.28    1.30
   3  10   7    1.06    0.99
  -3 -10  -8    3.60    1.33
   3  10   8    3.91    2.05
   3  10   9   95.93   20.17
   3  10  10    3.40    2.07
   3  10  11   21.09    4.03
   3  10  12    2.25    1.96
   3  10  13  147.61   33.30
  -3 -11  21    0.70    0.68
  -3 -11  20    0.57    0.83
  -3 -11  19   -1.07    1.44
  -3 -11  18    1.23    0.81
  -3 -11  17    0.96    0.92
  -3 -11  16    1.35    0.54
  -3 -11  15   -0.16    0.83
   3  11 -15    1.27    1.25
  -3 -11  14    0.80    0.55
   3  11 -14    0.47    1.05
   3  11 -13   -1.24    1.41
   3  11 -13    0.00    0.90
   3  11 -12    1.48    0.94
   3  11 -12    1.93    1.13
   3  11 -11    1.33    1.60
   3  11 -11    1.88    1.14
  -3 -11  11   -0.47    0.79
   3  11 -10    0.99    1.43
   3  11 -10    0.42    0.47
  -3 -11  10    0.44    0.86
   3  11  -9   -1.18    1.18
   3  11  -9   -0.67    0.74
  -3 -11   9    1.00    0.50
   3  11  -8   -0.41    1.30
   3  11  -8    0.44    0.73
  -3 -11   8    1.39    0.92
   3  11  -7    0.51    1.20
   3  11  -7    1.07    0.79
  -3 -11   7   -0.30    0.87
   3  11  -6   -0.04    0.99
   3  11  -6   -0.09    0.65
  -3 -11   6    0.20    0.58
   3  11  -5   -0.53    0.97
   3  11  -5   -0.50    0.65
  -3 -11   5   -0.20    0.96
   3  11  -4    0.76    1.58
  -3 -11   4   -0.94    0.66
  -3 -11   4    1.53    0.97
   3  11  -3    0.62    0.81
  -3 -11   3   -0.34    0.65
  -3 -11   3    0.22    0.50
   3  11  -2   -0.25    0.97
  -3 -11   2    0.87    0.58
  -3 -11   2    2.17    0.88
   3  11  -1    0.18    1.02
  -3 -11   1   -0.24    0.67
   3  11  -1    0.99    1.36
   3  11   0    1.21    1.00
  -3 -11   0    0.93    0.66
   3  11   0    0.32    1.29
   3  11   1    0.41    0.90
  -3 -11  -1   -0.39    0.73
   3  11   1    1.76    0.94
   3  11   2    0.48    0.88
  -3 -11  -2    1.17    0.86
   3  11   2    2.07    1.05
  -3 -11  -3   -0.33    0.83
   3  11   3    0.24    1.47
  -3 -11  -4    0.61    0.59
   3  11   4    1.73    1.03
  -3 -11  -5    0.77    1.07
   3  11   5    1.90    1.45
  -3 -11  -6    0.80    1.52
   3  11   6    3.11    1.70
   3  11   7    0.94    1.62
   3  11   8    1.88    1.67
   3  11   9    4.81    2.09
   3  11  10   -0.12    1.78
   3  11  11   -1.34    1.83
   3  11  12    1.76    2.13
  -3 -12  20    5.37    1.92
  -3 -12  19    1.02    1.48
  -3 -12  18    0.58    1.62
  -3 -12  17   -0.39    1.51
  -3 -12  16   22.25    4.86
  -3 -12  15   12.85    3.09
  -3 -12  14   22.59    5.16
  -3 -12  13   50.60   12.72
   3  12 -12   55.81    5.55
   3  12 -12   29.32    6.29
   3  12 -11   17.83    4.08
   3  12 -11   10.10    2.81
   3  12 -10   -0.54    1.48
   3  12 -10   -0.51    0.73
  -3 -12  10    0.49    0.97
   3  12  -9   18.59    2.66
   3  12  -9    7.54    1.38
  -3 -12   9    8.81    1.88
   3  12  -8   15.05    2.83
   3  12  -8   10.87    1.52
  -3 -12   8    7.87    2.02
   3  12  -7   16.39    2.66
   3  12  -7    7.49    1.31
  -3 -12   7    6.53    1.72
   3  12  -6   46.47    4.45
   3  12  -6   25.34    2.05
  -3 -12   6   30.14    6.71
   3  12  -5   -1.08    1.13
  -3 -12   5    1.10    0.88
   3  12  -4    3.99    1.62
  -3 -12   4    2.70    0.70
  -3 -12   4    2.56    2.00
   3  12  -3    0.31    0.99
  -3 -12   3    0.81    0.54
  -3 -12   3   -0.57    0.92
   3  12  -2   13.81    2.08
  -3 -12   2    8.35    1.90
  -3 -12   2    8.47    1.83
   3  12  -1   38.79    3.60
  -3 -12   1   27.38    4.81
   3  12  -1   40.12    3.94
   3  12   0    8.08    1.72
  -3 -12   0    7.65    1.80
   3  12   0    9.46    2.11
   3  12   1    0.73    0.98
  -3 -12  -1    1.33    0.84
   3  12   1    4.31    1.49
   3  12   2    5.45    1.96
   3  12   3    8.34    2.01
   3  12   4    5.20    1.82
   3  12   5   12.95    3.05
   3  12   6   36.26    3.98
   3  12   7   18.56    3.65
   3  12   8    7.27    2.82
   3  12   9   31.85    8.08
   3  12  10   15.92    4.83
   3  12  11    2.31    2.09
  -3 -13  20    0.60    0.91
  -3 -13  19    0.96    1.09
  -3 -13  18   -0.14    0.99
  -3 -13  17   -0.33    1.56
  -3 -13  16    0.07    0.98
  -3 -13  15   -1.29    1.65
  -3 -13  14   -1.64    1.62
  -3 -13  13    1.02    1.24
  -3 -13  12    0.47    1.42
   3  13 -11    0.88    1.67
   3  13 -10   -1.63    1.53
   3  13  -9    3.39    1.65
   3  13  -8    1.51    1.48
  -3 -13   8   -0.16    0.54
   3  13  -7    0.46    1.18
  -3 -13   7    0.24    0.58
   3  13  -6    1.48    1.24
  -3 -13   6   -0.03    0.98
   3  13  -5   -0.22    1.03
  -3 -13   5    0.40    0.53
   3  13  -4    0.46    1.13
  -3 -13   4   -0.77    1.08
   3  13  -3   -0.14    1.00
   3  13  -2    1.86    1.19
  -3 -13   2    2.37    0.96
   3  13  -1   -0.13    1.11
   3  13   0   -0.51    1.33
   3  13   1    2.65    1.41
   3  13   2    1.06    0.96
   3  13   3    0.03    0.81
   3  13   4   -0.71    1.66
   3  13   5    2.92    2.58
   3  13   6    1.00    1.66
   3  13   7    1.11    1.26
   3  13   8    1.16    1.31
   3  13   9    0.11    0.70
  -3 -14  19    7.48    2.18
  -3 -14  18    5.20    2.06
  -3 -14  17    4.34    1.23
  -3 -14  16   17.62    3.35
  -3 -14  15   34.23    8.18
  -3 -14  14   28.66   10.45
  -3 -14  13   10.41    2.87
  -3 -14  12   47.08    9.98
  -3 -14  11   13.46    3.38
   3  14 -10    5.65    2.20
   3  14  -9    4.21    1.20
   3  14  -8    3.64    1.52
   3  14  -7   40.34    8.87
   3  14  -6   32.05    3.22
  -3 -14   6   18.35    4.39
   3  14  -5   18.53    2.55
  -3 -14   5    8.73    1.56
   3  14  -4   10.16    2.09
  -3 -14   4    8.42    1.88
   3  14  -3    1.71    1.65
  -3 -14   3    0.48    0.39
  -3 -14   2    9.83    2.09
  -3 -14   1    4.99    1.91
   3  14   0    2.66    1.07
   3  14   1   -0.38    1.54
   3  14   2    7.75    1.79
   3  14   3   20.71    5.01
   3  14   4    0.01    1.49
   3  14   5   -0.82    1.77
   3  14   6   31.64    8.13
   3  14   7    2.89    2.12
  -3 -15  18    2.75    1.11
  -3 -15  17   -1.02    1.65
  -3 -15  16   -0.31    1.74
  -3 -15  15   -1.03    1.69
  -3 -15  14   -0.49    1.73
  -3 -15  13   -0.32    1.53
  -3 -15  12    0.00    1.32
  -3 -15  11    1.86    1.52
  -3 -15  10   -0.06    0.68
  -3 -15   9    0.00    1.43
   3  15  -7   -0.11    0.72
   3  15  -6    0.77    0.54
   3  15  -5    1.40    0.64
  -3 -15   4   -0.25    1.13
  -3 -15   3    1.56    0.92
  -3 -15   2    0.05    0.67
  -3 -15   1    0.89    0.87
   3  15   1   -1.28    1.57
   3  15   2   -1.29    1.45
   3  15   3    3.32    1.63
   3  15   4    0.46    0.79
   3  15   5   -1.37    1.96
  -3 -16  16   11.67    4.33
  -3 -16  15    6.57    3.20
  -3 -16  14    0.60    1.17
  -3 -16  13    2.03    1.37
  -3 -16  12   -0.70    0.91
  -3 -16  11    1.92    0.69
  -3 -16  10    1.18    0.81
  -3 -16   9   13.72    4.71
  -3 -16   8    5.53    2.01
   4 -19   4   -1.01    1.75
   4 -19   5    1.87    1.09
  -4  19  -7    2.14    2.02
  -4  19  -8   -0.52    1.83
  -4  19 -10    0.43    1.96
   4 -18  -1    3.77    1.79
   4 -18   0    3.74    0.77
   4 -18   1    6.98    2.31
   4 -18   2    8.73    2.86
   4 -18   3    2.52    1.77
   4 -18   4    6.67    2.37
  -4  18  -6   87.95   27.37
  -4  18  -7   63.65   14.96
  -4  18  -8   -0.34    1.76
  -4  18  -9    7.83    2.41
  -4  18 -10    8.40    3.19
  -4  18 -11    5.61    2.76
  -4  18 -12   -1.12    1.60
  -4  18 -13    0.56    1.81
  -4  18 -14    0.00    1.85
   4 -17  -4   -0.02    1.75
   4 -17  -3    1.51    1.67
   4 -17  -2    2.97    1.28
   4 -17  -1    0.28    1.04
   4 -17   0    2.58    1.01
   4 -17   1    1.44    1.31
   4 -17   2    3.31    1.84
   4 -17   3    0.30    0.56
  -4  17  -5   -0.05    1.60
  -4  17  -6    2.38    2.54
  -4  17  -7   -1.26    1.67
  -4  17  -8   -0.75    1.77
  -4  17  -9    1.86    1.79
  -4  17 -10    0.80    1.75
  -4  17 -11   -0.39    1.68
  -4  17 -12   -0.40    1.72
  -4  17 -15   -1.01    1.79
  -4  17 -16   -0.33    1.83
   4 -16  -6   -0.56    1.60
   4 -16  -5    0.82    0.66
   4 -16  -4   18.49    6.17
   4 -16  -3    6.84    1.48
   4 -16  -2   -1.69    1.58
   4 -16  -1    1.09    0.91
   4 -16   0    1.14    1.28
   4 -16   1    5.66    1.12
   4 -16   2    5.05    1.30
  -4  16  -4   24.53    3.78
  -4  16  -5    0.03    1.38
  -4  16  -6   39.59    4.03
  -4  16  -7   36.33    4.10
  -4  16  -8   15.36    3.24
   4 -16   9   32.42    4.84
  -4  16  -9   21.30    3.66
   4 -16  10    1.73    1.42
  -4  16 -10   -0.20    1.42
   4 -16  11    1.08    1.46
  -4  16 -11    0.61    1.64
   4 -16  12   26.27    4.25
  -4  16 -12   17.33    3.46
   4 -16  13   25.86    4.44
  -4  16 -13   20.15    3.88
   4 -16  14    6.26    2.18
   4 -16  15    2.40    1.92
   4 -16  16   30.38    7.80
  -4  16 -16   12.26    5.27
   4 -16  17    9.01    2.55
  -4  16 -17    7.33    2.47
  -4  16 -18    1.18    1.90
   4 -15  -8    2.76    1.86
   4 -15  -7   -0.97    1.59
  -4  15   7    3.86    2.74
   4 -15  -6    1.87    1.20
  -4  15   6   -0.55    1.53
   4 -15  -5    2.65    1.44
  -4  15   5    0.97    0.66
   4 -15  -4    1.54    1.57
  -4  15   4   -1.34    1.34
   4 -15  -3   -0.87    1.51
  -4  15   3    0.33    0.70
   4 -15  -2    1.10    1.03
  -4  15   2    0.09    0.64
   4 -15  -1    0.53    1.38
  -4  15   1    1.23    1.56
   4 -15   0    0.59    0.87
  -4  15   0    0.44    0.79
   4 -15   1    1.56    0.48
  -4  15  -1    0.23    1.02
   4 -15   2    0.11    0.53
  -4  15  -3    0.49    1.46
  -4  15  -4    0.09    1.35
  -4  15  -5    0.79    1.44
   4 -15   6   -0.60    1.11
  -4  15  -6    1.75    1.16
   4 -15   7    0.17    0.63
  -4  15  -7    1.19    1.45
   4 -15   8   -0.41    1.20
  -4  15  -8   -0.66    1.35
   4 -15   9    0.15    1.23
  -4  15  -9   -1.38    1.45
   4 -15  10    1.19    1.47
  -4  15 -10    1.02    1.55
   4 -15  11   -0.25    1.53
  -4  15 -11    2.04    1.64
   4 -15  12   -1.50    1.40
  -4  15 -12    3.39    2.13
   4 -15  13    1.22    1.46
  -4  15 -13    0.66    1.72
   4 -15  14   -0.87    1.53
  -4  15 -14   -0.46    1.51
   4 -15  15    0.93    1.83
  -4  15 -15    0.98    1.62
   4 -15  16    3.39    2.67
  -4  15 -16   -0.77    1.70
   4 -15  17    2.42    2.04
  -4  15 -17    0.65    1.88
  -4  15 -18   -1.56    1.84
  -4  15 -19   -3.04    1.83
   4 -14 -10    0.62    1.89
  -4  14  10   -2.00    1.91
   4 -14  -9    1.21    1.70
  -4  14   9   -0.11    1.67
   4 -14  -8    2.27    2.53
  -4  14   8    1.27    1.56
   4 -14  -7    8.86    2.74
  -4  14   7    7.52    2.89
   4 -14  -6   33.11    6.24
  -4  14   6   20.66    6.37
   4 -14  -5    8.26    1.33
  -4  14   5    5.33    1.32
   4 -14  -4    0.20    0.81
  -4  14   4    0.62    0.81
   4 -14  -3   12.01    2.66
  -4  14   3    7.62    2.00
   4 -14  -2    2.90    0.78
  -4  14   2    1.08    0.83
   4 -14  -1    5.93    1.48
  -4  14   1    2.53    1.31
   4 -14   0    1.66    1.21
  -4  14   0    1.04    0.62
   4 -14   1    5.85    1.89
  -4  14  -1    4.34    1.38
  -4  14  -2    0.51    1.36
  -4  14  -2    1.18    1.09
  -4  14  -3   12.80    2.57
   4 -14   4    8.91    2.92
  -4  14  -4    9.18    2.28
   4 -14   5    0.40    0.65
  -4  14  -5    1.18    1.41
   4 -14   6    2.94    1.26
  -4  14  -6    7.29    2.51
   4 -14   7   31.30    6.57
  -4  14  -7   30.69    4.24
   4 -14   8    5.58    1.55
  -4  14  -8    5.01    1.64
   4 -14   9   -0.08    1.19
  -4  14  -9    1.87    1.64
   4 -14  10    2.45    1.48
  -4  14 -10   -0.56    1.49
   4 -14  11   31.13    3.42
  -4  14 -11   20.35    4.19
   4 -14  12    3.54    2.50
  -4  14 -12   -0.23    1.63
   4 -14  13    3.23    2.40
  -4  14 -13    3.83    2.53
   4 -14  14   10.11    2.44
  -4  14 -14    9.62    2.67
   4 -14  15    2.70    1.84
  -4  14 -15    1.29    1.92
   4 -14  16    0.98    1.87
  -4  14 -16    5.10    2.68
   4 -14  17    5.09    2.18
  -4  14 -17    7.04    2.69
   4 -14  18    1.92    2.06
  -4  14 -18    0.75    1.91
   4 -14  19    1.12    0.81
  -4  14 -19   -0.79    1.85
  -4  14 -20   11.20    3.65
   4 -13 -11    0.01    1.69
  -4  13  11   -0.08    1.95
   4 -13 -10    1.42    1.63
  -4  13  10    0.10    0.96
   4 -13  -9    0.32    1.72
  -4  13   9    0.90    1.59
   4 -13  -8   -0.58    1.59
  -4  13   8    0.99    0.78
   4 -13  -7    2.22    1.07
  -4  13   7    2.34    1.03
   4 -13  -6   -0.13    0.75
  -4  13   6    0.42    0.98
   4 -13  -5    0.48    0.64
  -4  13   5    1.17    1.83
   4 -13  -4    1.09    1.00
  -4  13   4   -0.69    1.08
  -4  13   3    1.74    1.23
   4 -13  -2    1.91    0.85
  -4  13   2   -0.04    1.03
   4 -13  -1   -0.85    1.45
  -4  13   1    0.03    1.00
   4 -13   0    0.97    1.11
  -4  13   0    0.36    1.05
  -4  13  -1    0.56    1.09
  -4  13  -2    0.01    1.69
  -4  13  -2   -0.71    0.93
   4 -13   3   -0.75    0.88
  -4  13  -3    0.28    1.28
  -4  13  -3    0.20    0.57
   4 -13   4    0.74    0.71
  -4  13  -4    0.18    1.17
   4 -13   5    0.18    0.59
  -4  13  -5    0.15    1.25
   4 -13   6    1.15    0.86
  -4  13  -6    0.22    1.30
   4 -13   7    0.61    1.21
  -4  13  -7   -0.07    1.29
   4 -13   8    4.34    2.14
  -4  13  -8    2.14    1.55
   4 -13   9   -0.36    1.21
  -4  13  -9    1.23    1.53
   4 -13  10   -0.17    1.34
  -4  13 -10   -0.68    1.44
   4 -13  11    3.63    2.17
  -4  13 -11    2.43    1.87
   4 -13  12    0.67    1.63
  -4  13 -12    2.79    2.27
   4 -13  13    2.71    1.90
  -4  13 -13    0.75    1.60
   4 -13  14   -0.46    1.79
  -4  13 -14    0.36    1.62
   4 -13  15    4.80    2.71
  -4  13 -15   -1.81    1.69
   4 -13  16    1.38    1.97
  -4  13 -16    3.10    2.24
   4 -13  17    2.01    1.92
  -4  13 -17    2.27    1.97
   4 -13  18    1.06    1.87
  -4  13 -18    2.81    2.01
   4 -13  19   -1.00    1.80
  -4  13 -19   -2.07    1.78
   4 -13  20    1.74    0.88
  -4  13 -20   -2.04    1.82
   4 -12 -13    5.37    3.23
  -4  12  13    6.06    2.32
   4 -12 -12    1.47    1.91
  -4  12  12    0.91    1.76
   4 -12 -11   19.14    5.35
  -4  12  11   15.33    4.54
   4 -12 -10    8.29    2.63
  -4  12  10    7.29    1.55
   4 -12  -9    0.70    1.53
  -4  12   9   -0.69    1.65
   4 -12  -8   11.16    2.51
  -4  12   8   12.78    3.27
   4 -12  -7   12.70    2.55
  -4  12   7    8.70    2.39
   4 -12  -6    5.93    1.22
  -4  12   6    4.71    2.01
   4 -12  -5    2.96    0.91
  -4  12   5    1.46    1.58
   4 -12  -4    5.90    1.48
  -4  12   4    9.03    2.06
   4 -12  -3   44.72    6.79
  -4  12   3   28.48    5.29
   4 -12  -2   89.06   17.07
  -4  12   2   89.57    6.91
   4 -12  -1  231.55   68.84
  -4  12   1  248.79    6.96
   4 -12   0    1.49    1.29
  -4  12   0    0.54    1.06
  -4  12  -1   69.61    4.38
  -4  12  -1   68.86    3.77
   4 -12   2    1.55    1.04
  -4  12  -2    2.47    2.00
  -4  12  -2    2.05    1.02
   4 -12   3   15.31    3.90
  -4  12  -3   17.15    2.79
  -4  12  -3   16.21    3.52
   4 -12   4    2.33    0.64
  -4  12  -4    2.28    1.54
  -4  12  -4    1.21    0.82
   4 -12   5  145.96    5.90
  -4  12  -5  124.53    5.60
   4 -12   6    1.99    0.89
  -4  12  -6    1.64    1.38
   4 -12   7    3.16    0.76
  -4  12  -7    2.66    1.32
   4 -12   8   20.10    2.51
  -4  12  -8   15.94    3.50
   4 -12   9    4.17    2.07
  -4  12  -9    0.82    1.10
   4 -12  10    6.53    2.02
  -4  12 -10    8.80    2.22
   4 -12  11  106.36    8.08
  -4  12 -11   83.07    6.86
   4 -12  12   59.65    7.40
  -4  12 -12   52.11    6.70
   4 -12  13   24.72    3.23
  -4  12 -13   22.32    3.31
   4 -12  14    8.85    2.23
  -4  12 -14    9.09    2.39
   4 -12  15   10.85    2.81
  -4  12 -15   12.22    2.42
   4 -12  16    2.10    1.92
  -4  12 -16    3.43    1.96
   4 -12  17    0.79    1.86
  -4  12 -17    3.22    1.89
   4 -12  18   35.85    8.76
  -4  12 -18   30.98    4.63
   4 -12  19    3.09    1.36
  -4  12 -19   -0.52    1.85
   4 -12  20    1.35    1.01
  -4  12 -20    4.14    2.17
   4 -12  21    2.96    1.74
  -4  12 -21    3.72    2.16
   4 -11 -14    3.79    3.42
  -4  11  14    2.06    2.83
   4 -11 -13    2.46    2.97
  -4  11  13    3.11    1.36
   4 -11 -12    1.85    2.42
  -4  11  12    3.00    2.77
   4 -11 -11   -0.27    1.44
  -4  11  11   -1.60    1.71
   4 -11 -10    1.18    1.56
  -4  11  10    0.95    1.61
   4 -11  -9    0.30    1.44
  -4  11   9    0.41    1.47
   4 -11  -8    2.99    1.67
  -4  11   8    0.06    1.41
   4 -11  -7    1.95    0.98
  -4  11   7    3.16    1.63
   4 -11  -6    2.31    0.81
  -4  11   6    2.19    1.65
   4 -11  -5   -0.34    1.43
  -4  11   5    2.41    1.55
   4 -11  -4    2.18    1.16
  -4  11   4   -0.23    1.29
   4 -11  -3    1.26    0.98
  -4  11   3    1.25    1.29
   4 -11  -2   -0.02    1.41
  -4  11   2    1.24    1.67
   4 -11  -1   -0.66    1.38
  -4  11   1   -1.56    1.12
   4 -11   0    0.26    0.72
  -4  11   0    0.98    1.14
   4 -11   1   -0.36    0.82
  -4  11  -1    0.56    1.42
  -4  11  -1    1.58    0.98
   4 -11   2    0.81    0.67
  -4  11  -2    1.79    2.00
  -4  11  -2   -1.05    0.77
   4 -11   3   -0.12    0.92
  -4  11  -3    1.81    1.63
  -4  11  -3    0.90    1.04
   4 -11   4    0.87    0.52
  -4  11  -4    1.96    1.91
  -4  11  -4   -0.24    0.67
   4 -11   5    0.54    0.81
  -4  11  -5    2.60    1.83
  -4  11  -5   -0.01    0.55
   4 -11   6   -0.97    1.13
  -4  11  -6    1.23    1.40
   4 -11   7    3.91    0.79
  -4  11  -7   -1.00    1.37
   4 -11   8    0.58    1.34
  -4  11  -8    2.35    1.35
   4 -11   9    0.44    1.36
  -4  11  -9    2.38    2.03
   4 -11  10    0.48    1.47
  -4  11 -10   -0.55    1.56
   4 -11  11    0.24    1.52
  -4  11 -11   -0.31    1.58
   4 -11  12   -0.50    1.58
  -4  11 -12   -0.20    1.60
   4 -11  13    0.54    1.63
  -4  11 -13    0.22    1.59
   4 -11  14    0.91    1.75
  -4  11 -14    1.86    0.61
  -4  11 -15    0.04    1.55
   4 -11  16    1.95    2.39
  -4  11 -16    1.86    2.48
   4 -11  17    0.82    0.65
  -4  11 -17    2.32    1.77
   4 -11  18    0.52    1.10
  -4  11 -18    3.58    1.88
   4 -11  19   -0.22    1.69
  -4  11 -19    1.00    1.89
   4 -11  20   -0.17    1.91
  -4  11 -20   -0.28    1.76
   4 -11  21    2.72    2.42
  -4  11 -21   -0.24    1.94
   4 -10 -15   -0.75    2.38
  -4  10  15   -0.62    1.92
   4 -10 -14   16.75    5.11
  -4  10  14   12.64    4.31
   4 -10 -13    4.13    2.00
  -4  10  13    7.37    3.14
   4 -10 -12    1.43    1.72
  -4  10  12    3.36    2.00
   4 -10 -11   22.51    3.38
  -4  10  11   22.18    4.84
   4 -10 -10    8.97    2.45
  -4  10  10    6.74    2.36
   4 -10  -9    2.96    2.29
  -4  10   9    2.74    1.80
   4 -10  -8    1.47    1.62
  -4  10   8    1.06    1.61
   4 -10  -7   54.80   10.16
  -4  10   7   47.38    4.72
   4 -10  -6    5.41    1.16
  -4  10   6    5.57    2.11
   4 -10  -5  141.37   18.85
  -4  10   5  110.84    5.13
   4 -10  -4  112.03   15.48
  -4  10   4  108.80    5.09
   4 -10  -3    7.45    1.34
  -4  10   3    6.75    1.82
   4 -10  -2  124.08    9.63
  -4  10   2  161.96    7.77
   4 -10  -1    4.88    0.88
   4 -10  -1    6.45    1.03
  -4  10   1    4.37    1.44
   4 -10   0  100.62   10.55
  -4  10   0   91.34    4.89
  -4  10   0   81.73    3.81
   4 -10   1  137.19    4.68
  -4  10  -1  113.34    5.18
  -4  10  -1  111.89    4.52
   4 -10   2    7.56    1.22
  -4  10  -2   10.43    2.16
  -4  10  -2    6.43    1.18
   4 -10   3    6.84    1.47
  -4  10  -3    5.42    1.56
  -4  10  -3    4.71    0.89
   4 -10   4    8.50    3.01
  -4  10  -4    4.89    1.54
  -4  10  -4    3.83    0.97
   4 -10   5   28.77    5.06
  -4  10  -5   21.49    2.37
  -4  10  -5   26.11    1.73
   4 -10   6  159.35    5.87
  -4  10  -6  118.86    5.31
   4 -10   7   38.26    5.52
  -4  10  -7   28.53    2.78
   4 -10   8  221.84   10.00
  -4  10  -8  176.91    8.60
   4 -10   9   95.61   11.50
  -4  10  -9   79.35    5.37
   4 -10  10  553.43   24.14
  -4  10 -10  423.52   19.00
   4 -10  11    1.83    1.32
  -4  10 -11    4.98    2.39
   4 -10  12   15.85    2.79
  -4  10 -12    9.08    2.42
   4 -10  13    6.29    2.17
  -4  10 -13    6.42    1.81
   4 -10  14    4.47    1.76
  -4  10 -14    3.49    1.48
   4 -10  15    7.62    1.67
  -4  10 -15    7.76    1.90
   4 -10  16   17.90    3.08
  -4  10 -16    9.63    2.13
   4 -10  17    1.56    1.12
  -4  10 -17    1.84    1.80
   4 -10  18    2.52    1.83
  -4  10 -18    4.20    1.70
   4 -10  19    2.31    1.74
  -4  10 -19   -0.71    1.69
   4 -10  20   18.22    6.29
  -4  10 -20   15.37    4.34
   4 -10  21    3.74    1.91
  -4  10 -21    1.08    1.80
   4  -9 -16    0.62    2.40
  -4   9  16    1.40    1.11
   4  -9 -15   -0.17    2.06
  -4   9  15    0.61    1.85
   4  -9 -14    1.76    1.50
  -4   9  14    1.90    1.86
   4  -9 -13   -0.53    1.66
  -4   9  13    1.25    1.76
   4  -9 -12    1.52    1.65
  -4   9  12   -0.15    1.56
   4  -9 -11    1.27    1.61
  -4   9  11    1.53    0.93
   4  -9 -10    2.55    2.38
  -4   9  10    0.14    1.54
   4  -9  -9    0.82    1.61
  -4   9   9   -0.11    1.49
   4  -9  -8    0.56    1.46
  -4   9   8    2.61    1.62
   4  -9  -7    1.27    0.83
  -4   9   7    1.70    1.51
  -4   9   6    1.33    1.50
   4  -9  -5    1.93    1.25
  -4   9   5   -1.19    1.31
   4  -9  -4   -0.17    1.19
  -4   9   4   -0.10    1.22
   4  -9  -3   -0.36    1.14
  -4   9   3    0.28    1.14
   4  -9  -2    0.14    0.38
   4  -9  -2   -0.12    0.94
  -4   9   2   -0.72    1.01
   4  -9  -1    1.95    0.71
   4  -9  -1   -0.23    0.94
  -4   9   1    1.76    1.03
   4  -9   0    0.92    0.84
  -4   9   0    0.80    0.76
  -4   9   0    0.39    0.94
   4  -9   1    0.55    0.81
  -4   9  -1    0.66    1.10
  -4   9  -1   -0.86    0.76
   4  -9   2   -0.10    0.84
  -4   9  -2    0.35    1.10
  -4   9  -2    1.21    0.84
   4  -9   3    0.82    1.04
  -4   9  -3    0.99    1.12
  -4   9  -3   -0.07    0.65
   4  -9   4    0.84    0.87
  -4   9  -4    0.49    1.18
  -4   9  -4   -0.64    0.66
   4  -9   5    0.11    0.81
  -4   9  -5    1.09    1.30
  -4   9  -5   -0.08    0.57
   4  -9   6    0.74    1.20
  -4   9  -6    2.07    1.41
  -4   9  -6    1.12    0.76
   4  -9   7    2.57    1.51
  -4   9  -7   -0.70    1.41
   4  -9   8   -1.02    1.48
  -4   9  -8   -0.39    1.40
   4  -9   9   -1.59    1.68
  -4   9  -9   -0.38    1.35
   4  -9  10    1.12    0.95
  -4   9 -10    0.95    1.33
   4  -9  11    1.56    0.98
  -4   9 -11    1.30    1.44
   4  -9  12    1.17    1.48
  -4   9 -12    3.04    1.60
   4  -9  13    2.45    1.73
  -4   9 -13    2.11    1.58
   4  -9  14    0.42    1.60
  -4   9 -14   -0.24    1.40
   4  -9  15    1.62    0.95
  -4   9 -15   -0.21    1.51
   4  -9  16    2.23    0.81
  -4   9 -16    2.14    1.68
   4  -9  17   -1.50    1.64
  -4   9 -17    3.85    2.35
   4  -9  18    4.63    2.67
  -4   9 -18    1.44    1.47
   4  -9  19    1.35    1.11
  -4   9 -19    1.45    1.63
   4  -9  20    1.84    1.15
  -4   9 -20    0.92    1.86
   4  -9  21    0.17    0.99
  -4   9 -21    1.16    1.79
   4  -8 -17    5.19    2.99
  -4   8  17   -0.23    1.84
   4  -8 -16    3.67    2.25
  -4   8  16    4.36    2.86
   4  -8 -15   11.30    2.71
  -4   8  15   11.51    2.82
   4  -8 -14    6.36    1.22
  -4   8  14    5.65    1.98
   4  -8 -13    0.17    1.20
  -4   8  13    2.56    1.77
   4  -8 -12    3.11    2.32
  -4   8  12    2.33    1.80
   4  -8 -11    1.67    1.68
  -4   8  11    2.62    1.68
   4  -8 -10    9.53    1.76
  -4   8  10   11.29    2.55
   4  -8  -9   66.05    4.09
  -4   8   9   45.96    3.76
   4  -8  -8    6.24    1.84
  -4   8   8   10.66    1.90
   4  -8  -7   98.41   17.93
  -4   8   7   90.93    5.84
   4  -8  -6    3.70    2.39
  -4   8   6    0.09    1.31
   4  -8  -5    1.25    0.51
  -4   8   5    1.97    1.30
   4  -8  -4    2.21    0.67
  -4   8   4    0.21    1.22
   4  -8  -3   57.23    5.29
   4  -8  -3   65.96   10.62
  -4   8   3   62.27    3.49
   4  -8  -2    2.75    0.60
   4  -8  -2    4.66    1.27
  -4   8   2    2.43    1.25
   4  -8  -1   94.15    3.08
  -4   8   1   78.47    3.52
   4  -8   0   54.19    4.10
  -4   8   0   49.57    3.03
  -4   8   0   50.79    3.06
   4  -8   1   14.75    1.42
  -4   8  -1   12.10    1.68
  -4   8  -1   10.06    1.39
   4  -8   2    3.48    0.89
  -4   8  -2    5.81    1.59
  -4   8  -2    3.63    1.44
   4  -8   3  201.10    7.39
  -4   8  -3  156.32    6.37
  -4   8  -3  176.15    6.33
   4  -8   4   56.59    8.84
  -4   8  -4   41.64    2.82
  -4   8  -4   38.58    1.85
   4  -8   5  119.48    5.38
  -4   8  -5   99.15    4.77
  -4   8  -5  105.19    4.04
   4  -8   6  601.62   18.60
  -4   8  -6  513.07   16.40
   4  -8   7 1109.39   13.75
  -4   8  -7  916.07   12.47
   4  -8   8  325.56   13.49
  -4   8  -8  286.35    7.11
   4  -8   9    0.59    0.91
  -4   8  -9    1.16    1.14
   4  -8  10    7.82    1.83
  -4   8 -10    6.88    1.72
   4  -8  11    5.74    1.43
  -4   8 -11    4.87    1.76
   4  -8  12    7.63    1.50
  -4   8 -12    3.26    1.66
   4  -8  13    0.79    1.03
  -4   8 -13    0.13    1.35
   4  -8  14   -1.13    1.57
  -4   8 -14    0.90    1.53
   4  -8  15   12.24    3.05
  -4   8 -15    8.82    2.45
   4  -8  16   28.92    3.82
  -4   8 -16   24.98    3.50
   4  -8  17   48.86   12.55
  -4   8 -17   55.80    4.39
   4  -8  18    7.22    1.90
  -4   8 -18    4.52    1.67
   4  -8  19   -1.01    1.75
  -4   8 -19    1.18    1.53
   4  -8  20    1.25    0.94
  -4   8 -20    3.02    1.92
   4  -8  21    2.13    1.81
  -4   8 -21    0.72    1.74
  -4   8 -22   -1.68    1.81
  -4   7  18    2.52    1.91
   4  -7 -17   -1.33    1.82
  -4   7  17    1.85    1.91
   4  -7 -16   -0.15    1.67
  -4   7  16    0.84    1.75
   4  -7 -15    3.45    1.96
  -4   7  15   -0.13    1.62
   4  -7 -14   -0.91    1.59
  -4   7  14    0.47    1.77
   4  -7 -13   -0.03    1.53
  -4   7  13    3.00    1.77
   4  -7 -12   -0.02    1.69
  -4   7  12    1.63    1.63
   4  -7 -11    1.26    1.54
  -4   7  11    1.29    1.54
   4  -7 -10   -1.06    1.42
  -4   7  10   -0.94    1.43
   4  -7  -9    0.13    1.18
  -4   7   9   -1.46    1.41
   4  -7  -8    0.54    0.74
  -4   7   8   -0.04    1.41
   4  -7  -7    0.60    0.63
  -4   7   7    1.05    1.38
   4  -7  -6    1.09    0.72
  -4   7   6    0.87    1.26
   4  -7  -5    0.54    0.70
  -4   7   5    1.13    1.26
   4  -7  -4    0.18    0.38
   4  -7  -4    1.24    0.45
  -4   7   4   -0.78    1.16
   4  -7  -3   -0.20    0.59
   4  -7  -3   -0.56    0.80
  -4   7   3   -0.38    1.09
   4  -7  -2    0.67    0.55
   4  -7  -2    0.44    0.82
  -4   7   2    1.18    1.05
   4  -7  -1    0.31    0.86
  -4   7   1    1.42    0.99
   4  -7   0    1.18    0.88
  -4   7   0    0.58    1.05
  -4   7   0   -0.81    0.86
   4  -7   1    0.60    0.91
  -4   7  -1    1.39    1.09
  -4   7  -1   -0.42    0.55
   4  -7   2   -1.18    0.85
  -4   7  -2    0.20    0.93
  -4   7  -2    0.44    0.54
   4  -7   3    0.23    0.98
  -4   7  -3    1.19    1.02
  -4   7  -3   -0.60    0.62
   4  -7   4    1.23    1.11
  -4   7  -4   -0.09    1.03
  -4   7  -4    0.30    0.59
   4  -7   5   -0.67    1.15
  -4   7  -5   -1.39    1.10
  -4   7  -5    0.25    0.60
   4  -7   6   -1.01    1.36
  -4   7  -6    0.32    0.78
   4  -7   7    4.43    1.19
  -4   7  -7    0.60    1.37
  -4   7  -7    0.21    0.48
   4  -7   8    0.63    1.02
  -4   7  -8    2.44    1.37
   4  -7   9   -0.10    1.47
  -4   7  -9   -0.22    1.28
   4  -7  10    1.69    1.55
  -4   7 -10    0.75    1.32
   4  -7  11   -0.44    1.31
  -4   7 -11    1.29    1.72
   4  -7  12    2.41    1.45
  -4   7 -12   -0.10    1.19
   4  -7  13    1.26    0.98
  -4   7 -13    0.00    1.33
   4  -7  14   -1.34    1.48
  -4   7 -14    0.30    1.30
   4  -7  15    0.45    0.81
  -4   7 -15    0.35    1.48
   4  -7  16    1.93    1.23
  -4   7 -16   -0.40    1.49
   4  -7  17   -1.46    1.53
  -4   7 -17    0.30    1.62
   4  -7  18   -1.12    1.61
  -4   7 -18   -0.32    1.41
   4  -7  19    0.36    1.77
  -4   7 -19    0.25    1.44
   4  -7  20    0.29    1.77
  -4   7 -20   -0.63    1.75
   4  -7  21   -0.04    1.82
  -4   7 -21    0.14    1.74
  -4   7 -22    1.55    1.94
   4  -6 -18   34.57    8.54
  -4   6  18   23.55    6.31
   4  -6 -17   95.35   10.34
  -4   6  17   71.40    8.49
   4  -6 -16   11.67    3.45
  -4   6  16    7.73    3.00
   4  -6 -15    0.90    1.12
  -4   6  15    0.30    1.57
   4  -6 -14   -2.00    1.67
  -4   6  14    0.02    1.67
   4  -6 -13    3.27    0.90
  -4   6  13   -0.88    1.48
   4  -6 -12    0.04    1.53
  -4   6  12    1.84    0.68
   4  -6 -11   10.09    2.10
  -4   6  11   13.98    2.21
   4  -6 -10    7.89    5.41
  -4   6  10    7.43    1.78
   4  -6  -9    2.07    0.96
  -4   6   9    1.19    2.10
   4  -6  -8    2.44    1.05
  -4   6   8    1.36    1.54
   4  -6  -7   12.87    2.52
  -4   6   7   10.29    1.91
   4  -6  -6    3.23    0.69
  -4   6   6    2.70    1.77
   4  -6  -5   10.32    1.05
   4  -6  -5   13.62    2.99
  -4   6   5    9.18    1.63
   4  -6  -4  217.27    7.23
   4  -6  -4  196.34   10.39
  -4   6   4  238.26    8.78
   4  -6  -3    4.53    0.88
   4  -6  -3    5.51    1.00
  -4   6   3    5.58    1.54
   4  -6  -2   22.09    1.51
   4  -6  -2   22.58    5.01
  -4   6   2   21.53    3.64
   4  -6  -1   15.89    1.53
  -4   6   1   15.64    1.72
  -4   6   1   17.20    1.72
   4  -6   0   14.40    1.40
  -4   6   0   11.60    1.43
  -4   6   0   12.43    1.30
   4  -6   1   97.88    3.53
  -4   6  -1   83.23    3.50
  -4   6  -1   91.02    3.35
   4  -6   2   52.15    2.68
  -4   6  -2   44.30    2.64
  -4   6  -2   43.04    2.25
   4  -6   3    0.50    1.04
  -4   6  -3    2.00    1.20
  -4   6  -3    1.55    1.03
   4  -6   4  115.43    4.36
  -4   6  -4   89.43    3.52
  -4   6  -4   96.18    3.07
   4  -6   5   95.31    5.00
  -4   6  -5   78.67    4.28
  -4   6  -5   93.11    4.22
   4  -6   6  211.99    9.12
  -4   6  -6  158.19    7.03
  -4   6  -6  172.48    6.87
   4  -6   7  327.15   11.10
  -4   6  -7  279.54    9.62
  -4   6  -7  279.67    8.68
   4  -6   8  370.69   12.59
  -4   6  -8  341.32   11.36
  -4   6  -8  322.44    9.50
   4  -6   9   18.57    2.91
  -4   6  -9   17.39    1.90
   4  -6  10   10.36    2.04
  -4   6 -10    7.62    1.62
   4  -6  11    0.54    0.94
  -4   6 -11    1.20    1.93
   4  -6  12   29.79    7.70
  -4   6 -12   24.19    2.49
   4  -6  13    1.52    1.01
  -4   6 -13    0.13    1.28
   4  -6  14  166.09    6.55
  -4   6 -14  137.17    5.72
   4  -6  15    5.56    1.97
  -4   6 -15    4.47    1.91
   4  -6  16   10.26    3.65
  -4   6 -16    7.69    1.85
   4  -6  17   50.38    3.94
  -4   6 -17   42.33    3.90
   4  -6  18    9.52    2.02
  -4   6 -18    5.85    1.91
   4  -6  19   10.27    2.76
  -4   6 -19    9.70    2.12
   4  -6  20    3.20    1.76
  -4   6 -20    3.12    1.72
  -4   6 -21    6.05    2.63
   4  -5 -19    2.75    2.29
   4  -5 -18    3.52    2.53
  -4   5  18    1.79    2.43
   4  -5 -17    1.41    1.86
  -4   5  17    1.10    1.58
   4  -5 -16   -0.99    1.84
  -4   5  16    2.09    1.45
   4  -5 -15    0.01    1.67
  -4   5  15    1.75    1.71
   4  -5 -14   -0.58    1.49
  -4   5  14    0.17    1.53
   4  -5 -13   -0.55    1.35
  -4   5  13    1.80    1.60
   4  -5 -12    0.43    1.12
  -4   5  12    2.08    1.56
   4  -5 -11    0.23    1.44
  -4   5  11   -0.69    1.35
   4  -5 -10    0.13    1.29
  -4   5  10    0.00    1.33
   4  -5  -9    1.52    1.34
  -4   5   9   -0.08    1.38
   4  -5  -8    0.77    1.02
  -4   5   8    0.34    1.37
   4  -5  -7    0.27    0.52
  -4   5   7    1.98    2.00
   4  -5  -6    0.03    0.41
   4  -5  -6    0.89    0.84
  -4   5   6    0.40    1.28
   4  -5  -5    1.24    0.58
   4  -5  -5    0.15    0.38
  -4   5   5    0.81    0.88
   4  -5  -4    0.41    0.37
   4  -5  -4    0.62    0.53
  -4   5   4    0.67    1.21
   4  -5  -3    0.53    0.79
   4  -5  -3   -0.50    0.69
  -4   5   3   -0.64    1.12
   4  -5  -2    1.38    0.38
  -4   5   2    0.82    1.16
  -4   5   1    2.63    0.81
  -4   5   1    2.47    1.33
   4  -5   0   -0.91    0.83
  -4   5   0    0.66    0.57
  -4   5   0    1.31    0.89
   4  -5   1    0.35    0.69
  -4   5  -1    0.06    0.82
  -4   5  -1   -0.27    0.76
   4  -5   2   -0.49    0.88
  -4   5  -2   -0.04    0.71
  -4   5  -2    0.38    0.87
   4  -5   3    2.67    1.76
  -4   5  -3    2.19    1.33
  -4   5  -3    1.44    0.84
   4  -5   4    0.36    1.07
  -4   5  -4    1.87    1.17
  -4   5  -4    1.06    0.75
   4  -5   5    0.48    1.16
  -4   5  -5    0.03    0.83
  -4   5  -5   -0.33    0.71
   4  -5   6   -1.49    1.14
  -4   5  -6   -0.01    0.89
  -4   5  -6    0.76    0.43
   4  -5   7   -0.78    1.16
  -4   5  -7    0.04    0.91
  -4   5  -7    0.80    0.52
   4  -5   8   -0.04    1.21
  -4   5  -8    0.29    1.06
  -4   5  -8   -0.31    0.43
   4  -5   9    0.35    1.32
  -4   5  -9    0.48    1.12
  -4   5  -9    0.35    0.59
   4  -5  10   -1.15    1.15
  -4   5 -10    0.72    1.17
  -4   5 -10    0.44    0.57
   4  -5  11   -0.94    1.23
  -4   5 -11    1.40    1.82
   4  -5  12    2.08    1.40
  -4   5 -12    0.92    1.24
   4  -5  13    1.06    1.35
  -4   5 -13    0.65    1.23
   4  -5  14    1.22    1.52
  -4   5 -14    0.70    1.33
   4  -5  15   -0.21    1.37
  -4   5 -15    0.11    1.44
   4  -5  16   -0.17    1.35
  -4   5 -16    2.23    1.61
   4  -5  17    0.18    1.25
  -4   5 -17    3.03    2.34
   4  -5  18    0.88    1.36
  -4   5 -18    0.77    1.48
   4  -5  19    2.17    1.52
  -4   5 -19    1.17    1.40
   4  -5  20    2.04    2.17
  -4   5 -20    0.12    1.62
  -4   5 -21    0.73    1.90
   4  -4 -19    1.58    1.99
  -4   4  19   -0.55    1.53
   4  -4 -18    4.45    2.75
  -4   4  18    5.46    1.89
   4  -4 -17   20.68    3.72
  -4   4  17   18.18    3.37
   4  -4 -16   12.42    2.68
  -4   4  16   11.19    2.11
   4  -4 -15    0.63    1.64
  -4   4  15   -0.96    1.53
   4  -4 -14    9.84    2.49
  -4   4  14    4.84    1.70
   4  -4 -13    3.95    1.88
  -4   4  13   -0.58    1.39
   4  -4 -12   33.89    3.05
  -4   4  12   26.92    2.72
   4  -4 -11   12.77    2.16
  -4   4  11   17.51    2.58
   4  -4 -10  441.34   17.48
  -4   4  10  404.21   18.65
   4  -4  -9  104.00    4.64
  -4   4   9  110.47    5.55
   4  -4  -8   42.89    1.85
   4  -4  -8   50.13    6.92
  -4   4   8   44.06    3.49
   4  -4  -7   48.42    2.61
   4  -4  -7   69.29    7.70
  -4   4   7   54.79    3.39
   4  -4  -6  224.31    8.59
   4  -4  -6  232.63    9.60
  -4   4   6  256.35   10.73
   4  -4  -5    7.37    1.23
   4  -4  -5    7.36    1.46
  -4   4   5    6.30    1.52
   4  -4  -4   16.19    1.27
   4  -4  -4   13.50    3.15
  -4   4   4   15.07    1.83
   4  -4  -3  147.71    4.38
   4  -4  -3  122.20    4.00
  -4   4   3  159.10    5.29
   4  -4  -2   30.10    1.80
   4  -4  -2   23.46    3.68
  -4   4   2   30.90    2.17
   4  -4  -1    4.04    0.92
  -4   4   1    3.85    0.83
  -4   4   1    5.19    1.01
   4  -4   0  146.19    7.27
  -4   4   0  126.37    5.60
  -4   4   0  144.15    6.56
   4  -4   1  124.12    5.81
  -4   4  -1   99.34    4.58
  -4   4  -1  110.89    5.18
   4  -4   2  533.33   11.25
  -4   4  -2  448.59    9.25
  -4   4  -2  478.84   13.02
   4  -4   3  485.50   11.79
  -4   4  -3  425.67    9.42
  -4   4  -3  450.53    9.91
   4  -4   4  442.15   10.51
  -4   4  -4  345.91    8.11
  -4   4  -4  365.75    8.30
   4  -4   5    0.55    1.09
  -4   4  -5    0.58    0.77
  -4   4  -5    3.45    0.89
   4  -4   6    3.05    1.12
  -4   4  -6    1.09    0.85
  -4   4  -6    1.21    0.68
   4  -4   7  270.63   11.19
  -4   4  -7  220.48    9.02
  -4   4  -7  192.44    7.63
   4  -4   8    2.72    1.48
  -4   4  -8    2.23    1.07
  -4   4  -8    1.82    0.51
   4  -4   9    4.84    1.61
  -4   4  -9    2.81    1.23
  -4   4  -9    2.30    0.52
   4  -4  10   33.44    2.59
  -4   4 -10   30.46    2.51
  -4   4 -10   19.94    3.42
   4  -4  11    3.18    1.32
  -4   4 -11    1.87    0.98
  -4   4 -11    2.65    0.53
   4  -4  12   11.03    1.81
  -4   4 -12   10.90    1.86
   4  -4  13   33.61    3.09
  -4   4 -13   31.50    2.82
   4  -4  14    5.44    1.93
  -4   4 -14    1.82    1.24
   4  -4  15  110.90    8.25
  -4   4 -15   90.52    6.97
   4  -4  16   31.81    3.46
  -4   4 -16   22.77    2.59
   4  -4  17    2.57    1.36
  -4   4 -17    2.18    1.67
   4  -4  18    7.73    1.86
  -4   4 -18    9.09    2.16
   4  -4  19   12.09    2.47
  -4   4 -19    6.60    1.80
  -4   4 -20    9.94    2.77
  -4   4 -21    4.45    2.63
   4  -3 -20    2.22    2.14
   4  -3 -19   -2.02    1.80
  -4   3  19   -0.83    1.48
   4  -3 -18    1.92    1.97
  -4   3  18   -1.03    1.58
   4  -3 -17   -0.45    1.61
  -4   3  17    0.84    1.49
   4  -3 -16    0.29    1.58
  -4   3  16    0.43    1.16
   4  -3 -15    1.14    1.58
  -4   3  15    2.59    2.29
   4  -3 -14    1.02    1.49
  -4   3  14   -1.63    1.47
   4  -3 -13    0.68    0.90
  -4   3  13    1.35    1.44
   4  -3 -12   -2.09    1.27
  -4   3  12    0.71    1.44
   4  -3 -11    2.67    1.43
  -4   3  11    2.57    1.54
   4  -3 -10   -0.21    0.47
   4  -3 -10    1.72    1.31
  -4   3  10    0.16    1.37
   4  -3  -9   -0.01    0.47
   4  -3  -9    0.74    1.05
  -4   3   9    2.44    1.94
   4  -3  -8    0.51    0.53
   4  -3  -8    0.26    0.88
  -4   3   8    1.02    1.40
   4  -3  -7   -0.03    0.48
   4  -3  -7    0.67    0.62
  -4   3   7    1.71    1.41
   4  -3  -6   -0.25    0.49
   4  -3  -6    0.32    0.73
  -4   3   6   -0.61    1.26
   4  -3  -5    0.32    0.54
   4  -3  -5    0.22    0.67
  -4   3   5    2.10    1.39
   4  -3  -4    0.84    0.79
   4  -3  -4    0.82    0.43
  -4   3   4    0.86    1.31
   4  -3  -3    0.12    0.42
   4  -3  -3    0.16    0.37
  -4   3   3    1.69    1.34
   4  -3  -2   -0.16    0.49
  -4   3   2    1.25    1.10
   4  -3   1    1.09    0.94
   4  -3   2    1.58    1.03
  -4   3  -2    0.26    0.36
  -4   3  -2    0.34    0.86
   4  -3   3   -0.25    1.00
  -4   3  -3   -0.27    0.56
  -4   3  -3   -0.03    0.72
   4  -3   4    0.56    0.65
  -4   3  -4    0.09    0.44
  -4   3  -4   -0.88    0.71
   4  -3   5    0.06    1.00
  -4   3  -5    0.04    0.76
  -4   3  -5    3.02    0.90
   4  -3   6    2.00    1.58
  -4   3  -6    1.08    0.92
  -4   3  -6    1.46    0.69
   4  -3   7   -0.95    1.14
  -4   3  -7    1.81    1.00
  -4   3  -7   -0.07    0.58
   4  -3   8   -0.83    1.08
  -4   3  -8    2.03    1.48
  -4   3  -8    1.07    0.62
   4  -3   9   -0.64    1.11
  -4   3  -9   -1.06    0.92
  -4   3  -9    0.87    0.37
   4  -3  10    3.19    1.77
  -4   3 -10    0.71    0.97
  -4   3 -10    0.26    0.28
   4  -3  11    0.48    1.28
  -4   3 -11   -0.86    1.04
  -4   3 -11   -0.10    0.62
   4  -3  12    0.72    1.36
  -4   3 -12    1.12    0.63
  -4   3 -12    0.34    0.27
   4  -3  13   -0.79    1.40
  -4   3 -13    2.19    1.40
  -4   3 -13    0.60    0.56
   4  -3  14    0.65    1.46
  -4   3 -14    0.59    1.40
   4  -3  15   -1.53    1.13
  -4   3 -15    3.92    2.06
   4  -3  16    0.62    1.23
  -4   3 -16    3.45    2.13
   4  -3  17    0.48    1.46
  -4   3 -17   -0.25    1.55
   4  -3  18   -0.78    1.32
  -4   3 -18    1.05    1.69
   4  -3  19    1.46    1.53
  -4   3 -19    1.78    1.65
  -4   3 -20   -0.58    1.67
  -4   3 -21    2.04    1.87
   4  -2 -20   12.30    3.82
   4  -2 -19    0.65    1.87
  -4   2  19    1.78    1.54
   4  -2 -18    4.29    2.35
  -4   2  18    3.07    1.77
   4  -2 -17    0.34    1.46
  -4   2  17   -0.26    1.39
   4  -2 -16   12.57    2.57
  -4   2  16    6.38    2.03
   4  -2 -15   26.09    3.03
  -4   2  15   18.55    2.33
   4  -2 -14   11.14    2.15
  -4   2  14   11.00    2.51
   4  -2 -13  190.75    6.28
  -4   2  13  171.93    6.61
   4  -2 -12  287.62   13.29
  -4   2  12  302.72   14.35
   4  -2 -11   28.37    1.98
   4  -2 -11   27.38    5.24
  -4   2  11   32.78    3.39
   4  -2 -10  254.25    5.63
   4  -2 -10  281.86   17.18
  -4   2  10  294.04    7.75
   4  -2  -9    2.04    0.70
   4  -2  -9    0.50    0.55
  -4   2   9    1.52    1.34
   4  -2  -8    9.56    1.16
   4  -2  -8    9.54    1.34
  -4   2   8    9.40    1.91
   4  -2  -7    0.62    0.84
   4  -2  -7    1.26    1.03
  -4   2   7   -0.18    1.29
   4  -2  -6   41.00    2.14
   4  -2  -6   43.71    2.34
   4  -2  -5    3.73    0.87
   4  -2  -5    3.30    0.76
  -4   2   5    5.05    1.43
   4  -2  -4   19.29    1.45
   4  -2  -4   18.74    3.34
  -4   2   4   18.98    1.98
   4  -2  -3  156.06    6.78
   4  -2  -3  134.68    7.77
  -4   2   3  153.80    7.07
   4  -2  -2  638.47   12.69
   4  -2  -2  501.25    9.44
  -4   2   2  606.73   13.74
   4  -2  -1  138.80   40.80
   4  -2   0 2710.78  794.93
  -4   2   0 2400.71   39.30
  -4   2   0 2510.90   42.58
   4  -2   1  805.80   15.52
  -4   2  -1  656.97   11.73
  -4   2  -1  696.61   13.50
   4  -2   2 1041.09   20.77
  -4   2  -2  845.43   14.78
  -4   2  -2  852.54   16.37
   4  -2   3  538.97   11.63
  -4   2  -3  442.74    8.80
  -4   2  -3  426.85    9.17
   4  -2   4   11.18    1.65
  -4   2  -4    9.13    0.94
  -4   2  -4    7.03    1.68
   4  -2   5  281.32    7.84
  -4   2  -5  234.72    5.93
  -4   2  -5  205.57    6.19
   4  -2   6  229.66    6.84
  -4   2  -6  208.58    5.67
  -4   2  -6  167.27    5.39
   4  -2   7    8.75    1.58
  -4   2  -7    5.32    0.96
  -4   2  -7    4.92    1.23
   4  -2   8   11.70    1.99
  -4   2  -8    8.33    1.43
  -4   2  -8    7.05    1.65
   4  -2   9  113.19    5.25
  -4   2  -9   95.34    4.49
  -4   2  -9   69.23    3.29
   4  -2  10   28.86    2.34
  -4   2 -10   28.20    2.30
  -4   2 -10   21.73    4.19
   4  -2  11   13.53    2.09
  -4   2 -11    8.89    1.66
  -4   2 -11    5.55    1.37
   4  -2  12  124.08    6.56
  -4   2 -12   96.99    5.48
  -4   2 -12   57.02   11.67
   4  -2  13  222.69    6.63
  -4   2 -13  190.51    6.36
  -4   2 -13  145.31    4.78
   4  -2  14  172.99    6.04
  -4   2 -14  156.39    6.12
  -4   2 -14  100.53    4.47
   4  -2  15   93.78   11.07
  -4   2 -15   78.87    9.20
   4  -2  16    3.98    1.33
  -4   2 -16    0.81    1.47
   4  -2  17    1.72    1.06
  -4   2 -17    0.80    1.60
   4  -2  18    8.22    2.31
  -4   2 -18   12.77    2.67
  -4   2 -19   12.98    2.97
  -4   2 -20    3.71    1.89
   4  -1 -20   -0.14    1.70
   4  -1 -19    0.99    1.82
  -4   1  19   -2.96    1.40
   4  -1 -18    1.81    0.99
  -4   1  18    0.20    0.64
   4  -1 -17   -2.54    1.44
  -4   1  17   -1.58    1.21
   4  -1 -16    2.51    1.51
  -4   1  16   -0.28    1.25
   4  -1 -15    2.27    1.84
  -4   1  15    3.28    1.89
   4  -1 -14    0.31    1.26
  -4   1  14    0.30    1.47
   4  -1 -13    0.54    0.54
   4  -1 -13   -0.84    1.30
  -4   1  13   -0.52    1.40
   4  -1 -12   -1.00    0.79
   4  -1 -12   -1.01    1.18
  -4   1  12    1.66    1.45
   4  -1 -11   -0.04    0.66
   4  -1 -11    0.24    0.96
  -4   1  11    1.05    0.86
   4  -1 -10    0.88    0.94
   4  -1 -10    0.48    0.94
  -4   1  10    2.34    1.49
   4  -1  -9    0.76    0.70
   4  -1  -9    0.01    0.89
  -4   1   9    2.32    1.60
   4  -1  -8   -0.14    0.62
   4  -1  -8   -0.19    0.65
  -4   1   8    1.96    1.79
   4  -1  -7    0.08    0.59
   4  -1  -7   -0.36    0.55
  -4   1   7    1.03    1.27
   4  -1  -6    0.17    0.64
   4  -1  -6    0.26    0.59
  -4   1   6   -0.99    1.44
   4  -1  -5    0.66    0.73
   4  -1  -5   -0.08    0.48
  -4   1   5    0.14    1.33
   4  -1  -4    0.80    0.60
   4  -1  -4    1.23    0.47
  -4   1   4   -1.19    1.36
   4  -1  -3   -0.47    0.71
   4  -1  -3    0.10    0.19
  -4   1   3    0.10    1.10
   4  -1  -2    0.48    0.45
   4  -1  -2    0.11    0.22
  -4   1   2   -0.88    1.10
   4  -1  -1    0.37    0.82
   4  -1  -1   -0.01    0.14
  -4   1   1   -0.97    1.09
   4  -1   0   -0.38    0.88
  -4   1   0    0.62    0.54
  -4   1   0    0.67    1.07
   4  -1   1   -0.73    0.88
  -4   1  -1   -0.09    0.34
  -4   1  -1   -0.13    0.91
   4  -1   2   -0.65    0.86
  -4   1  -2   -0.31    0.38
  -4   1  -2    0.67    0.42
   4  -1   3    1.09    0.91
  -4   1  -3   -0.06    0.45
  -4   1  -3    0.77    0.44
   4  -1   4   -0.64    0.91
  -4   1  -4    0.36    0.53
  -4   1  -4    0.53    0.34
   4  -1   5   -1.01    1.06
  -4   1  -5    0.91    0.63
  -4   1  -5    1.77    1.07
   4  -1   6   -1.32    1.06
  -4   1  -6    0.41    0.70
  -4   1  -6   -0.95    0.69
   4  -1   7    0.75    1.01
  -4   1  -7    0.86    0.83
  -4   1  -7    1.90    0.95
   4  -1   8   -0.71    1.02
  -4   1  -8    2.18    1.11
  -4   1  -8    0.78    0.43
   4  -1   9    0.19    1.09
  -4   1  -9    1.92    1.55
  -4   1  -9   -0.17    0.75
   4  -1  10    0.11    1.20
  -4   1 -10    0.97    1.10
  -4   1 -10    0.41    0.35
   4  -1  11    7.70    1.94
  -4   1 -11    3.66    1.08
  -4   1 -11    3.57    0.88
   4  -1  12    2.04    1.49
  -4   1 -12    1.21    0.83
   4  -1  13    2.79    1.44
  -4   1 -13    0.46    1.25
   4  -1  14    0.24    1.10
  -4   1 -14   -1.25    1.41
   4  -1  15    0.14    0.82
  -4   1 -15    0.84    0.89
   4  -1  15   -0.61    0.88
   4  -1  16    1.00    1.22
  -4   1 -16    0.18    1.31
   4  -1  17   -0.61    1.08
  -4   1 -17    1.60    0.74
  -4   1 -18    0.50    1.64
  -4   1 -19   -0.91    1.62
   4   0 -20    2.20    1.85
   4   0 -19    3.94    1.87
  -4   0  19   -0.41    1.26
   4   0 -18    2.82    1.71
  -4   0  18    3.25    1.37
   4   0 -17   24.37    2.84
  -4   0  17   15.78    2.37
   4   0 -16    4.34    0.89
  -4   0  16    1.66    1.39
  -4   0  15    0.69    0.54
   4   0 -15   -0.18    1.10
  -4   0  15    0.84    0.89
   4   0 -14    1.91    0.57
   4   0 -14    4.79    1.65
  -4   0  14    2.86    1.25
   4   0 -13   67.96    4.12
   4   0 -13   68.72    4.78
  -4   0  13   65.47    4.98
   4   0 -12   39.65    2.61
   4   0 -12   41.21    2.90
  -4   0  12   33.09    4.96
   4   0 -11    6.35    1.03
   4   0 -11    7.75    1.45
  -4   0  11    6.55    1.72
   4   0 -10   38.53    2.29
   4   0 -10   42.64    2.68
  -4   0  10   48.69    3.11
   4   0  -9    1.49    0.88
   4   0  -9    2.93    1.06
  -4   0   9    3.38    1.47
   4   0  -8   22.28    1.88
   4   0  -8   23.70    1.96
  -4   0   8   24.12    2.34
   4   0  -7   26.12    2.01
   4   0  -7   27.79    1.78
  -4   0   7   26.45    2.39
   4   0  -6   93.87    3.50
   4   0  -6   94.55    3.06
  -4   0   6  104.20    7.09
   4   0  -5   -0.81    0.73
   4   0  -5    1.37    0.58
  -4   0   5    2.63    2.21
   4   0  -4  802.64   16.39
   4   0  -4  741.18   12.86
  -4   0   4  793.80   16.01
   4   0  -3  395.21    8.99
   4   0  -3  363.61    6.63
  -4   0   3  400.05    9.33
   4   0  -2   89.35    4.51
   4   0  -2   93.16    3.67
  -4   0   2   85.40    4.59
   4   0   0  113.57    5.44
  -4   0   0   92.59    4.71
  -4   0  -1  400.50    9.54
   4   0   2   55.94    8.38
  -4   0  -2   43.24    2.33
  -4   0  -2   33.22    2.39
  -4   0  -3  113.69    2.75
  -4   0  -3   93.85    3.36
   4   0   4    8.43    2.00
  -4   0  -4    6.14    0.77
  -4   0  -4    6.86    1.36
   4   0   5  188.47    6.01
  -4   0  -5  168.45    4.53
  -4   0  -5  131.15    9.26
   4   0   6    0.35    1.24
  -4   0  -6    0.24    0.69
  -4   0  -6   -0.45    0.82
   4   0   7  207.60    8.99
  -4   0  -7  189.14    7.74
  -4   0  -7  140.87    9.27
   4   0   8  103.71   33.43
  -4   0  -8   98.93    4.34
  -4   0  -8   72.86   12.44
   4   0   9  234.83    6.19
  -4   0  -9  201.63    5.16
  -4   0  -9  149.82    5.11
   4   0  10    1.42    1.53
  -4   0 -10   -0.53    1.18
   4   0  11  488.36   18.93
  -4   0 -11  429.41   16.85
   4   0  11  384.72   17.51
   4   0  12   87.07    5.32
  -4   0 -12   82.75    5.17
   4   0  12   74.32    4.52
   4   0  13   16.75    2.36
  -4   0 -13   16.41    2.24
   4   0  13    9.70    1.64
   4   0  14    3.60    1.80
  -4   0 -14    3.09    1.31
   4   0  14    1.69    1.32
   4   0  15   12.03    2.26
  -4   0 -15    6.39    2.01
   4   0  15    5.80    1.69
   4   0  16    0.60    0.59
  -4   0 -16    0.54    1.35
  -4   0 -17    3.79    1.88
  -4   0 -18    1.90    2.30
  -4   0 -19    1.03    1.69
   4   1 -20    2.37    1.74
   4   1 -19    0.24    1.64
   4   1 -18    0.33    1.59
  -4  -1  18    1.36    1.20
   4   1 -17    1.17    0.97
  -4  -1  17    0.60    1.18
  -4  -1  16    0.63    0.45
   4   1 -16    1.12    1.29
  -4  -1  16    0.18    1.15
  -4  -1  15    2.39    0.72
   4   1 -15    1.49    1.26
  -4  -1  15    0.92    1.30
   4   1 -14   -1.23    0.89
   4   1 -14   -1.63    1.14
  -4  -1  14    1.49    1.28
   4   1 -13    0.98    0.91
   4   1 -13    1.53    1.25
  -4  -1  13    1.11    1.25
   4   1 -12    0.36    0.80
   4   1 -12    0.78    0.98
  -4  -1  12   -0.28    1.15
   4   1 -11    0.43    0.90
   4   1 -11    0.03    0.81
  -4  -1  11   -1.20    1.18
   4   1 -10   -0.93    0.81
   4   1 -10    1.42    1.13
  -4  -1  10    0.19    1.24
   4   1  -9    1.56    0.90
   4   1  -9    2.03    1.21
  -4  -1   9    0.12    1.21
   4   1  -8    0.34    0.85
   4   1  -8   -0.01    0.52
  -4  -1   8   -0.09    1.24
   4   1  -7    0.33    0.82
   4   1  -7    1.39    0.95
  -4  -1   7   -0.84    1.15
   4   1  -6   -0.34    0.75
   4   1  -6    0.60    0.61
  -4  -1   6   -1.26    1.39
   4   1  -5    1.05    1.00
   4   1  -5    0.94    0.56
  -4  -1   5    2.36    2.07
   4   1  -4    0.36    0.94
   4   1  -4    0.05    0.26
  -4  -1   4    2.65    1.35
   4   1  -3    0.26    1.03
   4   1  -3   -0.18    0.12
  -4  -1   3    1.72    1.26
   4   1  -2    0.60    1.02
  -4  -1   2    0.10    1.01
   4   1  -1    0.13    0.90
  -4  -1   1    0.72    1.05
   4   1   0    0.14    0.51
  -4  -1   0    0.32    0.50
   4   1   1    0.97    0.74
  -4  -1  -1   -0.20    0.80
   4   1   2    1.60    0.89
  -4  -1  -2    0.06    0.24
  -4  -1  -2    0.72    0.56
   4   1   3   -0.60    0.94
  -4  -1  -3    0.39    0.40
  -4  -1  -3    0.57    0.57
   4   1   4    0.71    0.66
  -4  -1  -4    0.29    0.51
  -4  -1  -4    1.23    0.71
   4   1   5    0.99    0.56
  -4  -1  -5    0.39    0.42
  -4  -1  -5   -0.53    0.81
   4   1   6    1.60    1.14
  -4  -1  -6   -0.54    0.69
  -4  -1  -6    0.67    0.50
   4   1   7    0.11    1.04
  -4  -1  -7    1.13    1.02
  -4  -1  -7   -0.39    0.96
   4   1   8    2.33    1.18
  -4  -1  -8    2.58    1.31
   4   1   9   -0.50    1.08
  -4  -1  -9    1.22    0.83
   4   1   9   -0.21    1.12
   4   1  10    0.69    0.90
  -4  -1 -10    0.61    0.69
   4   1  10    1.62    0.69
   4   1  11    0.45    0.75
  -4  -1 -11    0.97    0.52
   4   1  11    0.71    0.91
   4   1  12    0.91    0.49
  -4  -1 -12   -0.10    1.05
   4   1  12    1.26    0.68
   4   1  13   -0.92    1.04
  -4  -1 -13    1.52    0.77
   4   1  13    0.72    0.56
   4   1  14    1.37    0.89
  -4  -1 -14   -0.86    1.36
   4   1  14    1.04    0.78
   4   1  15    0.24    0.48
  -4  -1 -15    0.42    1.40
   4   1  15    0.43    0.88
  -4  -1 -16   -0.04    1.40
  -4  -1 -17   -1.04    1.40
  -4  -1 -18    2.31    1.75
   4   2 -20    0.45    1.54
   4   2 -19    1.41    1.31
   4   2 -18    7.78    2.15
  -4  -2  18    6.24    1.60
  -4  -2  17    2.46    1.07
   4   2 -17    5.16    1.64
  -4  -2  17    1.38    1.39
  -4  -2  16   16.62    3.42
   4   2 -16   21.20    2.50
  -4  -2  16   13.73    3.67
   4   2 -15    0.74    0.63
   4   2 -15   -1.32    1.17
  -4  -2  15    3.08    1.42
   4   2 -14  108.94    4.35
   4   2 -14   98.01    4.74
  -4  -2  14   99.42    4.82
   4   2 -13   -0.05    1.07
  -4  -2  13   -0.16    1.21
   4   2 -12   11.45    1.91
   4   2 -12   11.11    1.76
  -4  -2  12   12.13    2.07
   4   2 -11    0.99    0.98
   4   2 -11    0.43    0.60
  -4  -2  11   -0.04    1.14
   4   2 -10   50.54    2.91
   4   2 -10   45.22    3.57
  -4  -2  10   47.71    3.32
   4   2  -9    3.58    1.13
   4   2  -9    4.98    1.12
  -4  -2   9    4.88    2.03
   4   2  -8   67.02    3.86
   4   2  -8   59.40    3.01
  -4  -2   8   67.83    4.08
   4   2  -7    9.11    1.55
   4   2  -7    9.33    0.98
  -4  -2   7    9.92    1.50
   4   2  -6   25.11    2.02
   4   2  -6   24.68    1.89
  -4  -2   6   24.70    2.07
   4   2  -5    5.67    1.26
   4   2  -5    4.28    0.66
  -4  -2   5    8.43    1.63
   4   2  -4   24.51    1.91
  -4  -2   4   21.87    1.95
   4   2  -3   33.31    2.29
  -4  -2   3   32.44    5.82
   4   2  -2  726.30   15.48
  -4  -2   2  643.49   16.89
   4   2  -1  282.41    7.34
  -4  -2   1  220.19    6.36
   4   2   0   12.83    1.55
  -4  -2   0   13.50    2.77
   4   2   1   17.23    3.02
  -4  -2  -1    9.15    2.57
   4   2   2   48.67    2.67
  -4  -2  -2   40.68    1.25
  -4  -2  -2   36.72    7.33
   4   2   3  162.58    5.50
  -4  -2  -3  143.93    3.59
  -4  -2  -3  122.35    4.61
   4   2   4  248.80   10.13
  -4  -2  -4  212.96    8.32
  -4  -2  -4  173.66    7.72
   4   2   5   17.68    3.16
  -4  -2  -5   17.27    2.32
  -4  -2  -5   16.30    2.48
   4   2   6    2.52    1.31
  -4  -2  -6    1.85    0.74
  -4  -2  -6    1.45    0.66
  -4  -2  -7  626.53   18.24
   4   2   7  609.49   18.77
   4   2   8  803.09   11.53
  -4  -2  -9  129.21    4.78
   4   2   9  133.98    5.47
   4   2  10   13.21    1.91
  -4  -2 -10   11.01    1.64
   4   2  10   12.61    2.29
   4   2  11   44.34    8.83
  -4  -2 -11   42.08    3.07
   4   2  11   37.00    4.31
   4   2  12   10.51    1.76
  -4  -2 -12   11.86    2.10
   4   2  12   10.40    2.39
   4   2  13    7.32    1.89
  -4  -2 -13    2.34    1.17
   4   2  13    4.92    1.09
   4   2  14   -0.25    0.89
  -4  -2 -14    0.95    1.58
   4   2  14    2.01    1.07
  -4  -2 -15    0.21    0.85
   4   2  15    1.13    0.99
  -4  -2 -16   17.53    2.63
   4   2  16   13.73    3.15
  -4  -2 -17    1.18    1.57
   4   3 -20    0.92    0.81
   4   3 -19    0.77    0.95
  -4  -3  18    0.91    0.42
   4   3 -18   -0.66    1.37
  -4  -3  18    0.94    1.22
  -4  -3  17   -0.68    0.98
   4   3 -17    0.53    1.26
  -4  -3  17    1.14    2.31
  -4  -3  16   -0.53    1.05
   4   3 -16    1.87    1.28
  -4  -3  16   -0.44    1.03
   4   3 -15    1.22    1.16
   4   3 -15    1.74    1.66
  -4  -3  15   -0.54    1.09
   4   3 -14   -0.95    1.05
   4   3 -14    2.18    1.05
  -4  -3  14    1.01    1.21
   4   3 -13    1.33    1.62
   4   3 -13    2.85    1.26
  -4  -3  13    0.31    1.20
   4   3 -12    0.58    1.12
   4   3 -12    0.83    0.77
  -4  -3  12    1.34    1.71
   4   3 -11    1.92    1.51
   4   3 -11   -0.11    0.81
  -4  -3  11    3.68    2.13
   4   3 -10    1.12    1.07
   4   3 -10    0.20    0.84
  -4  -3  10    0.01    0.66
   4   3  -9    0.26    0.50
  -4  -3   9   -0.82    1.12
   4   3  -8   -0.46    0.99
   4   3  -8    1.88    0.92
  -4  -3   8    0.88    1.19
   4   3  -7    0.03    0.93
   4   3  -7    0.21    0.44
  -4  -3   7    0.44    0.71
   4   3  -6    0.53    1.05
   4   3  -6    0.08    0.28
  -4  -3   6    0.12    1.20
   4   3  -5    1.76    1.17
  -4  -3   5   -0.81    1.16
   4   3  -4    0.66    0.97
  -4  -3   4    3.04    1.20
   4   3  -3   -0.50    0.98
  -4  -3   3    2.70    1.55
   4   3  -2    2.17    1.33
   4   3  -1    0.46    0.96
  -4  -3   1    0.54    0.44
   4   3   0   -1.22    0.88
  -4  -3   0    1.08    0.82
   4   3   1    0.59    0.98
  -4  -3  -1   -0.07    0.94
   4   3   2    0.84    0.96
  -4  -3  -2    0.11    0.27
  -4  -3  -2   -0.26    0.97
   4   3   3   -1.30    0.88
  -4  -3  -3   -0.35    0.43
  -4  -3  -3    1.00    0.78
   4   3   4   -1.13    0.90
  -4  -3  -4    1.00    0.82
  -4  -3  -4    0.12    0.54
   4   3   5    0.23    0.64
  -4  -3  -5    0.78    0.67
  -4  -3  -5    1.09    0.80
   4   3   6   -0.71    0.97
  -4  -3  -6    0.22    0.77
   4   3   6   -0.71    1.18
   4   3   7    0.78    0.78
  -4  -3  -7    1.97    1.38
   4   3   7    0.52    0.87
   4   3   8   -0.16    0.95
  -4  -3  -8    1.03    1.07
   4   3   8    0.35    0.99
   4   3   9    0.75    0.45
  -4  -3  -9   -0.19    0.99
   4   3   9   -1.07    1.22
   4   3  10    1.01    0.57
  -4  -3 -10    2.03    1.18
   4   3  10    0.37    0.57
   4   3  11    0.67    0.84
  -4  -3 -11    0.63    1.09
   4   3  11    2.04    0.73
   4   3  12    0.65    0.59
  -4  -3 -12    0.49    0.61
   4   3  12    1.92    1.63
   4   3  13   -0.01    0.57
  -4  -3 -13    1.66    1.52
   4   3  13   -0.16    1.13
  -4  -3 -14    1.35    1.53
   4   3  14    0.32    1.20
  -4  -3 -15    0.93    0.82
   4   3  15    0.72    0.51
  -4  -3 -16   -0.55    1.42
   4   3  16    1.87    1.34
   4   4 -19    2.15    1.44
  -4  -4  18   -0.03    1.13
   4   4 -18    1.74    1.42
   4   4 -17   73.18    4.27
  -4  -4  17   66.63    4.36
  -4  -4  16   54.39   15.04
   4   4 -16  120.94   13.14
  -4  -4  16  127.00   13.83
   4   4 -15    3.58    0.92
   4   4 -15    3.67    1.70
  -4  -4  15    0.16    1.06
   4   4 -14   22.69    2.63
   4   4 -14   18.85    2.02
  -4  -4  14   20.18    2.41
   4   4 -13    3.15    1.58
   4   4 -13    2.87    0.88
  -4  -4  13    2.71    1.05
   4   4 -12    4.40    1.16
   4   4 -12    4.39    1.00
  -4  -4  12    6.16    1.75
   4   4 -11    0.49    1.24
   4   4 -11    0.56    0.77
  -4  -4  11    2.97    1.27
   4   4 -10   37.77    2.72
   4   4 -10   41.59    2.17
  -4  -4  10   44.71    3.17
   4   4  -9    6.30    1.48
   4   4  -9    3.00    0.71
  -4  -4   9    3.83    1.13
   4   4  -8   46.38    2.92
   4   4  -8   44.98    1.96
  -4  -4   8   50.17    7.77
   4   4  -7   43.15    3.10
   4   4  -7   39.72    1.76
  -4  -4   7   42.78    2.85
   4   4  -6    0.45    1.01
   4   4  -6    0.40    0.30
  -4  -4   6    1.07    1.09
   4   4  -5    0.33    0.90
  -4  -4   5    1.82    1.06
   4   4  -4   10.61    1.35
  -4  -4   4   11.81    2.38
   4   4  -3  457.97   11.18
  -4  -4   3  368.34   14.17
   4   4  -2   42.82    2.75
  -4  -4   2   37.63    8.92
   4   4  -1  182.89    5.91
  -4  -4   1  138.59    5.02
   4   4   0   13.19    1.61
  -4  -4   0   13.17    2.07
   4   4   1   68.32    3.90
  -4  -4  -1   54.39    3.58
   4   4   2   60.82    3.68
  -4  -4  -2   45.17    3.46
   4   4   3    1.28    1.05
  -4  -4  -3    1.17    0.68
  -4  -4  -3    1.50    0.75
   4   4   4   25.82    2.17
  -4  -4  -4   25.90    1.56
  -4  -4  -4   16.89    6.17
   4   4   5  393.02    9.91
  -4  -4  -5  384.18    5.75
   4   4   5  382.80    8.23
   4   4   6   14.22    2.15
  -4  -4  -6   10.64    1.48
   4   4   6   10.70    2.26
   4   4   7  197.73    7.30
  -4  -4  -7  199.97    5.95
   4   4   7  176.19    7.72
   4   4   8   85.76    4.73
  -4  -4  -8   86.15    4.90
   4   4   8   92.30   13.92
   4   4   9  163.17    8.11
  -4  -4  -9  170.88    8.46
   4   4   9  150.17    8.11
   4   4  10   31.11    5.22
  -4  -4 -10   29.73    5.74
   4   4  10   30.25    9.38
   4   4  11   26.86    2.30
  -4  -4 -11   27.41    2.54
   4   4  11   25.43    2.79
   4   4  12    6.29    1.91
  -4  -4 -12   10.05    1.95
   4   4  12    7.35    2.07
  -4  -4 -13   11.88    2.38
   4   4  13   14.48    2.41
  -4  -4 -14   23.27    7.01
   4   4  14   26.58    3.05
  -4  -4 -15   63.51    7.39
   4   4  15   60.23    7.02
   4   4  16    2.09    1.13
  -4  -5  19   -0.39    1.24
   4   5 -19    0.83    1.42
  -4  -5  18   -0.61    1.18
   4   5 -18    0.63    1.23
  -4  -5  17    0.55    0.52
   4   5 -17    0.31    1.22
  -4  -5  17    0.22    1.02
   4   5 -16   -0.25    1.15
   4   5 -16    0.74    1.15
  -4  -5  16   -0.49    1.04
   4   5 -15    2.44    0.72
   4   5 -15   -0.37    1.06
  -4  -5  15    1.90    1.11
   4   5 -14    2.18    1.57
   4   5 -14    0.17    1.19
  -4  -5  14    0.35    1.03
   4   5 -13    1.14    1.07
   4   5 -13   -1.02    0.88
  -4  -5  13    1.23    1.08
   4   5 -12    1.20    1.08
   4   5 -12    0.90    0.84
  -4  -5  12    1.41    1.13
   4   5 -11    0.81    1.02
   4   5 -11   -0.32    0.59
  -4  -5  11   -0.26    1.07
   4   5 -10    3.60    1.79
   4   5 -10    0.61    0.70
  -4  -5  10    0.47    1.13
   4   5  -9   -0.84    1.21
   4   5  -9   -0.44    0.55
  -4  -5   9   -0.17    1.10
   4   5  -8    0.99    1.25
   4   5  -8   -0.07    0.46
  -4  -5   8    0.14    1.04
   4   5  -7    1.24    1.08
   4   5  -7    0.48    0.39
  -4  -5   7    2.23    1.17
   4   5  -6    1.35    1.43
  -4  -5   6    4.56    1.36
   4   5  -5   -1.10    0.95
  -4  -5   5    0.38    0.70
   4   5  -4    1.29    1.04
  -4  -5   4    1.40    0.72
   4   5  -3    0.20    0.94
  -4  -5   3    0.42    0.46
   4   5  -2   -0.21    0.90
  -4  -5   2   -0.82    1.03
   4   5  -1   -0.34    0.87
  -4  -5   1    1.82    0.89
   4   5   0    2.06    1.25
  -4  -5   0    0.86    0.59
  -4  -5  -1   -0.06    0.65
   4   5   2    1.49    0.97
  -4  -5  -2   -0.25    0.46
  -4  -5  -2   -0.16    1.08
   4   5   3   -0.08    0.81
  -4  -5  -3    0.18    0.57
  -4  -5  -3   -0.35    1.14
   4   5   4    0.14    0.89
  -4  -5  -4   -0.25    0.59
   4   5   4   -1.46    1.20
  -4  -5  -5   -0.60    0.67
   4   5   5   -1.34    1.28
   4   5   6   -0.59    0.82
  -4  -5  -6    0.98    0.82
   4   5   6    1.13    0.84
  -4  -5  -7    2.16    1.21
   4   5   7    3.51    1.57
   4   5   8   -0.10    0.87
  -4  -5  -8    0.05    0.91
   4   5   8   -0.56    1.22
   4   5   9    0.39    0.88
  -4  -5  -9   -0.53    0.94
   4   5   9    0.04    1.32
   4   5  10    0.50    0.84
  -4  -5 -10   -1.31    1.08
   4   5  10   -0.96    1.28
  -4  -5 -11   -0.22    1.11
   4   5  11   -0.64    1.24
  -4  -5 -12   -0.26    1.17
   4   5  12    0.46    1.29
  -4  -5 -13    0.66    1.40
   4   5  13    0.26    1.26
  -4  -5 -14   -1.23    1.51
   4   5  14    1.06    1.58
   4   5  15    1.48    2.01
  -4  -6  19    0.88    0.59
  -4  -6  18    1.66    0.53
   4   6 -18    0.75    0.85
  -4  -6  17    5.65    1.13
   4   6 -17    7.20    1.61
   4   6 -16   42.77    4.32
   4   6 -16   32.55    3.54
  -4  -6  16   29.25    3.04
   4   6 -15    8.02    2.28
   4   6 -15    6.49    1.63
  -4  -6  15    5.53    1.57
   4   6 -14    1.23    1.30
   4   6 -14   -0.62    0.74
  -4  -6  14    0.04    0.96
   4   6 -13    0.28    1.06
   4   6 -13    0.60    0.79
  -4  -6  13    1.10    1.06
   4   6 -12    0.34    1.11
   4   6 -12    0.81    0.70
  -4  -6  12    0.93    1.07
   4   6 -11    9.85    1.94
   4   6 -11    7.07    1.09
  -4  -6  11    8.70    1.62
   4   6 -10   32.23    3.08
   4   6 -10   21.71    1.58
  -4  -6  10   21.25    3.59
   4   6  -9  369.14   10.40
   4   6  -9  313.95    7.33
  -4  -6   9  324.35    8.97
   4   6  -8   70.61    3.85
   4   6  -8   51.82    7.06
  -4  -6   8   58.50    3.37
   4   6  -7   86.87    4.09
  -4  -6   7   72.27    3.47
   4   6  -6   60.48    3.82
  -4  -6   6   56.13    8.85
   4   6  -5   54.68    3.20
  -4  -6   5   49.39    9.12
   4   6  -4   10.92    1.70
  -4  -6   4    7.89    1.25
   4   6  -3   66.90    3.43
  -4  -6   3   53.84    3.04
   4   6  -2   63.90    3.37
  -4  -6   2   59.13    3.48
   4   6  -1   13.26    1.78
  -4  -6   1   11.91    2.42
   4   6   0   19.02    2.18
  -4  -6   0   15.20    3.41
   4   6   1   57.57    3.27
  -4  -6  -1   33.26    7.01
   4   6   2    1.76    0.95
  -4  -6  -2    2.52    0.99
  -4  -6  -2   -0.42    1.17
   4   6   3   71.39    3.62
  -4  -6  -3   65.39    2.67
   4   6   4   90.38    6.71
  -4  -6  -4   88.21    3.85
   4   6   4   95.16    9.66
   4   6   5   66.55    4.08
  -4  -6  -5   55.17    9.54
   4   6   5   74.26   12.72
   4   6   6    7.66    1.37
  -4  -6  -6    6.55    1.22
   4   6   6    8.97    1.95
   4   6   7    7.90    1.40
  -4  -6  -7    8.48    1.50
   4   6   7    9.73    3.00
   4   6   8   37.49    2.69
  -4  -6  -8   33.93    2.83
   4   6   8   31.17    9.64
   4   6   9    3.44    1.06
  -4  -6  -9    7.59    2.01
   4   6   9    4.82    2.00
  -4  -6 -10    4.27    1.28
   4   6  10    1.09    1.47
   4   6  11    0.24    1.29
  -4  -6 -12    0.61    1.31
   4   6  12    1.82    1.60
   4   6  13    1.81    1.42
   4   6  14   16.26    3.06
   4   6  15    3.33    1.75
  -4  -7  20    0.93    1.51
  -4  -7  19   -0.35    1.28
  -4  -7  18   -0.69    1.12
  -4  -7  17   -0.12    1.11
   4   7 -17   -0.01    1.10
   4   7 -16    1.38    1.37
   4   7 -16    1.54    1.24
   4   7 -15    2.51    1.32
   4   7 -15    0.22    0.83
  -4  -7  15    1.68    1.04
   4   7 -14   -0.31    1.28
   4   7 -14    0.32    0.74
  -4  -7  14    1.51    1.05
   4   7 -13    0.49    1.35
   4   7 -13   -0.91    0.75
  -4  -7  13    0.19    0.96
   4   7 -12    1.03    1.47
   4   7 -12    0.36    0.68
  -4  -7  12    1.45    0.74
   4   7 -11   -1.28    1.37
   4   7 -11    0.24    0.57
  -4  -7  11   -0.98    1.06
   4   7 -10   -0.48    1.34
   4   7 -10    0.74    0.36
  -4  -7  10    1.09    1.15
   4   7  -9    2.48    1.56
   4   7  -9    0.52    0.34
  -4  -7   9   -1.06    0.99
   4   7  -8    0.21    1.25
   4   7  -8   -0.32    0.45
  -4  -7   8    1.54    1.11
   4   7  -7    0.50    1.18
  -4  -7   7    1.07    1.03
   4   7  -6    0.56    1.11
  -4  -7   6    0.83    0.82
  -4  -7   5    1.27    0.76
   4   7  -4   -0.27    0.99
  -4  -7   4    1.45    0.96
   4   7  -3   -0.28    0.97
  -4  -7   3   -0.55    1.00
   4   7  -2    0.22    0.99
  -4  -7   2    0.03    0.70
   4   7  -1    0.01    0.89
  -4  -7   1   -0.12    1.11
   4   7   0   -1.36    0.92
  -4  -7   0    1.43    1.45
   4   7   1    0.00    0.94
  -4  -7  -1    0.92    0.53
   4   7   2    2.61    1.41
  -4  -7  -2    0.85    0.83
   4   7   3    0.79    0.89
  -4  -7  -3   -0.93    0.63
   4   7   3    0.42    1.24
   4   7   4    0.65    0.89
  -4  -7  -4    0.21    0.52
   4   7   4   -0.78    1.37
   4   7   5   -0.05    0.81
  -4  -7  -5   -0.01    0.73
   4   7   5    1.30    1.26
   4   7   6    1.42    1.24
  -4  -7  -6    0.85    0.73
   4   7   6   -0.81    1.34
   4   7   7    1.30    1.06
  -4  -7  -7    1.28    0.97
   4   7   7    1.57    1.04
   4   7   8    0.98    0.66
  -4  -7  -8    0.57    1.04
   4   7   8   -0.02    1.57
  -4  -7  -9   -0.45    0.98
   4   7   9    2.18    1.73
  -4  -7 -10   -1.05    1.07
   4   7  10    1.63    1.69
   4   7  11    0.18    1.39
   4   7  12    1.77    1.50
   4   7  13   -0.31    1.56
   4   7  14    1.65    1.66
  -4  -8  20    8.75    3.08
  -4  -8  19    2.55    1.46
  -4  -8  18    0.39    0.83
  -4  -8  17   -0.03    1.36
   4   8 -16    2.35    1.67
   4   8 -15   32.76    6.46
   4   8 -15   26.65    2.69
   4   8 -14   -0.44    1.53
   4   8 -14   -0.27    0.68
  -4  -8  14    1.94    1.06
   4   8 -13   59.55    5.35
   4   8 -13   45.79    3.88
  -4  -8  13   57.19    4.92
   4   8 -12    3.96    1.50
   4   8 -12    4.32    1.33
  -4  -8  12    7.12    1.61
   4   8 -11  153.86    6.11
   4   8 -11  117.07    3.77
  -4  -8  11  144.97    5.02
   4   8 -10    2.93    1.56
   4   8 -10    0.29    0.55
  -4  -8  10    2.04    1.12
   4   8  -9  161.28    8.80
  -4  -8   9  142.68    7.54
   4   8  -8   -0.62    1.28
  -4  -8   8   -0.61    0.98
   4   8  -7   -1.06    1.13
  -4  -8   7    2.25    0.67
   4   8  -6    0.60    1.15
  -4  -8   6    0.91    0.85
   4   8  -5    3.72    1.47
  -4  -8   5    2.19    0.54
   4   8  -4    4.92    1.52
  -4  -8   4    4.72    1.02
   4   8  -3    5.85    1.32
  -4  -8   3    7.72    2.29
   4   8  -2  135.70    5.57
  -4  -8   2  108.22    9.18
   4   8  -1   41.30    2.94
  -4  -8   1   34.79    7.19
   4   8   0   27.23    2.53
  -4  -8   0   24.52    4.76
   4   8   1   83.45    4.88
  -4  -8  -1   72.74   12.88
   4   8   2   46.26    3.48
  -4  -8  -2   43.05    8.56
   4   8   3   33.35    2.54
   4   8   3   37.56    5.10
   4   8   4  118.10    4.56
   4   8   4  109.67    5.25
   4   8   5    0.86    1.00
  -4  -8  -5   -0.29    0.82
   4   8   5    0.90    0.76
   4   8   6    4.18    1.11
  -4  -8  -6    5.24    1.21
   4   8   6    2.93    1.77
   4   8   7    6.62    1.30
   4   8   8    1.58    2.45
   4   8   9    2.03    2.43
   4   8  10   31.75    3.57
   4   8  11    1.91    1.62
   4   8  12    2.48    1.79
   4   8  13   -0.25    1.62
   4   8  14    4.29    1.86
  -4  -9  20    1.78    1.12
  -4  -9  19    0.99    0.99
  -4  -9  18    0.58    0.65
  -4  -9  17    0.39    0.77
   4   9 -15    2.99    2.11
   4   9 -14   -0.95    1.50
   4   9 -13    2.92    1.68
  -4  -9  13    0.64    1.06
   4   9 -12    0.83    1.48
  -4  -9  12    0.04    0.42
   4   9 -11    0.92    1.42
  -4  -9  11    0.78    1.09
   4   9 -10    0.12    1.37
  -4  -9  10    0.34    1.06
   4   9  -9   -1.29    1.42
  -4  -9   9   -0.71    0.98
   4   9  -8    1.10    1.32
  -4  -9   8   -1.80    1.03
   4   9  -7    0.39    1.28
  -4  -9   7    0.70    0.63
   4   9  -6    1.77    1.24
  -4  -9   6   -0.17    1.07
   4   9  -5    1.36    1.16
  -4  -9   5    0.52    0.84
   4   9  -4    0.64    1.07
  -4  -9   4    2.44    0.58
   4   9  -3    0.74    1.03
  -4  -9   3    1.07    0.62
   4   9  -2    0.45    0.93
  -4  -9   2    0.33    0.76
   4   9  -1   -0.01    1.01
  -4  -9   1    1.87    1.07
   4   9   0    1.25    1.09
  -4  -9   0   -0.27    1.23
   4   9   1    1.33    1.04
  -4  -9  -1    0.85    0.75
   4   9   2    0.90    1.05
   4   9   3    0.18    0.94
   4   9   3   -1.14    1.45
   4   9   4    1.03    0.98
   4   9   4    1.50    1.65
   4   9   5   -0.42    0.81
   4   9   5    2.51    1.65
   4   9   6    1.44    0.96
   4   9   7    3.54    1.38
   4   9   8   -1.73    1.62
   4   9   9    0.74    1.30
   4   9  10    1.87    0.73
   4   9  11    0.03    1.43
   4   9  12    2.06    1.33
   4   9  13   -0.10    1.22
  -4 -10  20    1.03    0.88
  -4 -10  19    4.87    1.53
  -4 -10  18    4.64    1.60
  -4 -10  17    1.78    1.10
  -4 -10  16    4.27    1.10
   4  10 -15    0.38    0.77
   4  10 -14    2.64    1.64
   4  10 -13    0.71    1.49
   4  10 -12   13.20    2.68
  -4 -10  12   11.61    2.64
   4  10 -11   16.65    2.67
  -4 -10  11   10.23    1.76
   4  10 -10   40.11    4.29
  -4 -10  10   37.11    3.48
   4  10  -9    6.88    2.02
  -4 -10   9    3.82    1.20
   4  10  -8    8.28    1.74
  -4 -10   8    6.64    1.41
   4  10  -7    9.05    1.75
  -4 -10   7    7.52    1.84
   4  10  -6   26.11    2.93
  -4 -10   6   21.99    2.71
   4  10  -5   19.44    2.48
  -4 -10   5   18.60    3.77
   4  10  -4   23.76    2.71
  -4 -10   4   15.23    3.39
   4  10  -3   38.68    3.02
  -4 -10   3   32.35    8.59
   4  10  -2   32.86    2.89
  -4 -10   2   22.88    6.08
   4  10  -1   44.10    2.99
  -4 -10   1   32.93    8.22
   4  10   0   35.73    2.80
  -4 -10   0   25.80    5.83
   4  10   1   10.88    1.90
  -4 -10  -1    6.01    1.40
   4  10   2   44.74    4.13
   4  10   3   18.03    2.47
   4  10   3   18.94    4.05
   4  10   4   12.79    1.75
   4  10   4   15.03    2.92
   4  10   5   23.66    4.63
   4  10   6   23.99    5.47
   4  10   7   36.28    7.70
   4  10   8   13.96    3.48
   4  10   9   60.58   14.79
   4  10  10    4.52    2.14
   4  10  11   25.28    8.83
   4  10  12   11.11    3.73
  -4 -11  20   -1.02    1.62
  -4 -11  19    0.97    0.67
  -4 -11  18   -0.06    1.61
  -4 -11  17    1.80    1.01
  -4 -11  16   -0.37    1.47
   4  11 -15   -0.41    1.62
   4  11 -14    1.30    0.85
   4  11 -13   -0.59    1.44
   4  11 -12    3.14    1.68
   4  11 -11    0.43    1.36
  -4 -11  11    0.08    1.05
   4  11 -10    1.18    1.55
  -4 -11  10    0.96    1.16
   4  11  -9    0.36    1.30
  -4 -11   9    1.87    1.56
   4  11  -8   -0.45    1.35
  -4 -11   8    2.72    0.79
   4  11  -7    0.33    1.32
  -4 -11   7    1.57    0.65
   4  11  -6    1.73    1.39
  -4 -11   6   -0.24    1.04
   4  11  -5   -0.17    1.09
  -4 -11   5    1.35    0.54
   4  11  -4    0.82    1.27
  -4 -11   4    0.18    0.66
   4  11  -3   -0.21    1.04
  -4 -11   3   -0.22    1.09
   4  11  -2   -0.92    1.00
  -4 -11   2    1.61    1.13
   4  11  -1   -0.12    0.96
  -4 -11   1   -0.05    1.26
   4  11   0    1.44    1.18
  -4 -11   0    1.34    1.03
   4  11   1    0.02    1.05
  -4 -11  -1    0.71    0.89
   4  11   2    1.12    1.16
  -4 -11  -2    1.99    1.26
   4  11   3    0.70    1.59
   4  11   4   -2.06    1.58
   4  11   5    1.26    0.81
   4  11   6    0.82    1.01
   4  11   7   -1.05    1.66
   4  11   8    0.12    1.24
   4  11   9    1.79    2.09
   4  11  10    3.58    1.35
   4  11  11    0.77    1.89
  -4 -12  19    1.83    0.77
  -4 -12  18    1.65    0.82
  -4 -12  17    0.72    1.20
  -4 -12  16    3.35    1.48
  -4 -12  15    2.47    1.36
   4  12 -14    1.41    0.96
   4  12 -13   26.60    3.50
   4  12 -12    9.75    2.59
   4  12 -11   10.26    2.50
   4  12 -10    0.05    1.55
  -4 -12  10    2.40    1.52
   4  12  -9   30.51    3.80
  -4 -12   9   14.60    4.67
   4  12  -8    4.05    1.84
  -4 -12   8    4.05    1.49
   4  12  -7    0.30    1.41
  -4 -12   7    1.34    0.65
   4  12  -6    3.69    1.81
  -4 -12   6    2.51    0.95
   4  12  -5    2.27    1.27
  -4 -12   5    0.13    0.90
   4  12  -4    4.69    1.43
  -4 -12   4    2.53    1.17
   4  12  -3    0.66    1.07
  -4 -12   3    1.77    0.55
   4  12  -2   14.96    2.21
  -4 -12   2   11.12    2.52
   4  12  -1   45.09    3.39
  -4 -12   1   35.13    6.55
   4  12   0   39.33    3.05
  -4 -12   0   29.44    7.50
   4  12   1   10.00    1.94
  -4 -12  -1    8.20    2.25
  -4 -12  -2   -0.39    1.44
   4  12   3    2.56    1.91
   4  12   4   71.67   13.63
   4  12   5   11.24    2.69
   4  12   6   26.78    7.68
   4  12   7   12.18    3.55
   4  12   8   61.82   20.75
   4  12   9   50.69   20.19
  -4 -13  19   -0.88    1.87
  -4 -13  18    0.32    0.93
  -4 -13  17   -0.66    1.63
  -4 -13  16    2.39    1.28
  -4 -13  15   -1.10    1.63
  -4 -13  14   -1.92    1.79
   4  13 -13   -1.07    1.67
   4  13 -12   -0.06    1.40
   4  13 -11   -0.02    1.63
   4  13 -10    1.96    1.69
   4  13  -9    1.23    1.48
  -4 -13   8    1.85    1.00
   4  13  -7   -0.26    1.29
  -4 -13   7    1.74    0.84
   4  13  -6   -1.50    1.14
  -4 -13   6   -0.57    1.04
   4  13  -5   -0.47    1.07
  -4 -13   5   -0.11    1.01
   4  13  -4    1.09    1.31
  -4 -13   4    1.62    0.78
   4  13  -3   -0.26    1.06
  -4 -13   3    1.25    0.93
   4  13  -2   -0.26    1.03
  -4 -13   2   -0.24    1.24
   4  13  -1    0.25    1.00
  -4 -13   1    0.27    0.91
  -4 -13   0   -0.56    1.19
  -4 -13  -1    0.42    0.90
  -4 -13  -2    0.43    1.46
  -4 -13  -3    1.43    1.13
   4  13   4    2.39    2.03
   4  13   5   -1.06    1.80
   4  13   6   -0.21    1.79
   4  13   7    0.26    1.79
   4  13   8   -0.05    1.92
  -4 -14  17    3.73    1.36
  -4 -14  16   21.22    8.27
  -4 -14  15    1.11    1.84
  -4 -14  14   -0.89    1.60
  -4 -14  13    2.76    1.32
   4  14 -12   -0.68    1.69
   4  14 -11    0.86    1.50
   4  14 -10    4.04    1.83
   4  14  -9   13.16    2.97
   4  14  -8   11.06    2.46
   4  14  -7    0.79    1.50
   4  14  -6    1.43    1.53
  -4 -14   6    1.58    0.74
   4  14  -5    1.40    1.43
  -4 -14   5   -1.09    1.13
   4  14  -4   -0.60    1.11
  -4 -14   4   -0.05    1.11
   4  14  -3    1.85    1.32
  -4 -14   3    1.31    1.28
  -4 -14   2    2.63    1.04
  -4 -14   1    1.80    1.13
  -4 -14   0    5.41    2.10
  -4 -14  -1   -0.51    1.46
  -4 -14  -2    4.98    2.23
  -4 -14  -3    0.90    0.65
  -4 -14  -4    2.96    1.60
   4  14   5   47.22   11.76
   4  14   6   15.57    4.65
  -4 -15  16   -1.00    1.75
  -4 -15  14   -2.04    1.61
  -4 -15  13    1.24    0.98
  -4 -15  12   -0.55    1.65
   4  15 -11   -2.28    1.41
   4  15 -10    1.14    0.66
   4  15  -9    0.37    1.55
   4  15  -8   -0.21    1.53
   4  15  -7    1.34    1.54
   4  15  -6    1.62    1.57
  -4 -15   3    0.43    0.56
  -4 -15   2   -2.51    1.42
  -4 -15   1    1.16    0.93
  -4 -15   0    0.96    0.73
  -4 -15  -1   -0.47    1.51
   5 -18   1    8.06    2.74
   5 -18   2   30.82   10.72
   5 -18   3   47.87   19.09
   5 -18   4    3.05    1.68
  -5  18  -6    8.84    3.50
  -5  18  -7    2.10    1.91
  -5  18  -8   -1.26    1.76
  -5  18  -9    4.06    2.12
  -5  18 -10   -1.80    1.74
  -5  18 -11    1.29    1.82
   5 -17  -2    2.79    1.26
   5 -17  -1    1.39    1.17
   5 -17   0    1.64    1.07
   5 -17   1   -0.55    1.58
   5 -17   2    1.61    0.87
   5 -17   3    0.32    0.80
   5 -17   4    2.77    1.52
  -5  17  -5    1.29    1.82
  -5  17  -6    2.86    2.01
  -5  17  -7    2.54    1.95
  -5  17  -8    2.79    2.66
  -5  17  -9    1.07    1.08
  -5  17 -10    3.33    1.89
  -5  17 -11    2.20    1.82
  -5  17 -12    0.05    1.79
  -5  17 -13    2.19    2.00
  -5  17 -14    0.43    1.84
   5 -16  -5   21.01    5.89
   5 -16  -4    2.92    1.38
   5 -16  -3    1.13    0.73
   5 -16  -2   -0.79    1.53
   5 -16  -1   15.66    3.09
   5 -16   0   16.06    3.52
   5 -16   1   16.37    5.01
   5 -16   2  113.28   37.28
   5 -16   3   46.55   11.68
  -5  16  -4    1.50    1.79
  -5  16  -5   17.07    3.58
  -5  16  -6   21.59    3.90
  -5  16  -7   19.23    4.16
  -5  16  -8    8.64    2.72
  -5  16  -9    2.03    1.88
   5 -16  10    7.05    2.24
  -5  16 -10    9.44    2.99
   5 -16  11    5.26    1.67
  -5  16 -11    5.44    2.85
   5 -16  12   11.41    6.21
  -5  16 -12   11.34    3.56
   5 -16  13   -0.09    1.51
  -5  16 -13    4.44    2.68
   5 -16  14    0.90    1.13
  -5  16 -14    2.13    1.98
   5 -16  15    2.77    1.73
  -5  16 -15   -0.48    1.86
  -5  16 -16    1.54    1.94
   5 -15  -7    0.94    1.24
   5 -15  -6   -1.42    1.90
   5 -15  -5    2.15    1.61
   5 -15  -4   -0.79    1.70
  -5  15   4    2.45    1.64
   5 -15  -3    1.77    0.71
  -5  15   3    2.03    1.58
   5 -15  -2   -0.89    1.43
   5 -15  -1   -1.49    1.43
   5 -15   0    3.42    1.20
   5 -15   1    1.70    0.68
   5 -15   2   -0.59    1.43
  -5  15  -3    1.93    1.65
  -5  15  -4    0.61    1.50
  -5  15  -5    3.32    2.24
  -5  15  -6    2.59    1.83
   5 -15   7    0.18    1.36
  -5  15  -7    2.93    1.62
   5 -15   8   -0.24    1.25
  -5  15  -8   -0.52    1.44
   5 -15   9    0.84    0.65
  -5  15  -9    0.69    1.59
   5 -15  10    1.03    1.09
  -5  15 -10    1.41    1.65
   5 -15  11    2.12    1.12
  -5  15 -11   -0.50    1.51
   5 -15  12    1.68    0.79
  -5  15 -12   -0.43    1.60
   5 -15  13    1.41    1.70
  -5  15 -13    1.58    1.04
   5 -15  14    1.38    1.01
  -5  15 -14    1.78    1.87
   5 -15  15   -0.77    1.78
  -5  15 -15    1.07    0.93
   5 -15  16    1.18    1.28
  -5  15 -16    1.75    1.87
   5 -15  17   -0.38    0.74
  -5  15 -17    0.46    1.81
   5 -14  -9    0.45    2.12
   5 -14  -8    2.40    2.78
  -5  14   8    0.90    0.71
   5 -14  -7   23.21    8.18
  -5  14   7   16.78    7.14
   5 -14  -6    8.86    3.08
  -5  14   6    6.19    1.95
   5 -14  -5    0.13    1.05
  -5  14   5   -0.20    1.36
   5 -14  -4    0.47    1.01
  -5  14   4    0.96    1.38
   5 -14  -3   -0.81    1.53
  -5  14   3    0.68    1.29
   5 -14  -2    1.34    1.20
  -5  14   2    0.63    1.28
   5 -14  -1   29.07    5.31
  -5  14   1   26.52    2.89
   5 -14   0    1.59    0.83
  -5  14   0    2.65    1.62
   5 -14   1   31.42    4.87
  -5  14  -1   26.02    2.54
  -5  14  -3    5.85    2.65
  -5  14  -4    1.15    1.50
   5 -14   5    3.62    1.67
  -5  14  -5    2.04    1.55
   5 -14   6   28.13    2.92
  -5  14  -6   21.26    3.06
   5 -14   7   38.81    3.50
  -5  14  -7   34.69    3.65
   5 -14   8    2.69    1.00
  -5  14  -8    5.69    1.95
   5 -14   9   26.58    6.84
  -5  14  -9   21.88    2.93
   5 -14  10   16.01    2.96
  -5  14 -10    7.89    2.46
   5 -14  11   -1.02    1.55
  -5  14 -11    0.50    1.56
   5 -14  12   14.90    3.61
  -5  14 -12   15.72    2.82
   5 -14  13   46.91   13.84
  -5  14 -13   31.69    7.45
   5 -14  14    1.74    1.62
  -5  14 -14    1.83    1.73
   5 -14  15   -1.59    1.81
  -5  14 -15    4.18    2.31
   5 -14  16    3.06    1.41
  -5  14 -16    7.06    2.82
   5 -14  17    3.38    1.75
  -5  14 -17    4.18    2.69
   5 -14  18    8.79    3.42
  -5  14 -18    5.43    2.22
   5 -14  19    1.40    1.48
  -5  13  11   -1.03    2.26
   5 -13 -10    1.28    1.32
  -5  13  10   -0.58    1.93
   5 -13  -9   -0.35    1.87
  -5  13   9   -0.56    1.67
   5 -13  -8    3.17    2.07
  -5  13   8    2.20    1.71
   5 -13  -7   -0.20    1.63
  -5  13   7    1.45    1.71
   5 -13  -6    1.86    0.86
  -5  13   6    2.01    1.66
   5 -13  -5   -0.05    1.42
  -5  13   5    0.40    1.28
   5 -13  -4    0.23    1.03
  -5  13   4    1.26    1.35
   5 -13  -3    5.73    1.57
  -5  13   3    1.18    1.22
   5 -13  -2   -0.97    1.36
  -5  13   2    0.53    1.18
   5 -13  -1   -0.26    1.01
  -5  13   1    2.46    1.51
   5 -13   0    1.99    1.63
  -5  13   0    2.76    1.38
   5 -13   1    2.26    1.10
  -5  13  -1    0.37    0.75
  -5  13  -2   -0.71    1.31
  -5  13  -2    0.80    0.58
   5 -13   3   -0.02    1.01
  -5  13  -3    0.81    1.38
   5 -13   4    2.36    1.49
  -5  13  -4    0.38    1.30
   5 -13   5    1.12    1.34
  -5  13  -5    0.32    0.70
   5 -13   6    0.49    1.23
  -5  13  -6    0.97    1.49
   5 -13   7   -0.51    1.34
  -5  13  -7    1.37    1.48
   5 -13   8    0.58    0.96
  -5  13  -8    2.28    1.66
   5 -13   9   -1.01    1.27
  -5  13  -9   -0.96    1.44
   5 -13  10    0.07    1.03
  -5  13 -10    1.13    0.97
   5 -13  11   -2.36    1.48
  -5  13 -11    1.30    1.55
   5 -13  12    0.81    0.94
  -5  13 -12   -0.40    1.40
   5 -13  13    0.12    0.98
  -5  13 -13    0.82    1.39
   5 -13  14    1.01    0.90
  -5  13 -14    0.87    1.42
   5 -13  15   -0.86    1.78
  -5  13 -15   -0.57    1.48
   5 -13  16   -0.23    1.78
  -5  13 -16    0.57    1.69
   5 -13  17    1.30    1.43
  -5  13 -17   -1.50    1.68
   5 -13  18    0.44    1.21
  -5  13 -18    2.69    2.03
   5 -13  19    1.25    1.17
  -5  13 -19   -0.29    1.80
  -5  12  12   26.63    7.23
   5 -12 -11    3.21    2.04
  -5  12  11    3.13    2.13
   5 -12 -10   -1.41    1.65
  -5  12  10    0.08    1.88
   5 -12  -9    6.04    1.93
  -5  12   9    5.23    2.52
   5 -12  -8    7.96    2.47
  -5  12   8   12.93    3.11
   5 -12  -7    7.35    1.87
  -5  12   7    8.77    2.31
   5 -12  -6    2.38    1.01
  -5  12   6   -0.03    1.50
   5 -12  -5   10.79    2.50
  -5  12   5    7.06    2.06
   5 -12  -4    3.20    1.70
  -5  12   4    0.71    1.24
   5 -12  -3    1.91    0.93
  -5  12   3    0.58    1.17
   5 -12  -2    1.59    0.98
  -5  12   2   -0.09    1.10
   5 -12  -1   95.05   12.26
  -5  12   1   81.89    9.28
   5 -12   0   61.96   10.60
  -5  12   0   58.70    4.79
  -5  12  -1  177.75   12.04
  -5  12  -1  160.30   10.53
   5 -12   2   -0.60    0.93
  -5  12  -2    1.43    1.46
   5 -12   3    3.77    1.64
  -5  12  -3    3.12    1.71
  -5  12  -3    0.67    0.94
   5 -12   4   75.93    8.51
  -5  12  -4   58.55    5.17
   5 -12   5    0.83    1.16
  -5  12  -5    2.47    1.46
   5 -12   6   51.75    4.53
  -5  12  -6   34.79    3.92
   5 -12   7   14.82    2.12
  -5  12  -7    9.86    2.20
   5 -12   8    2.34    0.72
  -5  12  -8    3.93    1.80
   5 -12   9    9.43    2.57
  -5  12  -9    8.45    2.49
   5 -12  10    2.43    1.10
  -5  12 -10    4.37    0.94
   5 -12  11    3.16    1.06
  -5  12 -11    2.81    2.29
   5 -12  12   43.04    7.86
  -5  12 -12   32.21    3.78
   5 -12  13   66.83   14.06
  -5  12 -13   53.57    4.66
   5 -12  14   60.32   13.88
  -5  12 -14   55.44    4.64
   5 -12  15    2.78    1.61
  -5  12 -15    1.41    1.53
   5 -12  16    2.43    1.27
  -5  12 -16   -0.78    1.61
   5 -12  17   14.85    5.30
  -5  12 -17   17.12    3.43
   5 -12  18    1.69    1.23
  -5  12 -18    2.24    1.97
   5 -12  19    4.94    1.67
  -5  12 -19    2.54    1.76
   5 -12  20   10.39    3.84
  -5  11  14    1.22    1.92
   5 -11 -13   -1.83    2.12
  -5  11  13   -1.17    1.76
   5 -11 -12    0.06    1.70
  -5  11  12   -0.61    1.80
   5 -11 -11   -0.32    1.60
  -5  11  11    1.28    1.84
   5 -11 -10    2.04    1.53
  -5  11  10    0.71    1.74
   5 -11  -9    1.45    1.53
  -5  11   9    0.65    1.64
   5 -11  -8   -0.41    1.37
  -5  11   8   -0.04    1.54
   5 -11  -7   -1.12    1.40
  -5  11   7    2.35    1.60
   5 -11  -6    2.20    1.18
  -5  11   6    0.47    1.55
   5 -11  -5    3.35    1.31
  -5  11   5   -1.79    1.53
   5 -11  -4   -0.01    1.43
  -5  11   4   -0.03    1.41
   5 -11  -3    0.89    0.52
  -5  11   3    0.84    1.24
   5 -11  -2   -0.78    1.32
  -5  11   2    1.26    0.73
   5 -11  -1    2.71    1.35
  -5  11   1    1.79    0.99
   5 -11   0    0.72    0.88
  -5  11   0    0.74    1.03
   5 -11   1    0.39    0.96
  -5  11  -1    0.76    1.31
  -5  11  -1    1.17    1.04
   5 -11   2   -0.07    0.95
  -5  11  -2    0.52    1.22
  -5  11  -2    0.86    0.94
   5 -11   3   -0.45    1.02
  -5  11  -3    0.37    1.15
  -5  11  -3    2.26    1.31
   5 -11   4   -0.48    1.05
  -5  11  -4    2.32    1.83
  -5  11  -4   -0.40    0.75
   5 -11   5    1.36    1.21
  -5  11  -5    0.43    1.24
   5 -11   6    3.00    1.39
  -5  11  -6   -1.61    1.26
   5 -11   7    1.55    1.35
  -5  11  -7    1.42    1.26
   5 -11   8   -0.48    1.30
  -5  11  -8    1.51    0.74
   5 -11   9    0.97    1.01
  -5  11  -9    0.89    1.43
   5 -11  10   -1.34    1.52
  -5  11 -10    1.66    1.55
   5 -11  11    1.92    0.78
  -5  11 -11    0.42    1.42
   5 -11  12    1.84    1.21
  -5  11 -12    0.95    1.53
   5 -11  13    1.29    1.23
  -5  11 -13    3.62    1.78
   5 -11  14   -0.34    1.73
  -5  11 -14   -0.29    1.41
   5 -11  15    0.56    0.78
  -5  11 -15    1.02    1.43
   5 -11  16    2.82    0.99
  -5  11 -16    1.50    0.93
   5 -11  17    2.66    1.25
  -5  11 -17   -0.87    1.44
   5 -11  18    0.20    1.17
  -5  11 -18   -0.51    1.57
   5 -11  19    0.00    1.80
  -5  11 -19    1.38    2.29
   5 -11  20    4.17    2.36
  -5  11 -20    2.70    2.01
   5 -10 -14   -0.99    2.09
  -5  10  14    0.12    1.85
   5 -10 -13    1.98    1.80
  -5  10  13    4.59    2.81
   5 -10 -12    6.98    2.40
  -5  10  12    6.65    2.14
   5 -10 -11   -0.26    1.52
  -5  10  11   -0.83    1.56
   5 -10 -10   11.05    2.29
  -5  10  10    7.99    2.07
   5 -10  -9    1.29    1.53
  -5  10   9    1.50    1.57
   5 -10  -8   54.38    4.15
  -5  10   8   42.35    3.64
   5 -10  -7   24.66    4.78
  -5  10   7   21.32    8.44
   5 -10  -6   15.84    3.61
  -5  10   6   14.70    2.46
   5 -10  -5    1.03    0.72
  -5  10   5    2.11    1.62
   5 -10  -4   82.79   10.97
  -5  10   4   67.54    4.15
   5 -10  -3  105.76   13.39
  -5  10   3  103.17    4.79
   5 -10  -2  101.57   15.11
  -5  10   2   86.88    4.23
   5 -10  -1    0.30    0.44
   5 -10  -1    0.99    1.41
  -5  10   1   -1.07    1.09
   5 -10   0   39.23    3.76
  -5  10   0   30.74    2.53
   5 -10   1    5.63    1.45
  -5  10  -1    5.40    1.04
  -5  10  -1    4.65    1.28
   5 -10   2    5.34    1.05
  -5  10  -2    1.84    1.33
  -5  10  -2    3.48    1.26
   5 -10   3   31.61    2.49
  -5  10  -3   24.54    2.48
  -5  10  -3   27.59    2.05
   5 -10   4    0.40    1.17
  -5  10  -4    2.07    1.29
  -5  10  -4    0.77    0.70
   5 -10   5    5.13    1.59
  -5  10  -5    7.25    1.77
  -5  10  -5    5.68    0.99
   5 -10   6   52.86    5.64
  -5  10  -6   47.91    3.84
   5 -10   7    1.23    1.46
  -5  10  -7    1.12    0.72
   5 -10   8   69.76    4.21
  -5  10  -8   54.27    3.61
   5 -10   9    1.46    1.11
  -5  10  -9    1.80    1.39
   5 -10  10  137.95   13.00
  -5  10 -10  105.02    5.05
   5 -10  11   27.66    4.95
  -5  10 -11   17.92    2.72
   5 -10  12   14.54    2.52
  -5  10 -12   11.82    2.10
   5 -10  13   28.23    5.85
  -5  10 -13   20.81    8.15
   5 -10  14   24.52    6.10
  -5  10 -14   22.92    2.84
   5 -10  15   18.84    5.10
  -5  10 -15   11.65    3.19
   5 -10  16    9.57    2.28
  -5  10 -16    5.98    1.78
   5 -10  17    9.06    2.79
  -5  10 -17    9.18    2.13
   5 -10  18    4.20    2.02
  -5  10 -18   -1.12    1.71
   5 -10  19    1.64    2.08
  -5  10 -19    1.77    1.94
   5 -10  20    0.44    2.11
  -5  10 -20    0.28    1.96
   5  -9 -15    2.17    2.75
  -5   9  15   -2.06    1.84
   5  -9 -14    1.79    1.14
  -5   9  14    3.36    2.00
   5  -9 -13   -0.33    1.60
  -5   9  13    1.08    1.78
   5  -9 -12    0.75    2.26
  -5   9  12    1.91    1.81
   5  -9 -11   -0.13    1.52
  -5   9  11   -0.27    1.62
   5  -9 -10    0.69    1.53
  -5   9  10    3.25    2.34
   5  -9  -9   -1.45    1.49
  -5   9   9    0.77    1.69
   5  -9  -8   -1.27    1.48
  -5   9   8   -0.19    1.59
  -5   9   7    0.29    1.45
   5  -9  -6    0.23    0.79
  -5   9   6    1.36    1.53
   5  -9  -5    1.54    0.88
  -5   9   5   -0.17    1.38
   5  -9  -4   -0.32    1.17
  -5   9   4    1.65    1.35
   5  -9  -3    0.61    0.67
  -5   9   3    1.42    1.42
   5  -9  -2    0.91    0.70
   5  -9  -2    1.71    0.76
  -5   9   2    1.02    1.20
   5  -9  -1    1.54    1.18
   5  -9  -1    0.75    0.57
  -5   9   1   -0.21    1.03
   5  -9   0   -0.06    0.80
  -5   9   0    0.73    1.16
  -5   9   0    1.70    1.05
   5  -9   1   -0.43    0.89
  -5   9  -1    0.56    1.19
  -5   9  -1    0.46    0.97
   5  -9   2    0.98    0.54
  -5   9  -2    0.60    1.19
  -5   9  -2    0.11    0.83
   5  -9   3   -0.85    1.17
  -5   9  -3   -1.00    1.20
  -5   9  -3    0.93    1.11
   5  -9   4   -1.66    1.26
  -5   9  -4   -0.02    1.32
  -5   9  -4   -0.23    0.77
   5  -9   5   -0.17    1.19
  -5   9  -5   -0.16    1.26
  -5   9  -5   -0.34    0.68
   5  -9   6    1.09    1.33
  -5   9  -6    0.58    0.81
  -5   9  -6    0.47    0.60
   5  -9   7    2.44    1.53
  -5   9  -7    0.77    1.12
   5  -9   8   -0.14    1.38
  -5   9  -8    1.17    1.17
   5  -9   9    0.87    1.57
  -5   9  -9    2.15    1.28
   5  -9  10   -0.53    1.67
  -5   9 -10    0.69    1.29
   5  -9  11    2.78    1.82
  -5   9 -11    1.82    1.83
   5  -9  12    3.55    1.93
  -5   9 -12    0.82    0.76
   5  -9  13    2.19    1.83
  -5   9 -13    1.39    1.28
   5  -9  14   -0.84    1.62
  -5   9 -14   -1.38    1.39
   5  -9  15   -0.84    1.60
  -5   9 -15    0.97    1.56
   5  -9  16    2.20    1.71
  -5   9 -16    2.09    1.49
   5  -9  17   -0.03    1.61
  -5   9 -17   -0.32    1.32
   5  -9  18    0.21    1.82
  -5   9 -18    1.00    1.71
   5  -9  19   -0.87    1.72
  -5   9 -19    0.98    1.65
   5  -9  20    1.04    1.83
  -5   9 -20    0.46    1.86
  -5   8  16   -3.02    1.82
   5  -8 -15   13.67    4.48
  -5   8  15    7.64    3.03
   5  -8 -14   26.27    6.61
  -5   8  14   16.81    3.55
   5  -8 -13    3.11    1.91
  -5   8  13    2.48    1.92
   5  -8 -12    9.94    2.43
  -5   8  12    5.93    2.29
   5  -8 -11    0.53    0.87
  -5   8  11   -0.58    1.54
   5  -8 -10    7.39    1.50
  -5   8  10    5.47    2.22
   5  -8  -9   15.56    3.93
  -5   8   9   12.66    2.58
   5  -8  -8   40.89    8.73
  -5   8   8   41.71    4.10
   5  -8  -7   26.91    4.10
  -5   8   7   23.90    2.60
   5  -8  -6    7.18    1.21
  -5   8   6    9.18    2.83
   5  -8  -5   36.06    3.71
  -5   8   5   34.14    3.05
   5  -8  -4   64.25    8.45
  -5   8   4   61.26   13.49
   5  -8  -3   22.64    3.62
   5  -8  -3   28.59    4.67
  -5   8   3   25.84    2.66
   5  -8  -2  105.91    3.94
   5  -8  -2  103.93    9.56
  -5   8   2  102.24    4.93
   5  -8  -1    4.95    1.05
   5  -8  -1    4.93    1.17
  -5   8   1    4.61    1.42
   5  -8   0   30.29    5.49
  -5   8   0   31.84    3.57
  -5   8   0   34.28    2.82
   5  -8   1   14.49    1.67
  -5   8  -1   10.97    1.62
  -5   8  -1   11.03    3.17
   5  -8   2   84.77    6.88
  -5   8  -2   56.02    6.74
  -5   8  -2   61.86    4.21
   5  -8   3  905.35   12.39
  -5   8  -3  765.54   11.12
  -5   8  -3  760.27    9.94
   5  -8   4  240.03    7.63
  -5   8  -4  193.15    6.61
  -5   8  -4  200.84    5.93
   5  -8   5   -0.87    1.36
  -5   8  -5    1.01    1.30
  -5   8  -5   -0.45    0.81
   5  -8   6   54.14   10.17
  -5   8  -6   35.84    2.65
  -5   8  -6   42.00    2.12
   5  -8   7   -1.00    1.55
  -5   8  -7   -0.25    1.16
  -5   8  -7    0.60    0.57
   5  -8   8    0.15    1.58
  -5   8  -8    1.27    1.30
   5  -8   9    1.14    1.82
  -5   8  -9   -0.15    1.10
   5  -8  10   31.74    3.16
  -5   8 -10   28.64    6.53
   5  -8  11  103.55    5.28
  -5   8 -11   81.18    6.26
   5  -8  12    2.27    1.80
  -5   8 -12    1.78    1.38
   5  -8  13    1.20    1.86
  -5   8 -13    0.51    1.34
   5  -8  14    0.71    1.73
  -5   8 -14    2.59    1.40
   5  -8  15   52.23    4.34
  -5   8 -15   36.58    3.66
   5  -8  16    0.91    1.29
  -5   8 -16    1.01    1.61
   5  -8  17    0.67    1.06
  -5   8 -17   -0.42    1.34
   5  -8  18    0.64    1.72
  -5   8 -18    3.06    2.28
   5  -8  19    3.13    1.78
  -5   8 -19    3.18    1.73
   5  -8  20    1.93    1.82
  -5   8 -20    3.67    1.92
  -5   7  17    1.36    1.89
   5  -7 -16    0.48    1.82
  -5   7  16    1.00    1.79
   5  -7 -15    1.11    1.89
  -5   7  15    0.55    1.93
   5  -7 -14    0.62    1.71
  -5   7  14    2.89    2.03
   5  -7 -13    2.24    2.09
  -5   7  13    0.27    1.74
   5  -7 -12    0.36    1.38
  -5   7  12   -1.54    1.60
   5  -7 -11   -0.39    1.14
  -5   7  11   -0.35    1.55
   5  -7 -10    0.02    1.16
  -5   7  10    3.71    2.44
   5  -7  -9    0.46    1.20
  -5   7   9    1.46    1.62
   5  -7  -8    0.78    1.15
  -5   7   8    4.51    2.16
   5  -7  -7    0.76    0.53
  -5   7   7    1.65    2.01
   5  -7  -6   -0.85    1.07
  -5   7   6    1.83    1.96
   5  -7  -5   -0.12    0.95
  -5   7   5    3.40    1.93
   5  -7  -4    1.02    0.86
  -5   7   4    0.59    1.39
   5  -7  -3   -0.11    0.43
   5  -7  -3    1.24    0.52
  -5   7   3    0.74    1.26
   5  -7  -2   -0.12    0.67
   5  -7  -2   -0.09    0.83
  -5   7   2    0.21    0.80
   5  -7  -1    0.34    0.63
   5  -7  -1   -0.14    0.86
  -5   7   1    1.19    1.11
   5  -7   0    0.63    0.95
  -5   7   0   -0.26    0.93
  -5   7   0    0.51    1.03
   5  -7   1    0.73    1.04
  -5   7  -1    0.50    0.98
  -5   7  -1    2.04    1.10
   5  -7   2   -0.14    1.12
  -5   7  -2   -0.37    1.06
  -5   7  -2    1.16    1.02
   5  -7   3    0.44    0.48
  -5   7  -3    2.92    1.89
  -5   7  -3    3.80    1.74
   5  -7   4   -0.62    1.30
  -5   7  -4    2.54    1.55
  -5   7  -4    0.52    0.88
   5  -7   5   -0.98    1.21
  -5   7  -5   -0.09    0.92
  -5   7  -5   -0.41    0.73
   5  -7   6    0.45    1.30
  -5   7  -6    0.93    0.97
  -5   7  -6    1.11    0.79
   5  -7   7    0.43    1.51
  -5   7  -7    0.97    1.33
  -5   7  -7    0.65    0.67
   5  -7   8    0.39    1.58
  -5   7  -8    0.50    0.99
   5  -7   9    0.59    1.72
  -5   7  -9    0.47    0.62
   5  -7  10   -1.14    1.58
  -5   7 -10    0.25    1.11
   5  -7  11   -0.95    1.71
  -5   7 -11   -0.71    1.15
   5  -7  12    0.31    1.68
  -5   7 -12   -0.44    1.02
   5  -7  13   -0.33    1.60
  -5   7 -13    0.04    1.18
   5  -7  14   -0.05    1.67
  -5   7 -14    1.01    1.26
   5  -7  15   -1.06    1.66
  -5   7 -15   -0.53    1.08
   5  -7  16    1.91    1.81
  -5   7 -16    0.64    1.50
  -5   7 -17   -0.16    1.44
   5  -7  18    2.19    0.89
  -5   7 -18    1.47    1.59
   5  -7  19   -0.07    1.64
  -5   7 -19    1.25    1.70
   5  -7  20    0.84    1.79
  -5   7 -20    1.30    1.66
   5  -6 -17   11.61    3.94
  -5   6  17    9.05    3.45
   5  -6 -16   26.50    4.19
  -5   6  16   17.77    3.66
   5  -6 -15    5.09    1.70
  -5   6  15    5.00    2.01
   5  -6 -14    2.34    1.58
  -5   6  14    0.21    1.31
   5  -6 -13    3.26    1.60
  -5   6  13   -0.23    1.59
   5  -6 -12   -0.41    1.24
  -5   6  12    2.96    1.97
   5  -6 -11   10.95    2.03
  -5   6  11    6.03    1.95
   5  -6 -10    1.79    0.82
  -5   6  10    0.50    1.59
   5  -6  -9   17.54    3.63
  -5   6   9   18.12    2.71
   5  -6  -8    2.01    1.72
  -5   6   8    5.10    1.95
   5  -6  -7    2.14    1.53
  -5   6   7    1.18    1.51
   5  -6  -6    6.31    1.06
   5  -6  -6    7.46    1.23
  -5   6   6    9.76    2.34
   5  -6  -5    0.39    0.56
   5  -6  -5    1.63    0.59
  -5   6   5    1.02    1.36
   5  -6  -4  227.01    6.03
   5  -6  -4  188.70    6.53
  -5   6   4  233.29    6.70
   5  -6  -3  108.88    3.45
   5  -6  -3   91.58    4.77
  -5   6   3  112.48    4.51
   5  -6  -2   17.76    2.83
   5  -6  -2   17.49    2.76
  -5   6   2   14.41    1.98
   5  -6  -1   36.89    2.46
   5  -6  -1   28.21    4.04
  -5   6   1   31.03    2.42
   5  -6   0  242.76    8.62
  -5   6   0  205.43    7.43
  -5   6   0  224.27    8.11
   5  -6   1   15.13    1.92
  -5   6  -1   10.73    1.45
  -5   6  -1   15.08    1.82
   5  -6   2  551.29   16.87
  -5   6  -2  485.12   14.98
  -5   6  -2  541.06   16.56
   5  -6   3 1126.59   32.19
  -5   6  -3  866.56   24.91
  -5   6  -3 1008.30  322.67
   5  -6   4  104.08    8.32
  -5   6  -4   92.38    4.50
  -5   6  -4  100.80    4.46
   5  -6   5    1.19    1.30
  -5   6  -5    1.30    1.31
  -5   6  -5   -0.16    0.76
   5  -6   6    1.15    1.37
  -5   6  -6    1.59    0.93
  -5   6  -6    0.20    0.41
   5  -6   7    3.70    1.37
  -5   6  -7    3.39    1.14
  -5   6  -7    3.01    0.72
   5  -6   8  137.76    5.66
  -5   6  -8  129.18    5.23
  -5   6  -8  116.32    3.83
   5  -6   9  151.45    7.68
  -5   6  -9  117.27    6.21
   5  -6  10    6.77    2.21
  -5   6 -10    3.91    1.15
   5  -6  11   27.19    4.57
  -5   6 -11   23.34    2.36
   5  -6  12   54.53    3.93
  -5   6 -12   44.86    3.37
   5  -6  13   12.78    1.97
  -5   6 -13   11.39    1.92
   5  -6  14    2.92    1.86
  -5   6 -14    3.06    1.70
   5  -6  15    5.77    1.83
  -5   6 -15    5.49    1.88
   5  -6  16    6.99    2.36
  -5   6 -16    5.92    2.15
   5  -6  17   -1.19    1.57
  -5   6 -17    3.24    1.76
   5  -6  18    1.81    1.92
  -5   6 -18    4.94    2.40
   5  -6  19    4.93    2.00
  -5   6 -19    2.82    1.79
  -5   6 -20    3.75    2.63
  -5   5  18   -2.11    1.65
   5  -5 -17    0.59    1.77
  -5   5  17    1.57    1.77
   5  -5 -16    1.54    1.87
  -5   5  16   -1.23    1.44
   5  -5 -15    2.69    2.33
  -5   5  15   -0.67    1.52
   5  -5 -14   -0.56    1.36
  -5   5  14    1.78    1.76
   5  -5 -13    2.33    0.96
  -5   5  13   -0.12    1.50
   5  -5 -12    0.20    0.90
  -5   5  12    1.23    1.60
   5  -5 -11    0.98    1.04
  -5   5  11    3.46    2.34
   5  -5 -10   -0.01    0.94
  -5   5  10    3.37    2.23
   5  -5  -9   -0.14    1.15
  -5   5   9    1.00    1.55
   5  -5  -8    0.85    1.12
  -5   5   8    1.33    1.60
   5  -5  -7    0.00    0.51
   5  -5  -7    1.04    0.40
  -5   5   7    1.11    0.70
   5  -5  -6    0.82    0.58
   5  -5  -6    0.98    0.62
  -5   5   6    0.32    1.37
   5  -5  -5    0.23    0.59
   5  -5  -5    0.23    0.43
  -5   5   5    1.92    1.49
   5  -5  -4   -0.26    0.62
   5  -5  -4    1.03    0.61
  -5   5   4   -0.54    1.37
   5  -5  -3    1.79    0.75
   5  -5  -3    0.46    0.58
  -5   5   3    1.49    1.34
   5  -5  -2    0.37    0.43
   5  -5  -2    0.56    0.46
  -5   5   2   -1.00    1.24
   5  -5  -1    1.22    0.68
   5  -5  -1   -0.67    0.64
  -5   5   1    0.08    1.11
   5  -5   0    0.89    0.52
  -5   5   0   -0.08    0.81
  -5   5   0    0.78    1.12
   5  -5   1   -0.62    1.05
  -5   5  -1   -1.19    0.86
  -5   5  -1    1.93    1.16
   5  -5   2    1.29    1.20
  -5   5  -2    0.38    0.93
  -5   5  -2   -0.04    1.03
   5  -5   3    1.20    1.20
  -5   5  -3    2.68    1.42
  -5   5  -3    2.21    1.28
   5  -5   4    1.19    1.25
  -5   5  -4    0.73    0.76
  -5   5  -4    0.51    0.79
   5  -5   5   -2.28    1.24
  -5   5  -5    0.19    0.70
  -5   5  -5    1.19    1.31
   5  -5   6   -1.49    1.26
  -5   5  -6   -0.96    0.77
  -5   5  -6   -1.12    0.78
   5  -5   7   -0.86    1.29
  -5   5  -7   -0.25    0.81
  -5   5  -7   -0.20    0.72
   5  -5   8    2.33    1.56
  -5   5  -8   -0.04    0.84
  -5   5  -8    0.57    0.71
   5  -5   9   -0.21    1.46
  -5   5  -9    0.57    0.94
  -5   5  -9    0.11    0.40
   5  -5  10    0.82    1.63
  -5   5 -10    0.94    1.07
  -5   5 -10    0.19    0.53
   5  -5  11    1.30    1.40
  -5   5 -11    0.33    1.12
   5  -5  12   -1.36    1.38
  -5   5 -12    1.64    1.23
   5  -5  13    2.18    1.63
  -5   5 -13    1.32    1.17
   5  -5  14    2.36    1.64
  -5   5 -14    3.14    1.75
   5  -5  15   -0.18    1.43
  -5   5 -15   -0.07    1.12
   5  -5  16    0.16    1.52
  -5   5 -16    1.43    1.38
   5  -5  17    0.94    1.42
  -5   5 -17    1.09    1.56
   5  -5  18    2.54    1.86
  -5   5 -18   -0.61    1.46
   5  -5  19    0.30    1.50
  -5   5 -19    1.08    1.74
   5  -4 -18   10.77    3.84
  -5   4  18    7.21    2.61
   5  -4 -17    0.52    1.74
  -5   4  17    3.92    1.87
   5  -4 -16   -2.17    1.56
  -5   4  16    3.23    1.68
   5  -4 -15   10.19    2.24
  -5   4  15    5.80    1.80
   5  -4 -14   16.56    2.58
  -5   4  14   14.85    2.76
   5  -4 -13    6.63    2.12
  -5   4  13    8.80    2.81
   5  -4 -12   11.97    2.79
  -5   4  12   13.85    2.52
   5  -4 -11    1.28    1.00
  -5   4  11   -0.22    1.50
   5  -4 -10    2.61    1.02
  -5   4  10    0.67    1.54
   5  -4  -9   64.00    4.49
  -5   4   9   58.88    4.67
   5  -4  -8    0.74    0.61
   5  -4  -8    2.31    0.92
  -5   4   8    1.17    1.60
   5  -4  -7   49.64    2.46
   5  -4  -7   48.41    2.70
  -5   4   7   46.20    3.29
   5  -4  -6   86.53    3.14
   5  -4  -6   78.48    3.31
  -5   4   6   98.76    4.67
   5  -4  -5   21.58    1.81
   5  -4  -5   20.38    7.23
  -5   4   5   23.47    2.39
   5  -4  -4   19.30    1.90
   5  -4  -4   17.33    3.82
  -5   4   4   25.05    8.44
   5  -4  -3   12.20    2.21
   5  -4  -3   11.75    3.27
  -5   4   3   16.03    2.04
   5  -4  -2    2.20    0.63
   5  -4  -2    1.26    0.31
  -5   4   2    1.85    1.36
   5  -4  -1   25.91    2.15
   5  -4  -1   23.31    4.04
  -5   4   1   25.46    2.45
   5  -4   0   53.98    6.82
  -5   4   0   36.77    2.12
  -5   4   0   42.59    3.18
   5  -4   1  146.44    6.68
  -5   4  -1  121.71    5.28
  -5   4  -1  152.36    7.10
   5  -4   2   26.02    2.19
  -5   4  -2   19.94    1.66
  -5   4  -2   27.21    5.55
   5  -4   3   62.73    3.85
  -5   4  -3   44.75    2.39
  -5   4  -3   55.00    4.15
   5  -4   4    4.05    1.51
  -5   4  -4    3.02    1.21
  -5   4  -4    2.67    0.66
   5  -4   5   -0.03    1.16
  -5   4  -5    0.11    0.83
  -5   4  -5    3.65    1.37
   5  -4   6    9.88    1.64
  -5   4  -6    6.70    1.00
  -5   4  -6    9.10    1.28
   5  -4   7   22.05    4.64
  -5   4  -7   15.44    1.70
  -5   4  -7   13.44    1.47
   5  -4   8  110.09    8.50
  -5   4  -8   95.01    3.69
  -5   4  -8   82.44    3.12
   5  -4   9   31.62    2.77
  -5   4  -9   25.90    2.08
  -5   4  -9   23.80    1.81
   5  -4  10  125.63    6.72
  -5   4 -10  101.54    5.47
  -5   4 -10   69.98   11.88
   5  -4  11   11.59    1.98
  -5   4 -11    7.38    1.59
  -5   4 -11    5.74    1.49
   5  -4  12    7.55    1.76
  -5   4 -12    5.23    1.58
   5  -4  13  108.22    5.33
  -5   4 -13   96.81    4.96
   5  -4  14    7.29    1.91
  -5   4 -14   10.89    2.19
   5  -4  15    4.60    1.88
  -5   4 -15    4.08    1.86
   5  -4  16    3.63    1.60
  -5   4 -16   -0.08    1.24
   5  -4  17    0.00    1.24
  -5   4 -17    0.22    1.36
   5  -4  18    1.26    0.94
  -5   4 -18    0.17    1.34
  -5   4 -19   -0.56    1.58
   5  -3 -18    1.64    1.84
  -5   3  18    0.68    1.62
   5  -3 -17   -1.85    1.56
  -5   3  17   -0.99    1.42
   5  -3 -16   -0.22    1.63
  -5   3  16    0.33    1.48
   5  -3 -15    1.07    1.35
  -5   3  15   -0.07    1.53
   5  -3 -14    1.39    1.27
  -5   3  14    1.99    1.72
   5  -3 -13    0.43    0.78
  -5   3  13    0.68    1.64
   5  -3 -12   -0.43    1.16
  -5   3  12    0.89    1.50
   5  -3 -11    0.99    0.65
  -5   3  11    3.36    1.76
   5  -3 -10    0.89    0.69
   5  -3 -10    0.87    1.05
  -5   3  10   -1.39    1.49
   5  -3  -9    0.14    0.65
   5  -3  -9    0.32    0.92
  -5   3   9    0.63    1.52
   5  -3  -8    0.30    0.64
   5  -3  -8   -0.26    0.88
  -5   3   8    0.63    1.53
   5  -3  -7    0.19    0.61
   5  -3  -7   -0.24    0.71
  -5   3   7    0.79    1.55
   5  -3  -6    0.58    0.69
   5  -3  -6    0.85    0.68
  -5   3   6    1.58    1.57
   5  -3  -5   -0.40    0.67
   5  -3  -5    0.85    0.72
  -5   3   5    2.47    1.72
   5  -3  -4    0.37    0.77
   5  -3  -4    0.76    0.50
  -5   3   4    1.72    1.48
   5  -3  -3    0.43    0.90
  -5   3   3    1.38    1.39
   5  -3  -2   -0.18    0.81
   5  -3  -2   -0.35    0.46
  -5   3   2    2.20    1.43
   5  -3  -1   -0.37    0.91
   5  -3  -1    0.46    0.26
  -5   3   1    0.96    1.40
   5  -3   0    0.80    0.68
  -5   3   0    1.93    0.91
  -5   3   0    1.53    1.31
   5  -3   1   -0.44    1.00
  -5   3  -1    0.48    0.61
  -5   3  -1    1.56    1.19
   5  -3   2    0.05    1.01
  -5   3  -2    0.17    0.54
  -5   3  -2    1.88    1.29
   5  -3   3    1.29    1.14
  -5   3  -3    1.43    0.88
  -5   3  -3    1.16    1.10
   5  -3   4    2.34    0.87
  -5   3  -4    0.26    0.72
  -5   3  -4    0.03    0.96
   5  -3   5    4.17    1.79
  -5   3  -5    0.58    0.75
  -5   3  -5    1.36    1.30
   5  -3   6    0.27    1.20
  -5   3  -6    0.85    0.93
  -5   3  -6    2.58    1.29
   5  -3   7    0.54    0.76
  -5   3  -7    1.11    0.93
  -5   3  -7   -0.74    0.80
   5  -3   8    0.52    1.25
  -5   3  -8    0.51    0.96
  -5   3  -8    0.57    0.45
   5  -3   9    0.04    1.25
  -5   3  -9    0.37    0.86
  -5   3  -9   -0.50    0.66
   5  -3  10    0.80    0.67
  -5   3 -10   -0.04    0.89
  -5   3 -10   -0.28    0.61
   5  -3  11    0.74    0.78
  -5   3 -11    0.94    1.09
  -5   3 -11    0.56    0.39
   5  -3  12    0.20    0.88
  -5   3 -12    2.34    1.49
  -5   3 -12    0.21    0.52
   5  -3  13    1.28    1.25
  -5   3 -13    0.91    1.47
   5  -3  14    2.18    1.50
  -5   3 -14    1.69    1.31
  -5   3 -15    1.41    1.31
   5  -3  16    0.79    1.23
  -5   3 -16   -0.76    1.20
   5  -3  17    0.47    1.41
  -5   3 -17   -0.73    1.17
   5  -3  18    1.03    1.02
  -5   3 -18   -0.73    1.43
  -5   2  19    0.00    1.54
   5  -2 -18    1.28    1.65
  -5   2  18    1.85    1.75
   5  -2 -17    9.38    2.43
  -5   2  17    6.94    2.34
   5  -2 -16   31.31    3.42
  -5   2  16   20.74    3.15
   5  -2 -15    4.12    1.57
  -5   2  15    2.47    1.77
   5  -2 -14    4.84    1.47
  -5   2  14    6.47    2.65
   5  -2 -13   17.49    2.24
  -5   2  13   14.09    2.60
   5  -2 -12    7.35    2.18
  -5   2  12    9.84    2.25
   5  -2 -11   32.57    2.19
   5  -2 -11   32.97    3.51
  -5   2  11   31.26    3.04
   5  -2 -10    0.87    0.74
   5  -2 -10   -0.13    1.08
  -5   2  10    0.44    1.47
   5  -2  -9    4.81    1.04
   5  -2  -9    4.86    1.18
  -5   2   9    5.65    1.93
   5  -2  -8   10.36    1.49
   5  -2  -8    9.47    1.31
  -5   2   8    9.80    2.09
   5  -2  -7   20.51    1.82
   5  -2  -7   22.36    1.72
  -5   2   7   23.73    2.57
   5  -2  -6   16.46    1.56
   5  -2  -6   15.02    1.59
  -5   2   6   18.00    2.30
   5  -2  -5    0.97    0.85
   5  -2  -5    0.62    0.53
  -5   2   5    3.67    2.14
   5  -2  -4  174.92    7.57
   5  -2  -4  151.23    6.10
  -5   2   4  198.19    8.89
   5  -2  -3   88.78    4.60
   5  -2  -3   80.34    5.21
  -5   2   3   98.30    5.51
   5  -2  -2    7.11    1.35
   5  -2  -2    3.85    0.91
  -5   2   2    7.55    1.53
   5  -2  -1   79.83    4.42
   5  -2  -1   58.44    4.51
  -5   2   1   73.77    4.26
   5  -2   0   12.39    2.23
  -5   2   0   10.44    1.60
  -5   2   0    9.98    1.76
   5  -2   1   11.31    2.50
  -5   2  -1    6.12    0.86
  -5   2  -1   11.98    1.60
  -5   2  -2  200.29    7.63
  -5   2  -2  204.99    8.68
   5  -2   3    5.36    1.66
  -5   2  -3    2.34    0.51
  -5   2  -3    4.41    1.37
   5  -2   4   92.13    5.10
  -5   2  -4   77.71    3.69
  -5   2  -4   76.17    4.07
   5  -2   5  218.42    8.50
  -5   2  -5  181.78    6.84
  -5   2  -5  176.20    6.57
  -5   2  -6    7.26    1.10
  -5   2  -6    6.14    1.47
   5  -2   7   20.59    2.51
  -5   2  -7   13.13    1.41
  -5   2  -7   10.44    2.05
   5  -2   8    3.89    1.28
  -5   2  -8    2.61    0.76
  -5   2  -8    2.95    0.63
   5  -2   9  111.53    5.46
  -5   2  -9   91.66    4.12
  -5   2  -9   72.37    4.82
   5  -2  10    1.05    1.36
  -5   2 -10   -0.82    0.99
  -5   2 -10    0.64    0.56
   5  -2  11    0.36    1.37
  -5   2 -11    0.12    1.00
  -5   2 -11    0.87    0.55
   5  -2  12   36.53    3.17
  -5   2 -12   30.80    2.89
  -5   2 -12   18.73    4.36
   5  -2  13   20.59    2.63
  -5   2 -13   13.43    2.95
  -5   2 -13    7.30    2.03
   5  -2  14    1.05    1.33
  -5   2 -14    1.61    1.46
   5  -2  15   21.40    2.89
  -5   2 -15   19.16    2.61
   5  -2  16    0.03    1.21
  -5   2 -16   -0.99    1.24
   5  -2  17    9.90    2.23
  -5   2 -17    6.92    2.05
  -5   2 -18   12.83    2.45
  -5   1  19    2.25    2.26
   5  -1 -18    1.21    1.56
  -5   1  18    1.23    1.54
   5  -1 -17   -1.32    1.46
  -5   1  17    1.95    2.29
   5  -1 -16    1.56    1.42
  -5   1  16   -0.13    0.99
   5  -1 -15    0.56    1.22
  -5   1  15   -0.31    1.35
   5  -1 -14   -0.28    1.14
  -5   1  14    4.00    2.15
   5  -1 -13    0.28    0.73
   5  -1 -13    0.80    1.22
  -5   1  13    0.73    1.64
   5  -1 -12    0.06    0.46
   5  -1 -12    4.01    1.93
  -5   1  12    0.63    0.82
   5  -1 -11   -0.08    0.70
   5  -1 -11    0.97    1.04
  -5   1  11    3.11    2.21
   5  -1 -10   -0.58    0.73
   5  -1 -10    1.53    1.20
  -5   1  10    1.86    1.52
   5  -1  -9   -0.45    0.69
   5  -1  -9    0.08    0.85
  -5   1   9    1.55    1.52
   5  -1  -8    1.05    0.83
   5  -1  -8    0.41    0.81
  -5   1   8    2.03    1.52
   5  -1  -7    2.81    1.28
   5  -1  -7    0.91    1.23
  -5   1   7    5.00    1.53
   5  -1  -6   -0.15    0.83
  -5   1   6    3.46    1.67
   5  -1  -5    0.60    0.88
   5  -1  -5    0.04    0.41
  -5   1   5   -0.03    1.51
   5  -1  -4    0.27    0.40
   5  -1  -4   -0.06    0.36
  -5   1   4    2.40    1.23
   5  -1  -3    0.10    0.88
   5  -1  -3   -0.01    0.26
  -5   1   3    0.28    1.47
   5  -1  -2   -0.03    1.14
   5  -1  -2    0.54    0.36
  -5   1   2   -0.60    1.37
   5  -1  -1    1.82    1.00
   5  -1  -1   -0.10    0.23
  -5   1   1    0.94    1.30
   5  -1   0    0.08    0.98
  -5   1   0    0.14    1.03
   5  -1   1    0.18    0.63
  -5   1  -1    0.23    0.34
  -5   1  -1    5.02    1.71
   5  -1   2   -0.60    1.07
  -5   1  -2    0.10    0.30
  -5   1  -2    2.42    1.49
   5  -1   3    1.17    0.56
  -5   1  -3   -0.19    0.37
  -5   1  -3    0.68    0.74
   5  -1   4    1.45    1.12
  -5   1  -4   -0.02    0.43
  -5   1  -4    1.20    0.43
   5  -1   5    0.88    0.94
  -5   1  -5    0.76    0.79
  -5   1  -5    2.56    0.91
   5  -1   6    1.39    1.13
  -5   1  -6    1.36    1.07
  -5   1  -6   -0.29    0.84
   5  -1   7    0.95    1.11
  -5   1  -7    2.35    0.84
  -5   1  -7    2.57    0.60
   5  -1   8    0.20    1.04
  -5   1  -8    0.79    0.88
  -5   1  -8   -0.13    0.80
   5  -1   9    1.17    1.32
  -5   1  -9    0.55    0.54
  -5   1  -9    1.07    0.34
   5  -1  10   -0.06    0.98
  -5   1 -10   -0.36    0.91
  -5   1 -10    0.54    0.36
   5  -1  11   -0.41    1.20
  -5   1 -11    3.14    1.80
  -5   1 -11   -0.42    0.82
   5  -1  12   -0.79    1.15
  -5   1 -12    1.70    1.50
  -5   1 -12    0.58    0.39
   5  -1  13    0.21    0.71
  -5   1 -13    0.00    1.05
  -5   1 -13    1.08    0.79
   5  -1  14   -0.95    1.09
  -5   1 -14    2.26    2.11
  -5   1 -14    0.62    0.70
   5  -1  15    1.58    1.13
  -5   1 -15   -1.82    1.41
   5  -1  16    0.91    0.81
  -5   1 -16   -0.26    1.29
  -5   1 -17    3.79    2.27
  -5   0  19    3.59    1.76
   5   0 -18    0.46    1.49
  -5   0  18   -0.21    1.26
   5   0 -17   40.58    3.54
  -5   0  17   31.56    3.38
   5   0 -16    0.10    1.35
  -5   0  16    1.14    1.41
   5   0 -15    9.56    2.27
  -5   0  15    8.64    2.19
   5   0 -14   36.95    3.39
   5   0 -14   35.56    3.55
  -5   0  14   37.07    4.53
   5   0 -13   -0.39    0.80
   5   0 -13    2.77    0.65
  -5   0  13    0.65    1.45
   5   0 -12    9.83    1.69
   5   0 -12   13.61    1.93
  -5   0  12   12.09    2.44
   5   0 -11   25.85    2.14
   5   0 -11   27.42    2.35
  -5   0  11   26.79    3.01
   5   0 -10    3.44    1.29
   5   0 -10    1.99    0.94
  -5   0  10    4.23    1.83
   5   0  -9    0.92    0.94
   5   0  -9    1.67    0.83
  -5   0   9    1.37    1.42
   5   0  -8   10.94    1.82
   5   0  -8    9.89    1.32
  -5   0   8    9.98    2.08
   5   0  -7  501.56   15.52
   5   0  -7  485.55   14.11
  -5   0   7  538.14   17.16
   5   0  -6    5.79    1.33
   5   0  -6    3.54    0.99
  -5   0   6    4.79    1.80
   5   0  -5  294.51   11.73
   5   0  -5  259.52   10.42
  -5   0   5  290.17   12.01
   5   0  -4  165.24    7.38
  -5   0   4  163.34    7.84
   5   0  -3  158.14    7.12
  -5   0   3  163.92    7.61
   5   0  -2    4.47    1.45
  -5   0   2    6.29    1.75
   5   0  -1  262.39   11.67
  -5   0   1  249.59   10.33
   5   0   0    9.99    2.98
  -5   0   0    5.18    1.25
   5   0   1  305.41   12.21
  -5   0  -1  271.28   11.11
   5   0   2    2.82    0.99
  -5   0  -2    5.66    1.13
  -5   0  -3   36.20    1.63
  -5   0  -3   43.26    7.38
   5   0   4   10.82    1.56
  -5   0  -4    7.73    0.80
  -5   0  -4    7.97    1.28
   5   0   5   41.68    7.25
  -5   0  -5   31.84    1.67
  -5   0  -5   31.09    4.56
   5   0   6   33.24    2.63
  -5   0  -6   29.48    1.82
  -5   0  -6   21.01    3.92
   5   0   7  290.75    7.17
  -5   0  -7  257.02    5.10
  -5   0  -7  211.06    5.94
   5   0   8  173.09    6.82
  -5   0  -8  139.40    4.79
  -5   0  -8  122.85    5.26
   5   0   9   25.53    2.64
  -5   0  -9   25.45    2.18
  -5   0  -9   17.55    3.21
   5   0  10   20.03    2.47
  -5   0 -10   23.82    2.37
  -5   0 -10   17.33    2.82
   5   0  11    1.67    0.79
  -5   0 -11    1.75    1.45
  -5   0 -11   -0.16    0.88
   5   0  12    6.91    1.98
  -5   0 -12    3.59    1.04
   5   0  13    3.39    1.21
  -5   0 -13    2.53    1.24
  -5   0 -13    3.54    0.93
   5   0  14   30.94    6.49
  -5   0 -14   40.26    3.47
  -5   0 -14   13.47    5.07
   5   0  15   24.71    2.75
  -5   0 -15   17.79    2.52
  -5   0 -16    9.74    2.34
   5   1 -18    1.76    1.49
  -5  -1  18   -0.75    1.23
   5   1 -17   -0.02    1.32
  -5  -1  17    2.84    1.89
   5   1 -16    1.69    1.37
  -5  -1  16    0.67    1.29
   5   1 -15    0.28    0.95
   5   1 -15    3.16    1.66
  -5  -1  15    0.04    0.76
   5   1 -14    0.86    0.96
   5   1 -14    1.24    1.14
  -5  -1  14    0.70    0.86
   5   1 -13   -0.09    0.85
   5   1 -13   -0.40    0.90
  -5  -1  13   -1.21    1.31
   5   1 -12    0.30    0.80
   5   1 -12   -0.92    0.99
  -5  -1  12    0.93    1.42
   5   1 -11   -0.50    0.84
   5   1 -11    1.26    0.90
  -5  -1  11    4.60    2.08
   5   1 -10    1.60    1.04
   5   1 -10   -0.29    0.49
  -5  -1  10    0.34    1.42
   5   1  -9    1.30    1.03
   5   1  -9    0.27    0.38
  -5  -1   9    0.08    1.44
   5   1  -8    1.28    1.49
   5   1  -8    0.40    0.38
  -5  -1   8    1.71    1.57
   5   1  -7    1.05    1.21
   5   1  -7    0.41    0.55
  -5  -1   7    1.12    0.97
   5   1  -6    1.10    1.20
   5   1  -6    0.38    0.40
  -5  -1   6    1.37    1.52
  -5  -1   5   -1.32    1.41
   5   1  -4   -0.22    0.98
  -5  -1   4    0.93    1.47
   5   1  -3    0.73    0.53
  -5  -1   3   -0.84    1.28
   5   1  -2   -0.06    0.97
  -5  -1   2   -1.54    1.22
   5   1  -1   -0.35    0.97
  -5  -1   1    1.07    1.25
  -5  -1   0    0.51    1.06
   5   1   1    0.60    0.58
  -5  -1  -1   -0.16    1.03
   5   1   2   -0.66    1.03
  -5  -1  -2   -0.20    1.07
   5   1   3    0.63    0.53
  -5  -1  -3    1.97    0.70
   5   1   4    0.38    0.97
  -5  -1  -4    0.05    0.57
   5   1   5   -0.51    0.70
  -5  -1  -5    0.20    0.50
  -5  -1  -5   -0.90    1.07
   5   1   6   -0.26    1.12
  -5  -1  -6    0.50    0.64
  -5  -1  -6    2.44    1.13
  -5  -1  -7   -0.57    0.67
  -5  -1  -7   -0.46    0.96
   5   1   8    0.15    1.16
  -5  -1  -8    0.94    0.85
  -5  -1  -8    0.03    0.40
  -5  -1  -9   -0.83    0.85
  -5  -1  -9    1.31    0.59
   5   1  10    0.72    0.67
  -5  -1 -10    0.10    0.87
  -5  -1 -10    0.87    0.94
  -5  -1 -11    0.62    1.05
  -5  -1 -11   -0.46    0.91
   5   1  12    0.92    1.11
  -5  -1 -12    1.69    1.15
  -5  -1 -12    0.22    1.09
   5   1  13    0.88    1.27
  -5  -1 -13   -0.32    1.14
  -5  -1 -13    0.90    0.98
   5   1  14   -0.01    1.04
  -5  -1 -14    1.03    1.32
  -5  -1 -14   -0.38    1.01
   5   1  15    3.06    0.98
  -5  -1 -15    0.23    1.39
  -5  -1 -15   -0.78    1.08
  -5  -2  18    8.97    2.49
   5   2 -17    2.91    0.78
  -5  -2  17    6.03    1.88
   5   2 -16    3.03    1.54
   5   2 -16    0.70    0.42
  -5  -2  16    2.83    1.81
   5   2 -15    1.82    1.13
   5   2 -15    1.40    1.19
  -5  -2  15   -0.01    1.39
   5   2 -14    9.51    1.77
   5   2 -14    6.90    2.01
  -5  -2  14    9.90    5.59
   5   2 -13   17.03    2.10
   5   2 -13   14.25    3.26
  -5  -2  13   18.53    2.26
   5   2 -12    0.53    0.98
   5   2 -12    1.28    0.90
  -5  -2  12   -0.38    1.32
   5   2 -11    0.43    1.11
   5   2 -11    1.04    0.75
  -5  -2  11    0.61    1.42
   5   2 -10    3.68    1.09
   5   2 -10    2.01    0.62
  -5  -2  10    5.08    1.52
   5   2  -9   52.95    3.13
   5   2  -9   50.52    2.43
  -5  -2   9   61.55    4.20
   5   2  -8   19.91    2.17
   5   2  -8   14.47    2.67
  -5  -2   8   20.51    4.36
   5   2  -7  183.87    5.53
  -5  -2   7  192.95    5.95
   5   2  -6   91.57    3.98
  -5  -2   6   86.43    4.11
   5   2  -5   11.75    1.70
  -5  -2   5   12.30    2.25
   5   2  -4   54.49    3.03
  -5  -2   4   56.13    3.90
   5   2  -3    4.91    1.41
  -5  -2   3    6.06    1.83
   5   2  -2    8.75    1.86
  -5  -2   2    5.77    1.29
   5   2  -1  163.09    7.51
  -5  -2   1  148.21    7.01
   5   2   0   22.85    2.30
  -5  -2   0   20.29    5.17
   5   2   1   46.43    8.84
  -5  -2  -1   32.62    5.59
   5   2   2   12.98    2.74
  -5  -2  -2    9.27    1.92
   5   2   3  178.34   11.08
  -5  -2  -3  143.80   12.95
   5   2   4 1088.44   14.69
  -5  -2  -4  855.34   13.22
   5   2   5   12.92    2.40
  -5  -2  -5   11.55    1.06
  -5  -2  -5   11.43    2.01
   5   2   6    0.81    1.17
  -5  -2  -6    0.30    0.35
  -5  -2  -6    0.69    0.55
   5   2   7   10.07    1.81
  -5  -2  -7    9.24    1.34
  -5  -2  -7    7.43    1.44
   5   2   8   20.49    4.09
  -5  -2  -8   17.82    1.61
  -5  -2  -8   17.72    3.65
   5   2   9    8.33    2.08
  -5  -2  -9    9.06    2.27
  -5  -2  -9    9.09    1.87
   5   2  10   13.06    2.28
  -5  -2 -10    9.07    1.56
  -5  -2 -10    8.74    2.44
   5   2  11    0.84    1.23
  -5  -2 -11    0.90    1.09
  -5  -2 -11    1.22    1.23
   5   2  12   34.74    4.88
  -5  -2 -12   31.66    4.34
  -5  -2 -12   20.01    4.38
   5   2  13    1.98    1.11
  -5  -2 -13    0.61    1.15
  -5  -2 -13   -0.05    1.19
   5   2  14    2.39    1.13
  -5  -2 -14    1.29    1.72
  -5  -2 -14    0.97    0.92
  -5  -3  18   -0.46    1.28
  -5  -3  17   -0.21    1.06
   5   3 -16    0.71    1.25
   5   3 -16    0.64    1.15
  -5  -3  16    0.99    1.29
   5   3 -15   -0.11    1.07
   5   3 -15   -0.50    1.00
  -5  -3  15    0.27    1.30
   5   3 -14    1.51    1.10
   5   3 -14   -0.14    0.82
  -5  -3  14    0.32    1.26
   5   3 -13   -0.14    0.98
   5   3 -13    0.33    0.53
  -5  -3  13    0.23    1.24
   5   3 -12    1.36    1.11
   5   3 -12    0.39    0.79
  -5  -3  12    1.13    1.30
   5   3 -11    0.47    0.99
   5   3 -11    1.50    0.72
  -5  -3  11    1.38    1.42
   5   3 -10    0.66    0.96
   5   3 -10    0.30    0.32
  -5  -3  10    2.11    1.43
   5   3  -9    0.02    1.25
   5   3  -9    0.09    0.52
  -5  -3   9    1.53    1.50
   5   3  -8    1.35    1.27
  -5  -3   8    1.03    1.46
   5   3  -7    2.13    1.24
  -5  -3   7    2.57    1.51
   5   3  -6    0.88    1.14
  -5  -3   6    1.45    1.46
   5   3  -5    0.88    1.14
  -5  -3   5    0.23    1.26
   5   3  -4   -0.30    0.94
  -5  -3   4    0.59    1.22
   5   3  -3   -0.17    0.99
  -5  -3   3    1.46    1.37
   5   3  -2    0.81    1.03
  -5  -3   2    2.10    1.22
   5   3  -1    0.30    1.02
  -5  -3   1    0.60    0.94
   5   3   0    2.00    1.19
  -5  -3   0    0.46    0.73
   5   3   1    0.38    1.05
  -5  -3  -1    0.66    0.51
   5   3   2   -0.06    1.03
  -5  -3  -2   -0.60    1.29
   5   3   3    2.25    1.09
  -5  -3  -3    1.11    1.09
   5   3   4    2.21    1.45
  -5  -3  -4   -0.58    1.46
   5   3   5   -0.53    1.06
  -5  -3  -5   -0.66    1.24
   5   3   6   -0.87    1.00
  -5  -3  -6    0.71    0.78
   5   3   7    1.60    1.14
  -5  -3  -7    0.29    0.74
  -5  -3  -7   -0.76    1.12
   5   3   8    1.21    1.13
  -5  -3  -8    1.04    0.76
  -5  -3  -8    0.10    0.84
   5   3   9    1.25    1.03
  -5  -3  -9   -0.34    0.78
  -5  -3  -9   -0.76    1.05
   5   3  10   -0.43    1.03
  -5  -3 -10    0.45    0.50
  -5  -3 -10    0.54    1.24
   5   3  11    0.89    1.12
  -5  -3 -11    0.20    0.93
  -5  -3 -11   -0.68    1.16
   5   3  12    0.54    0.77
  -5  -3 -12    0.58    1.05
  -5  -3 -12    0.60    1.35
   5   3  13   -0.70    0.92
  -5  -3 -13    0.88    0.81
  -5  -3 -14   -1.13    1.24
  -5  -3 -15    0.20    0.78
  -5  -4  18    7.84    2.71
   5   4 -17    5.09    1.31
  -5  -4  17    2.74    2.75
   5   4 -16   -0.55    1.00
  -5  -4  16    1.64    1.96
   5   4 -15    2.79    1.32
   5   4 -15    1.32    0.97
  -5  -4  15    4.41    1.47
   5   4 -14    8.17    1.94
   5   4 -14    6.67    1.53
  -5  -4  14    8.23    1.90
   5   4 -13    0.89    1.22
   5   4 -13   -0.45    0.92
  -5  -4  13   -0.17    1.24
   5   4 -12    1.47    1.18
   5   4 -12    0.73    0.79
  -5  -4  12    2.01    1.36
   5   4 -11    2.01    1.14
  -5  -4  11    2.33    1.17
   5   4 -10   15.99    1.95
  -5  -4  10   14.23    2.54
   5   4  -9   71.05    4.59
  -5  -4   9   81.46    5.06
   5   4  -8   35.57    3.02
  -5  -4   8   34.25    5.82
   5   4  -7   10.42    1.83
  -5  -4   7    7.86    1.54
   5   4  -6   34.62    3.01
  -5  -4   6   29.06    2.62
   5   4  -5   58.05    3.42
  -5  -4   5   52.62    3.26
   5   4  -4   36.78    2.81
  -5  -4   4   37.72    2.83
   5   4  -3    3.98    1.47
  -5  -4   3    2.93    1.16
   5   4  -2   13.19    1.84
  -5  -4   2    9.93    1.88
   5   4  -1   84.74    4.06
  -5  -4   1   80.95    4.44
   5   4   0  224.96    6.47
  -5  -4   0  180.07    6.32
   5   4   1  346.26    7.83
  -5  -4  -1  276.73    7.54
   5   4   2   27.51    3.75
  -5  -4  -2   20.03    3.55
   5   4   3  742.57   17.18
  -5  -4  -3  554.76   19.45
   5   4   4  135.94    5.50
  -5  -4  -4  125.70    6.46
   5   4   5  127.95    6.46
  -5  -4  -5  105.10    6.20
   5   4   6    4.99    1.05
  -5  -4  -6    0.85    1.08
   5   4   7   30.34    4.21
  -5  -4  -7   21.32    5.08
   5   4   8   19.80    3.85
  -5  -4  -8   15.23    3.92
   5   4   9    3.64    1.57
  -5  -4  -9    2.81    1.30
   5   4  10   27.33    4.42
  -5  -4 -10   16.07    4.71
   5   4  11   21.85    3.36
  -5  -5  18   -0.10    1.18
   5   5 -17    0.28    1.12
   5   5 -16    2.45    1.67
  -5  -5  16   -0.41    1.24
   5   5 -15    1.18    1.21
  -5  -5  15    0.18    1.22
   5   5 -14    0.80    1.33
  -5  -5  14    1.31    1.23
   5   5 -13   -0.76    1.05
  -5  -5  13    1.63    1.30
   5   5 -12    1.14    1.15
   5   5 -11   -0.29    1.04
  -5  -5  11   -0.38    1.28
   5   5 -10   -0.86    1.35
  -5  -5  10    0.37    1.36
   5   5  -9    0.33    1.30
  -5  -5   9   -0.64    1.32
   5   5  -8    1.00    1.78
  -5  -5   8    2.24    1.87
   5   5  -7   -0.24    1.22
  -5  -5   7    1.26    1.31
   5   5  -6    0.27    1.19
  -5  -5   6   -0.34    1.19
   5   5  -5   -2.18    1.10
  -5  -5   5   -0.39    1.13
   5   5  -4    0.25    1.08
  -5  -5   4    0.82    1.26
   5   5  -3    0.34    1.08
  -5  -5   3    0.26    1.42
   5   5  -2    0.61    1.09
  -5  -5   2    2.10    0.91
   5   5  -1    0.05    1.08
  -5  -5   1   -0.06    1.22
   5   5   0    5.30    1.76
  -5  -5   0   -0.43    1.19
   5   5   1    2.74    1.30
  -5  -5  -1    0.62    0.71
   5   5   2    2.41    1.64
  -5  -5  -2   -0.49    1.40
   5   5   3    1.90    1.21
  -5  -5  -3    0.87    1.25
   5   5   4    0.07    1.07
  -5  -5  -4    2.73    1.43
   5   5   5    0.74    0.62
  -5  -5  -5    0.60    0.73
   5   5   6    0.38    0.94
  -5  -5  -6    1.75    0.61
   5   5   7    1.17    1.08
  -5  -5  -7    0.75    0.69
   5   5   8    1.86    1.16
  -5  -5  -8    1.98    1.31
   5   5   9    0.74    1.14
  -5  -5  -9    0.90    1.56
   5   5  10    1.22    1.17
   5   5  11    1.70    0.77
   5   5  12    0.41    0.77
   5   5  13    0.40    1.08
   5   5  14   -1.63    1.40
  -5  -6  19    2.53    1.09
  -5  -6  18   -0.48    1.25
   5   6 -17    0.95    1.42
   5   6 -16    5.22    1.77
  -5  -6  16    1.27    1.30
   5   6 -15    0.38    1.18
  -5  -6  15    1.66    1.45
   5   6 -14   15.75    2.52
  -5  -6  14   15.80    2.53
   5   6 -13   26.36    2.96
  -5  -6  13   21.76    3.78
   5   6 -12    0.37    1.37
  -5  -6  12    0.76    1.28
   5   6 -11   26.35    4.21
  -5  -6  11   28.00    4.79
   5   6 -10  120.42    5.43
  -5  -6  10  108.45    5.33
   5   6  -9  126.06    7.29
  -5  -6   9  123.36    7.05
   5   6  -8   15.99    2.41
  -5  -6   8    9.56    1.64
   5   6  -7   47.93    3.42
  -5  -6   7   49.44    3.86
   5   6  -6   50.24   27.87
  -5  -6   6   42.04    3.18
   5   6  -5    5.61    1.65
  -5  -6   5    7.51    1.97
   5   6  -4    1.00    1.21
  -5  -6   4    1.54    0.57
   5   6  -3   29.22    2.62
  -5  -6   3   24.39    4.22
   5   6  -2    1.41    1.01
  -5  -6   2    2.12    0.57
   5   6  -1   11.80    1.87
  -5  -6   1   12.41    2.61
   5   6   0   35.32    2.85
  -5  -6   0   27.15    5.13
   5   6   1   15.63    2.08
  -5  -6  -1   10.61    1.98
   5   6   2  134.77    8.59
  -5  -6  -2  110.12    6.55
   5   6   3  280.31   13.02
  -5  -6  -3  229.40   11.95
   5   6   4   53.50    5.66
  -5  -6  -4   40.80    8.39
   5   6   5   43.19    7.74
  -5  -6  -5   30.51    6.21
   5   6   6    5.19    1.44
  -5  -6  -6    2.16    1.58
   5   6   7    1.60    1.28
  -5  -6  -7    0.88    0.76
   5   6   8   25.78    5.17
  -5  -6  -8   25.02    7.53
   5   6   9   -0.46    1.12
   5   6  10   69.95   13.90
   5   6  11   29.88    7.85
   5   6  12    8.30    2.86
   5   6  13    4.68    1.93
   5   6  14   29.24   10.44
  -5  -7  19    1.42    0.62
  -5  -7  18   -0.07    1.03
   5   7 -17    2.43    1.53
   5   7 -16    2.56    2.07
   5   7 -15    0.13    1.38
  -5  -7  15    1.50    1.37
   5   7 -14   -0.54    1.49
  -5  -7  14    0.69    1.81
   5   7 -13    2.13    1.64
  -5  -7  13    1.39    1.27
   5   7 -12   -0.03    1.31
  -5  -7  12   -0.08    1.22
   5   7 -11    1.19    1.35
  -5  -7  11   -0.83    1.18
   5   7 -10   -0.73    1.35
  -5  -7  10    1.76    0.95
   5   7  -9    0.24    1.40
  -5  -7   9   -0.02    1.21
   5   7  -8    2.91    1.86
  -5  -7   8    0.29    1.16
   5   7  -7    0.65    1.33
  -5  -7   7   -0.47    1.18
   5   7  -6    0.68    1.23
  -5  -7   6    0.84    0.79
   5   7  -5    0.69    1.20
  -5  -7   5    2.06    1.16
   5   7  -4    1.96    1.28
  -5  -7   4    0.91    1.18
   5   7  -3    1.91    1.29
  -5  -7   3   -0.36    1.27
   5   7  -2   -0.72    0.95
  -5  -7   2   -0.69    1.27
   5   7  -1    0.35    1.03
  -5  -7   1    0.53    0.75
   5   7   0    0.78    1.04
  -5  -7   0    0.81    0.91
   5   7   1    1.60    1.40
  -5  -7  -1    1.12    0.77
   5   7   2    1.13    1.23
  -5  -7  -2   -0.79    1.48
   5   7   3    1.40    1.14
  -5  -7  -3   -0.02    0.90
   5   7   4   -0.01    0.93
  -5  -7  -4    1.64    0.99
   5   7   5    2.23    1.25
  -5  -7  -5    0.67    1.12
   5   7   6   -0.32    1.02
  -5  -7  -6   -0.31    1.31
   5   7   7    1.38    0.68
  -5  -7  -7   -0.22    1.01
  -5  -7  -8    0.41    0.76
   5   7  10    2.35    1.02
   5   7  11    1.88    0.92
   5   7  12    2.24    1.51
   5   7  13    0.40    1.15
  -5  -8  19    0.76    0.75
  -5  -8  18    1.87    1.22
   5   8 -17    2.15    1.57
   5   8 -16    4.51    1.62
   5   8 -15   57.19    4.73
   5   8 -14    0.23    1.49
  -5  -8  14    0.03    1.17
   5   8 -13   18.22    3.10
  -5  -8  13   17.68    3.47
   5   8 -12   69.07    8.47
  -5  -8  12   58.10    7.19
   5   8 -11    8.03    1.87
  -5  -8  11    3.92    1.54
   5   8 -10    1.77    1.43
  -5  -8  10    2.97    1.34
   5   8  -9    1.58    1.39
  -5  -8   9    0.04    1.11
   5   8  -8    0.79    1.21
  -5  -8   8    1.54    1.25
   5   8  -7    0.19    1.32
  -5  -8   7   -0.49    1.17
   5   8  -6    3.21    1.45
  -5  -8   6    2.61    1.43
   5   8  -5    0.74    1.22
  -5  -8   5   -0.29    1.23
   5   8  -4   14.24    2.29
  -5  -8   4   12.84    2.20
   5   8  -3   50.64    3.88
  -5  -8   3   46.65    9.97
   5   8  -2   57.62    3.69
  -5  -8   2   41.26    7.24
   5   8  -1    2.61    1.42
  -5  -8   1    4.47    1.73
   5   8   0   14.19    2.15
  -5  -8   0   12.81    2.72
   5   8   1  121.58    5.11
  -5  -8  -1  100.42    5.10
   5   8   2   59.87    3.67
  -5  -8  -2   43.60    8.92
   5   8   3    0.91    1.44
  -5  -8  -3    0.63    0.85
   5   8   4    8.31    1.85
  -5  -8  -4    9.87    1.80
   5   8   5   18.54    2.40
  -5  -8  -5   15.77    4.00
   5   8   6    9.14    1.91
  -5  -8  -6    5.92    1.85
  -5  -8  -7    1.57    1.89
  -5  -8  -8    1.10    0.98
   5   8   9   -0.99    1.54
   5   8  10   36.64    7.58
   5   8  11    0.83    1.18
   5   8  12    2.13    0.87
  -5  -9  19   -0.70    1.41
  -5  -9  18   -0.65    1.35
   5   9 -17   -0.37    1.36
   5   9 -16   -0.53    1.42
   5   9 -15   -1.16    1.46
   5   9 -14    1.14    1.70
   5   9 -13    3.84    2.30
  -5  -9  13   -0.10    1.17
   5   9 -12    0.69    1.55
  -5  -9  12    0.26    0.63
   5   9 -11   -0.90    1.29
  -5  -9  11    1.51    1.26
   5   9 -10    3.42    1.99
  -5  -9  10    0.15    1.10
   5   9  -9    2.08    1.48
  -5  -9   9    1.45    1.21
   5   9  -8    0.72    1.37
  -5  -9   8   -1.44    1.13
   5   9  -7    0.38    1.25
  -5  -9   7   -1.76    1.14
   5   9  -6   -0.28    1.28
  -5  -9   6    1.44    0.83
   5   9  -5   -0.32    1.26
  -5  -9   5    1.97    1.22
   5   9  -4    0.58    1.14
  -5  -9   4    1.49    1.00
   5   9  -3    0.21    1.07
  -5  -9   3   -0.19    1.34
   5   9  -2    1.71    1.19
  -5  -9   2    1.14    1.31
   5   9  -1   -0.32    1.16
  -5  -9   1    0.74    0.63
   5   9   0    3.97    1.64
  -5  -9   0    1.63    0.93
   5   9   1    1.25    1.08
  -5  -9  -1   -0.92    1.49
   5   9   2    1.22    1.07
  -5  -9  -2    1.41    1.05
   5   9   3    1.44    1.47
  -5  -9  -3    0.20    1.22
   5   9   4    1.17    0.94
  -5  -9  -4    1.67    1.19
   5   9   5    3.70    2.04
  -5  -9  -5    1.79    0.91
  -5  -9  -6   -0.63    1.57
  -5  -9  -7    2.65    1.13
  -5  -9  -8    0.30    0.64
   5   9  10    0.99    0.98
   5   9  11    0.23    0.79
  -5 -10  19    3.03    2.59
  -5 -10  18    8.52    3.12
   5  10 -17    0.83    1.70
   5  10 -16   16.50    3.80
   5  10 -15    3.69    1.72
   5  10 -14    4.84    2.01
   5  10 -13   18.02    3.10
   5  10 -12   18.26    2.68
  -5 -10  12   13.75    3.22
   5  10 -11    5.46    2.18
  -5 -10  11    2.19    1.34
   5  10 -10    1.61    2.04
  -5 -10  10    1.53    1.34
   5  10  -9    2.36    1.48
  -5 -10   9    1.99    1.79
   5  10  -8    1.24    1.50
  -5 -10   8    0.60    1.27
   5  10  -7   27.02    2.90
  -5 -10   7   23.89    2.62
   5  10  -6  104.99   11.84
  -5 -10   6   87.91   17.89
   5  10  -5   -1.48    1.35
  -5 -10   5    2.51    0.88
   5  10  -4   28.21    3.06
  -5 -10   4   23.04    4.82
   5  10  -3   60.65    7.22
  -5 -10   3   47.13   10.85
   5  10  -2    5.52    1.72
  -5 -10   2    2.58    1.10
   5  10  -1   29.89    4.16
  -5 -10   1   16.68    5.00
   5  10   0   43.93    4.32
  -5 -10   0   26.14    6.66
   5  10   1   28.63    3.33
  -5 -10  -1   23.80    7.77
   5  10   2    1.03    1.17
  -5 -10  -2    1.67    1.12
   5  10   3   17.17    2.19
  -5 -10  -3   11.49    4.51
  -5 -10  -4   11.21    2.33
  -5 -10  -5   -0.54    1.46
  -5 -10  -6    7.24    2.82
  -5 -10  -7    0.92    1.00
  -5 -10  -8   18.16    7.23
  -5 -10  -9   13.96    6.34
  -5 -11  19    1.22    0.97
  -5 -11  18   -0.67    1.73
  -5 -11  17   -1.46    1.73
   5  11 -16    0.63    0.82
   5  11 -15    1.57    1.79
   5  11 -14   -0.12    1.53
   5  11 -13    0.39    1.53
   5  11 -12   -1.05    1.53
   5  11 -11    0.93    1.60
  -5 -11  11    0.90    1.31
   5  11 -10    0.15    1.49
  -5 -11  10    1.07    1.31
   5  11  -9    2.00    1.55
  -5 -11   9    0.12    1.11
   5  11  -8    1.43    0.97
  -5 -11   8    0.71    1.24
   5  11  -7    0.11    1.47
  -5 -11   7   -0.30    1.16
   5  11  -6    2.66    1.63
  -5 -11   6    2.35    0.83
   5  11  -5   -0.46    1.36
  -5 -11   5    0.87    1.43
   5  11  -4   -0.39    1.21
  -5 -11   4    2.53    1.01
   5  11  -3   -0.08    1.14
  -5 -11   3    0.02    1.53
   5  11  -2   -0.34    1.08
  -5 -11   2    1.20    0.93
   5  11  -1    0.76    1.23
  -5 -11   1    0.80    1.17
   5  11   0   -0.22    1.02
  -5 -11   0    0.36    0.96
   5  11   1    2.10    1.17
  -5 -11  -1    3.66    1.28
  -5 -11  -2    2.22    1.22
  -5 -11  -3   -0.75    1.61
  -5 -11  -4   -0.84    1.73
  -5 -11  -5   -0.02    1.01
  -5 -11  -6   -0.63    1.65
  -5 -11  -7   -0.40    1.72
  -5 -11  -8    0.26    0.75
  -5 -11  -9    1.60    0.96
  -5 -12  18    2.26    1.30
  -5 -12  17    4.65    3.13
   5  12 -16    1.77    1.94
   5  12 -15    0.81    1.69
   5  12 -14    3.39    2.49
   5  12 -13    0.88    1.73
   5  12 -12    1.64    1.72
   5  12 -11    2.88    2.40
   5  12 -10    4.66    1.71
   5  12  -9    2.16    1.59
  -5 -12   9    1.84    1.84
   5  12  -8   14.33    2.48
  -5 -12   8   10.07    2.95
   5  12  -7    0.43    1.46
  -5 -12   7    1.20    0.75
   5  12  -6   19.55    2.72
  -5 -12   6   13.71    2.31
   5  12  -5   32.92    3.33
  -5 -12   5   36.49    5.71
   5  12  -4    3.85    1.88
  -5 -12   4   -0.46    1.34
   5  12  -3    2.45    1.55
  -5 -12   3    2.54    1.37
   5  12  -2   13.26    2.07
  -5 -12   2   14.99    3.82
   5  12  -1   16.68    2.48
  -5 -12   1    9.60    2.78
   5  12   0    0.62    1.25
  -5 -12   0    4.22    1.79
  -5 -12  -1   22.21    5.94
  -5 -12  -2    1.87    1.26
  -5 -12  -3   11.25    3.13
  -5 -12  -4   38.29   12.47
  -5 -12  -5   45.58   21.11
  -5 -12  -6   -0.80    1.88
  -5 -12  -7    4.83    2.20
  -5 -13  17   -0.16    1.62
  -5 -13  16    0.90    0.95
   5  13 -15    2.26    1.98
   5  13 -14   -1.35    1.84
   5  13 -13   -0.36    1.70
   5  13 -12    0.83    1.73
   5  13 -11   -1.75    1.72
   5  13 -10   -0.19    1.51
   5  13  -9    0.35    1.41
   5  13  -8    1.73    2.20
  -5 -13   8    0.70    1.43
   5  13  -7    1.08    1.56
   5  13  -6   -0.56    1.41
  -5 -13   6   -0.22    1.18
   5  13  -5    0.18    1.32
  -5 -13   5    1.65    0.80
   5  13  -4    1.24    1.44
  -5 -13   4    1.46    0.72
   5  13  -3    0.10    1.22
  -5 -13   3    1.01    1.04
   5  13  -2    0.04    1.26
  -5 -13   2    0.53    0.94
  -5 -13   1   -0.80    1.40
  -5 -13   0   -1.78    1.47
  -5 -13  -1    0.55    1.39
  -5 -13  -2    1.95    2.01
  -5 -13  -3    1.47    0.98
  -5 -13  -5   -0.99    1.76
  -5 -14  15   -0.05    1.72
   5  14 -14    2.86    1.56
   5  14 -13   -0.11    1.71
   5  14 -12    1.15    2.00
   5  14 -11    2.34    1.77
   5  14 -10    0.68    1.45
   5  14  -9    2.19    1.67
   5  14  -8   13.52    2.88
   5  14  -7   33.75    4.88
   5  14  -6   10.27    2.21
   5  14  -5   11.84    2.41
  -5 -14   5    7.28    1.66
  -5 -14   4    7.68    2.61
  -5 -14   3   -0.86    1.44
  -5 -14   2    5.82    2.26
  -5 -14   1    3.05    1.18
  -5 -14   0   12.25    4.54
  -5 -14  -1   31.42   13.01
  -5 -14  -2   12.36    5.51
   5  15 -12   -1.38    1.95
   5  15 -11    2.11    2.67
   5  15 -10    1.93    1.92
   5  15  -9   -0.48    1.65
   6 -17   1    0.71    0.93
   6 -17   2    1.08    1.24
   6 -17   3    0.36    1.39
   6 -17   4   -0.06    1.94
  -6  17  -5   -0.61    1.73
  -6  17  -6    1.49    1.82
  -6  17  -7    3.64    2.65
  -6  17  -8    1.99    2.46
  -6  17  -9    1.29    1.70
  -6  17 -10   -0.95    1.68
   6 -16  -3   15.56    4.73
   6 -16  -2   67.59   20.24
   6 -16  -1   35.61   10.73
   6 -16   0    3.60    1.33
   6 -16   1    1.56    1.24
   6 -16   2    4.20    2.33
   6 -16   3   -1.59    1.52
  -6  16  -5    2.15    1.23
  -6  16  -6    4.11    2.37
  -6  16  -7    4.68    1.91
  -6  16  -8    4.56    1.94
  -6  16  -9    3.47    1.87
  -6  16 -10   -2.17    1.53
  -6  16 -11    4.25    2.41
  -6  16 -12   -2.77    1.90
  -6  16 -13   -0.86    1.64
   6 -15  -5   -0.42    1.97
   6 -15  -4    0.13    0.89
   6 -15  -3    1.09    0.87
   6 -15  -2    0.24    0.92
   6 -15  -1    0.66    1.14
   6 -15   0    1.42    0.68
   6 -15   1    1.86    1.11
   6 -15   2    2.07    1.77
  -6  15  -4    1.17    1.46
  -6  15  -5    0.94    1.40
  -6  15  -6    1.92    1.50
  -6  15  -7   -0.08    1.27
  -6  15  -8   -0.54    1.36
   6 -15   9    0.32    0.97
  -6  15  -9   -1.89    1.41
   6 -15  10   -0.19    1.49
  -6  15 -10    0.36    1.76
   6 -15  11    0.05    1.45
  -6  15 -11    0.79    1.79
   6 -15  12    1.11    1.58
  -6  15 -12    3.44    2.64
   6 -15  13    1.98    2.03
  -6  15 -13    3.14    2.54
   6 -15  14    0.30    1.33
  -6  15 -14    1.38    1.96
   6 -14  -7    3.10    2.13
   6 -14  -6   -2.89    1.72
   6 -14  -5   38.80   11.58
  -6  14   5   28.53    7.26
   6 -14  -4   25.07    4.87
  -6  14   4   25.42    4.24
   6 -14  -3   16.18    3.49
  -6  14   3    8.17    1.98
   6 -14  -2   34.12    5.44
  -6  14   2   17.19    3.51
   6 -14  -1   56.22    9.77
   6 -14   0   33.83    8.08
   6 -14   1    1.31    0.94
   6 -14   2    8.36    2.27
  -6  14  -3    6.81    2.12
  -6  14  -4    3.35    2.12
  -6  14  -5   19.24    2.83
   6 -14   6   28.09    3.19
  -6  14  -6   23.83    3.10
   6 -14   7   37.94    3.61
  -6  14  -7   28.53    3.41
   6 -14   8   29.50    3.26
  -6  14  -8   20.77    3.22
   6 -14   9    5.12    1.77
  -6  14  -9    3.09    1.81
   6 -14  10    4.13    1.78
  -6  14 -10    4.44    1.63
   6 -14  11    4.69    2.51
  -6  14 -11    2.00    1.73
   6 -14  12   23.21    3.81
  -6  14 -12   17.24    3.46
   6 -14  13    5.54    2.20
  -6  14 -13    5.46    2.10
   6 -14  14    3.54    2.41
  -6  14 -14    5.24    2.01
   6 -14  15    3.34    2.46
  -6  14 -15    0.30    1.73
   6 -14  16    4.11    2.37
   6 -14  17    6.89    2.59
   6 -13  -8    1.25    1.71
  -6  13   8    1.07    1.75
   6 -13  -7    2.11    1.34
  -6  13   7    0.18    0.69
   6 -13  -6    0.81    0.59
  -6  13   6    3.54    1.87
   6 -13  -5    1.96    1.50
  -6  13   5    0.92    1.55
   6 -13  -4    1.38    1.39
  -6  13   4    2.02    1.56
   6 -13  -3    2.44    1.08
  -6  13   3    1.09    1.39
   6 -13  -2   -0.29    1.48
  -6  13   2    0.99    1.33
   6 -13  -1    1.51    0.69
  -6  13   1    0.94    1.20
   6 -13   0    0.57    0.70
  -6  13   0    3.79    1.56
   6 -13   1    2.70    1.58
  -6  13  -1   -0.48    1.01
  -6  13  -3    1.17    1.97
   6 -13   4   -0.30    1.25
  -6  13  -4    0.85    1.34
   6 -13   5   -0.27    1.34
  -6  13  -5    0.39    1.40
   6 -13   6    1.88    1.39
  -6  13  -6    0.18    1.39
   6 -13   7   -0.26    1.21
  -6  13  -7    1.10    2.02
   6 -13   8    0.43    1.38
  -6  13  -8   -0.11    1.37
   6 -13   9   -2.21    1.45
  -6  13  -9    1.27    1.46
   6 -13  10    2.14    2.25
  -6  13 -10    0.26    1.23
   6 -13  11    0.93    1.47
  -6  13 -11   -0.44    1.34
   6 -13  12    0.54    1.52
  -6  13 -12    2.14    1.47
   6 -13  13    2.08    1.83
  -6  13 -13    1.89    1.02
   6 -13  14    0.72    1.80
  -6  13 -14    1.44    2.23
   6 -13  15    1.32    1.93
  -6  13 -15    0.12    1.55
   6 -13  16   -0.47    1.83
  -6  13 -16   -0.66    1.58
   6 -13  17    3.48    2.25
   6 -13  18   -1.27    1.96
  -6  12  11    1.21    2.22
  -6  12  10    0.86    1.17
   6 -12  -9    0.93    1.75
  -6  12   9    0.24    1.66
   6 -12  -8    8.23    1.87
  -6  12   8    6.20    2.00
   6 -12  -7   -1.19    1.55
  -6  12   7   -0.47    1.62
   6 -12  -6    6.90    0.96
  -6  12   6    5.54    1.98
   6 -12  -5   38.18    5.98
  -6  12   5   40.80    4.00
   6 -12  -4    0.94    0.95
  -6  12   4    0.38    1.32
   6 -12  -3    1.77    0.90
  -6  12   3   -0.13    1.09
   6 -12  -2   56.87    9.12
  -6  12   2   58.98   12.91
   6 -12  -1   24.59    5.12
  -6  12   1   22.11    4.72
   6 -12   0   45.17   10.20
  -6  12   0   46.92    3.38
   6 -12   1    1.58    0.97
  -6  12  -1    1.14    1.09
   6 -12   2   28.63    3.18
  -6  12  -2   19.71    2.68
  -6  12  -2   17.90    2.19
   6 -12   3   12.21    2.60
  -6  12  -3   15.21    2.40
  -6  12  -3   12.85    1.77
   6 -12   4   20.98    4.04
  -6  12  -4   17.79    2.93
   6 -12   5    7.60    2.20
  -6  12  -5    9.68    2.11
   6 -12   6   14.29    2.30
  -6  12  -6   13.75    2.40
   6 -12   7    0.73    1.33
  -6  12  -7    1.97    1.75
   6 -12   8    1.53    2.04
  -6  12  -8    1.20    1.35
   6 -12   9   16.44    2.70
  -6  12  -9   10.75    2.31
   6 -12  10   14.82    2.42
  -6  12 -10   12.05    3.52
   6 -12  11  120.94    6.35
  -6  12 -11   72.91   13.28
   6 -12  12   17.37    2.85
  -6  12 -12   14.96    2.83
   6 -12  13   23.52    3.97
  -6  12 -13   14.40    3.21
   6 -12  14   -0.30    1.74
  -6  12 -14    0.63    1.49
   6 -12  15   11.64    3.20
  -6  12 -15    8.39    2.61
   6 -12  16   23.15    6.35
  -6  12 -16   17.82    5.20
   6 -12  17    4.73    2.25
  -6  12 -17    2.41    2.45
   6 -12  18    3.59    2.92
  -6  11  12    0.91    1.21
   6 -11 -11    1.50    1.24
  -6  11  11    0.22    1.90
   6 -11 -10    2.32    1.00
  -6  11  10   -0.37    1.92
   6 -11  -9   -0.27    1.58
  -6  11   9   -1.38    1.70
   6 -11  -8   -0.60    1.45
  -6  11   8   -0.04    1.49
   6 -11  -7    2.56    0.89
  -6  11   7    2.38    2.23
   6 -11  -6    1.07    0.78
  -6  11   6   -0.15    1.51
   6 -11  -5    1.26    0.97
  -6  11   5    0.15    1.39
   6 -11  -4    0.63    0.55
  -6  11   4    2.19    1.91
   6 -11  -3    1.09    0.81
  -6  11   3   -0.54    1.23
   6 -11  -2    0.40    0.49
  -6  11   2    1.14    1.67
   6 -11  -1    0.55    1.19
  -6  11   1    1.09    1.50
   6 -11   0   -0.22    1.05
  -6  11   0    1.30    1.47
   6 -11   1    0.31    0.97
  -6  11  -1   -0.32    0.99
   6 -11   2    0.51    1.08
  -6  11  -2   -0.36    1.10
  -6  11  -2    1.45    1.10
   6 -11   3    0.19    0.61
  -6  11  -3    4.43    2.02
  -6  11  -3    0.34    0.88
   6 -11   4   -0.26    1.16
  -6  11  -4    1.32    1.42
  -6  11  -4    0.80    0.85
   6 -11   5    0.70    1.26
  -6  11  -5    1.64    1.29
   6 -11   6    0.28    1.32
  -6  11  -6    1.32    1.70
   6 -11   7    0.09    1.29
  -6  11  -7    0.06    1.09
   6 -11   8   -1.94    1.45
  -6  11  -8    0.98    1.21
   6 -11   9   -0.35    1.48
  -6  11  -9    0.45    0.57
   6 -11  10   -2.83    1.71
  -6  11 -10   -0.44    1.12
   6 -11  11    2.14    1.93
  -6  11 -11    2.11    2.16
   6 -11  12    3.26    1.98
  -6  11 -12    0.28    1.38
   6 -11  13   -0.30    1.77
  -6  11 -13    1.79    1.62
   6 -11  14    0.82    1.96
  -6  11 -14    0.13    1.48
   6 -11  15   -2.85    1.77
  -6  11 -15   -0.13    1.52
   6 -11  16    2.13    1.94
  -6  11 -16   -0.12    1.58
   6 -11  17   -0.29    1.96
  -6  11 -17   -0.03    1.55
   6 -11  18   -0.23    1.74
   6 -11  19   -0.24    2.14
  -6  10  13   -0.37    1.70
   6 -10 -12   25.88    6.72
  -6  10  12   15.87    4.77
   6 -10 -11    7.60    2.43
  -6  10  11    9.55    2.37
   6 -10 -10    0.75    1.65
  -6  10  10    0.45    1.74
   6 -10  -9    4.64    2.12
  -6  10   9    5.42    2.10
   6 -10  -8    0.83    0.59
  -6  10   8    1.45    1.72
   6 -10  -7   33.75    7.97
  -6  10   7   33.86    3.65
   6 -10  -6   61.95    7.95
  -6  10   6   56.09    4.14
   6 -10  -5   13.70    2.17
  -6  10   5    4.78    2.06
   6 -10  -4   26.03    4.55
  -6  10   4   24.56    2.63
   6 -10  -3    1.44    0.56
  -6  10   3   -0.16    1.20
   6 -10  -2    1.79    0.58
  -6  10   2    0.04    1.19
   6 -10  -1   15.44    2.80
  -6  10   1    9.07    5.09
   6 -10   0   22.22    2.05
   6 -10   0   14.72    3.17
  -6  10   0   16.08    3.14
   6 -10   1    4.51    1.29
  -6  10  -1    1.82    1.33
  -6  10  -1    1.68    1.13
   6 -10   2   13.39    1.89
  -6  10  -2   12.23    2.05
  -6  10  -2   11.19    1.54
   6 -10   3   13.24    2.46
  -6  10  -3    7.31    1.74
  -6  10  -3    9.62    2.18
   6 -10   4    2.01    1.17
  -6  10  -4   -0.45    1.16
  -6  10  -4   -0.33    0.87
   6 -10   5    6.31    1.74
  -6  10  -5    6.62    1.89
  -6  10  -5    7.17    1.67
   6 -10   6  164.76    6.16
  -6  10  -6  124.82    5.39
   6 -10   7   46.05    4.44
  -6  10  -7   29.78    2.90
   6 -10   8    0.06    1.43
  -6  10  -8    1.51    0.67
   6 -10   9  119.28   13.28
  -6  10  -9   84.28    9.69
   6 -10  10    6.23    2.43
  -6  10 -10    8.01    2.00
   6 -10  11    9.53    2.17
  -6  10 -11    4.71    1.83
   6 -10  12   30.08    5.89
  -6  10 -12   25.27    3.11
   6 -10  13   33.95    7.07
  -6  10 -13   31.76    3.49
   6 -10  14    3.28    2.37
  -6  10 -14    1.87    1.68
   6 -10  15    3.17    2.41
  -6  10 -15    2.92    2.37
   6 -10  16   17.06    2.86
  -6  10 -16   10.95    3.14
   6 -10  17    8.29    2.48
  -6  10 -17    5.74    1.96
   6 -10  18   10.27    3.40
   6 -10  19   16.31    5.14
  -6   9  15   -0.17    1.86
  -6   9  14    3.98    2.14
   6  -9 -13    3.77    2.04
  -6   9  13    1.05    1.92
   6  -9 -12    1.17    1.60
  -6   9  12    3.02    2.03
   6  -9 -11    0.64    0.73
  -6   9  11    0.13    0.98
   6  -9 -10   -0.17    1.38
  -6   9  10    0.00    1.56
   6  -9  -9    0.05    1.23
  -6   9   9    3.91    2.36
   6  -9  -8   -0.35    1.12
  -6   9   8    0.76    1.60
   6  -9  -7    1.46    0.69
  -6   9   7   -0.10    1.52
   6  -9  -6    0.55    0.47
  -6   9   6   -0.12    1.50
   6  -9  -5    0.98    0.46
  -6   9   5    0.90    1.56
   6  -9  -4    0.10    0.34
  -6   9   4   -0.70    1.43
   6  -9  -3    0.47    0.44
  -6   9   3    0.56    1.36
   6  -9  -2    0.48    0.58
   6  -9  -2    1.65    0.66
  -6   9   2    2.27    1.40
   6  -9  -1    0.25    0.65
   6  -9  -1   -0.26    0.90
  -6   9   1    0.07    1.16
   6  -9   0   -0.59    0.95
   6  -9   0    0.31    0.48
  -6   9   0    0.08    1.06
   6  -9   1    1.25    0.72
  -6   9  -1    0.26    0.65
  -6   9  -1    0.17    1.06
   6  -9   2    1.82    1.15
  -6   9  -2    1.82    1.18
  -6   9  -2    1.52    1.04
   6  -9   3   -0.25    1.07
  -6   9  -3    1.10    0.90
  -6   9  -3    0.33    0.56
   6  -9   4   -0.41    1.18
  -6   9  -4    1.56    1.19
  -6   9  -4   -0.05    0.87
   6  -9   5   -0.02    1.29
  -6   9  -5   -0.54    1.00
  -6   9  -5    0.06    0.81
   6  -9   6   -0.18    1.42
  -6   9  -6    0.91    1.17
   6  -9   7   -1.96    1.32
  -6   9  -7    0.52    0.72
   6  -9   8    1.74    1.54
  -6   9  -8    3.17    1.81
   6  -9   9    1.34    1.66
  -6   9  -9   -0.74    1.00
   6  -9  10    0.44    1.66
  -6   9 -10    1.78    1.24
   6  -9  11   -2.97    1.65
  -6   9 -11    0.76    1.23
   6  -9  12   -0.84    1.67
  -6   9 -12    0.33    1.11
   6  -9  13    0.18    1.80
  -6   9 -13   -0.37    1.09
   6  -9  14   -0.03    1.67
  -6   9 -14    1.32    0.93
   6  -9  15   -0.10    1.76
  -6   9 -15    0.91    1.40
   6  -9  16   -0.27    1.81
  -6   9 -16    1.14    1.60
   6  -9  17    0.26    1.73
  -6   9 -17   -0.35    1.55
   6  -9  18    1.23    2.06
   6  -9  19    1.28    2.19
  -6   8  15   -1.15    1.84
  -6   8  14    4.48    2.11
   6  -8 -13   12.71    2.88
  -6   8  13    6.85    2.49
   6  -8 -12   16.72    3.57
  -6   8  12   14.23    3.52
   6  -8 -11   23.90    3.58
  -6   8  11   13.74    2.49
   6  -8 -10   15.27    2.49
  -6   8  10   16.22    3.02
   6  -8  -9   27.98    2.97
  -6   8   9   24.52    2.97
   6  -8  -8    7.41    1.81
  -6   8   8   10.04    2.60
   6  -8  -7   11.50    2.73
  -6   8   7   10.84    2.26
   6  -8  -6    0.98    0.84
  -6   8   6    0.31    1.55
   6  -8  -5    1.34    0.55
  -6   8   5    4.29    2.19
   6  -8  -4    1.63    0.67
  -6   8   4    2.20    1.54
   6  -8  -3   10.58    1.63
   6  -8  -3    9.98    1.83
  -6   8   3   13.24    2.18
   6  -8  -2   42.52    3.01
   6  -8  -2   41.14    8.10
  -6   8   2   33.49    3.39
   6  -8  -1  139.83    9.00
   6  -8  -1  130.32   12.67
  -6   8   1  131.87    7.45
   6  -8   0   89.06    8.08
  -6   8   0   86.76    5.34
   6  -8   1    6.97    1.53
  -6   8  -1    6.60    1.61
  -6   8  -1    2.94    1.32
   6  -8   2   41.48    8.32
  -6   8  -2   31.33    2.50
  -6   8  -2   39.67    2.74
   6  -8   3   80.48    5.24
  -6   8  -3   57.72    4.05
  -6   8  -3   63.74    4.04
   6  -8   4    2.05    0.45
  -6   8  -4    0.96    0.96
  -6   8  -4    3.84    1.33
   6  -8   5   25.47    2.67
  -6   8  -5   16.43    1.96
  -6   8  -5   16.99    1.78
   6  -8   6    4.40    2.03
  -6   8  -6    4.29    1.39
  -6   8  -6    2.42    0.74
   6  -8   7    4.13    1.50
  -6   8  -7    3.44    0.73
  -6   8  -7    4.57    1.11
   6  -8   8   41.91    3.42
  -6   8  -8   28.06    8.67
   6  -8   9    6.16    1.93
  -6   8  -9    4.23    1.56
   6  -8  10   51.17    4.89
  -6   8 -10   39.02    4.13
   6  -8  11   47.04    6.12
  -6   8 -11   36.61    4.84
   6  -8  12   10.20    2.69
  -6   8 -12    6.67    1.71
   6  -8  13    1.68    1.81
  -6   8 -13    0.25    1.13
   6  -8  14    9.81    2.68
  -6   8 -14    1.08    1.23
   6  -8  15    8.02    2.64
  -6   8 -15    1.22    1.39
   6  -8  16   34.58    4.86
  -6   8 -16   30.58    4.49
   6  -8  17    3.74    2.81
  -6   8 -17    1.03    1.52
   6  -8  18    9.35    2.39
  -6   8 -18    3.08    1.84
   6  -8  19    4.05    2.18
  -6   7  16   -0.28    1.89
  -6   7  15    2.24    1.94
   6  -7 -14    0.12    0.81
  -6   7  14    0.81    1.94
   6  -7 -13    0.20    0.84
  -6   7  13    3.81    1.97
   6  -7 -12    0.35    1.58
  -6   7  12    0.71    1.63
   6  -7 -11    1.11    1.31
  -6   7  11    2.61    1.83
   6  -7 -10    1.25    1.05
  -6   7  10   -2.28    1.59
   6  -7  -9   -0.86    1.02
  -6   7   9    0.30    1.68
   6  -7  -8    1.94    0.50
  -6   7   8    0.75    1.65
   6  -7  -7    1.01    0.97
  -6   7   7    0.74    1.58
   6  -7  -6    0.63    0.65
  -6   7   6    1.67    1.57
   6  -7  -5   -0.04    0.87
  -6   7   5    2.28    1.52
   6  -7  -4   -0.68    0.67
   6  -7  -4    0.47    0.37
  -6   7   4   -1.01    1.38
   6  -7  -3    0.48    0.57
   6  -7  -3    1.44    0.47
  -6   7   3    1.18    1.51
   6  -7  -2   -0.90    0.91
   6  -7  -2    1.18    0.68
  -6   7   2   -0.14    1.37
   6  -7  -1    1.97    1.42
   6  -7  -1    1.73    0.70
  -6   7   1    2.36    1.89
   6  -7   0    0.37    0.65
  -6   7   0    0.97    1.26
   6  -7   1    0.61    1.12
  -6   7  -1    0.85    0.96
  -6   7  -1   -0.75    1.13
   6  -7   2   -0.59    1.05
  -6   7  -2    0.50    0.93
  -6   7  -2    0.89    1.07
   6  -7   3   -0.66    1.15
  -6   7  -3    0.22    0.91
  -6   7  -3   -1.19    0.91
   6  -7   4   -0.05    1.20
  -6   7  -4    0.39    0.81
  -6   7  -4    1.37    0.97
   6  -7   5   -0.44    0.76
  -6   7  -5    0.46    0.92
  -6   7  -5   -0.73    0.77
   6  -7   6    0.28    1.51
  -6   7  -6    0.84    0.94
  -6   7  -6    1.33    1.14
   6  -7   7    1.22    0.90
  -6   7  -7    0.89    1.00
  -6   7  -7   -0.11    0.68
   6  -7   8    1.15    1.58
  -6   7  -8    0.81    1.03
   6  -7   9   -0.37    1.47
  -6   7  -9    0.22    0.94
   6  -7  10    0.71    1.72
  -6   7 -10    0.95    1.07
   6  -7  11    0.23    1.65
  -6   7 -11    1.72    0.69
   6  -7  12   -0.24    1.64
  -6   7 -12    2.22    1.26
   6  -7  13   -1.74    1.56
  -6   7 -13    2.61    1.34
   6  -7  14   -0.22    1.68
  -6   7 -14    2.06    1.24
   6  -7  15    0.63    1.68
  -6   7 -15   -0.23    1.05
   6  -7  16    0.56    1.81
  -6   7 -16    0.96    1.28
   6  -7  17   -0.28    0.88
   6  -7  18    1.98    1.65
   6  -7  19    1.75    1.14
  -6   6  17    2.71    2.07
  -6   6  16   -0.10    1.76
  -6   6  15    1.28    1.82
   6  -6 -14    2.01    1.61
  -6   6  14    3.86    2.11
   6  -6 -13   -0.42    1.31
  -6   6  13    0.33    1.74
   6  -6 -12    8.60    1.95
  -6   6  12    8.76    2.08
   6  -6 -11   24.56    3.11
  -6   6  11   28.68    3.50
   6  -6 -10   50.14    4.89
  -6   6  10   38.52    4.41
   6  -6  -9    3.07    1.41
  -6   6   9   10.41    3.08
   6  -6  -8   90.97    6.65
  -6   6   8  103.03    7.96
   6  -6  -7   32.57    6.90
  -6   6   7   28.05    3.25
   6  -6  -6   11.16    1.58
   6  -6  -6   10.85    2.55
  -6   6   6    9.50    2.55
   6  -6  -5  131.01    6.76
   6  -6  -5  136.10    9.84
  -6   6   5  151.69    8.35
   6  -6  -4   30.70    2.36
   6  -6  -4   33.10    3.80
  -6   6   4   35.73    3.12
   6  -6  -3    2.95    0.71
   6  -6  -3    1.32    0.88
  -6   6   3    2.22    1.59
   6  -6  -2  339.69   14.25
   6  -6  -2  281.81   12.87
  -6   6   2  342.83   14.45
   6  -6  -1  407.87   10.43
  -6   6   1  544.57   13.67
   6  -6   0   87.95    6.40
  -6   6   0   92.90    4.43
   6  -6   1   -0.19    1.11
  -6   6  -1    0.82    0.81
  -6   6  -1    2.60    1.76
   6  -6   2   22.84    4.44
  -6   6  -2   16.92    3.20
  -6   6  -2   20.19    2.12
   6  -6   3   50.33    7.79
  -6   6  -3   36.74    2.49
  -6   6  -3   49.31    3.16
   6  -6   4  107.14    5.04
  -6   6  -4   92.22    4.00
  -6   6  -4   99.74    4.35
   6  -6   5   45.36    3.62
  -6   6  -5   31.15    4.97
  -6   6  -5   32.54    2.50
   6  -6   6    1.59    1.68
  -6   6  -6   -0.07    0.91
  -6   6  -6    3.31    1.08
   6  -6   7    3.91    1.47
  -6   6  -7    1.33    0.73
  -6   6  -7    2.48    0.65
   6  -6   8    4.76    1.82
  -6   6  -8    5.66    1.27
  -6   6  -8    4.72    1.21
   6  -6   9   14.72    3.83
  -6   6  -9    9.47    1.48
   6  -6  10    2.34    1.90
  -6   6 -10    0.18    0.94
   6  -6  11    4.44    1.30
  -6   6 -11    2.70    1.14
   6  -6  12    7.24    1.56
  -6   6 -12    6.99    1.61
  -6   6 -13    0.16    1.20
   6  -6  14    0.71    1.68
  -6   6 -14    1.87    1.71
   6  -6  15   15.12    3.28
  -6   6 -15   17.52    2.49
   6  -6  16    3.34    2.08
  -6   6 -16    2.60    1.92
   6  -6  17    7.44    2.20
  -6   6 -17    3.87    1.99
   6  -6  18    0.61    0.85
  -6   5  17    1.20    1.29
  -6   5  16    1.66    1.92
   6  -5 -15    0.12    0.89
  -6   5  15    1.29    1.70
   6  -5 -14   -0.36    1.33
  -6   5  14    1.91    1.84
   6  -5 -13    1.47    1.44
  -6   5  13    1.98    1.99
   6  -5 -12   -1.18    1.29
  -6   5  12    1.10    1.30
   6  -5 -11    0.48    1.26
  -6   5  11    0.78    1.83
   6  -5 -10    1.24    1.19
  -6   5  10    2.56    1.81
   6  -5  -9    0.59    1.01
  -6   5   9   -0.93    1.60
   6  -5  -8   -0.54    0.88
  -6   5   8   -0.16    1.64
   6  -5  -7    0.34    0.66
   6  -5  -7    0.01    0.79
  -6   5   7   -0.46    1.50
   6  -5  -6    0.22    0.68
   6  -5  -6    1.14    0.50
  -6   5   6    0.08    1.48
   6  -5  -5    0.60    0.76
   6  -5  -5   -0.33    0.52
  -6   5   5    1.90    1.60
   6  -5  -4    0.31    0.84
   6  -5  -4    0.76    0.38
  -6   5   4    3.79    2.26
   6  -5  -3   -0.19    0.91
   6  -5  -3   -0.04    0.73
  -6   5   3   -1.25    1.45
   6  -5  -2   -0.43    0.98
   6  -5  -2   -0.37    0.71
   6  -5  -1    0.32    1.07
   6  -5  -1   -0.59    0.75
  -6   5   1   -0.16    1.33
   6  -5   0    1.92    0.70
  -6   5   0    0.08    1.23
   6  -5   1   -1.58    1.06
  -6   5  -1   -0.07    0.75
  -6   5  -1   -0.27    1.13
   6  -5   2   -0.29    1.12
  -6   5  -2    0.06    0.75
  -6   5  -2    0.16    0.81
   6  -5   3    0.46    0.81
  -6   5  -3    1.10    0.83
  -6   5  -3    0.31    1.18
   6  -5   4    1.39    1.11
  -6   5  -4    0.56    0.83
  -6   5  -4   -0.01    0.92
   6  -5   5    0.16    1.60
  -6   5  -5    1.04    0.58
  -6   5  -5    0.62    0.97
   6  -5   6   -0.02    1.62
  -6   5  -6    1.24    0.94
  -6   5  -6    0.89    1.01
   6  -5   7    4.54    2.30
  -6   5  -7    0.66    0.89
  -6   5  -7   -0.65    0.85
   6  -5   8   -0.64    1.56
  -6   5  -8   -0.31    0.87
  -6   5  -8    0.97    0.88
   6  -5   9    1.15    1.63
  -6   5  -9   -0.27    0.90
  -6   5  -9   -0.60    0.72
   6  -5  10    1.43    1.65
  -6   5 -10    0.69    0.47
   6  -5  11   -0.20    1.57
  -6   5 -11   -0.29    0.87
   6  -5  12   -0.48    1.64
  -6   5 -12    0.73    1.03
   6  -5  13   -0.11    1.67
  -6   5 -13    0.23    1.20
   6  -5  14    0.52    1.78
  -6   5 -14    1.67    1.71
   6  -5  15    0.49    1.66
  -6   5 -15   -0.60    1.14
   6  -5  16   -1.24    1.74
  -6   5 -16   -0.54    1.33
   6  -5  17   -1.28    1.75
   6  -5  18   -1.03    1.51
  -6   4  17    2.01    2.07
  -6   4  16    0.61    1.73
   6  -4 -15   -0.05    1.39
  -6   4  15    1.66    1.64
   6  -4 -14    0.42    0.87
  -6   4  14    0.89    1.66
   6  -4 -13    1.19    1.42
  -6   4  13    0.24    1.78
   6  -4 -12   45.30    3.45
  -6   4  12   49.73    4.39
   6  -4 -11   77.83    8.84
  -6   4  11   92.06   10.94
   6  -4 -10  225.75  118.73
  -6   4  10  229.07   15.48
   6  -4  -9   57.06    3.31
  -6   4   9   53.02    8.15
   6  -4  -8   28.31    2.30
   6  -4  -8   25.77    2.48
  -6   4   8   22.71    2.54
   6  -4  -7   -0.08    0.69
   6  -4  -7    0.61    0.57
  -6   4   7    1.66    1.68
   6  -4  -6    0.51    0.79
   6  -4  -6    0.48    0.49
  -6   4   6    0.65    1.59
   6  -4  -5   74.29    5.30
   6  -4  -5   60.89    6.18
  -6   4   5   75.75    5.00
   6  -4  -4  246.84    7.38
   6  -4  -4  208.73    7.09
  -6   4   4  249.24    8.19
   6  -4  -3    7.89    1.28
   6  -4  -3    4.42    0.83
  -6   4   3    9.91    2.43
   6  -4  -2  170.31    5.19
   6  -4  -2  138.51    9.40
  -6   4   2  182.68    6.09
   6  -4  -1  201.41    5.89
   6  -4  -1  142.33    6.10
  -6   4   1  209.67    6.91
   6  -4   0  121.27    4.97
  -6   4   0  128.93    5.11
  -6   4  -1  412.88   17.11
  -6   4  -2  339.82    5.72
  -6   4  -2  397.71    7.78
   6  -4   3  196.46    6.09
  -6   4  -3  165.48    4.12
  -6   4  -3  197.50    5.64
   6  -4   4  247.20    8.05
  -6   4  -4  174.77    7.26
  -6   4  -4  212.65    6.85
   6  -4   5   92.30    4.99
  -6   4  -5   69.65    3.15
  -6   4  -5   80.26    3.88
   6  -4   6  214.92   10.02
  -6   4  -6  169.73    7.41
  -6   4  -6  175.21    7.81
   6  -4   7    2.04    1.82
  -6   4  -7    1.46    0.96
  -6   4  -7    2.14    1.36
   6  -4   8   71.51    5.29
  -6   4  -8   57.21    3.75
  -6   4  -8   61.22    3.98
   6  -4   9   16.67    2.32
  -6   4  -9   15.65    1.92
  -6   4  -9   15.01    1.80
   6  -4  10   10.93    2.38
  -6   4 -10   11.06    1.75
  -6   4 -10    9.25    1.61
   6  -4  11    8.10    1.90
  -6   4 -11    3.18    1.34
   6  -4  12    0.97    1.69
  -6   4 -12    2.34    1.20
   6  -4  13  104.51    8.55
  -6   4 -13   81.44    6.22
   6  -4  14   56.94    4.26
  -6   4 -14   42.50    3.62
   6  -4  15   94.71    5.78
  -6   4 -15   65.73    4.53
   6  -4  16   13.17    2.73
  -6   4 -16    8.64    2.35
   6  -4  17   46.69    6.16
   6  -4  18    2.94    1.93
  -6   3  18    0.75    1.64
  -6   3  17    3.95    2.54
  -6   3  16   -1.36    1.44
   6  -3 -15    0.34    1.43
  -6   3  15   -1.08    1.49
   6  -3 -14    0.18    1.27
  -6   3  14    3.87    2.52
   6  -3 -13    1.25    1.26
  -6   3  13   -0.94    1.59
   6  -3 -12    0.62    1.51
  -6   3  12    0.41    1.64
   6  -3 -11    0.02    1.05
  -6   3  11    2.27    1.33
   6  -3 -10   -0.31    0.68
   6  -3 -10    1.23    1.01
  -6   3  10    0.46    1.66
   6  -3  -9    1.62    0.84
   6  -3  -9    1.00    0.66
  -6   3   9    4.82    2.50
   6  -3  -8    0.84    0.81
   6  -3  -8   -0.26    0.82
  -6   3   8    3.02    2.32
   6  -3  -7    0.17    0.77
   6  -3  -7    1.14    0.77
  -6   3   7    1.85    1.68
   6  -3  -6    0.58    0.94
   6  -3  -6    0.31    0.66
  -6   3   6   -0.32    1.70
   6  -3  -5    0.43    0.97
   6  -3  -5    0.62    0.67
  -6   3   5    1.16    1.54
   6  -3  -4    1.57    1.04
   6  -3  -4    0.72    0.43
  -6   3   4    0.82    1.51
   6  -3  -3    0.95    1.09
   6  -3  -3    0.00    0.50
  -6   3   3    1.83    1.58
   6  -3  -2    0.74    0.46
   6  -3  -2   -0.06    0.48
  -6   3   2   11.99    5.65
   6  -3  -1    0.57    0.51
   6  -3  -1   -0.54    0.44
  -6   3   1    0.32    0.81
   6  -3   0   -0.37    1.11
   6  -3   0   -0.06    0.46
  -6   3   0    1.09    1.37
   6  -3   1    0.39    1.30
  -6   3  -1   -0.04    0.61
  -6   3  -1    0.60    1.50
   6  -3   2   -0.19    1.21
  -6   3  -2   -0.17    0.54
  -6   3  -2    0.86    0.72
   6  -3   3    0.86    0.98
  -6   3  -3    0.19    0.59
  -6   3  -3    2.52    1.19
   6  -3   4    1.24    1.17
  -6   3  -4    1.38    0.91
  -6   3  -4    0.86    0.61
   6  -3   5    1.01    1.46
  -6   3  -5   -0.28    0.62
  -6   3  -5    0.91    0.94
   6  -3   6    1.05    1.15
  -6   3  -6    0.46    0.71
  -6   3  -6    2.90    0.96
   6  -3   7   -0.42    1.51
  -6   3  -7    0.47    0.78
  -6   3  -7    1.06    0.52
   6  -3   8    0.79    0.54
  -6   3  -8    0.37    0.85
  -6   3  -8    0.13    0.87
   6  -3   9   -0.04    1.25
  -6   3  -9    1.30    0.94
  -6   3  -9    0.01    0.49
   6  -3  10    0.00    1.36
  -6   3 -10    0.49    0.91
  -6   3 -10    0.27    0.77
   6  -3  11    1.19    1.53
  -6   3 -11    0.56    0.98
  -6   3 -11    1.35    0.81
   6  -3  12    0.10    1.41
  -6   3 -12   -0.46    1.01
   6  -3  13    0.72    0.63
  -6   3 -13   -0.10    1.14
   6  -3  14    0.90    1.62
  -6   3 -14    1.58    1.81
   6  -3  15    1.28    1.41
  -6   3 -15   -0.05    1.26
   6  -3  16    2.22    1.62
   6  -3  17    2.80    1.09
  -6   2  18    7.57    2.64
  -6   2  17    5.28    2.55
  -6   2  16    9.01    2.19
   6  -2 -15   19.42    2.71
  -6   2  15   14.91    2.42
   6  -2 -14    4.80    1.41
  -6   2  14    4.53    2.26
   6  -2 -13   23.91    3.02
  -6   2  13   24.95    3.56
   6  -2 -12   42.58   10.24
  -6   2  12   62.94    7.85
   6  -2 -11    2.85    1.11
   6  -2 -11    2.64    1.11
  -6   2  11    4.44    1.67
   6  -2 -10    5.58    1.30
   6  -2 -10    3.44    1.19
  -6   2  10    5.33    1.66
   6  -2  -9    0.91    0.80
   6  -2  -9    3.28    1.38
  -6   2   9    3.13    1.56
   6  -2  -8    1.75    1.12
   6  -2  -8    1.60    0.80
  -6   2   8    2.29    1.68
   6  -2  -7    7.54    1.62
   6  -2  -7    6.41    1.18
  -6   2   7    4.93    1.61
   6  -2  -6    1.18    1.10
   6  -2  -6    0.07    0.61
  -6   2   6    1.29    1.65
   6  -2  -5   28.13    2.26
   6  -2  -5   24.75    5.31
  -6   2   5   30.46    4.13
   6  -2  -4   53.13    3.08
   6  -2  -4   41.16    1.87
  -6   2   4   53.09    3.54
   6  -2  -3   12.78    1.94
   6  -2  -3   11.02    0.98
  -6   2   3   19.98    3.21
   6  -2  -2   29.25    5.37
  -6   2   2   30.77    5.79
   6  -2  -1  158.63    5.31
  -6   2   1  147.47    8.40
   6  -2   0  117.55    4.62
  -6   2   0  116.96    8.92
   6  -2   2   36.66    6.47
  -6   2  -2   27.76    2.58
   6  -2   3    6.80    1.01
  -6   2  -3    6.05    1.55
   6  -2   4    4.91    1.09
  -6   2  -4    1.89    0.74
  -6   2  -4    3.55    1.34
  -6   2  -5   53.91    2.45
  -6   2  -5   57.70    3.39
   6  -2   6   30.15    2.99
  -6   2  -6   23.35    3.17
  -6   2  -6   22.35    4.47
   6  -2   7   12.31    2.21
  -6   2  -7    7.79    1.13
  -6   2  -7    8.59    1.75
   6  -2   8    1.61    0.88
  -6   2  -8    0.48    0.77
  -6   2  -8    0.61    0.75
   6  -2   9    8.77    2.19
  -6   2  -9    5.37    1.25
  -6   2  -9    5.63    1.11
   6  -2  10   22.40    5.04
  -6   2 -10   19.84    2.04
  -6   2 -10   13.46    3.09
   6  -2  11    2.66    2.10
  -6   2 -11    1.92    1.44
  -6   2 -11    2.00    0.67
   6  -2  12  110.02   12.33
  -6   2 -12   89.65    9.95
  -6   2 -12   58.83   10.24
   6  -2  13   79.60    4.91
  -6   2 -13   53.78    3.62
   6  -2  14   93.38    5.23
  -6   2 -14   63.80    4.06
   6  -2  15    2.67    1.53
   6  -2  16    5.90    2.40
  -6   1  18    1.67    1.64
  -6   1  17    0.50    1.65
  -6   1  16    0.42    1.38
  -6   1  15   -0.71    1.54
   6  -1 -14    1.58    1.73
  -6   1  14    2.24    2.51
   6  -1 -13    2.94    1.64
  -6   1  13    0.74    1.73
   6  -1 -12    0.51    0.87
   6  -1 -12   -0.66    0.85
  -6   1  12   -0.04    1.69
   6  -1 -11   -0.76    0.80
   6  -1 -11   -0.16    0.82
  -6   1  11   -0.20    1.53
   6  -1 -10    0.74    0.89
   6  -1 -10   -0.24    0.87
  -6   1  10   -0.47    1.64
   6  -1  -9    3.35    1.27
   6  -1  -9   -0.06    0.69
  -6   1   9    1.28    1.64
   6  -1  -8    1.06    0.91
   6  -1  -8   -0.98    0.59
  -6   1   8   -2.62    1.46
   6  -1  -7    0.92    1.02
  -6   1   7    3.32    1.79
   6  -1  -6   -0.09    1.02
  -6   1   6    0.36    1.68
   6  -1  -5    1.21    1.15
  -6   1   5    0.86    1.71
   6  -1  -4    1.14    0.75
  -6   1   4   -1.39    1.73
   6  -1  -3   -0.27    1.15
  -6   1   3   -0.77    1.73
   6  -1  -2    1.60    1.46
  -6   1   2    1.46    1.13
   6  -1  -1   -0.02    1.15
  -6   1   1    1.50    1.46
   6  -1   0    0.59    0.88
  -6   1   0    2.01    1.47
   6  -1   1    4.21    1.70
  -6   1  -1    2.57    1.28
   6  -1   2   -0.72    1.15
  -6   1  -2    0.50    1.11
   6  -1   3    1.46    0.75
  -6   1  -3    0.05    1.03
   6  -1   4    1.45    1.01
  -6   1  -4    1.37    1.49
   6  -1   5    0.11    0.81
  -6   1  -5    1.35    1.12
   6  -1   6    0.40    0.59
  -6   1  -6    0.08    0.62
   6  -1   7    2.29    0.82
  -6   1  -7   -0.21    0.64
  -6   1  -7   -0.68    1.00
   6  -1   8    2.61    1.44
  -6   1  -8   -0.56    0.68
  -6   1  -8    0.11    0.41
   6  -1   9   -0.97    1.35
  -6   1  -9   -0.56    0.75
  -6   1  -9    0.54    0.48
   6  -1  10    0.02    1.29
  -6   1 -10    1.15    1.13
  -6   1 -10    0.41    0.48
   6  -1  11    0.96    0.96
  -6   1 -11    1.22    1.33
  -6   1 -11    0.03    0.37
   6  -1  12   -0.45    1.19
  -6   1 -12    0.67    0.99
  -6   1 -12   -0.01    1.01
   6  -1  13    0.63    1.22
  -6   1 -13    0.58    0.60
   6  -1  14   -0.16    1.16
   6  -1  15    0.52    1.48
   6  -1  16    1.20    0.55
  -6   0  18    9.19    2.20
  -6   0  17    1.91    1.70
  -6   0  16    4.12    1.66
  -6   0  15   -0.84    1.47
  -6   0  14   -0.05    1.71
   6   0 -13   16.27    2.04
  -6   0  13   27.05    3.47
   6   0 -12   41.44    3.80
  -6   0  12   42.81    4.58
   6   0 -11   21.32    2.43
   6   0 -11   15.19    3.39
  -6   0  11   19.78    2.88
   6   0 -10   27.47    2.49
  -6   0  10   29.30    3.33
   6   0  -9    6.80    1.58
  -6   0   9    9.92    2.36
   6   0  -8    0.55    1.11
  -6   0   8    3.14    1.73
   6   0  -7    0.73    1.09
  -6   0   7    7.30    2.66
   6   0  -6   -0.79    1.09
  -6   0   6    1.26    1.82
   6   0  -5  110.49    4.83
  -6   0   5  107.54    5.12
   6   0  -4   38.44    2.80
  -6   0   4   43.44   10.38
   6   0  -3   37.30    2.89
  -6   0   3   47.89    8.38
   6   0  -2    4.51    1.41
  -6   0   2    4.99    1.55
   6   0  -1    4.60    1.23
  -6   0   1    6.20    1.88
   6   0   0  263.13    7.35
  -6   0   0  231.09    6.96
   6   0   1    3.09    0.87
  -6   0  -1    2.98    1.91
   6   0   2    1.17    1.24
  -6   0  -2   -0.69    1.08
   6   0   3   13.31    2.25
  -6   0  -3    8.06    1.61
   6   0   4    0.20    1.08
  -6   0  -4    1.59    0.59
   6   0   5   -0.17    1.08
  -6   0  -5    1.97    0.76
   6   0   6   11.96    1.93
  -6   0  -6    8.75    1.60
   6   0   7   35.18    5.63
  -6   0  -7   27.27    3.45
   6   0   8   60.82    8.97
  -6   0  -8   41.54    6.80
   6   0   9    7.99    1.73
  -6   0  -9    1.90    0.84
   6   0  10   79.50   12.03
  -6   0 -10   53.71    9.84
   6   0  11    2.05    1.35
  -6   0 -11    0.50    0.81
   6   0  12    4.53    1.47
  -6   0 -12    4.39    1.17
   6   0  13   72.01   12.22
  -6   0 -13   49.61    9.36
   6   0  14   19.25    4.50
   6   0  15    3.32    2.11
  -6  -1  18    2.86    1.72
  -6  -1  17   -0.23    1.44
  -6  -1  16    2.94    1.79
  -6  -1  15   -1.11    1.53
   6   1 -14    1.59    1.30
  -6  -1  14   -2.29    1.43
   6   1 -13    0.38    1.05
  -6  -1  13   -0.59    1.66
   6   1 -12   -0.56    0.94
  -6  -1  12    0.11    1.58
   6   1 -11    3.65    1.54
  -6  -1  11    1.57    1.64
   6   1 -10    1.32    1.03
  -6  -1  10    0.39    1.64
   6   1  -9    0.90    0.98
  -6  -1   9   -2.87    1.54
   6   1  -8   -0.43    1.17
  -6  -1   8    1.25    0.91
   6   1  -7    1.44    1.03
  -6  -1   7    1.22    0.90
   6   1  -6   -1.17    1.20
  -6  -1   6    0.56    1.68
  -6  -1   5   -1.70    1.54
  -6  -1   4   -0.53    1.50
   6   1  -3    1.76    1.75
  -6  -1   3    0.62    1.02
   6   1  -2   -0.11    1.23
  -6  -1   2   -0.01    1.45
   6   1  -1    1.02    1.14
  -6  -1   1    1.54    1.14
   6   1   0    0.22    1.11
  -6  -1   0    0.25    1.28
   6   1   1    1.06    0.62
  -6  -1  -1   -0.25    1.25
   6   1   2    2.58    0.84
  -6  -1  -2    1.61    0.69
   6   1   3    2.84    1.27
  -6  -1  -3   -0.03    1.12
   6   1   4    2.07    1.22
  -6  -1  -4    0.50    1.18
   6   1   5    0.73    1.06
  -6  -1  -5    1.00    0.63
   6   1   6    2.66    1.65
  -6  -1  -6    2.27    0.72
   6   1   7   -0.10    1.08
  -6  -1  -7    2.52    1.39
   6   1   8   -0.22    1.17
  -6  -1  -8   -0.09    1.13
   6   1   9    0.38    1.30
  -6  -1  -9    0.92    0.82
   6   1  10   -0.29    1.00
  -6  -1 -10    0.64    1.28
   6   1  11    2.16    1.23
  -6  -1 -11   -0.61    1.05
   6   1  12    0.62    0.96
  -6  -1 -12   -0.61    1.13
   6   1  13    1.32    0.95
  -6  -1 -13    0.62    0.70
   6   1  14    0.86    0.98
  -6  -2  17    2.35    2.11
  -6  -2  16    0.77    1.53
   6   2 -15   20.08    2.65
  -6  -2  15   15.52    2.89
   6   2 -14   16.67    2.41
  -6  -2  14   15.49    2.32
   6   2 -13    2.14    1.52
  -6  -2  13    0.62    1.48
   6   2 -12   41.05    3.92
  -6  -2  12   36.21    4.08
   6   2 -11   35.58    3.03
  -6  -2  11   56.60    4.51
   6   2 -10   56.72    3.69
  -6  -2  10   61.76    4.38
   6   2  -9   14.99    2.44
  -6  -2   9   16.22    4.14
   6   2  -8   48.59    3.83
  -6  -2   8   58.68   10.12
   6   2  -7   15.97    2.15
  -6  -2   7   13.33    2.58
   6   2  -6   13.71    1.99
  -6  -2   6   13.60    2.11
   6   2  -5    7.16    1.75
  -6  -2   5    5.74    2.05
   6   2  -4   18.45    2.23
  -6  -2   4   15.29    3.98
   6   2  -3    1.71    1.03
  -6  -2   3    4.11    1.60
   6   2  -2   93.95    4.67
  -6  -2   2   82.62    4.43
   6   2  -1  361.39   10.69
  -6  -2   1  322.27    9.67
   6   2   0   55.68    3.37
  -6  -2   0   52.13    8.24
   6   2   1   41.14    3.07
  -6  -2  -1   32.11    7.09
   6   2   2   50.10    8.71
  -6  -2  -2   45.51    7.67
   6   2   3   -0.12    1.16
  -6  -2  -3    3.34    0.95
   6   2   4   83.50   15.86
  -6  -2  -4   64.32   10.46
   6   2   5    7.27    1.49
  -6  -2  -5    6.60    1.43
   6   2   6    3.13    0.88
  -6  -2  -6    0.70    0.83
   6   2   7   10.72    2.01
  -6  -2  -7    7.38    1.74
   6   2   8    3.09    1.35
  -6  -2  -8   -0.20    1.10
   6   2   9   11.08    2.23
  -6  -2  -9    8.53    2.03
   6   2  10   26.11    4.40
  -6  -2 -10   17.65    3.97
   6   2  11  130.48    8.74
  -6  -2 -11  100.55    7.78
   6   2  12    3.05    0.61
  -6  -2 -12    1.51    1.71
   6   2  13    8.40    2.97
  -6  -2 -13    5.91    1.75
  -6  -3  17    2.68    1.61
   6   3 -16   -0.16    1.18
  -6  -3  16   -0.75    1.23
   6   3 -15    0.37    1.16
  -6  -3  15   -0.58    1.34
   6   3 -14   -0.03    1.08
  -6  -3  14    1.45    1.48
   6   3 -13    1.28    1.26
  -6  -3  13    0.11    1.44
   6   3 -12    0.07    1.15
  -6  -3  12    0.25    1.54
   6   3 -11    0.18    1.10
  -6  -3  11    4.13    2.13
   6   3 -10    0.46    1.10
  -6  -3  10   -1.68    1.56
   6   3  -9    0.50    1.10
  -6  -3   9   -0.12    0.87
   6   3  -8    2.94    1.68
  -6  -3   8    0.58    1.58
   6   3  -7    0.94    1.29
  -6  -3   7   -0.98    1.71
   6   3  -6    2.12    1.86
  -6  -3   6    1.68    1.05
   6   3  -5    1.83    1.34
  -6  -3   5    2.94    2.38
   6   3  -4    1.00    1.76
  -6  -3   4   -0.85    1.56
   6   3  -3    0.76    1.23
  -6  -3   3    1.36    1.51
   6   3  -2    0.70    1.33
  -6  -3   2    2.61    2.15
   6   3  -1    0.01    1.35
  -6  -3   1    1.22    1.66
   6   3   0    1.93    1.30
  -6  -3   0    2.45    1.03
   6   3   1    1.38    1.27
  -6  -3  -1   -1.53    1.48
   6   3   2   -0.07    1.19
  -6  -3  -2    1.91    1.24
   6   3   3    0.81    1.27
  -6  -3  -3   -0.55    1.08
   6   3   4    1.97    1.22
  -6  -3  -4    0.43    0.91
   6   3   5    0.97    0.91
  -6  -3  -5   -0.91    1.19
   6   3   6   -0.08    0.77
  -6  -3  -6    1.87    1.41
   6   3   7    0.23    0.43
  -6  -3  -7    3.28    1.67
   6   3   8   -0.21    0.95
  -6  -3  -8   -0.64    1.32
   6   3   9   -0.80    0.95
  -6  -3  -9    1.37    0.75
   6   3  10   -1.78    1.22
  -6  -3 -10    1.45    0.77
   6   3  11   -0.18    0.49
  -6  -3 -11   -2.15    1.30
   6   3  12    0.99    1.12
  -6  -3 -12   -1.60    1.35
  -6  -3 -13    0.85    0.70
   6   4 -17    1.95    1.45
  -6  -4  17    0.72    1.43
   6   4 -16    5.67    1.77
  -6  -4  16    4.04    1.93
   6   4 -15    7.91    2.32
  -6  -4  15    5.78    1.93
   6   4 -14    0.40    1.25
  -6  -4  14   -1.79    1.25
   6   4 -13    0.34    1.23
  -6  -4  13    1.19    1.46
   6   4 -12   13.37    2.47
  -6  -4  12    9.08    2.33
   6   4 -11   43.88    4.26
  -6  -4  11   38.96    6.90
   6   4 -10    0.20    1.17
  -6  -4  10    2.59    1.49
   6   4  -9   29.06    3.13
  -6  -4   9   28.93    3.24
   6   4  -8   17.92    2.47
  -6  -4   8   18.79    2.82
   6   4  -7   53.23    4.21
  -6  -4   7   52.06    4.35
   6   4  -6   37.78    3.16
  -6  -4   6   41.94    4.02
   6   4  -5  130.31    7.10
  -6  -4   5  122.22    7.13
   6   4  -4  299.26   13.03
  -6  -4   4  273.14   12.15
   6   4  -3    9.50    2.01
  -6  -4   3    6.98    2.16
   6   4  -2    2.41    1.59
  -6  -4   2    6.99    1.36
   6   4  -1  423.08   17.57
  -6  -4   1  378.13   23.64
   6   4   0  223.91   10.65
  -6  -4   0  192.04   24.36
   6   4   1   13.41    2.30
  -6  -4  -1   11.96    2.75
   6   4   2   11.63    1.89
  -6  -4  -2    8.84    2.04
   6   4   3   14.91    2.22
  -6  -4  -3   10.10    2.04
   6   4   4    6.39    1.52
  -6  -4  -4    4.78    1.12
   6   4   5  100.19    4.79
  -6  -4  -5   76.12    8.74
   6   4   6   28.05    2.88
  -6  -4  -6   19.93    4.54
   6   4   7   -0.93    1.06
  -6  -4  -7    1.13    0.96
   6   4   8    0.21    1.00
  -6  -4  -8    2.20    0.76
   6   4   9    3.19    1.19
  -6  -4  -9    2.14    1.16
   6   4  10   13.36    2.64
  -6  -4 -10    7.36    1.94
   6   4  11    7.98    3.00
  -6  -4 -11    2.13    0.98
  -6  -4 -12    0.68    0.87
  -6  -4 -13    2.46    0.94
   6   5 -17    2.00    1.40
   6   5 -16   -0.43    1.20
  -6  -5  16    2.51    1.95
   6   5 -15    1.60    1.49
  -6  -5  15   -0.24    1.16
   6   5 -14   -1.17    1.21
  -6  -5  14    3.42    1.48
   6   5 -13    0.81    1.89
  -6  -5  13    1.73    1.51
   6   5 -12    2.70    1.61
  -6  -5  12    3.44    1.60
   6   5 -11   -0.40    1.41
  -6  -5  11    1.79    1.18
   6   5 -10    1.71    1.54
  -6  -5  10   -0.46    1.37
   6   5  -9   -0.49    1.28
  -6  -5   9    1.14    1.57
   6   5  -8    0.17    1.34
  -6  -5   8   -0.94    1.47
   6   5  -7    2.18    1.42
  -6  -5   7    1.32    0.97
   6   5  -6    1.32    1.40
  -6  -5   6    0.37    1.35
   6   5  -5    0.54    1.37
  -6  -5   5    3.21    2.29
   6   5  -4    0.72    1.47
  -6  -5   4    0.48    1.65
   6   5  -3    1.06    1.45
  -6  -5   3   -0.62    1.54
   6   5  -2    0.89    1.38
  -6  -5   2   -0.67    1.50
   6   5  -1    2.48    1.55
  -6  -5   1    4.27    1.91
   6   5   0    2.36    1.44
  -6  -5   0    1.30    0.79
   6   5   1    0.39    1.11
  -6  -5  -1   -1.31    1.35
   6   5   2    1.11    0.80
  -6  -5  -2   -0.77    1.34
   6   5   3    1.18    1.12
  -6  -5  -3    2.27    1.11
   6   5   4    1.79    1.27
  -6  -5  -4    1.16    1.01
   6   5   5    1.17    0.79
  -6  -5  -5    1.77    1.03
   6   5   6   -0.34    1.06
  -6  -5  -6    0.98    1.04
   6   5   7   -0.81    1.02
  -6  -5  -7    1.22    0.81
   6   5   8    0.55    1.14
  -6  -5  -8   -1.16    1.39
   6   5   9    1.11    1.11
  -6  -5  -9    2.11    1.05
  -6  -5 -10   -0.57    1.47
  -6  -5 -12   -1.27    1.44
  -6  -5 -13   -0.04    1.57
   6   6 -17    2.45    2.01
   6   6 -16    2.43    1.62
   6   6 -15    0.30    1.24
  -6  -6  15   -0.35    1.31
   6   6 -14    1.21    1.51
  -6  -6  14    2.04    1.82
   6   6 -13    3.53    1.72
  -6  -6  13    3.23    2.06
   6   6 -12    0.85    1.60
  -6  -6  12    4.20    1.66
   6   6 -11    2.03    1.48
  -6  -6  11    3.09    1.61
   6   6 -10    9.68    5.46
  -6  -6  10   10.53    1.93
   6   6  -9  122.20    8.93
  -6  -6   9  101.95   19.06
   6   6  -8   39.99    3.59
  -6  -6   8   41.26    3.62
   6   6  -7   30.39    9.61
  -6  -6   7   24.13    4.55
   6   6  -6    4.37    2.22
  -6  -6   6    0.99    1.04
   6   6  -5   20.15    2.72
  -6  -6   5   19.65    2.80
   6   6  -4  184.14    6.85
  -6  -6   4  156.85   10.37
   6   6  -3  116.46    5.50
  -6  -6   3  114.06   18.38
   6   6  -2    4.74    2.14
  -6  -6   2    5.09    1.28
   6   6  -1  151.85    5.95
  -6  -6   1  129.84    6.54
   6   6   0   46.50    3.51
  -6  -6   0   40.45    6.67
   6   6   1    0.95    1.16
  -6  -6  -1    2.81    0.92
   6   6   2    5.02    1.51
  -6  -6  -2    9.54    2.06
   6   6   3  121.04    8.69
  -6  -6  -3  101.06    8.27
   6   6   4    7.70    1.99
  -6  -6  -4    4.46    1.25
   6   6   5   20.62    3.74
  -6  -6  -5   20.17    3.74
   6   6   6  120.16   18.32
  -6  -6  -6  118.20   10.97
   6   6   7   44.00    3.82
  -6  -6  -7   23.26    6.87
   6   6   8   -0.18    1.06
  -6  -6  -8    5.15    2.12
  -6  -6  -9    3.64    1.30
  -6  -6 -10    2.97    0.99
  -6  -6 -11   -0.31    1.48
  -6  -6 -12    2.99    2.02
   6   7 -18    1.37    1.64
   6   7 -17    0.81    1.44
   6   7 -16    0.94    1.51
   6   7 -15    0.57    1.35
   6   7 -14    0.70    1.37
  -6  -7  14   -0.25    0.80
   6   7 -13   -0.29    1.43
  -6  -7  13    0.63    0.71
   6   7 -12    0.69    1.49
  -6  -7  12    1.05    0.95
   6   7 -11   -1.20    1.44
  -6  -7  11   -0.76    1.36
   6   7 -10    1.46    1.48
  -6  -7  10    1.08    1.02
   6   7  -9   -0.76    1.28
  -6  -7   9    1.90    1.41
   6   7  -8    0.56    1.32
  -6  -7   8   -0.21    1.34
   6   7  -7    2.02    1.88
  -6  -7   7    0.50    1.42
   6   7  -6    3.91    1.56
  -6  -7   6   -0.53    1.36
   6   7  -5   -0.03    1.33
  -6  -7   5    0.70    1.01
  -6  -7   4    1.10    1.44
   6   7  -3    1.20    1.39
  -6  -7   3    2.10    1.00
   6   7  -2    2.98    1.89
  -6  -7   2    0.99    0.94
   6   7  -1    2.28    1.91
  -6  -7   1    1.50    1.17
   6   7   0   -0.45    1.19
  -6  -7   0    0.90    0.74
   6   7   1    1.12    1.32
  -6  -7  -1    0.61    0.82
   6   7   2   -1.37    1.11
  -6  -7  -2   -0.23    1.46
   6   7   3   -0.05    1.07
  -6  -7  -3   -1.04    1.56
   6   7   4   -0.90    1.05
  -6  -7  -4    1.01    1.44
   6   7   5    0.03    1.09
  -6  -7  -5    0.85    1.36
   6   7   6    0.84    1.17
  -6  -7  -6    0.74    1.43
   6   7   7    1.73    1.05
  -6  -7  -7   -0.35    1.50
  -6  -7  -8    2.94    1.27
  -6  -7  -9    2.11    0.88
  -6  -7 -10   -0.19    1.44
  -6  -7 -11    1.49    0.84
  -6  -7 -12    1.57    1.00
   6   8 -18    3.77    1.83
   6   8 -17   -2.21    1.65
   6   8 -16   13.61    2.87
   6   8 -14    6.05    2.29
   6   8 -13    1.65    1.66
  -6  -8  13    3.23    1.51
   6   8 -12    3.00    1.39
  -6  -8  12    3.08    1.41
   6   8 -11   18.96    2.63
  -6  -8  11   18.34    2.68
   6   8 -10    0.29    1.43
  -6  -8  10    1.37    1.47
   6   8  -9    1.57    1.44
  -6  -8   9    0.29    1.00
   6   8  -8    1.35    1.42
  -6  -8   8    2.77    2.00
   6   8  -7   -0.17    1.33
  -6  -8   7    2.67    1.53
   6   8  -6    0.79    1.39
  -6  -8   6    1.65    1.55
   6   8  -5   -0.98    1.38
  -6  -8   5    2.03    1.16
   6   8  -4   39.96    5.35
  -6  -8   4   36.09    8.21
   6   8  -3    7.31    1.82
  -6  -8   3   10.35    1.84
   6   8  -2    0.84    1.43
  -6  -8   2    1.51    1.13
   6   8  -1   11.06    2.15
  -6  -8   1    9.43    2.56
   6   8   0    1.74    1.38
  -6  -8   0    4.80    1.55
   6   8   1    0.27    1.13
  -6  -8  -1    1.01    0.91
   6   8   2   21.35    2.64
  -6  -8  -2   14.32    2.56
   6   8   3   17.91    2.40
  -6  -8  -3    7.88    6.53
   6   8   4    3.20    1.78
  -6  -8  -4    4.60    1.42
   6   8   5    5.78    1.84
  -6  -8  -5    3.16    2.09
  -6  -8  -6   32.59    8.25
  -6  -8  -7   16.33    4.97
  -6  -8  -8    1.99    1.27
  -6  -8  -9    2.70    1.18
  -6  -8 -10    7.42    3.17
  -6  -8 -11    0.08    1.56
   6   9 -17    1.14    0.99
   6   9 -16    2.08    2.37
   6   9 -15    0.26    1.71
   6   9 -14    0.31    1.45
   6   9 -13    1.54    1.71
  -6  -9  13   -0.41    1.44
   6   9 -12   -2.45    1.57
  -6  -9  12   -1.33    1.21
   6   9 -11    0.16    1.49
  -6  -9  11    0.65    0.79
   6   9 -10    0.63    0.90
  -6  -9  10    2.77    1.87
   6   9  -9   -0.41    1.38
  -6  -9   9    0.42    1.27
   6   9  -8    1.20    1.52
  -6  -9   8   -1.22    1.29
   6   9  -7    0.96    1.54
  -6  -9   7    1.10    1.36
   6   9  -6   -0.08    1.31
  -6  -9   6   -0.07    0.83
   6   9  -5    0.07    1.33
  -6  -9   5   -1.10    1.46
  -6  -9   4   -0.18    1.44
   6   9  -3    1.54    2.02
  -6  -9   3    0.98    1.86
   6   9  -2    1.29    1.40
  -6  -9   2    0.98    0.75
   6   9  -1    0.50    1.15
  -6  -9   1    5.07    2.18
   6   9   0    1.43    1.29
  -6  -9   0    0.07    0.99
   6   9   1    1.10    1.25
  -6  -9  -1    2.01    1.15
   6   9   2   -0.84    1.15
  -6  -9  -2    3.16    1.33
   6   9   3    1.31    1.23
  -6  -9  -3    0.18    0.85
   6   9   4    0.73    1.15
  -6  -9  -4    0.46    0.62
  -6  -9  -5   -0.70    1.63
  -6  -9  -6    1.31    1.18
  -6  -9  -7    1.00    0.89
  -6  -9  -8    1.28    1.63
  -6  -9  -9    0.42    1.02
   6  10 -17    3.02    1.21
   6  10 -16   -1.43    1.71
   6  10 -15    1.22    1.81
   6  10 -14    1.18    1.77
   6  10 -13   -0.13    1.60
   6  10 -12    7.84    2.40
   6  10 -11   53.07    4.72
  -6 -10  11   48.56    3.94
   6  10 -10    2.63    2.17
  -6 -10  10    0.92    0.99
   6  10  -9    0.50    0.86
  -6 -10   9    2.99    1.46
   6  10  -8   10.54    2.59
  -6 -10   8    7.04    1.78
   6  10  -7    1.88    1.54
  -6 -10   7    2.76    1.67
   6  10  -6    6.08    1.80
  -6 -10   6    5.68    1.89
   6  10  -5   22.11    3.01
  -6 -10   5   14.32    5.01
   6  10  -4    6.43    2.33
  -6 -10   4    7.27    1.90
   6  10  -3    3.29    2.08
  -6 -10   3    2.31    1.40
   6  10  -2    1.08    1.19
  -6 -10   2    1.35    1.07
   6  10  -1    7.18    1.96
  -6 -10   1    6.08    1.32
   6  10   0    1.96    1.45
  -6 -10   0   -0.63    1.58
   6  10   1   57.38    4.12
  -6 -10  -1   45.66   10.94
   6  10   2    8.38    2.14
  -6 -10  -2    4.60    1.37
  -6 -10  -3    1.96    1.52
  -6 -10  -4   -0.04    1.65
  -6 -10  -5    1.04    1.30
  -6 -10  -6    1.03    1.16
  -6 -10  -7   15.89    4.83
  -6 -10  -8    3.35    1.48
   6  11 -17    2.93    1.83
   6  11 -16    1.01    1.86
   6  11 -15   -0.77    1.71
   6  11 -14    0.90    1.66
   6  11 -13    2.03    1.76
   6  11 -11    1.41    1.93
   6  11 -10   -0.68    1.59
  -6 -11  10    2.38    1.60
   6  11  -9    0.56    1.54
  -6 -11   9   -0.66    1.19
   6  11  -8    0.70    1.55
  -6 -11   8    0.08    0.66
   6  11  -7   -0.94    1.40
  -6 -11   7    1.47    1.01
   6  11  -6    1.44    1.47
  -6 -11   6    0.19    1.57
   6  11  -5   -0.46    1.46
  -6 -11   5    0.11    0.66
   6  11  -4    1.80    1.47
  -6 -11   4    1.27    0.86
   6  11  -3   -1.23    1.18
  -6 -11   3   -0.89    1.38
   6  11  -2    0.46    1.27
  -6 -11   2    0.78    0.92
   6  11  -1    1.83    1.51
  -6 -11   1    0.70    0.78
   6  11   0    0.68    1.29
  -6 -11   0    3.16    1.13
  -6 -11  -1    1.78    1.15
  -6 -11  -2   -1.99    1.72
  -6 -11  -3    1.28    0.78
  -6 -11  -4    1.33    1.63
  -6 -11  -5   -0.27    1.73
  -6 -11  -6    0.66    1.05
  -6 -11  -7    0.67    0.72
   6  12 -16    0.56    2.12
   6  12 -15    5.48    2.18
   6  12 -14    4.29    2.12
   6  12 -13    0.41    1.81
   6  12 -12    2.82    2.67
   6  12 -11   21.09    3.99
   6  12 -10    5.70    2.08
   6  12  -9   15.67    3.46
   6  12  -8    1.01    1.50
  -6 -12   8    0.80    1.45
   6  12  -7   29.90    4.38
  -6 -12   7    9.39    3.07
   6  12  -6    5.44    1.93
  -6 -12   6    3.57    1.05
   6  12  -5    2.32    2.30
  -6 -12   5    2.34    0.85
   6  12  -4    5.33    2.22
  -6 -12   4    2.98    0.92
   6  12  -3    4.27    2.25
  -6 -12   3    2.64    0.83
   6  12  -2    0.95    1.42
  -6 -12   2    2.17    0.64
  -6 -12   1   -0.05    1.74
  -6 -12   0   45.70    9.58
  -6 -12  -1    1.62    1.79
  -6 -12  -2    1.88    1.42
  -6 -12  -3   12.00    5.59
  -6 -12  -4    7.06    2.54
  -6 -12  -5    1.56    2.08
   6  13 -14    1.96    2.05
   6  13 -13    2.58    2.04
   6  13 -12   -0.02    1.80
   6  13 -11    0.49    1.94
   6  13 -10    2.67    2.03
   6  13  -9    3.25    2.58
   6  13  -8    2.88    2.40
   6  13  -7    1.51    1.70
   6  13  -6   -0.36    1.37
   6  13  -5   -0.67    1.47
  -6 -13   5    3.65    1.44
   6  13  -4    1.10    1.65
  -6 -13   4   -0.56    1.55
  -6 -13   3    0.32    0.94
  -6 -13   2   -0.13    1.58
  -6 -13   1    1.46    0.96
  -6 -13   0   -1.27    1.80
  -6 -13  -1   -0.43    1.59
   6  14 -11    4.03    2.92
   6  14 -10    6.53    2.94
   6  14  -9    2.97    2.17
   6  14  -8    1.94    1.94
   7 -15   0    0.72    0.83
   7 -15   1    0.68    1.08
   7 -15   2    2.71    1.21
   7 -15   3   -0.45    0.85
  -7  15  -5    0.03    0.99
  -7  15  -6    1.48    1.56
  -7  15  -7    1.58    1.58
  -7  15  -9    0.78    1.53
   7 -14  -3    3.91    1.40
   7 -14  -2    0.96    0.81
   7 -14  -1    3.04    0.96
   7 -14   0   17.13    4.32
   7 -14   1    8.99    3.36
   7 -14   2   31.89    8.86
   7 -14   3   32.57   11.34
  -7  14  -4   11.55    3.01
  -7  14  -5    0.57    1.63
  -7  14  -6   10.84    3.17
  -7  14  -7    3.52    1.83
  -7  14  -8    2.60    1.72
   7 -14   9    0.79    1.27
  -7  14  -9    2.95    2.25
   7 -14  10    2.55    1.91
  -7  14 -10   -0.03    1.52
   7 -14  11    2.67    2.30
  -7  14 -11   -1.77    1.57
   7 -14  12    5.35    2.04
   7 -14  13    9.16    2.97
   7 -13  -5    2.58    2.23
  -7  13   5   -0.19    1.53
   7 -13  -4    1.18    1.21
  -7  13   4    1.08    1.62
   7 -13  -3    0.60    0.84
  -7  13   3    0.89    1.43
   7 -13  -2    0.88    0.77
  -7  13   2    3.40    2.08
   7 -13  -1    2.47    1.22
   7 -13   0    0.40    1.05
   7 -13   1    1.44    0.97
   7 -13   2   -1.07    1.21
  -7  13  -3   -0.04    1.49
  -7  13  -4    0.24    1.44
   7 -13   5   -0.05    1.32
  -7  13  -5    1.22    2.14
   7 -13   6   -0.60    1.29
  -7  13  -6    3.11    2.19
   7 -13   7    1.14    1.42
  -7  13  -7    1.46    1.62
   7 -13   8   -0.38    0.73
  -7  13  -8    0.26    1.52
   7 -13   9    0.78    1.33
  -7  13  -9   -1.26    1.45
   7 -13  10    0.30    1.61
  -7  13 -10   -0.05    1.49
   7 -13  11   -0.12    1.72
  -7  13 -11    2.54    2.24
   7 -13  12    0.55    1.79
  -7  13 -12   -0.21    1.50
   7 -13  13    1.01    1.85
   7 -13  14    1.52    1.93
   7 -13  15    2.52    2.17
  -7  12   9    7.59    3.05
  -7  12   8    6.26    2.26
  -7  12   7    4.99    2.71
   7 -12  -6   -0.32    1.48
  -7  12   6    1.30    1.85
   7 -12  -5    1.30    1.00
  -7  12   5    1.27    1.42
   7 -12  -4    1.89    1.13
  -7  12   4    2.72    1.56
   7 -12  -3    7.07    1.94
  -7  12   3    3.40    1.64
   7 -12  -2   -0.63    1.24
  -7  12   2    1.14    1.35
   7 -12  -1   54.09   10.21
  -7  12   1   66.33    4.27
   7 -12   0   53.31    9.42
  -7  12   0   48.31    3.55
   7 -12   1    1.60    0.97
  -7  12  -1    5.47    1.60
   7 -12   2    3.37    0.93
  -7  12  -3    1.05    1.27
   7 -12   4   37.16    3.38
  -7  12  -4   32.93    3.84
   7 -12   5   12.46    2.49
  -7  12  -5   12.45    2.54
   7 -12   6    0.59    1.12
  -7  12  -6    2.41    1.39
   7 -12   7    9.79    2.42
  -7  12  -7    6.62    2.37
   7 -12   8    2.27    1.71
  -7  12  -8   -0.84    1.19
   7 -12   9    2.83    1.17
  -7  12  -9    0.50    1.26
   7 -12  10    3.86    1.80
  -7  12 -10    5.76    2.02
   7 -12  11    7.15    2.91
  -7  12 -11    5.92    2.24
   7 -12  12   95.29   10.37
  -7  12 -12   48.73   13.25
   7 -12  13    7.30    2.85
  -7  12 -13    2.61    2.40
   7 -12  14    2.46    2.16
   7 -12  15    2.98    2.16
   7 -12  16    1.18    1.88
  -7  11  11    2.17    3.10
  -7  11  10    1.99    2.12
  -7  11   9    0.05    1.81
  -7  11   8    3.10    1.84
   7 -11  -7   -1.30    1.31
  -7  11   7    1.89    1.74
   7 -11  -6   -0.21    1.30
  -7  11   6   -0.48    1.62
   7 -11  -5    0.49    0.75
  -7  11   5   -0.66    1.29
   7 -11  -4   -0.72    1.24
  -7  11   4    1.55    1.39
   7 -11  -3    0.98    0.53
  -7  11   3    1.32    1.26
   7 -11  -2    0.90    0.46
  -7  11   2    0.09    1.21
   7 -11  -1    0.74    0.50
  -7  11   1    0.26    1.19
   7 -11   0   -0.19    1.08
  -7  11   0    1.59    1.33
   7 -11   1    0.17    0.57
  -7  11  -1    2.84    1.96
   7 -11   2    0.32    1.23
  -7  11  -2    1.71    1.26
  -7  11  -2    2.31    1.28
   7 -11   3   -0.62    1.33
  -7  11  -3    1.82    1.37
   7 -11   4    0.83    1.08
  -7  11  -4   -0.13    1.08
   7 -11   5    1.38    1.46
  -7  11  -5    0.82    1.17
   7 -11   6    1.28    1.42
  -7  11  -6    0.55    1.12
   7 -11   7    0.98    1.53
  -7  11  -7    0.12    1.02
   7 -11   8    0.21    1.44
  -7  11  -8    1.84    1.26
   7 -11   9    1.67    1.01
  -7  11  -9   -1.50    1.07
   7 -11  10    1.64    1.80
  -7  11 -10    1.39    1.23
   7 -11  11    0.04    1.73
  -7  11 -11   -1.34    1.14
   7 -11  12   -1.27    1.66
  -7  11 -12   -0.53    1.20
   7 -11  13   -0.09    1.75
  -7  11 -13   -1.53    1.36
   7 -11  14   -0.32    1.74
  -7  11 -14    5.14    2.50
   7 -11  15    0.57    1.91
   7 -11  16    3.46    2.21
   7 -11  17   -1.89    1.97
  -7  10  12    3.59    2.26
  -7  10  11    1.66    2.10
  -7  10  10    0.60    2.04
  -7  10   9   -0.08    1.77
   7 -10  -8    5.75    2.44
  -7  10   8   11.17    2.36
   7 -10  -7   -0.09    1.22
  -7  10   7   -0.60    1.47
   7 -10  -6    2.24    1.13
  -7  10   6    1.40    1.70
   7 -10  -5   20.72    2.68
  -7  10   5   17.95    2.81
   7 -10  -4   18.82    3.36
  -7  10   4   19.49    2.93
   7 -10  -3   19.83    3.58
  -7  10   3   12.17    3.30
   7 -10  -2   31.83    4.31
  -7  10   2   37.50    3.61
   7 -10  -1    6.15    0.83
  -7  10   1    4.45    1.80
   7 -10   0    2.50    0.57
   7 -10   0    4.03    1.14
  -7  10   0    3.18    1.78
   7 -10   1   34.79    6.45
   7 -10   1   25.34    6.38
  -7  10  -1   36.66    3.76
   7 -10   2    2.14    1.35
  -7  10  -2    3.80    1.60
  -7  10  -2    2.90    1.52
   7 -10   3    4.17    1.16
  -7  10  -3    1.76    1.70
  -7  10  -3    2.29    1.18
   7 -10   4   19.63    3.65
  -7  10  -4   14.66    2.24
   7 -10   5   36.74    3.85
  -7  10  -5   28.74    3.27
   7 -10   6    1.23    2.00
  -7  10  -6    0.92    1.38
   7 -10   7   -0.32    1.45
  -7  10  -7    0.10    1.22
   7 -10   8   46.06    4.08
  -7  10  -8   27.73    3.16
   7 -10   9   84.36   12.30
  -7  10  -9   63.78    4.92
   7 -10  10   -0.72    1.79
  -7  10 -10    0.22    1.09
   7 -10  11    8.57    2.78
  -7  10 -11   12.21    2.24
   7 -10  12    6.67    2.71
  -7  10 -12    2.69    1.82
   7 -10  13   24.38    4.41
  -7  10 -13   15.81    3.16
   7 -10  14    4.41    2.10
  -7  10 -14   -0.18    1.39
   7 -10  15   -0.61    1.88
   7 -10  16    1.46    2.10
   7 -10  17   15.54    6.53
  -7   9  13    1.28    1.94
  -7   9  12   -1.31    1.70
  -7   9  11    2.52    2.53
  -7   9  10   -1.15    1.70
   7  -9  -9   -0.25    1.29
  -7   9   9   -0.23    1.74
   7  -9  -8   -0.25    1.13
  -7   9   8    1.08    1.67
   7  -9  -7   -0.53    1.09
  -7   9   7    0.89    1.61
   7  -9  -6    0.72    0.68
  -7   9   6   -0.03    0.90
   7  -9  -5    0.48    1.14
  -7   9   5    3.01    1.68
   7  -9  -4   -1.65    1.00
  -7   9   4    2.26    0.89
   7  -9  -3    0.56    0.80
  -7   9   3   -0.94    1.27
   7  -9  -2    1.75    0.78
  -7   9   2    0.79    1.21
   7  -9  -1   -0.18    1.00
   7  -9  -1    1.65    0.71
  -7   9   1    0.11    1.16
   7  -9   0    1.31    1.11
   7  -9   0   -0.90    0.84
  -7   9   0    1.86    1.15
   7  -9   1    1.24    0.77
   7  -9   1    0.88    0.94
  -7   9  -1    0.68    1.16
   7  -9   2   -0.43    1.06
  -7   9  -2    0.94    0.49
  -7   9  -2    0.43    0.60
   7  -9   3    1.81    0.77
  -7   9  -3   -0.48    0.93
  -7   9  -3    0.00    1.02
   7  -9   4    0.22    0.80
  -7   9  -4    0.69    1.05
  -7   9  -4   -0.43    0.94
   7  -9   5    0.46    1.30
  -7   9  -5   -0.39    0.91
   7  -9   6    0.25    1.34
  -7   9  -6    2.97    1.56
   7  -9   7    1.93    1.05
  -7   9  -7   -0.09    1.09
   7  -9   8   -0.48    1.55
  -7   9  -8   -0.45    1.14
   7  -9   9    2.28    1.79
  -7   9  -9    1.93    1.09
   7  -9  10    1.79    1.23
  -7   9 -10    0.57    1.20
   7  -9  11    2.08    2.01
  -7   9 -11    1.40    1.26
   7  -9  12    0.42    1.77
  -7   9 -12   -0.19    1.12
   7  -9  13    1.86    0.83
  -7   9 -13   -0.05    1.18
   7  -9  14    3.13    1.64
  -7   9 -14    3.35    2.17
   7  -9  15    1.22    1.07
   7  -9  16    0.28    0.67
   7  -9  17    0.85    0.97
   7  -9  18    2.51    2.40
  -7   8  14    1.79    1.70
  -7   8  13   -1.13    1.79
  -7   8  12   10.36    3.82
  -7   8  11    3.04    2.02
   7  -8 -10    4.29    2.12
  -7   8  10    3.09    1.84
   7  -8  -9    1.35    1.36
  -7   8   9    1.03    1.65
   7  -8  -8    3.25    1.43
  -7   8   8    1.57    2.31
   7  -8  -7    0.54    0.81
  -7   8   7    1.02    1.00
   7  -8  -6    1.43    1.02
  -7   8   6    2.17    1.69
   7  -8  -5    5.41    1.07
  -7   8   5    5.99    2.48
   7  -8  -4   16.64    2.68
  -7   8   4   21.62    2.88
   7  -8  -3   39.19    7.88
   7  -8  -3   41.62    7.08
  -7   8   3   63.51    8.02
   7  -8  -2   84.03   15.36
   7  -8  -2   73.10    9.60
  -7   8   2   90.38    7.40
   7  -8  -1    2.65    1.43
   7  -8  -1    1.72    0.63
  -7   8   1    0.71    1.37
   7  -8   0   10.52    1.74
   7  -8   0    7.85    1.71
  -7   8   0    9.32    1.88
   7  -8   1   14.06    2.50
  -7   8  -1   10.21    1.84
   7  -8   2    2.27    0.69
  -7   8  -2    2.21    1.08
  -7   8  -2    2.61    1.23
   7  -8   3    0.98    1.21
  -7   8  -3    1.11    1.13
  -7   8  -3   -0.53    1.02
   7  -8   4    2.69    1.83
  -7   8  -4    3.74    1.51
  -7   8  -4    2.86    1.00
   7  -8   5   34.76    6.88
  -7   8  -5   21.66    2.46
  -7   8  -5   27.85    2.45
   7  -8   6   14.61    2.75
  -7   8  -6   12.42    1.96
  -7   8  -6   11.07    1.60
   7  -8   7   48.93    6.27
  -7   8  -7   35.98    4.82
   7  -8   8   47.23    6.45
  -7   8  -8   29.39    4.06
   7  -8   9    0.28    0.82
  -7   8  -9    1.83    1.49
   7  -8  10  138.72    6.65
  -7   8 -10   99.64    5.01
   7  -8  11   13.75    2.88
  -7   8 -11   10.91    2.23
   7  -8  12   14.51    2.96
  -7   8 -12    7.11    1.92
   7  -8  13   21.20    3.57
  -7   8 -13   10.35    2.19
   7  -8  14   -0.52    1.96
   7  -8  15   12.42    3.46
   7  -8  16    2.99    2.10
   7  -8  17    1.47    2.16
  -7   7  15    1.05    1.91
  -7   7  14   -1.43    1.83
  -7   7  13    1.12    1.95
  -7   7  12    1.54    1.84
  -7   7  11    0.88    1.85
   7  -7 -10   -0.17    1.11
  -7   7  10    0.01    1.14
   7  -7  -9   -0.31    1.06
  -7   7   9   -1.41    1.67
   7  -7  -8    1.30    1.63
  -7   7   8   -1.06    1.52
   7  -7  -7    0.45    0.64
  -7   7   7    1.97    1.55
   7  -7  -6    1.10    0.94
  -7   7   6    2.31    0.72
   7  -7  -5    0.16    0.34
  -7   7   5    1.02    1.73
   7  -7  -4   -0.48    0.77
   7  -7  -4    0.48    0.54
  -7   7   4    0.85    1.63
   7  -7  -3   -0.26    0.94
   7  -7  -3    1.21    0.73
  -7   7   3   -1.90    1.52
   7  -7  -2   -0.73    0.95
   7  -7  -2    0.89    0.61
  -7   7   2    2.44    1.58
   7  -7  -1    2.08    0.99
   7  -7  -1   -0.13    0.65
  -7   7   1   -1.20    1.31
   7  -7   0    1.33    1.13
   7  -7   0   -0.25    0.65
  -7   7   0    0.84    1.28
   7  -7   1    1.00    0.43
  -7   7  -1    1.15    1.25
   7  -7   2    0.48    0.67
  -7   7  -2    0.37    0.79
  -7   7  -2    0.63    1.12
   7  -7   3   -0.39    1.21
  -7   7  -3   -0.09    0.81
  -7   7  -3   -0.18    1.06
   7  -7   4    0.87    1.32
  -7   7  -4    0.21    0.83
  -7   7  -4    1.20    1.07
   7  -7   5    2.92    1.52
  -7   7  -5    0.58    0.89
  -7   7  -5    0.35    0.99
   7  -7   6   -0.81    1.46
  -7   7  -6   -0.13    0.86
  -7   7  -6    0.72    0.97
   7  -7   7    3.07    1.71
  -7   7  -7    0.79    0.66
  -7   7  -7    1.47    1.04
   7  -7   8    0.46    1.63
  -7   7  -8   -0.71    0.97
   7  -7   9    0.52    1.61
  -7   7  -9   -0.25    0.98
   7  -7  10    0.62    1.56
  -7   7 -10    1.42    1.16
   7  -7  11    1.44    1.12
  -7   7 -11   -0.09    1.09
   7  -7  12    1.14    1.80
  -7   7 -12    1.33    1.71
   7  -7  13   -0.91    1.64
   7  -7  14    1.31    1.40
   7  -7  15    0.09    0.91
   7  -7  16    0.14    1.95
   7  -7  17   -0.52    1.97
  -7   6  16    0.18    1.87
  -7   6  15    6.94    2.40
  -7   6  14   -0.47    1.80
  -7   6  13    5.76    2.05
  -7   6  12    0.39    1.68
  -7   6  11    4.38    2.59
   7  -6 -10    0.78    1.09
  -7   6  10    2.35    2.58
   7  -6  -9    8.32    1.73
  -7   6   9    6.91    2.55
   7  -6  -8   27.78    2.62
  -7   6   8   30.76    3.72
   7  -6  -7   12.55    2.15
  -7   6   7   14.79    2.95
   7  -6  -6   58.34   13.48
  -7   6   6   75.19    9.00
   7  -6  -5   39.79    7.93
   7  -6  -5   39.89    7.27
  -7   6   5   48.39    4.95
   7  -6  -4  139.99    5.79
   7  -6  -4  122.90   13.35
  -7   6   4  150.58    6.16
   7  -6  -3    7.70    1.25
   7  -6  -3    4.36    1.72
  -7   6   3    6.42    2.29
   7  -6  -2    0.73    1.11
   7  -6  -2    1.12    0.78
  -7   6   2   -0.69    1.42
   7  -6  -1    5.35    1.59
   7  -6  -1    3.35    0.53
  -7   6   1    5.16    1.91
   7  -6   0    0.49    0.60
   7  -6   0    0.56    0.60
  -7   6   0    1.05    1.96
  -7   6  -1   22.75    2.61
   7  -6   2    8.63    2.10
  -7   6  -2    3.00    0.83
  -7   6  -2    5.37    1.31
   7  -6   3    0.96    1.29
  -7   6  -3    3.50    1.37
  -7   6  -3    0.92    1.19
   7  -6   4    0.11    1.34
  -7   6  -4    0.46    0.92
  -7   6  -4    0.61    1.20
   7  -6   5    6.22    2.58
  -7   6  -5    2.56    1.30
  -7   6  -5    4.56    1.19
   7  -6   6    2.15    1.56
  -7   6  -6    1.46    0.88
  -7   6  -6    1.45    1.12
   7  -6   7    0.69    0.89
  -7   6  -7   -0.18    0.83
  -7   6  -7    1.03    0.61
   7  -6   8   32.76    3.51
  -7   6  -8   22.92    2.33
  -7   6  -8   21.32    4.13
   7  -6   9   12.55    2.97
  -7   6  -9    7.99    1.74
   7  -6  10    3.92    2.49
  -7   6 -10    2.60    1.45
   7  -6  11    5.04    2.14
  -7   6 -11    4.56    1.49
   7  -6  12    0.61    1.62
  -7   6 -12    1.37    0.67
   7  -6  13    1.01    1.79
   7  -6  14   18.07    3.69
   7  -6  15    5.31    2.97
   7  -6  16    9.00    2.89
   7  -6  17   -1.01    1.72
  -7   5  16   -0.09    1.78
  -7   5  15    2.03    2.04
  -7   5  14    0.93    1.86
  -7   5  13   -0.40    1.89
  -7   5  12    0.28    1.81
  -7   5  11    2.06    2.56
  -7   5  10    2.38    1.93
   7  -5  -9    0.24    1.02
  -7   5   9    2.75    1.78
   7  -5  -8   -0.07    0.84
  -7   5   8    1.11    1.91
   7  -5  -7    0.38    0.82
   7  -5  -7   -0.31    0.71
  -7   5   7    0.26    1.75
   7  -5  -6    1.71    1.62
   7  -5  -6   -0.59    0.72
  -7   5   6    1.39    1.84
   7  -5  -5    1.12    1.03
   7  -5  -5    0.09    0.82
  -7   5   5   -2.06    1.72
   7  -5  -4   -0.22    0.85
   7  -5  -4   -0.04    0.76
  -7   5   4   -0.68    1.60
   7  -5  -3    0.16    0.93
   7  -5  -3    0.07    0.45
  -7   5   3    2.03    1.67
   7  -5  -2   -0.49    0.96
   7  -5  -2   -1.24    0.64
  -7   5   2    1.09    1.58
   7  -5  -1   -0.34    1.01
   7  -5  -1    0.47    0.39
  -7   5   1    0.60    1.45
   7  -5   0    1.50    1.12
   7  -5   0    0.10    0.33
  -7   5   0    0.84    1.39
   7  -5   1    0.76    0.57
  -7   5  -1    0.38    1.43
   7  -5   2   -0.47    1.18
  -7   5  -2    1.22    0.78
  -7   5  -2    1.00    1.33
   7  -5   3    0.61    0.82
  -7   5  -3    0.63    0.52
  -7   5  -3   -0.72    1.26
   7  -5   4    0.08    1.55
  -7   5  -4    0.57    0.70
  -7   5  -4    0.39    0.88
   7  -5   5   -0.67    1.65
  -7   5  -5    0.06    0.69
  -7   5  -5   -0.09    0.75
   7  -5   6   -1.03    1.47
  -7   5  -6    0.24    0.49
  -7   5  -6    1.42    1.09
   7  -5   7    0.21    0.62
  -7   5  -7    0.41    0.83
  -7   5  -7    0.46    0.97
   7  -5   8    2.15    1.71
  -7   5  -8    0.79    0.88
  -7   5  -8    0.01    0.57
   7  -5   9   -1.25    1.56
  -7   5  -9   -0.50    0.86
   7  -5  10    1.64    1.35
   7  -5  11    1.22    1.06
   7  -5  12   -0.65    1.52
   7  -5  13    0.92    1.63
   7  -5  14    4.56    2.86
   7  -5  15    1.86    1.65
   7  -5  16    1.20    1.01
   7  -5  17    2.04    1.19
  -7   4  16    1.60    1.95
  -7   4  15    4.15    2.82
  -7   4  14    6.77    2.21
  -7   4  13    8.82    2.66
  -7   4  12    2.15    2.72
  -7   4  11    2.73    1.25
  -7   4  10   35.06    4.07
  -7   4   9   32.37    4.09
   7  -4  -8  121.46   13.05
  -7   4   8  135.42   15.00
   7  -4  -7   -0.84    0.90
  -7   4   7   -0.62    1.78
   7  -4  -6  221.95    6.32
  -7   4   6  227.91    8.06
   7  -4  -5  112.56    4.88
  -7   4   5  115.12    5.53
   7  -4  -4   15.65    2.26
  -7   4   4   17.95    2.97
   7  -4  -3    4.91    1.62
  -7   4   3    7.03    2.15
   7  -4  -2   15.79    2.42
  -7   4   2   11.96    2.36
   7  -4  -1   11.64    2.06
  -7   4   1   12.63    2.36
   7  -4   0   11.35    1.81
  -7   4   0   13.16    2.74
   7  -4   1    3.32    1.30
  -7   4  -1    2.08    1.50
   7  -4   2   26.62    5.13
  -7   4  -2   27.47    6.58
   7  -4   3   -0.02    1.06
  -7   4  -3    2.22    0.77
   7  -4   4   68.48    8.89
  -7   4  -4   49.75    3.23
   7  -4   5    1.06    1.61
  -7   4  -5   -0.17    1.12
   7  -4   6    1.74    0.84
  -7   4  -6    0.76    0.75
   7  -4   7   48.41    3.88
  -7   4  -7   39.28    2.89
   7  -4   8   16.29    3.40
  -7   4  -8   10.75    2.10
   7  -4   9   10.33    2.67
  -7   4  -9   10.01    1.88
   7  -4  10   -0.49    1.53
   7  -4  11    7.50    2.40
   7  -4  12   29.71    3.64
   7  -4  13    0.09    1.76
   7  -4  14   10.29    2.67
   7  -4  15   -1.38    1.66
   7  -4  16    0.41    1.55
  -7   3  17    0.11    1.69
  -7   3  16   -2.00    1.79
  -7   3  15    1.05    1.92
  -7   3  14    0.35    1.67
  -7   3  13    0.89    1.81
  -7   3  12    0.70    2.01
  -7   3  11    1.19    1.89
  -7   3  10    1.71    1.91
   7  -3  -9   -1.28    0.88
  -7   3   9   -0.24    1.75
   7  -3  -8    0.56    0.90
  -7   3   8    1.11    1.89
   7  -3  -7   -0.82    0.95
  -7   3   7    1.32    1.87
   7  -3  -6   -0.61    0.98
  -7   3   6   -0.72    1.74
   7  -3  -5   -0.46    0.97
  -7   3   5   -1.46    1.66
   7  -3  -4    0.19    0.93
  -7   3   4    3.90    1.74
   7  -3  -3    0.42    0.99
  -7   3   3    0.60    1.69
   7  -3  -2    1.81    1.47
  -7   3   2    1.78    1.61
   7  -3  -1   -0.49    1.14
  -7   3   1    2.76    1.75
   7  -3   0   -0.23    1.13
  -7   3   0    0.26    0.89
   7  -3   1   -0.30    1.43
  -7   3  -1    1.26    1.50
   7  -3   2    1.30    0.95
  -7   3  -2   -0.23    1.29
   7  -3   3    2.37    1.43
  -7   3  -3    0.69    1.28
   7  -3   4    0.70    0.93
  -7   3  -4    0.93    1.28
   7  -3   5    2.27    1.00
  -7   3  -5    0.86    0.97
   7  -3   6    6.14    2.02
  -7   3  -6    0.37    0.99
   7  -3   7    1.21    1.60
  -7   3  -7    3.47    1.95
   7  -3   8   -1.09    1.42
  -7   3  -8    2.40    1.27
   7  -3   9    1.41    1.12
  -7   3  -9    0.48    1.03
   7  -3  10   -1.47    1.41
  -7   3 -10   -0.17    1.02
   7  -3  11    1.71    1.76
   7  -3  12    1.12    1.70
   7  -3  13    1.27    1.81
   7  -3  14    1.57    1.80
   7  -3  15    0.33    1.62
   7  -3  16    0.22    1.51
  -7   2  17    6.21    2.94
  -7   2  16   12.42    4.34
  -7   2  15    0.85    1.73
  -7   2  14    0.50    1.68
  -7   2  13    0.46    1.80
  -7   2  12    0.37    1.87
  -7   2  11    5.64    2.39
   7  -2 -10    1.25    1.06
  -7   2  10    1.72    1.82
   7  -2  -9   62.92    7.36
  -7   2   9   73.47    8.90
   7  -2  -8   29.79    2.90
  -7   2   8   38.95   20.90
   7  -2  -7    2.39    0.98
  -7   2   7   -0.03    1.75
   7  -2  -6   23.63    2.39
  -7   2   6   32.01    3.64
   7  -2  -5   13.30    2.19
  -7   2   5   15.88    3.04
   7  -2  -4   66.69    4.67
  -7   2   4   74.44    5.52
   7  -2  -3   82.07    5.24
  -7   2   3   71.76    5.53
   7  -2  -2    1.32    1.11
  -7   2   2   -2.33    1.56
   7  -2  -1   45.45    7.24
  -7   2   1   43.29    3.53
  -7   2   0    1.60    1.34
   7  -2   1  131.94   20.80
  -7   2  -1  120.95    7.15
   7  -2   2   57.68   11.20
  -7   2  -2   52.32    4.73
   7  -2   3    1.15    1.56
  -7   2  -3    1.30    0.79
   7  -2   4    2.74    0.92
  -7   2  -4    2.90    1.42
   7  -2   5   21.23    2.67
  -7   2  -5   22.16    2.37
   7  -2   6    4.92    1.15
  -7   2  -6    4.40    1.48
   7  -2   7   10.17    1.71
  -7   2  -7   11.04    2.43
   7  -2   8   29.89    5.64
  -7   2  -8   24.17    2.69
   7  -2   9   66.70    8.06
  -7   2  -9   40.53    8.13
   7  -2  10    4.33    1.79
  -7   2 -10    1.19    0.73
   7  -2  11   11.73    2.51
  -7   2 -11    6.43    2.03
   7  -2  12   42.22    3.99
   7  -2  13   23.19    3.64
   7  -2  14    0.66    1.67
   7  -2  15    2.04    1.69
  -7   1  17   -0.35    1.56
  -7   1  16   -0.28    1.80
  -7   1  15    2.94    2.36
  -7   1  14    1.56    1.58
  -7   1  13   -1.22    1.72
  -7   1  12    1.60    1.94
   7  -1 -11    1.69    1.20
  -7   1  11    2.11    1.90
   7  -1 -10   -0.11    0.94
  -7   1  10    3.33    2.55
   7  -1  -9    0.54    0.98
  -7   1   9    5.12    2.68
   7  -1  -8    1.20    1.21
  -7   1   8    0.20    1.71
   7  -1  -7    1.60    1.08
  -7   1   7    0.90    1.73
   7  -1  -6   -1.38    1.01
  -7   1   6    0.00    1.78
   7  -1  -5    0.49    1.11
  -7   1   5    0.41    1.73
   7  -1  -4    0.71    1.08
  -7   1   4   -1.08    1.87
   7  -1  -3   -1.04    1.03
  -7   1   3    1.44    1.78
   7  -1  -2   -0.09    1.07
  -7   1   2    1.74    0.88
   7  -1  -1    1.66    1.46
  -7   1   1    1.43    1.23
   7  -1   0    0.87    0.61
  -7   1   0   -1.39    1.58
   7  -1   1    1.81    0.83
  -7   1  -1    0.39    1.00
   7  -1   2    2.74    1.48
  -7   1  -2    2.11    1.55
   7  -1   3   -0.65    1.35
  -7   1  -3    0.99    1.27
   7  -1   4    2.29    1.03
  -7   1  -4    0.51    1.19
   7  -1   5   -0.92    1.44
  -7   1  -5    0.84    1.20
   7  -1   6    1.61    0.87
  -7   1  -6    0.89    0.77
   7  -1   7   -1.47    1.32
  -7   1  -7   -0.21    1.07
   7  -1   8    0.42    0.56
  -7   1  -8   -0.35    1.11
   7  -1   9    1.21    0.71
  -7   1  -9    1.71    0.62
   7  -1  10   -2.26    1.41
  -7   1 -10   -0.36    1.16
   7  -1  11   -0.05    1.07
  -7   1 -11    0.60    0.51
   7  -1  12    0.76    1.41
   7  -1  13    0.75    0.74
   7  -1  14   -0.22    1.46
   7  -1  15    1.07    0.89
  -7   0  17   -1.30    1.62
  -7   0  16    2.64    1.86
  -7   0  15    8.05    2.59
  -7   0  14    1.68    1.68
  -7   0  13    3.68    1.80
   7   0 -12   17.55    2.23
  -7   0  12   16.91    3.09
   7   0 -11    0.77    1.17
  -7   0  11    0.71    1.75
   7   0 -10    0.40    1.03
  -7   0  10    2.71    2.41
   7   0  -9    2.61    1.20
  -7   0   9    3.64    2.52
   7   0  -8    2.97    1.27
  -7   0   8    1.11    1.81
   7   0  -7   36.20    3.25
  -7   0   7   39.27    4.06
   7   0  -6   26.66    2.81
  -7   0   6   31.89    3.75
   7   0  -5   60.62    4.04
  -7   0   5   59.54    4.33
   7   0  -4   42.46    4.35
  -7   0   4   49.62    4.36
   7   0  -3   13.14    2.59
  -7   0   3   10.87    2.43
   7   0  -2   38.97    4.08
  -7   0   2   41.16    3.47
   7   0  -1    2.69    1.29
  -7   0   1    3.04    1.83
   7   0   0   34.81    3.03
  -7   0   0   31.58    3.13
   7   0   1    0.55    0.89
  -7   0  -1    2.02    1.53
   7   0   2   36.42    6.22
  -7   0  -2   31.65    3.03
   7   0   3    9.10    2.22
  -7   0  -3    5.15    1.75
   7   0   4    0.89    0.78
  -7   0  -4   -0.11    1.14
   7   0   5   32.10    3.13
  -7   0  -5   23.89    2.88
   7   0   6  114.72   17.12
  -7   0  -6   83.43   14.24
   7   0   7   29.94    3.16
  -7   0  -7   19.73    4.61
   7   0   8   25.79    4.26
  -7   0  -8   22.10    3.50
   7   0   9   51.43   12.80
  -7   0  -9   49.45   10.66
   7   0  10   42.03    8.37
  -7   0 -10   27.51    6.21
   7   0  11    2.62    1.23
  -7   0 -11    3.39    1.50
   7   0  12    4.64    1.54
  -7   0 -12    4.21    1.25
   7   0  13    1.32    1.80
   7   0  14    4.51    2.24
  -7  -1  17   -0.48    1.59
  -7  -1  16   -2.15    1.60
  -7  -1  15    2.08    1.59
  -7  -1  14    1.75    1.56
   7   1 -13   -0.71    1.19
  -7  -1  13    1.30    1.76
   7   1 -12   -0.48    1.10
  -7  -1  12    0.50    1.83
   7   1 -11    0.37    1.17
  -7  -1  11    0.18    1.73
   7   1 -10    1.10    1.26
  -7  -1  10    1.14    1.83
   7   1  -9    1.02    1.18
  -7  -1   9    2.43    1.21
   7   1  -8    0.01    1.09
  -7  -1   8    1.69    2.19
   7   1  -7   -0.23    0.99
  -7  -1   7    0.33    1.14
   7   1  -6   -0.12    1.11
  -7  -1   6   -1.06    1.72
   7   1  -5    1.47    1.22
  -7  -1   5    0.87    1.85
   7   1  -4    1.34    1.45
  -7  -1   4   -1.29    1.71
   7   1  -3    1.05    1.00
  -7  -1   3    0.43    1.67
   7   1  -2    1.48    1.33
  -7  -1   2   -0.25    1.62
   7   1  -1    1.15    1.03
  -7  -1   1    1.98    0.94
   7   1   0   -0.76    1.31
  -7  -1   0    3.01    2.20
   7   1   1    2.71    1.91
  -7  -1  -1    0.44    1.50
   7   1   2    1.88    1.41
  -7  -1  -2    0.83    1.44
   7   1   3   -0.85    1.20
  -7  -1  -3    1.09    0.84
   7   1   4   -0.85    1.29
  -7  -1  -4    3.31    1.47
   7   1   5   -0.48    1.37
  -7  -1  -5    1.89    0.61
   7   1   6   -0.47    1.38
  -7  -1  -6    2.03    0.79
   7   1   7   -0.27    1.32
  -7  -1  -7    1.79    1.00
   7   1   8    0.46    1.30
  -7  -1  -8    1.34    0.88
  -7  -1  -9   -0.56    1.24
   7   1  10    0.13    1.17
  -7  -1 -10   -0.97    1.30
   7   1  11   -2.04    1.13
  -7  -1 -11    0.56    0.74
   7   1  12    1.69    1.21
  -7  -1 -12   -1.10    1.36
   7   1  13   -0.89    1.32
  -7  -2  16    2.55    1.81
  -7  -2  15    5.14    2.04
   7   2 -14   30.75    3.30
  -7  -2  14   34.34    4.03
   7   2 -13    5.07    1.51
  -7  -2  13    3.49    1.90
   7   2 -12    4.07    1.35
  -7  -2  12    5.50    2.74
   7   2 -11   -0.17    1.10
   7   2 -10    7.04    2.08
  -7  -2  10    8.09    2.15
   7   2  -9    3.79    1.70
  -7  -2   9    1.39    0.81
   7   2  -8   15.81    2.41
  -7  -2   8   21.21    4.39
   7   2  -7    2.98    1.24
  -7  -2   7    7.23    2.42
   7   2  -6    5.92    1.87
  -7  -2   6    5.01    2.00
   7   2  -5   15.56    2.39
  -7  -2   5   15.87    3.53
   7   2  -4    1.51    1.33
  -7  -2   4   -0.34    1.67
   7   2  -3    0.93    1.25
  -7  -2   3    0.34    1.55
   7   2  -2    9.22    2.24
  -7  -2   2    7.78    2.44
   7   2  -1   62.20    7.93
  -7  -2   1   51.96    3.87
   7   2   0   11.17    2.25
  -7  -2   0   11.08    2.20
   7   2   1   -0.25    1.32
  -7  -2  -1   -2.38    1.40
   7   2   2    8.64    2.21
  -7  -2  -2    5.95    2.03
   7   2   3   32.23    3.12
  -7  -2  -3   24.20    3.27
   7   2   4    1.39    1.35
  -7  -2  -4    1.56    1.20
   7   2   5    9.27    1.24
  -7  -2  -5   13.35    2.68
   7   2   6   -0.88    1.32
  -7  -2  -6    1.10    0.93
   7   2   7   33.65    5.42
  -7  -2  -7   24.36    5.55
   7   2   8   30.17    4.90
  -7  -2  -8   18.33    3.00
   7   2   9   16.79    4.14
  -7  -2  -9   11.58    2.49
   7   2  10   22.49    7.25
  -7  -2 -10   18.24    2.97
   7   2  11   33.05    4.51
  -7  -2 -11   21.16    5.04
   7   2  12    2.94    1.53
  -7  -2 -12    3.25    1.36
  -7  -3  16    0.81    1.56
   7   3 -15    0.58    1.46
  -7  -3  15    5.08    2.69
   7   3 -14   -0.47    1.16
  -7  -3  14    1.37    1.79
   7   3 -13   -0.07    1.18
  -7  -3  13    1.72    1.72
   7   3 -12    0.75    1.27
  -7  -3  12    0.65    1.85
   7   3 -11   -0.40    1.19
  -7  -3  11    5.54    1.74
   7   3 -10   -0.76    1.34
  -7  -3  10    0.88    1.16
   7   3  -9   -0.27    1.33
  -7  -3   9    2.77    1.89
   7   3  -8    0.16    1.38
  -7  -3   8    1.55    1.88
   7   3  -7   -0.98    1.42
  -7  -3   7   -1.40    1.78
   7   3  -6    1.53    1.96
  -7  -3   6    2.88    1.34
   7   3  -5    0.15    1.39
  -7  -3   5    1.88    1.82
   7   3  -4    2.49    1.87
  -7  -3   4    1.41    1.37
   7   3  -3   -0.32    1.17
  -7  -3   3    0.05    1.62
   7   3  -2   -0.21    1.23
  -7  -3   2   -0.76    1.52
   7   3  -1   -0.17    1.20
  -7  -3   1    1.72    2.13
   7   3   0    1.72    1.77
  -7  -3   0    0.90    1.32
   7   3   1    1.68    1.42
  -7  -3  -1    1.53    1.53
   7   3   2    0.11    1.29
  -7  -3  -2   -0.03    0.79
   7   3   3    0.96    1.31
  -7  -3  -3    1.93    0.74
   7   3   4    1.77    1.50
  -7  -3  -4    4.14    1.21
   7   3   5    1.75    2.01
  -7  -3  -5   -0.67    1.43
   7   3   6    1.48    1.60
  -7  -3  -6   -0.77    1.43
   7   3   7   -0.07    1.25
  -7  -3  -7    0.09    0.81
   7   3   8    0.85    0.69
  -7  -3  -8    2.38    0.91
   7   3   9    0.50    0.82
  -7  -3  -9    1.38    0.66
   7   3  10    2.91    0.98
  -7  -3 -10    0.34    1.12
   7   3  11    1.11    0.60
  -7  -3 -11    0.38    0.71
  -7  -3 -12   -1.79    1.37
  -7  -4  16    7.27    2.15
   7   4 -15    3.71    1.64
  -7  -4  15    4.93    2.34
   7   4 -14    5.21    2.05
  -7  -4  14    6.08    1.91
   7   4 -13    3.37    1.54
  -7  -4  13    2.24    1.75
   7   4 -12   -0.66    1.26
  -7  -4  12   -0.94    1.63
   7   4 -11   -1.82    1.51
  -7  -4  11    1.87    1.88
   7   4 -10   33.31    3.89
  -7  -4  10   28.06    7.40
   7   4  -9   11.07    2.42
  -7  -4   9   10.26    2.92
   7   4  -8  197.09   21.06
  -7  -4   8  191.95   21.73
   7   4  -7    5.54    1.73
  -7  -4   7    5.25    2.13
   7   4  -6    0.15    1.42
  -7  -4   6    1.93    1.89
   7   4  -5   96.14    7.54
  -7  -4   5   91.50    7.35
   7   4  -4   86.19    5.19
  -7  -4   4   85.25    5.15
   7   4  -3   12.54    2.36
  -7  -4   3   13.71    2.63
   7   4  -2   -0.02    1.36
  -7  -4   2    0.24    1.63
   7   4  -1    4.65    1.94
  -7  -4   1    8.04    1.92
   7   4   0    2.54    1.43
  -7  -4   0    2.48    2.07
   7   4   1   23.61    3.07
  -7  -4  -1   20.40    4.45
   7   4   2   29.35    3.26
  -7  -4  -2   26.79    4.93
   7   4   3   54.14    6.77
  -7  -4  -3   41.07    9.11
   7   4   4   94.50    7.25
  -7  -4  -4   72.49    9.48
   7   4   5   30.15    5.92
  -7  -4  -5   30.29    4.67
   7   4   6   21.78    2.83
  -7  -4  -6   16.38    2.20
   7   4   7   16.52    2.45
  -7  -4  -7   12.37    2.70
   7   4   8    3.79    1.74
  -7  -4  -8    5.37    1.85
   7   4   9   -1.59    1.16
  -7  -4  -9    4.45    1.38
   7   4  10    3.09    1.53
  -7  -4 -10   -0.39    1.55
  -7  -4 -11    2.30    0.99
   7   5 -16    2.66    2.11
   7   5 -15    2.72    1.57
  -7  -5  15    0.95    1.62
   7   5 -14   -0.55    1.38
  -7  -5  14    0.51    1.60
   7   5 -13    2.49    1.43
  -7  -5  13   -0.68    1.65
   7   5 -12    1.43    1.52
  -7  -5  12    0.33    1.61
   7   5 -11    0.85    1.43
  -7  -5  11    0.17    1.76
   7   5 -10    1.63    1.75
  -7  -5  10   -1.13    1.79
   7   5  -9    2.11    2.18
  -7  -5   9    0.71    1.23
   7   5  -8    3.15    2.27
  -7  -5   8    2.73    1.88
   7   5  -7    1.28    1.65
  -7  -5   7   -0.21    1.76
   7   5  -6    0.15    1.40
  -7  -5   6    0.30    1.73
  -7  -5   5    2.34    1.91
   7   5  -4   -1.12    1.31
  -7  -5   4   -0.53    1.68
   7   5  -3   -0.50    1.22
  -7  -5   3    0.13    1.70
   7   5  -2   -1.63    1.38
  -7  -5   2    0.07    0.91
   7   5  -1   -0.86    1.33
  -7  -5   1   -0.45    1.62
   7   5   0    1.82    1.39
  -7  -5   0   -1.70    1.52
   7   5   1    0.60    1.31
  -7  -5  -1    1.97    0.59
   7   5   2   -0.06    1.38
  -7  -5  -2    2.16    1.28
   7   5   3    3.33    1.85
  -7  -5  -3    1.44    0.88
   7   5   4    1.41    1.60
  -7  -5  -4    2.00    0.91
   7   5   5    0.07    1.22
  -7  -5  -5    2.74    1.28
   7   5   6    0.60    0.68
  -7  -5  -6    0.46    0.77
   7   5   7    0.31    1.32
  -7  -5  -7    1.30    0.93
   7   5   8    1.33    0.77
  -7  -5  -8    0.87    0.91
  -7  -5  -9    0.93    1.18
  -7  -5 -10    0.65    0.99
  -7  -5 -11   -0.02    1.56
   7   6 -16    0.60    1.52
   7   6 -15    1.70    1.63
   7   6 -14    3.42    2.03
  -7  -6  14    5.93    2.39
   7   6 -13   15.89    3.09
  -7  -6  13   16.15    3.21
   7   6 -12   -0.23    1.38
  -7  -6  12    0.23    1.68
   7   6 -11   27.46    3.23
  -7  -6  11   30.98    3.57
   7   6 -10   28.21    3.67
  -7  -6  10   33.96    3.44
   7   6  -9    8.44    2.04
  -7  -6   9    9.81    2.42
   7   6  -8  178.80   12.27
  -7  -6   8  177.67   12.30
   7   6  -7   44.49    5.14
  -7  -6   7   34.27    8.29
   7   6  -6   21.97    3.08
  -7  -6   6   27.37    6.32
   7   6  -5   95.09   10.97
  -7  -6   5   98.30   11.57
   7   6  -4   26.99    3.25
  -7  -6   4   24.70    4.76
   7   6  -3    0.70    1.36
  -7  -6   3    4.67    1.98
   7   6  -2    0.96    1.49
  -7  -6   2   -1.13    1.68
   7   6  -1   58.96    5.33
  -7  -6   1   44.87   10.29
   7   6   0    3.86    1.58
  -7  -6   0    2.31    0.98
   7   6   1   26.08    3.40
  -7  -6  -1   24.62    4.29
   7   6   2   15.19    2.64
  -7  -6  -2    9.64    2.23
   7   6   3  109.07    5.78
  -7  -6  -3   98.67   14.25
   7   6   4   42.02    5.83
  -7  -6  -4   33.51    5.13
   7   6   5    2.51    1.77
  -7  -6  -5    1.43    1.16
   7   6   6    0.89    1.18
  -7  -6  -6   -0.96    1.63
   7   6   7    1.53    1.30
  -7  -6  -7   -0.95    1.54
  -7  -6  -8    2.43    0.95
  -7  -6  -9    2.16    0.90
  -7  -6 -10    3.45    2.07
   7   7 -16    0.66    1.66
   7   7 -15    0.33    1.67
  -7  -7  14    2.49    1.79
   7   7 -13    1.79    1.49
  -7  -7  13   -0.26    1.79
   7   7 -12   -1.19    1.34
  -7  -7  12   -1.25    1.65
   7   7 -11    1.36    1.68
  -7  -7  11   -0.25    1.85
   7   7 -10    2.68    2.44
  -7  -7  10    0.74    1.74
   7   7  -9   -0.41    1.55
  -7  -7   9    0.27    1.68
   7   7  -8    2.09    1.70
  -7  -7   8    0.03    1.75
   7   7  -7    0.11    1.53
  -7  -7   7    3.10    2.46
   7   7  -6    0.83    1.47
  -7  -7   6    2.20    1.87
   7   7  -5   -1.12    1.37
  -7  -7   5   -0.11    1.78
   7   7  -4    1.75    1.52
  -7  -7   4    1.05    1.74
   7   7  -3    1.04    1.50
  -7  -7   3   -0.28    1.66
   7   7  -2   -0.38    1.37
  -7  -7   2   -0.59    1.55
   7   7  -1    2.00    1.56
  -7  -7   1   -1.43    1.63
   7   7   0    0.05    1.46
  -7  -7   0   -0.11    1.63
   7   7   1   -0.96    1.40
  -7  -7  -1   -0.06    1.82
   7   7   2    1.03    1.34
  -7  -7  -2   -1.54    1.69
   7   7   3    3.22    1.49
  -7  -7  -3   -0.28    1.61
   7   7   4    1.02    1.41
  -7  -7  -4    0.66    1.74
   7   7   5   -0.89    1.16
  -7  -7  -5    0.78    1.09
   7   7   6    0.21    1.37
  -7  -7  -6    0.60    0.66
  -7  -7  -7    1.61    1.88
  -7  -7  -8    1.07    0.66
  -7  -7  -9   -0.22    1.62
   7   8 -16    5.04    2.12
   7   8 -15   16.50    4.62
   7   8 -14    0.54    1.59
   7   8 -13    1.25    1.58
  -7  -8  13    3.04    2.66
   7   8 -12    1.93    2.25
  -7  -8  12   -1.66    1.43
   7   8 -11    0.48    1.68
  -7  -8  11    0.60    0.84
   7   8 -10    4.44    1.77
  -7  -8  10    4.06    1.60
   7   8  -9   12.93    2.34
  -7  -8   9   15.34    2.92
   7   8  -8   35.35    4.11
  -7  -8   8   33.58    3.66
   7   8  -7   11.30    2.64
  -7  -8   7   16.79    3.07
   7   8  -6    1.42    1.60
  -7  -8   6    1.44    2.40
   7   8  -5    7.28    1.99
  -7  -8   5    7.65    2.52
   7   8  -4    8.53    2.62
  -7  -8   4    4.67    2.21
   7   8  -3   23.29    3.11
  -7  -8   3   17.69    4.28
   7   8  -2   22.18    3.15
  -7  -8   2   16.94    4.43
   7   8  -1   16.80    2.94
  -7  -8   1   19.00    4.43
   7   8   0   27.22    2.99
  -7  -8   0   26.55    4.71
   7   8   1   25.66    3.46
  -7  -8  -1   19.41    4.26
   7   8   2   66.04    5.05
  -7  -8  -2   49.52    9.35
   7   8   3   10.55    2.56
  -7  -8  -3   13.87    3.60
   7   8   4   -0.20    1.27
  -7  -8  -4   -0.21    1.62
  -7  -8  -5   -0.19    1.73
  -7  -8  -7   -0.03    1.72
  -7  -8  -8    2.42    1.22
  -7  -8  -9    1.24    1.89
   7   9 -16    1.05    1.75
   7   9 -15    0.69    1.75
   7   9 -14    0.10    1.68
   7   9 -13   -0.06    1.68
   7   9 -12    2.74    1.81
   7   9 -11    0.31    1.49
  -7  -9  11    0.77    1.62
   7   9 -10   -0.04    1.49
  -7  -9  10   -1.24    1.61
   7   9  -9   -1.27    1.70
  -7  -9   9    2.01    1.85
   7   9  -8   -0.79    1.53
  -7  -9   8   -0.79    1.19
   7   9  -7    0.52    1.62
  -7  -9   7    2.25    1.79
  -7  -9   6    1.22    1.53
   7   9  -5    1.12    1.61
  -7  -9   5    0.05    1.51
   7   9  -4    0.89    1.44
  -7  -9   4    1.63    1.02
   7   9  -3    1.88    1.52
   7   9  -2    2.18    1.71
  -7  -9   2    1.93    0.77
   7   9  -1    1.34    1.58
  -7  -9   1    2.19    1.20
   7   9   0   -0.11    1.37
  -7  -9   0   -0.67    1.81
   7   9   1    4.49    1.84
  -7  -9  -1   -1.27    1.76
   7   9   2    0.00    1.29
  -7  -9  -2    1.58    1.08
  -7  -9  -3    1.40    1.23
  -7  -9  -4   -1.04    1.81
  -7  -9  -5    3.95    1.55
  -7  -9  -6   -0.38    1.59
  -7  -9  -7   -0.37    1.91
   7  10 -15   -1.76    1.83
   7  10 -14    2.21    2.52
   7  10 -13    7.80    2.38
   7  10 -12    4.57    2.01
   7  10 -11   -0.86    1.47
   7  10 -10    0.41    1.75
  -7 -10  10    0.85    1.67
   7  10  -9    1.15    1.86
  -7 -10   9    2.69    2.21
   7  10  -8    3.85    2.42
  -7 -10   8    0.64    1.79
   7  10  -7    0.89    1.65
  -7 -10   7    2.40    1.83
   7  10  -6    4.34    1.98
  -7 -10   6    1.92    1.63
   7  10  -5    1.21    1.56
  -7 -10   5    0.38    0.74
   7  10  -4   13.81    2.67
  -7 -10   4   14.97    3.08
   7  10  -3    8.20    3.11
  -7 -10   3    7.02    1.96
   7  10  -2    3.17    1.79
  -7 -10   2    3.71    1.85
   7  10  -1   26.85    4.16
  -7 -10   1   18.33    5.28
   7  10   0   15.31    2.72
  -7 -10   0   13.18    3.17
   7  10   1    0.33    1.35
  -7 -10  -1   -0.06    1.74
  -7 -10  -2    8.93    3.69
  -7 -10  -3    4.65    1.82
  -7 -10  -4   -0.38    1.79
  -7 -10  -5    0.86    0.90
  -7 -10  -6    2.15    1.32
   7  11 -14   -2.18    1.91
   7  11 -13    0.82    1.94
   7  11 -12   -1.80    1.81
   7  11 -11   -1.70    1.86
   7  11 -10    2.20    1.80
   7  11  -9   -0.44    1.67
   7  11  -8    0.09    1.87
  -7 -11   8   -0.44    1.55
   7  11  -7    2.16    1.76
  -7 -11   7   -0.52    1.56
   7  11  -6    0.67    1.58
  -7 -11   6    0.63    1.62
   7  11  -5    0.83    1.56
  -7 -11   5    2.23    1.07
   7  11  -4   -0.21    1.48
  -7 -11   4    1.03    0.95
   7  11  -3   -0.74    1.39
  -7 -11   3    0.43    0.82
   7  11  -2   -0.45    1.36
  -7 -11   2    1.21    1.04
  -7 -11   1    0.13    1.26
  -7 -11   0    2.27    1.29
  -7 -11  -1    1.27    1.26
  -7 -11  -2    0.32    1.18
  -7 -11  -3    0.37    1.03
  -7 -11  -4    1.11    0.93
   7  12 -12    4.26    2.86
   7  12 -11    2.78    2.07
   7  12 -10   -0.22    1.99
   7  12  -9    6.82    2.40
   7  12  -8    0.34    0.95
   7  12  -7    3.09    2.09
   7  12  -6   15.40    4.58
   7  12  -5    0.16    1.64
   7  12  -4   14.50    4.41
  -7 -12   4    8.71    3.09
  -7 -12   3    0.03    0.74
  -7 -12   2    5.09    1.66
  -7 -12   1   -0.80    1.74
  -7 -12  -1    1.55    1.93
   8 -12   6    2.19    1.59
   8 -12   7    6.19    1.57
   8 -12   8   42.95    6.01
   8 -12   9    0.05    1.59
   8 -12  10   22.98    6.09
   8 -12  11   18.41    5.31
   8 -12  12    0.42    1.46
   8 -12  13    2.60    2.03
  -8  11   7    1.38    1.85
  -8  11   6    2.04    2.46
  -8  11   5    2.33    1.80
  -8  11   4    2.06    1.64
  -8  11   3    0.90    1.47
  -8  11   2    1.62    1.90
  -8  11   1    0.51    1.37
  -8  11   0    1.99    1.39
   8 -11   3   -1.30    1.30
   8 -11   4    0.01    1.24
   8 -11   5    2.22    1.55
   8 -11   6    1.22    1.50
   8 -11   7    1.00    1.33
   8 -11   8    0.52    1.61
   8 -11   9   -1.83    1.53
   8 -11  10    2.51    1.99
   8 -11  11    3.02    2.76
   8 -11  12   -0.19    1.79
   8 -11  13   -0.49    1.79
   8 -11  14    1.97    0.90
  -8  10   9   -0.20    2.04
  -8  10   8   14.06    4.34
  -8  10   7   20.97    5.54
  -8  10   6   -0.30    1.64
  -8  10   5    0.15    1.60
  -8  10   4    2.76    2.46
  -8  10   3    1.36    1.51
  -8  10   2   14.47    2.87
  -8  10   1    2.05    1.95
  -8  10   0    7.29    1.98
   8 -10   1    0.79    0.80
  -8  10  -1    0.47    1.33
   8 -10   2    2.21    0.97
  -8  10  -2    0.74    1.10
   8 -10   3    0.76    0.98
   8 -10   4    1.67    0.74
   8 -10   5  112.37    6.40
   8 -10   6   14.39    3.73
   8 -10   7    2.30    1.60
   8 -10   8    6.85    2.37
   8 -10   9    3.53    1.66
   8 -10  10    6.38    2.67
   8 -10  11    6.63    2.27
   8 -10  12    2.58    1.92
   8 -10  13   20.65    5.83
   8 -10  14    2.95    2.77
   8 -10  15    0.90    1.90
  -8   9  11    0.47    2.09
  -8   9  10    0.94    2.16
  -8   9   9    1.26    1.98
  -8   9   8    1.46    1.69
  -8   9   7   -1.63    1.53
  -8   9   6    0.41    1.72
  -8   9   5    2.04    1.82
  -8   9   4    0.83    1.51
  -8   9   3    1.70    1.94
  -8   9   2    2.30    1.60
   8  -9  -1    0.91    1.50
  -8   9   1    4.69    1.28
  -8   9   0   -0.31    1.27
   8  -9   1    1.34    0.65
  -8   9  -1    0.64    1.24
   8  -9   2    1.29    0.67
  -8   9  -2   -0.35    1.21
   8  -9   3   -0.70    1.22
  -8   9  -3   -0.43    1.00
   8  -9   4   -0.46    1.46
   8  -9   5    0.38    1.52
   8  -9   6    0.59    1.54
   8  -9   7    1.53    1.54
   8  -9   8   -0.16    1.51
   8  -9   9    1.52    0.60
   8  -9  10   -2.82    1.51
   8  -9  11   -1.30    1.77
   8  -9  12    2.24    2.03
   8  -9  13    2.62    2.00
   8  -9  14    0.89    1.92
   8  -9  15   -2.01    1.89
   8  -9  16    5.80    3.17
  -8   8  12    0.70    1.86
  -8   8  11    0.74    1.76
  -8   8  10    1.39    1.87
  -8   8   9    4.05    1.44
  -8   8   8    3.27    2.07
  -8   8   7    3.40    1.94
  -8   8   6   36.15    5.39
  -8   8   5    6.36    2.56
  -8   8   4    9.16    2.47
  -8   8   3   -0.19    1.32
   8  -8  -2   -0.14    0.53
  -8   8   2    1.96    1.40
   8  -8  -1    4.14    1.63
  -8   8   1   -0.56    1.18
   8  -8   0    7.22    1.86
  -8   8   0    4.66    1.77
   8  -8   1   12.32    2.79
  -8   8  -1   13.64    2.36
   8  -8   2    3.39    1.38
  -8   8  -2    1.16    1.39
   8  -8   3   18.22    4.54
  -8   8  -3   12.28    2.08
  -8   8  -4   51.22    3.88
   8  -8   5   18.13    3.82
   8  -8   6   40.92    4.02
   8  -8   7    6.22    2.16
   8  -8   8   74.55    5.08
   8  -8   9    3.76    2.13
   8  -8  10    2.37    1.17
   8  -8  11    1.90    1.78
   8  -8  12   16.26    3.75
   8  -8  13    0.51    1.92
   8  -8  14   26.70    7.22
   8  -8  15   19.19    5.49
   8  -8  16    6.71    2.62
  -8   7  13   -0.09    1.86
  -8   7  12    2.32    2.02
  -8   7  11    0.58    1.53
  -8   7  10    2.04    1.05
  -8   7   9    1.62    1.88
  -8   7   8    3.27    2.07
  -8   7   7    0.16    1.58
  -8   7   6    0.96    1.78
  -8   7   5    0.57    1.73
  -8   7   4    0.64    1.73
   8  -7  -3   -0.17    1.05
  -8   7   3   -0.09    1.46
   8  -7  -2   -1.33    1.20
  -8   7   2    3.44    1.53
   8  -7  -1    1.28    0.95
  -8   7   1    0.84    1.38
   8  -7   0   -0.27    1.18
  -8   7   0    0.34    1.29
   8  -7   1    0.31    1.14
  -8   7  -1    1.92    1.33
   8  -7   2    1.01    0.89
  -8   7  -2    2.11    1.39
   8  -7   3    1.35    1.02
  -8   7  -3    2.74    2.21
   8  -7   4   -0.08    1.47
  -8   7  -4    0.65    1.15
   8  -7   5   -0.21    1.47
  -8   7  -5    0.73    1.20
   8  -7   6    1.37    0.94
   8  -7   7    2.11    1.79
   8  -7   8    2.30    1.87
   8  -7   9    1.24    1.87
   8  -7  10   -0.84    1.78
   8  -7  11   -2.90    1.66
   8  -7  12   -1.28    1.90
   8  -7  13    0.31    0.95
   8  -7  14   -0.80    1.86
   8  -7  15    1.02    2.14
   8  -7  16    0.83    1.47
  -8   6  14   -1.17    1.80
  -8   6  13    1.46    1.60
  -8   6  12    0.70    1.96
  -8   6  11   11.98    3.29
  -8   6  10   72.03    8.35
  -8   6   9   20.10    3.79
  -8   6   8   72.86   15.65
  -8   6   7    6.88    2.43
  -8   6   6    2.66    1.81
   8  -6  -5   12.61    2.22
  -8   6   5   15.12    2.87
   8  -6  -4    1.40    1.26
  -8   6   4    2.43    1.75
   8  -6  -3    2.22    1.30
  -8   6   3    1.68    1.84
   8  -6  -2    1.72    0.82
  -8   6   2    0.34    1.64
   8  -6  -1    1.64    1.03
  -8   6   1    3.13    2.11
   8  -6   0   -0.03    1.13
  -8   6   0   -0.96    1.33
   8  -6   1    4.66    1.16
  -8   6  -1    3.04    1.34
   8  -6   2  116.24   24.10
  -8   6  -2  116.08   12.86
   8  -6   3   54.33    5.57
  -8   6  -3   52.63    4.97
   8  -6   4  181.97   68.03
  -8   6  -4  177.30   11.87
   8  -6   5   12.09    2.72
  -8   6  -5    9.16    2.37
   8  -6   6   12.40    2.59
  -8   6  -6    8.15    2.44
   8  -6   7    2.88    1.77
   8  -6   8   12.51    2.36
   8  -6   9    0.65    1.63
   8  -6  10    4.70    2.29
   8  -6  11   23.18    6.39
   8  -6  12    6.94    2.32
   8  -6  13    1.40    1.13
   8  -6  14    9.56    3.00
   8  -6  15  231.35   51.56
   8  -6  16    5.49    2.37
  -8   5  14   -0.15    1.93
  -8   5  13    2.19    1.97
  -8   5  12    2.55    2.11
  -8   5  11   -0.70    1.99
  -8   5  10    2.37    0.95
  -8   5   9    2.26    2.02
  -8   5   8    2.24    1.91
  -8   5   7   -0.34    1.64
   8  -5  -6    0.66    0.84
  -8   5   6    1.76    1.87
   8  -5  -5    0.77    1.17
  -8   5   5    1.21    1.87
   8  -5  -4   -0.42    1.03
  -8   5   4    0.88    1.70
   8  -5  -3    3.49    1.66
  -8   5   3    2.00    1.85
   8  -5  -2    1.40    1.22
  -8   5   2    3.94    1.91
   8  -5  -1    1.84    0.68
  -8   5   1    1.99    2.39
   8  -5   0    0.31    1.12
  -8   5   0    3.59    2.27
   8  -5   1    2.63    1.50
  -8   5  -1    2.15    1.44
   8  -5   2    2.33    1.50
  -8   5  -2   -0.52    1.29
   8  -5   3   -0.05    1.40
  -8   5  -3    3.10    1.82
   8  -5   4    1.91    1.60
  -8   5  -4    1.48    0.68
   8  -5   5    2.15    1.42
  -8   5  -5    0.33    1.37
   8  -5   6    2.20    1.85
  -8   5  -6    2.30    1.72
   8  -5   7    2.57    0.77
   8  -5   8    0.26    1.51
   8  -5   9    2.44    1.07
   8  -5  10    0.24    1.79
   8  -5  11    1.42    1.00
   8  -5  12    1.56    1.88
   8  -5  13   -3.18    1.79
   8  -5  14    2.89    2.21
   8  -5  15    1.68    2.06
  -8   4  15    0.95    1.13
  -8   4  14    9.55    3.79
  -8   4  13   32.63    8.44
  -8   4  12    0.78    1.96
  -8   4  11   22.92    3.83
  -8   4  10  155.17   15.90
  -8   4   9    7.45    2.74
  -8   4   8   15.17    3.02
   8  -4  -7    2.93    1.68
  -8   4   7    1.94    1.88
   8  -4  -6    2.64    1.99
  -8   4   6    2.46    1.97
   8  -4  -5   -0.10    1.02
  -8   4   5    5.34    2.70
   8  -4  -4    1.15    1.13
  -8   4   4    1.25    1.94
   8  -4  -3    3.22    1.83
  -8   4   3    3.23    1.89
   8  -4  -2    4.31    1.70
  -8   4   2    4.74    2.03
   8  -4  -1    1.61    0.86
  -8   4   1    4.07    1.93
   8  -4   0   25.72    3.47
  -8   4   0   22.78    6.38
   8  -4   1  126.30   23.82
  -8   4  -1  119.49   13.44
   8  -4   2  135.32   14.91
  -8   4  -2  123.06   13.56
   8  -4   3  154.15   16.96
  -8   4  -3  115.01   20.63
   8  -4   4    4.16    1.13
  -8   4  -4    6.19    1.92
   8  -4   5    1.62    0.72
  -8   4  -5    0.66    0.96
   8  -4   6   11.50    2.63
  -8   4  -6    8.21    2.23
   8  -4   7    6.81    2.89
  -8   4  -7    5.67    1.55
   8  -4   8    0.32    0.96
  -8   4  -8   -1.27    1.10
   8  -4   9    1.38    1.70
   8  -4  10    0.85    1.56
   8  -4  11   23.45    4.03
   8  -4  12   42.52    6.02
   8  -4  13   24.97    4.12
   8  -4  14    4.63    2.07
   8  -4  15  140.63   31.78
  -8   3  15    0.83    1.52
  -8   3  14   -0.52    2.00
  -8   3  13    0.51    2.01
  -8   3  12    0.87    2.10
  -8   3  11    0.74    2.04
  -8   3  10    1.42    2.03
  -8   3   9   -2.34    1.80
   8  -3  -8    1.61    1.71
  -8   3   8   -0.13    1.75
   8  -3  -7    0.32    1.22
  -8   3   7    0.13    1.75
   8  -3  -6   -0.73    1.08
  -8   3   6    3.14    2.01
   8  -3  -5    0.08    1.08
  -8   3   5    2.62    1.99
   8  -3  -4   -0.23    1.14
  -8   3   4    2.56    1.87
   8  -3  -3    1.63    0.98
  -8   3   3    4.76    2.71
   8  -3  -2    0.23    1.36
  -8   3   2    2.75    1.88
   8  -3  -1    3.20    1.72
  -8   3   1    3.17    2.14
   8  -3   0   -0.20    1.27
  -8   3   0    1.66    2.45
   8  -3   1   -0.48    1.36
  -8   3  -1    2.01    1.79
   8  -3   2   -0.38    1.41
  -8   3  -2    3.16    1.68
   8  -3   3   -1.98    1.38
  -8   3  -3    1.05    1.51
   8  -3   4   -0.08    1.52
  -8   3  -4    1.14    0.87
   8  -3   5    2.80    1.08
  -8   3  -5    1.22    0.87
   8  -3   6    1.70    0.80
  -8   3  -6    1.30    1.38
   8  -3   7   -0.24    1.45
  -8   3  -7    0.58    0.93
   8  -3   8    1.75    0.92
  -8   3  -8    2.19    1.38
   8  -3   9    3.12    1.66
  -8   3  -9    0.56    0.66
   8  -3  10   -1.13    1.55
   8  -3  11   -1.66    1.69
   8  -3  12    2.42    1.77
   8  -3  13   -0.05    1.55
   8  -3  14    1.31    1.65
  -8   2  15    8.36    3.18
  -8   2  14    2.42    1.85
  -8   2  13   37.84    9.87
  -8   2  12   28.36    5.18
  -8   2  11    1.36    2.13
  -8   2  10   15.10    3.26
   8  -2  -9   21.88    2.75
  -8   2   9   23.37    3.63
   8  -2  -8   -0.39    1.05
  -8   2   8    0.47    1.73
   8  -2  -7    1.57    1.28
  -8   2   7    1.02    1.86
   8  -2  -6    0.88    1.18
  -8   2   6    1.46    1.94
   8  -2  -5    3.82    1.47
  -8   2   5    2.23    1.88
   8  -2  -4    8.47    2.16
  -8   2   4   13.70    3.08
   8  -2  -3  110.87   22.04
  -8   2   3  137.47   15.37
   8  -2  -2   23.12    2.78
  -8   2   2   28.38    4.57
   8  -2  -1   21.01    2.79
  -8   2   1   19.63    2.87
   8  -2   0    2.69    0.92
  -8   2   0    2.47    1.83
   8  -2   1    2.28    1.38
  -8   2  -1    0.63    1.67
   8  -2   2   12.10    2.50
  -8   2  -2   12.36    2.33
   8  -2   3    2.19    0.68
  -8   2  -3   -0.33    1.41
   8  -2   4   17.46    2.85
  -8   2  -4   12.87    2.32
   8  -2   5    8.09    2.17
  -8   2  -5    7.14    2.23
   8  -2   6    1.48    1.56
  -8   2  -6    0.95    1.30
   8  -2   7    2.28    2.10
  -8   2  -7    0.63    1.34
   8  -2   8    6.11    2.11
  -8   2  -8    3.66    1.54
   8  -2   9   41.78    3.98
  -8   2  -9   34.45    3.41
   8  -2  10    1.30    1.62
   8  -2  11    6.80    1.97
   8  -2  12   24.96    5.33
   8  -2  13    1.72    1.12
   8  -2  14    2.27    1.82
  -8   1  16    4.39    2.66
  -8   1  15    0.45    1.90
  -8   1  14    2.67    2.10
  -8   1  13    0.28    1.78
  -8   1  12    3.73    1.80
  -8   1  11    1.51    2.11
   8  -1 -10   -0.04    1.17
  -8   1  10    3.45    2.91
   8  -1  -9    1.02    1.16
  -8   1   9    0.92    1.93
   8  -1  -8   -0.43    1.06
  -8   1   8    1.05    1.96
  -8   1   7    2.38    2.01
   8  -1  -6    0.89    1.27
  -8   1   6    0.75    1.86
   8  -1  -5    0.05    0.82
  -8   1   5    0.53    1.13
   8  -1  -4    1.55    1.46
  -8   1   4    0.54    1.31
   8  -1  -3    1.69    1.60
  -8   1   3   -0.14    1.89
   8  -1  -2    3.36    2.10
  -8   1   2   -1.36    1.76
   8  -1  -1    1.84    1.48
  -8   1   1    3.25    1.97
   8  -1   0    3.31    2.06
  -8   1   0    2.43    1.04
   8  -1   1    1.98    1.62
  -8   1  -1    3.64    1.79
   8  -1   2    1.18    0.67
  -8   1  -2   -1.92    1.50
   8  -1   3    1.35    0.97
  -8   1  -3   -0.75    1.51
   8  -1   4    0.82    1.48
  -8   1  -4    0.57    1.01
   8  -1   5    1.57    0.94
  -8   1  -5   -0.10    1.41
   8  -1   6    0.05    1.41
  -8   1  -6    1.16    1.46
   8  -1   7   -0.24    1.40
  -8   1  -7   -0.62    1.28
  -8   1  -8    1.57    1.38
   8  -1   9    0.29    1.62
  -8   1  -9    1.76    1.62
   8  -1  10   -2.01    1.43
   8  -1  11    0.48    1.57
   8  -1  12   -0.79    1.46
   8  -1  13    0.78    1.57
  -8   0  15    0.74    1.80
  -8   0  14   15.11    3.25
  -8   0  13    1.41    1.88
  -8   0  12   18.71    3.61
   8   0 -11    0.25    1.19
  -8   0  11    0.17    1.81
   8   0 -10   -0.41    1.02
  -8   0  10    1.22    2.05
   8   0  -9    0.44    1.11
  -8   0   9    1.12    1.96
   8   0  -8    5.72    1.82
  -8   0   8    4.95    2.47
   8   0  -7    3.62    1.35
  -8   0   7    3.31    2.00
   8   0  -6   25.31    3.24
  -8   0   6   33.31    5.06
   8   0  -5    0.75    1.54
  -8   0   5   -0.08    1.83
   8   0  -4   12.09    2.43
  -8   0   4   11.42    3.05
   8   0  -3    9.99    2.64
  -8   0   3   10.12    3.42
   8   0  -2    3.26    2.09
  -8   0   2    0.64    1.95
   8   0  -1   96.07   10.92
  -8   0   1   97.42   11.15
   8   0   0   68.07    8.16
  -8   0   0   57.44    7.26
   8   0   1    3.95    2.03
  -8   0  -1    4.49    2.46
   8   0   2    1.27    1.37
  -8   0  -2    1.14    1.03
   8   0   3    3.94    1.74
  -8   0  -3    2.21    1.66
   8   0   4   -0.22    1.41
  -8   0  -4   -0.52    1.48
   8   0   5   20.64    5.19
  -8   0  -5   16.07    2.35
   8   0   6   27.81    5.89
  -8   0  -6   18.01    4.84
   8   0   7    8.61    2.11
  -8   0  -7    5.35    1.53
   8   0   8    6.57    1.61
  -8   0  -8    7.88    1.77
   8   0   9    0.51    1.43
  -8   0  -9    0.13    1.43
   8   0  10    0.95    1.64
  -8   0 -10    0.68    0.88
   8   0  11    1.66    1.67
   8   0  12   38.23    9.27
  -8  -1  15   -1.18    1.87
  -8  -1  14    0.29    1.91
  -8  -1  13   -0.38    1.70
   8   1 -12    0.14    1.26
  -8  -1  12    0.20    1.69
   8   1 -11   -0.97    1.12
  -8  -1  11    0.06    1.67
   8   1 -10   -0.58    1.16
  -8  -1  10    0.74    1.91
   8   1  -9    0.37    1.27
  -8  -1   9    0.01    1.93
   8   1  -8   -0.76    1.15
  -8  -1   8    0.81    1.97
   8   1  -7    1.17    1.45
  -8  -1   7   -0.19    1.91
   8   1  -6    1.02    1.49
  -8  -1   6    0.37    2.00
   8   1  -5   -0.44    1.37
  -8  -1   5    0.42    1.98
   8   1  -4    3.82    1.76
  -8  -1   4    2.00    1.16
   8   1  -3    0.13    1.32
  -8  -1   3   -1.48    1.83
   8   1  -2    1.92    1.47
  -8  -1   2    1.84    1.79
   8   1  -1   -0.06    1.38
  -8  -1   1    0.81    1.75
   8   1   0    3.66    2.07
  -8  -1   0    1.03    1.64
   8   1   1   -0.78    1.31
  -8  -1  -1   -0.46    1.75
   8   1   2    1.69    1.40
  -8  -1  -2    4.57    1.85
   8   1   3    0.13    1.35
  -8  -1  -3   -0.07    1.51
   8   1   4   -0.09    1.46
  -8  -1  -4    0.03    1.53
   8   1   5    3.83    1.13
  -8  -1  -5   -0.44    1.50
   8   1   6    1.51    1.11
  -8  -1  -6   -1.10    1.32
   8   1   7    0.27    0.74
  -8  -1  -7    0.04    1.32
   8   1   8    1.78    1.21
  -8  -1  -8   -0.12    0.73
   8   1   9    0.42    1.13
  -8  -1  -9    0.41    0.90
   8   1  10    2.04    0.80
   8   1  11    1.49    0.87
  -8  -2  15    6.08    2.45
  -8  -2  14    2.73    2.81
   8   2 -13   -0.86    1.41
  -8  -2  13    0.56    1.63
   8   2 -12    4.07    2.05
  -8  -2  12    2.45    1.82
   8   2 -11    0.99    1.44
  -8  -2  11    3.26    1.87
   8   2 -10    0.38    1.32
  -8  -2  10    2.05    1.97
   8   2  -9   13.45    2.65
  -8  -2   9   13.99    3.16
   8   2  -8    7.23    2.18
  -8  -2   8   12.27    3.20
   8   2  -7   13.54    2.56
  -8  -2   7   10.46    3.08
   8   2  -6    8.63    2.31
  -8  -2   6    8.05    2.86
   8   2  -5   60.85    5.66
  -8  -2   5   60.83    5.98
   8   2  -4    5.22    2.29
  -8  -2   4    1.64    1.07
   8   2  -3   39.84    4.53
  -8  -2   3   41.05    4.63
   8   2  -2   20.47    3.11
  -8  -2   2   13.30    2.98
   8   2  -1    0.42    1.38
  -8  -2   1    1.87    1.82
   8   2   0   11.46    2.09
  -8  -2   0    7.19    2.51
   8   2   1    9.08    1.87
  -8  -2  -1   10.28    2.67
   8   2   2    3.93    1.92
  -8  -2  -2    3.28    1.78
   8   2   3    1.24    1.59
  -8  -2  -3    2.18    1.77
   8   2   4   34.80    3.79
  -8  -2  -4   23.52    5.02
   8   2   5  100.98    5.90
  -8  -2  -5   77.74    5.25
   8   2   6    2.02    2.14
  -8  -2  -6    3.16    1.26
   8   2   7   30.15    4.29
  -8  -2  -7   25.49    6.43
   8   2   8   10.17    2.07
  -8  -2  -8    8.56    2.06
   8   2   9   18.61    5.04
  -8  -2  -9   11.74    3.22
   8   2  10   20.48    5.98
  -8  -2 -10   23.39    5.03
  -8  -3  15    3.40    2.49
  -8  -3  14    0.54    1.81
   8   3 -13   -0.07    1.35
  -8  -3  13   -0.55    1.73
   8   3 -12    1.02    1.44
  -8  -3  12   -0.37    1.70
   8   3 -11    0.17    1.22
  -8  -3  11    0.49    1.61
   8   3 -10    0.33    1.27
  -8  -3  10    1.01    1.04
   8   3  -9    1.54    1.48
  -8  -3   9    2.21    1.35
   8   3  -8    2.88    1.68
  -8  -3   8   -0.17    2.05
   8   3  -7    5.11    2.25
  -8  -3   7    3.30    2.44
   8   3  -6   -0.82    1.41
  -8  -3   6    5.69    2.87
   8   3  -5   -0.69    1.40
  -8  -3   5    0.58    2.02
   8   3  -4    0.67    1.42
  -8  -3   4    3.33    2.01
   8   3  -3    0.27    1.33
  -8  -3   3   -2.28    1.77
   8   3  -2    1.51    1.90
  -8  -3   2    1.65    0.92
   8   3  -1    0.60    1.46
  -8  -3   1    3.67    1.92
   8   3   0    0.58    1.44
  -8  -3   0   -0.11    1.71
   8   3   1   -1.61    1.37
  -8  -3  -1    4.09    2.22
   8   3   2    1.85    1.54
  -8  -3  -2   -0.43    1.62
   8   3   3    0.93    2.08
  -8  -3  -3   -0.09    1.67
   8   3   4    1.86    1.55
  -8  -3  -4    2.30    1.72
   8   3   5    2.43    1.59
  -8  -3  -5    1.24    1.05
   8   3   6    2.93    1.86
  -8  -3  -6    2.99    1.87
   8   3   7    0.58    1.58
  -8  -3  -7    0.27    1.21
   8   3   8    0.36    1.63
  -8  -3  -8    1.34    1.10
   8   3   9    0.75    1.49
  -8  -3  -9   -0.03    1.49
   8   4 -14    1.31    1.59
  -8  -4  14   -0.49    1.70
   8   4 -13    3.79    2.14
  -8  -4  13    0.20    1.76
   8   4 -12    3.77    1.64
  -8  -4  12    3.92    2.03
   8   4 -11    5.09    1.95
  -8  -4  11    6.87    2.45
   8   4 -10   -1.13    1.27
  -8  -4  10    1.65    1.77
   8   4  -9   44.56    4.02
  -8  -4   9   33.46    8.45
   8   4  -8    9.87    2.58
  -8  -4   8    9.89    3.01
   8   4  -7   60.34    4.84
  -8  -4   7   59.95    5.14
   8   4  -6   19.97    2.99
  -8  -4   6   18.02    5.55
   8   4  -5   20.49    3.16
  -8  -4   5   21.91    3.40
   8   4  -4   13.54    2.27
  -8  -4   4   15.30    3.06
   8   4  -3   -1.17    1.40
  -8  -4   3    1.07    1.82
   8   4  -2    5.42    1.72
  -8  -4   2    5.24    2.05
   8   4  -1   -0.13    1.33
  -8  -4   1    0.52    1.76
   8   4   0    4.85    2.11
  -8  -4   0    0.89    1.73
   8   4   1    3.24    1.71
  -8  -4  -1    2.89    2.23
   8   4   2    2.84    1.20
  -8  -4  -2    3.03    1.94
   8   4   3   27.33    3.81
  -8  -4  -3   20.29    3.69
   8   4   4    4.61    1.70
  -8  -4  -4    5.43    2.14
   8   4   5   70.36   16.09
  -8  -4  -5   57.39   10.27
   8   4   6    5.68    1.56
  -8  -4  -6    1.83    0.99
   8   4   7   14.61    3.05
  -8  -4  -7   14.58    3.37
   8   4   8    1.84    1.56
  -8  -4  -8    0.74    0.81
  -8  -4  -9    0.73    0.96
   8   5 -14   -0.86    1.40
  -8  -5  14    2.09    1.94
   8   5 -13    0.62    1.58
  -8  -5  13    1.80    2.59
   8   5 -12   -1.25    1.43
  -8  -5  12    4.41    2.15
   8   5 -11   -0.52    1.32
  -8  -5  11    2.95    2.02
   8   5 -10   -0.88    1.40
  -8  -5  10    8.66    7.44
   8   5  -9    0.32    1.43
  -8  -5   9   -1.06    1.69
   8   5  -8    3.09    2.29
  -8  -5   8    3.16    1.50
   8   5  -7   -0.46    1.56
  -8  -5   7   -0.39    1.84
   8   5  -6    1.47    1.59
  -8  -5   6    1.19    1.98
   8   5  -5    1.90    2.07
  -8  -5   5    0.13    0.96
   8   5  -4    2.36    2.06
  -8  -5   4   -1.00    1.82
   8   5  -3    1.27    1.53
  -8  -5   3   -2.55    1.68
   8   5  -2    2.44    2.15
  -8  -5   2    2.35    2.59
   8   5  -1    2.34    2.14
  -8  -5   1    1.82    1.86
   8   5   0    1.51    1.54
  -8  -5   0    0.24    1.73
   8   5   1    0.30    1.43
  -8  -5  -1   -0.46    1.65
   8   5   2   -0.94    1.30
  -8  -5  -2    1.78    1.74
   8   5   3    0.47    1.44
  -8  -5  -3    1.34    0.85
   8   5   4    3.09    1.71
  -8  -5  -5    1.39    0.70
   8   5   6    1.33    0.77
  -8  -5  -6    3.02    1.23
   8   5   7   -0.24    1.45
  -8  -5  -7    1.47    1.04
  -8  -5  -8    0.79    1.88
  -8  -5  -9    1.48    1.90
   8   6 -14    6.49    2.76
   8   6 -13   22.99    6.52
  -8  -6  13   18.34    5.71
   8   6 -12   21.59    3.76
  -8  -6  12   15.01    5.58
   8   6 -11    0.71    1.59
  -8  -6  11    3.30    1.62
   8   6 -10    0.68    1.53
  -8  -6  10    3.24    1.26
   8   6  -9   76.11    8.73
  -8  -6   9   54.78   14.39
   8   6  -8   -0.92    1.71
  -8  -6   8    0.94    1.81
   8   6  -7    5.80    1.87
  -8  -6   7    2.94    1.63
   8   6  -6    1.83    1.51
  -8  -6   6    0.33    1.63
   8   6  -5    1.03    1.60
  -8  -6   5    3.31    2.07
   8   6  -4    2.35    1.51
  -8  -6   4    4.36    3.00
   8   6  -3    0.75    1.49
  -8  -6   3    1.63    2.02
   8   6  -2    3.26    1.74
  -8  -6   2    7.37    2.50
   8   6  -1    1.68    1.63
  -8  -6   1    5.83    2.17
   8   6   0    0.84    1.49
  -8  -6   0    1.47    1.33
   8   6   1    0.43    1.37
  -8  -6  -1   -1.56    1.77
   8   6   2    1.20    1.62
  -8  -6  -2    3.88    1.49
   8   6   3   12.02    2.97
  -8  -6  -3   10.26    2.38
   8   6   4   13.75    2.40
  -8  -6  -4   12.03    2.28
   8   6   5    2.86    1.64
  -8  -6  -5    2.76    1.19
  -8  -6  -6    1.92    1.70
  -8  -6  -7    0.66    0.87
  -8  -6  -8    1.23    1.15
   8   7 -14    1.60    2.01
   8   7 -13    0.76    1.65
   8   7 -12   -1.33    1.67
  -8  -7  12    4.23    2.24
   8   7 -11    0.60    1.71
  -8  -7  11    0.07    1.82
   8   7 -10    2.52    1.94
  -8  -7  10    3.33    1.91
   8   7  -9    0.79    1.72
  -8  -7   9    0.80    1.75
   8   7  -8    2.08    1.70
  -8  -7   8    0.21    1.75
   8   7  -7    1.00    1.55
  -8  -7   7   -0.50    1.71
   8   7  -6    0.74    1.69
  -8  -7   6    0.79    1.74
   8   7  -5   -1.10    1.58
  -8  -7   5   -0.51    1.61
   8   7  -4    2.19    1.64
  -8  -7   4    1.68    1.86
   8   7  -3    1.20    1.61
  -8  -7   3    2.69    2.21
   8   7  -2    0.11    1.63
  -8  -7   2   -1.28    1.89
   8   7  -1    0.62    1.52
  -8  -7   1    1.11    1.05
   8   7   0    0.89    1.38
  -8  -7   0   -1.31    1.67
   8   7   1    1.74    2.07
  -8  -7  -1   -1.97    1.73
   8   7   2    2.06    1.61
  -8  -7  -2    1.13    1.08
   8   7   3    0.69    1.48
  -8  -7  -3   -1.02    1.73
   8   7   4   -0.37    1.48
  -8  -7  -4    3.27    1.29
  -8  -7  -5    0.36    0.84
  -8  -7  -6    1.50    1.26
  -8  -7  -7   -0.86    1.93
   8   8 -13    8.48    2.39
   8   8 -12   40.90    9.94
   8   8 -11    8.27    2.33
  -8  -8  11    7.37    2.46
   8   8 -10   19.66    5.58
  -8  -8  10   11.80    4.72
   8   8  -9    0.40    1.70
  -8  -8   9    3.01    1.40
   8   8  -8    8.68    3.03
  -8  -8   8    7.82    2.96
   8   8  -7    4.60    2.63
  -8  -8   7    0.75    0.97
   8   8  -6    4.09    1.96
  -8  -8   6    5.41    2.58
   8   8  -5    2.88    2.31
  -8  -8   5    1.38    1.84
   8   8  -4   24.49    4.12
  -8  -8   4   22.78    4.05
   8   8  -3   16.52    3.28
  -8  -8   3   18.92    4.26
   8   8  -2   36.41    5.10
  -8  -8   2   23.60    7.26
   8   8  -1    2.05    1.61
  -8  -8   1    4.20    1.55
   8   8   0   -0.11    1.56
  -8  -8   0   -1.54    1.75
   8   8   1    2.42    2.07
  -8  -8  -1   -0.80    1.79
   8   8   2    3.83    2.21
  -8  -8  -2    4.13    1.55
  -8  -8  -3    2.41    0.96
  -8  -8  -4    2.34    1.20
  -8  -8  -5    4.96    1.82
   8   9 -13    1.14    1.79
   8   9 -12    2.17    1.96
   8   9 -11    1.08    1.88
   8   9 -10    2.05    2.08
   8   9  -9    1.45    1.86
  -8  -9   9    2.23    1.91
   8   9  -8    0.20    1.69
  -8  -9   8    0.65    1.81
   8   9  -7   -0.74    1.61
  -8  -9   7    2.94    2.00
   8   9  -6    1.09    1.66
  -8  -9   6    0.64    1.84
   8   9  -5    0.27    1.81
  -8  -9   5    1.37    2.01
   8   9  -4    1.05    1.65
  -8  -9   4   -3.17    1.91
   8   9  -3   -0.93    1.58
  -8  -9   3    0.07    1.83
   8   9  -2   -0.14    1.51
  -8  -9   2    0.18    0.88
   8   9  -1    1.04    1.53
  -8  -9   1    0.41    1.00
   8   9   0    0.61    1.48
  -8  -9   0   -1.64    1.90
  -8  -9  -1    1.98    1.00
  -8  -9  -2    2.13    1.09
  -8  -9  -3    1.14    1.13
  -8  -9  -4   -1.85    1.81
   8  10 -12    0.58    1.98
   8  10 -11    4.58    2.12
   8  10 -10    3.52    1.97
   8  10  -9   -0.07    1.68
   8  10  -8   -2.64    1.73
   8  10  -7    4.35    2.20
   8  10  -6    0.44    1.93
  -8 -10   6    3.06    2.11
   8  10  -5   13.32    4.21
  -8 -10   5   11.04    3.89
   8  10  -4    0.11    1.71
  -8 -10   4    2.40    2.04
   8  10  -3    5.29    2.45
  -8 -10   3    6.70    2.75
   8  10  -2    5.48    2.07
  -8 -10   2    3.84    1.99
  -8 -10   1    5.23    1.78
  -8 -10   0    5.52    2.87
  -8 -10  -1   10.99    3.56
   9 -11   8   -0.08    1.59
   9 -10   4    0.79    1.55
   9 -10   5    2.93    1.04
   9 -10   6   -0.21    1.42
   9 -10   7    0.65    1.50
   9 -10   8   -1.31    1.73
   9 -10   9   22.51    6.08
   9 -10  10   12.75    4.37
   9 -10  11    4.72    2.00
   9 -10  12   13.51    4.59
  -9   9   8    0.80    2.25
  -9   9   7    1.20    2.04
  -9   9   6    1.89    2.62
  -9   9   5    2.90    2.60
  -9   9   4    1.30    1.71
  -9   9   3    1.88    1.65
  -9   9   2    0.79    1.31
  -9   9   1    2.53    1.58
  -9   9   0    0.81    1.49
   9  -9   2    0.99    0.76
   9  -9   3    0.40    0.55
   9  -9   4   -0.17    1.40
   9  -9   5   -0.24    1.57
   9  -9   6    0.90    1.27
   9  -9   7   -0.33    1.71
   9  -9   8    0.24    1.66
   9  -9   9    1.23    1.03
   9  -9  10    0.01    1.69
   9  -9  12    2.59    2.05
  -9   8   9    0.35    2.22
  -9   8   8    6.46    3.00
  -9   8   7    8.66    3.09
  -9   8   6    2.47    2.60
  -9   8   5    2.21    1.19
  -9   8   4   14.13    2.98
  -9   8   3   10.38    3.01
  -9   8   2    7.39    2.41
  -9   8   1    2.03    1.64
   9  -8   0   30.88    9.35
  -9   8   0   36.56    4.96
   9  -8   1   23.79    5.44
  -9   8  -1   21.78    3.68
   9  -8   2    0.38    0.82
  -9   8  -2    0.83    1.42
   9  -8   3    0.94    1.07
   9  -8   4    9.18    2.90
   9  -8   5    1.50    0.65
   9  -8   6   10.74    2.93
   9  -8   7    3.06    1.16
   9  -8   8   21.92    3.94
   9  -8   9    5.98    2.11
   9  -8  10    3.50    1.21
   9  -8  11    7.57    3.53
   9  -8  12    4.14    2.92
   9  -8  13    1.42    1.91
  -9   7  10    1.59    2.89
  -9   7   9   -0.14    2.00
  -9   7   8   -0.68    1.88
  -9   7   7    4.55    2.38
  -9   7   6   -0.23    1.71
  -9   7   5    2.38    2.49
  -9   7   4    0.37    1.88
  -9   7   3    0.30    1.57
  -9   7   2    1.14    1.59
   9  -7  -1    1.33    0.54
  -9   7   1    0.78    1.52
   9  -7   0    1.50    0.82
  -9   7   0    0.85    1.53
   9  -7   1    1.48    1.48
  -9   7  -1    0.79    1.44
   9  -7   2   -0.19    1.40
  -9   7  -2    0.34    1.31
   9  -7   3    0.25    1.39
  -9   7  -3    1.23    1.40
   9  -7   4    1.03    1.09
   9  -7   5   -0.51    1.34
   9  -7   6    2.07    0.94
   9  -7   7    1.16    1.01
   9  -7   8   -0.99    1.61
   9  -7   9    5.41    2.60
   9  -7  10    0.81    1.77
   9  -7  11   -3.25    1.94
   9  -7  12   -1.01    1.88
   9  -7  13    2.15    1.21
  -9   6  11    6.70    3.00
  -9   6  10    2.50    2.03
  -9   6   9    0.58    1.98
  -9   6   8    3.10    2.10
  -9   6   7    5.28    2.97
  -9   6   6    3.98    2.66
  -9   6   5    6.08    1.97
  -9   6   4   10.44    2.95
   9  -6  -3   -0.61    1.29
  -9   6   3    2.86    1.90
   9  -6  -2    5.11    1.92
  -9   6   2    0.89    1.62
   9  -6  -1    6.01    1.86
  -9   6   1    5.54    1.68
   9  -6   0   11.66    2.74
  -9   6   0   10.47    2.85
   9  -6   1   55.29   13.19
  -9   6  -1   60.28    5.04
   9  -6   2   -0.55    1.34
  -9   6  -2   -0.29    1.44
   9  -6   3    3.67    0.94
  -9   6  -3    3.31    1.57
   9  -6   4    1.63    1.50
  -9   6  -4   -0.22    1.36
   9  -6   5    4.38    1.05
   9  -6   6   -0.32    1.36
   9  -6   7    5.20    2.41
   9  -6   8   35.51    8.32
   9  -6   9    0.36    0.85
   9  -6  10   27.42    9.24
   9  -6  11   92.07   21.27
   9  -6  12   11.75    4.49
   9  -6  13    6.72    1.85
  -9   5  12   -0.56    1.99
  -9   5  11    0.35    1.94
  -9   5  10   -1.37    1.89
  -9   5   9   -0.43    1.83
  -9   5   8   -0.36    1.90
  -9   5   7   -0.46    2.01
  -9   5   6    0.37    1.81
  -9   5   5    1.94    1.89
   9  -5  -4   -0.28    1.19
  -9   5   4    1.73    1.73
   9  -5  -3   -0.20    1.11
  -9   5   3    1.29    1.84
   9  -5  -2    1.32    1.42
  -9   5   2    1.99    1.74
   9  -5  -1    0.68    1.40
  -9   5   1    1.25    1.63
   9  -5   0    1.20    0.74
  -9   5   0   -0.31    1.39
   9  -5   1    2.95    1.01
  -9   5  -1    1.81    1.21
   9  -5   2    2.04    0.99
  -9   5  -2    2.25    2.09
   9  -5   3    0.06    1.40
  -9   5  -3    1.29    0.80
   9  -5   4    1.37    0.74
  -9   5  -4    0.12    1.29
   9  -5   5   -0.38    1.33
  -9   5  -5    0.22    1.32
   9  -5   6   -0.58    1.54
   9  -5   7   -0.10    1.79
   9  -5   8   -0.92    1.75
   9  -5   9    1.37    1.06
   9  -5  10    1.31    1.00
   9  -5  11    2.18    1.23
   9  -5  12    1.79    2.16
   9  -5  13   -0.27    1.19
  -9   4  13    5.57    2.40
  -9   4  12    2.52    2.18
  -9   4  11   -1.72    1.91
  -9   4  10    4.86    2.36
  -9   4   9    2.45    2.18
  -9   4   8    3.11    2.10
  -9   4   7    3.72    2.00
   9  -4  -6    2.64    1.49
  -9   4   6    3.70    2.07
   9  -4  -5   -0.15    1.16
  -9   4   5    4.16    2.37
   9  -4  -4    3.74    1.66
  -9   4   4    3.66    2.08
   9  -4  -3   15.38    3.45
  -9   4   3   19.94    3.50
   9  -4  -2    8.84    2.27
  -9   4   2    8.37    2.63
   9  -4  -1    2.24    1.46
  -9   4   1   -0.48    1.64
   9  -4   0   -0.28    1.36
  -9   4   0    1.12    1.53
   9  -4   1    2.66    1.50
  -9   4  -1    3.44    1.72
   9  -4   2   -0.89    1.42
  -9   4  -2    0.24    1.39
   9  -4   3   13.04    3.18
  -9   4  -3    4.83    1.58
   9  -4   4    5.05    1.76
  -9   4  -4    1.85    1.66
   9  -4   5    1.07    0.93
  -9   4  -5    2.12    1.57
   9  -4   6   15.21    3.10
  -9   4  -6   16.17    3.63
   9  -4   7   27.22    4.31
   9  -4   8   32.27    7.71
   9  -4   9    6.36    2.45
   9  -4  10   18.73    3.98
   9  -4  11   72.74   16.96
   9  -4  12   23.36    6.68
   9  -4  13    1.20    2.21
  -9   3  13    1.09    1.60
  -9   3  12    2.10    2.41
  -9   3  11   -0.89    1.97
  -9   3  10    4.73    3.03
  -9   3   9    2.16    2.07
  -9   3   8    2.27    2.03
   9  -3  -7   -0.12    1.33
  -9   3   7    4.14    2.05
   9  -3  -6    0.57    1.15
  -9   3   6    1.20    1.84
   9  -3  -5   -0.10    1.22
  -9   3   5    2.00    1.93
   9  -3  -4    0.39    1.38
  -9   3   4    0.51    1.78
   9  -3  -3   -0.64    1.22
  -9   3   3   -2.24    1.78
   9  -3  -2    0.89    1.37
  -9   3   2    2.42    2.44
   9  -3  -1   -1.21    1.43
  -9   3   1   -0.69    1.65
   9  -3   0    1.67    1.48
  -9   3   0   -0.57    1.59
   9  -3   1    0.89    1.04
  -9   3  -1   -0.31    1.21
   9  -3   2    2.78    1.49
  -9   3  -2   -2.42    1.46
   9  -3   3    2.31    1.28
  -9   3  -3   -0.16    1.51
   9  -3   4   -1.12    1.61
  -9   3  -4   -0.40    0.87
   9  -3   5   -0.98    1.66
  -9   3  -5   -0.84    1.56
   9  -3   6    2.21    1.65
  -9   3  -6    1.73    0.80
   9  -3   7    2.26    1.18
   9  -3   8    1.20    1.37
   9  -3   9   -1.58    1.87
   9  -3  10    2.03    1.94
   9  -3  11    2.33    2.08
   9  -3  12    1.10    2.03
  -9   2  13    1.92    2.21
  -9   2  12   -1.08    2.04
  -9   2  11    1.91    2.05
  -9   2  10    0.35    2.01
  -9   2   9    2.56    2.09
   9  -2  -8    0.27    1.39
  -9   2   8    2.52    2.19
   9  -2  -7    1.81    1.35
  -9   2   7    4.87    3.08
   9  -2  -6   27.76    3.17
  -9   2   6   17.37    3.35
   9  -2  -5   33.62    3.61
  -9   2   5   27.90    4.20
   9  -2  -4   18.68    2.81
  -9   2   4   24.07    3.85
   9  -2  -3    2.40    1.53
  -9   2   3    2.24    1.95
   9  -2  -2    3.10    1.10
  -9   2   2    2.94    1.97
   9  -2  -1    8.37    2.51
  -9   2   1    8.93    2.60
   9  -2   0    1.68    1.57
  -9   2   0    1.37    1.97
   9  -2   1   -0.80    1.46
  -9   2  -1    2.24    1.90
   9  -2   2   13.93    3.11
  -9   2  -2   11.01    2.73
   9  -2   3   -1.51    1.60
  -9   2  -3    1.75    1.87
   9  -2   4    7.11    1.28
  -9   2  -4    6.49    2.20
   9  -2   5    2.75    0.75
  -9   2  -5    2.01    1.73
   9  -2   6   12.36    3.88
  -9   2  -6    9.61    2.40
   9  -2   7    0.84    0.71
  -9   2  -7    2.24    2.08
   9  -2   8  119.13   12.84
   9  -2   9    4.16    2.11
   9  -2  10    4.81    2.37
   9  -2  11    0.70    1.92
  -9   1  13   -1.14    1.90
  -9   1  12    0.53    2.01
  -9   1  11   -1.54    2.10
  -9   1  10   -2.02    1.93
   9  -1  -9    0.75    1.43
  -9   1   9    3.01    2.12
   9  -1  -8    2.99    1.48
  -9   1   8    2.49    2.16
   9  -1  -7    3.21    2.07
  -9   1   7    2.35    2.18
   9  -1  -6   -0.17    1.38
  -9   1   6    1.64    2.11
   9  -1  -5   -0.55    1.25
  -9   1   5    3.41    2.76
   9  -1  -4    1.64    1.48
  -9   1   4    3.01    2.01
   9  -1  -3   -0.10    1.28
  -9   1   3    1.17    1.19
   9  -1  -2    2.09    1.30
  -9   1   2    3.01    1.18
   9  -1  -1    0.82    1.51
  -9   1   1    7.72    2.97
   9  -1   0    0.22    1.67
  -9   1   0   -0.28    1.12
   9  -1   1    2.80    2.40
  -9   1  -1   -0.25    1.88
   9  -1   2    0.58    1.57
  -9   1  -2   -1.67    1.68
   9  -1   3    1.76    1.61
  -9   1  -3   -0.35    1.51
   9  -1   4    1.69    1.25
  -9   1  -4   -0.18    1.44
   9  -1   5    1.33    1.30
  -9   1  -5   -1.47    1.47
   9  -1   6   -0.15    1.60
  -9   1  -6    1.89    2.13
   9  -1   7    2.46    1.87
  -9   1  -7   -0.27    1.42
   9  -1   8   -2.84    1.59
   9  -1   9    1.01    0.69
   9  -1  10    0.98    2.26
   9  -1  11    2.41    1.27
  -9   0  12    9.89    3.36
  -9   0  11    3.61    2.39
  -9   0  10    4.37    3.01
   9   0  -9    5.33    2.11
  -9   0   9    4.13    2.24
   9   0  -8    7.74    2.50
  -9   0   8    8.22    3.13
   9   0  -7    6.37    2.16
  -9   0   7   10.03    3.02
   9   0  -6    9.20    2.45
  -9   0   6    8.58    3.52
   9   0  -5    5.26    1.91
  -9   0   5    6.51    2.72
   9   0  -4    2.38    1.55
  -9   0   4    2.52    2.13
   9   0  -3    2.62    1.54
  -9   0   3    0.19    1.98
   9   0  -2    2.01    1.06
  -9   0   2   -0.31    2.05
   9   0  -1    1.14    1.56
  -9   0   1    1.58    2.12
   9   0   0   19.36    3.25
  -9   0   0   13.26    4.30
   9   0   1    9.47    2.55
  -9   0  -1    5.62    1.98
   9   0   2    2.05    2.12
  -9   0  -2    0.10    1.92
   9   0   3   -0.27    1.50
  -9   0  -3    3.08    1.91
   9   0   4   15.93    3.45
  -9   0  -4   18.28    3.51
   9   0   5    1.09    1.54
  -9   0  -5    2.11    1.83
   9   0   6    5.60    1.60
  -9   0  -6    7.55    2.45
   9   0   7    2.31    1.41
  -9   0  -7    5.73    1.33
   9   0   8    5.61    2.00
   9   0   9    2.72    1.82
   9   0  10   10.83    4.07
  -9  -1  13    1.50    2.03
  -9  -1  12    0.99    1.99
  -9  -1  11    0.31    2.02
   9   1 -10   -0.07    1.28
  -9  -1  10    2.76    2.25
   9   1  -9    2.35    2.04
  -9  -1   9    0.53    2.09
   9   1  -8    0.76    1.34
  -9  -1   8    3.58    2.25
   9   1  -7    1.10    1.41
  -9  -1   7   -2.51    1.92
   9   1  -6    0.93    1.36
  -9  -1   6    2.80    2.25
   9   1  -5    0.49    1.28
  -9  -1   5    1.73    2.05
   9   1  -4    2.72    1.93
  -9  -1   4   -1.31    1.94
   9   1  -3    2.12    1.60
  -9  -1   3    0.38    1.07
   9   1  -2    1.81    1.68
  -9  -1   2    0.98    2.07
   9   1  -1    1.27    1.72
  -9  -1   1    4.32    2.94
   9   1   0    1.37    1.99
  -9  -1   0    1.37    1.94
   9   1   1    0.23    1.38
  -9  -1  -1    1.08    1.02
   9   1   2    0.14    1.55
  -9  -1  -2    3.01    2.50
   9   1   3   -0.57    1.67
  -9  -1  -3    2.61    1.94
   9   1   4    1.05    1.66
  -9  -1  -4    2.48    1.70
   9   1   5    1.20    1.66
  -9  -1  -5    0.87    1.72
   9   1   6    2.77    1.88
  -9  -1  -6    0.32    1.58
   9   1   7    0.51    1.49
  -9  -1  -7   -0.20    1.56
   9   1   8    2.80    1.93
   9   1   9    0.05    1.26
  -9  -2  13   -1.00    1.80
  -9  -2  12    0.81    1.90
   9   2 -11    1.12    1.52
  -9  -2  11    0.62    2.07
   9   2 -10    4.56    1.80
  -9  -2  10    7.33    2.44
   9   2  -9    2.25    1.70
  -9  -2   9    0.60    2.14
   9   2  -8   15.60    3.12
  -9  -2   8    9.31    3.17
   9   2  -7   47.68    6.03
  -9  -2   7   41.88   12.87
   9   2  -6    7.64    2.42
  -9  -2   6   10.59    2.62
   9   2  -5    2.55    1.52
  -9  -2   5    9.24    3.22
   9   2  -4    2.66    1.63
  -9  -2   4    0.45    1.36
   9   2  -3    3.07    1.78
  -9  -2   3   -0.32    2.09
   9   2  -2    6.01    2.59
  -9  -2   2    4.23    2.84
   9   2  -1    0.05    1.48
  -9  -2   1    2.77    2.06
   9   2   0   14.58    3.40
  -9  -2   0   12.69    3.41
   9   2   1   65.86    8.28
  -9  -2  -1   45.72    7.11
   9   2   2    4.89    1.77
  -9  -2  -2    4.59    2.33
  -9  -2  -3   -2.47    1.62
   9   2   4    0.07    1.62
  -9  -2  -4    1.44    1.76
   9   2   5   32.92    4.68
  -9  -2  -5   26.95    9.06
   9   2   6   32.53    4.63
  -9  -2  -6   35.17    5.35
   9   2   7   -0.42    1.58
  -9  -2  -7   -0.37    1.60
   9   2   8    1.70    1.81
  -9  -3  12    4.00    2.22
   9   3 -11    0.24    1.40
  -9  -3  11    3.32    2.90
   9   3 -10    1.83    1.59
  -9  -3  10    3.87    2.38
   9   3  -9    0.53    1.60
  -9  -3   9    1.24    1.07
   9   3  -8    2.79    2.22
  -9  -3   8    1.25    1.85
   9   3  -7    0.59    1.38
  -9  -3   7    3.63    2.44
   9   3  -6   -0.67    1.24
  -9  -3   6   -0.54    2.08
   9   3  -5   -0.17    1.50
  -9  -3   5   -0.23    1.95
   9   3  -4   -0.43    1.50
  -9  -3   4    1.69    1.43
   9   3  -3   -0.97    1.61
  -9  -3   3   -0.17    1.96
   9   3  -2    1.56    1.53
  -9  -3   2    1.29    1.91
   9   3  -1    3.53    2.63
  -9  -3   1    4.20    0.89
   9   3   0    1.34    1.78
  -9  -3   0    0.14    1.23
   9   3   1    0.12    1.59
  -9  -3  -1   -0.51    1.88
   9   3   2    2.83    1.76
  -9  -3  -2    0.35    1.84
   9   3   3    4.64    2.69
  -9  -3  -3    5.31    2.59
   9   3   4   -0.10    1.59
  -9  -3  -4    1.26    1.66
   9   3   5    1.08    1.39
  -9  -3  -5    0.34    1.63
   9   3   6    1.46    0.93
  -9  -3  -6   -1.01    1.61
   9   3   7    1.83    1.87
  -9  -4  12    2.52    2.21
   9   4 -11   -0.69    1.52
  -9  -4  11    1.74    2.61
   9   4 -10   23.65    6.36
  -9  -4  10   16.12    6.27
   9   4  -9    1.80    1.63
  -9  -4   9    6.26    3.02
   9   4  -8   26.58    4.34
  -9  -4   8   23.31    4.50
   9   4  -7    8.65    2.13
  -9  -4   7    9.67    3.47
   9   4  -6    3.90    1.89
  -9  -4   6   -0.35    2.11
   9   4  -5    5.66    2.70
  -9  -4   5    6.64    1.68
   9   4  -4   -0.61    1.53
  -9  -4   4   -0.46    1.86
   9   4  -3    0.52    1.45
  -9  -4   3    1.83    1.99
   9   4  -2   -0.36    1.64
  -9  -4   2   -0.30    1.90
   9   4  -1    6.31    2.48
  -9  -4   1    8.38    2.58
   9   4   0    0.49    1.76
  -9  -4   0    2.99    2.76
   9   4   1   23.89    4.04
  -9  -4  -1   24.80    4.50
   9   4   2   61.16    7.79
  -9  -4  -2   51.98    7.96
   9   4   3   24.58    4.30
  -9  -4  -3   21.99    4.50
   9   4   4   20.98    5.75
  -9  -4  -4   15.82    4.46
   9   4   5   15.59    5.92
  -9  -4  -5   11.50    4.63
   9   4   6   12.84    4.23
  -9  -4  -6    2.98    1.83
   9   5 -11   -1.00    1.77
  -9  -5  11   -1.62    2.11
   9   5 -10    0.46    1.61
  -9  -5  10    1.40    1.97
   9   5  -9   -0.56    1.56
  -9  -5   9    1.21    2.16
   9   5  -8   -0.56    1.51
  -9  -5   8    2.51    2.21
   9   5  -7    2.13    1.77
  -9  -5   7    2.75    1.38
   9   5  -6    1.64    1.72
  -9  -5   6    3.50    2.31
   9   5  -5    0.63    1.51
  -9  -5   5    1.24    2.14
   9   5  -4    0.36    1.58
  -9  -5   4    0.30    2.01
   9   5  -3    1.22    1.71
  -9  -5   3    0.82    1.92
   9   5  -2    0.56    1.68
  -9  -5   2    1.90    2.06
   9   5  -1    0.04    1.62
  -9  -5   1    7.23    3.04
   9   5   0   -1.06    1.66
  -9  -5   0    3.20    2.08
   9   5   1    1.09    1.86
  -9  -5  -1    1.17    1.64
   9   5   2    2.94    2.32
  -9  -5  -2   -1.86    1.89
   9   5   3   -0.24    1.46
  -9  -5  -3    0.64    2.02
   9   5   4   -0.57    1.61
  -9  -5  -4    2.33    0.84
   9   5   5    1.80    1.90
  -9  -5  -5   -0.46    1.85
   9   6 -11    1.07    1.65
   9   6 -10   -0.70    1.63
  -9  -6  10   -0.47    2.04
   9   6  -9    2.62    1.79
  -9  -6   9    1.38    2.06
   9   6  -8    0.10    1.51
  -9  -6   8    2.49    1.77
   9   6  -7    2.48    1.86
  -9  -6   7    4.54    3.01
   9   6  -6    3.80    2.05
  -9  -6   6    0.89    2.06
   9   6  -5   -0.02    1.67
  -9  -6   5    0.66    1.98
   9   6  -4    3.90    2.64
  -9  -6   4   -0.47    1.90
   9   6  -3   -1.30    1.68
  -9  -6   3    2.11    2.02
   9   6  -2    9.36    3.10
  -9  -6   2   17.48    5.21
   9   6  -1   11.55    3.89
  -9  -6   1   16.85    5.27
   9   6   0   -0.15    1.72
  -9  -6   0    1.73    2.01
   9   6   1    0.54    1.64
  -9  -6  -1    1.50    1.91
   9   6   2    5.19    1.94
  -9  -6  -2    7.32    2.82
   9   6   3    6.34    2.68
  -9  -6  -3    4.66    1.28
  -9  -6  -4    2.19    2.18
   9   7 -10    0.95    1.74
   9   7  -9    1.02    1.77
   9   7  -8    1.58    2.66
  -9  -7   8    0.49    2.10
   9   7  -7   -0.96    1.65
  -9  -7   7    1.91    2.16
   9   7  -6    1.25    1.83
  -9  -7   6    0.88    1.98
   9   7  -5    0.94    1.76
  -9  -7   5    2.62    2.54
   9   7  -4   -0.57    1.51
  -9  -7   4    0.32    1.46
   9   7  -3    1.25    1.87
  -9  -7   3    4.19    3.06
   9   7  -2    0.62    1.98
  -9  -7   2   -0.57    1.89
   9   7  -1   -1.06    1.84
  -9  -7   1    0.89    1.91
   9   7   0    2.44    1.95
  -9  -7   0   -2.50    1.86
  -9  -7  -1    2.08    1.96
  -9  -7  -2    4.29    1.44
  -9  -7  -3    0.14    1.42
   9   8  -9    3.14    2.76
   9   8  -8    2.58    2.66
   9   8  -7    0.89    1.73
   9   8  -6    4.22    2.56
  -9  -8   6   -0.85    1.99
   9   8  -5   -0.70    1.74
  -9  -8   5    2.41    2.17
   9   8  -4    5.06    2.17
  -9  -8   4    3.70    2.28
   9   8  -3    9.69    3.82
  -9  -8   3    7.09    2.49
   9   8  -2    1.45    2.01
  -9  -8   2    1.78    2.05
  -9  -8   1    1.44    1.91
  -9  -8   0    2.97    2.15
  10  -8   6   16.59    4.96
  10  -8   7    1.77    1.83
 -10   7   2    1.49    1.80
  10  -7   3    0.99    1.05
  10  -7   4    1.65    1.51
  10  -7   5    0.62    1.74
  10  -7   6   -1.32    1.81
  10  -7   7    3.84    1.92
  10  -7   8    0.18    1.21
  10  -7   9    1.00    0.80
 -10   6   7   -0.40    2.21
 -10   6   6    1.81    2.24
 -10   6   5    4.28    3.01
 -10   6   4   16.88    5.00
 -10   6   3   14.69    4.57
 -10   6   2   -0.68    1.81
 -10   6   1    5.40    2.06
  10  -6   0    0.39    1.41
 -10   6   0    5.94    2.67
  10  -6   1   15.82    5.47
  10  -6   2   23.46    8.03
  10  -6   3   29.43    8.03
  10  -6   4   85.75   24.79
  10  -6   5   11.96    3.60
  10  -6   6    4.53    2.01
  10  -6   7    6.24    2.48
  10  -6   8   -0.09    1.71
  10  -6   9    2.95    2.15
 -10   5   9    2.70    2.37
 -10   5   8    2.08    2.32
 -10   5   7    1.54    2.36
 -10   5   6   -1.36    2.01
 -10   5   5    0.68    1.95
 -10   5   4    1.34    1.86
 -10   5   3   -0.49    1.64
 -10   5   2    0.90    1.86
  10  -5  -1   -1.96    1.33
 -10   5   1    2.48    2.03
  10  -5   0    0.47    1.46
 -10   5   0    0.02    1.62
  10  -5   1    1.09    1.65
 -10   5  -1    0.49    1.63
  10  -5   2    1.42    1.07
  10  -5   3    2.04    1.79
  10  -5   4    1.52    1.16
  10  -5   5    1.73    0.76
  10  -5   6    0.96    1.73
  10  -5   7    1.67    1.92
  10  -5   8    0.64    0.97
  10  -5   9    1.28    1.03
 -10   4   9   -0.48    2.06
 -10   4   8    0.96    2.11
 -10   4   7    1.67    2.24
 -10   4   6   -0.87    2.13
 -10   4   5    3.90    2.14
 -10   4   4    6.99    2.73
  10  -4  -3    2.46    1.60
 -10   4   3    0.45    1.80
  10  -4  -2    7.40    2.68
 -10   4   2   10.93    2.87
  10  -4  -1    2.56    1.72
 -10   4   1    4.42    2.19
  10  -4   0   11.42    2.83
 -10   4   0    9.75    3.63
  10  -4   1   17.87    3.58
 -10   4  -1   20.90    4.16
  10  -4   2   35.23    5.45
 -10   4  -2   25.44    8.48
  10  -4   3   12.38    2.95
  10  -4   4   17.14    5.48
  10  -4   5    0.89    0.79
  10  -4   6   48.82   11.77
  10  -4   7   40.54   14.30
  10  -4   8    7.22    3.12
  10  -4   9    0.30    1.80
 -10   3   9   -1.42    1.93
 -10   3   8   -0.95    1.86
 -10   3   7    2.33    2.13
 -10   3   6    0.95    2.23
 -10   3   5    3.53    3.21
  10  -3  -4    0.11    1.43
 -10   3   4    2.85    2.78
  10  -3  -3    0.86    1.45
 -10   3   3   -1.49    1.78
  10  -3  -2   -0.27    1.43
 -10   3   2    1.23    1.85
  10  -3  -1    0.66    0.76
 -10   3   1    1.11    1.94
  10  -3   0   -0.90    1.61
 -10   3   0    5.46    1.54
  10  -3   1    0.66    1.62
 -10   3  -1   -0.15    1.71
  10  -3   2    0.18    1.64
 -10   3  -2    2.02    1.90
  10  -3   3    1.19    0.97
 -10   3  -3    0.82    1.82
  10  -3   4    1.35    1.06
  10  -3   5    1.55    1.51
  10  -3   6   -1.75    1.86
  10  -3   7    1.65    1.05
  10  -3   8    4.96    1.73
  10  -3   9    0.82    1.97
 -10   2  10    3.36    3.01
 -10   2   9   -0.46    1.84
 -10   2   8   -2.26    1.87
 -10   2   7    5.61    2.24
 -10   2   6    0.09    1.94
  10  -2  -5    2.52    1.64
 -10   2   5    6.69    3.30
  10  -2  -4    3.20    2.21
 -10   2   4    6.02    2.58
  10  -2  -3    6.02    2.53
 -10   2   3    0.08    1.76
  10  -2  -2    3.98    1.87
 -10   2   2    6.56    3.19
  10  -2  -1   -1.21    1.48
 -10   2   1   -1.38    1.82
  10  -2   0    9.66    2.72
 -10   2   0    8.25    2.36
  10  -2   1   18.71    3.97
 -10   2  -1   14.43    2.81
  10  -2   2    0.10    1.63
 -10   2  -2    2.50    2.64
  10  -2   3   59.23    7.34
 -10   2  -3   53.51    7.25
  10  -2   4   27.08    7.19
  10  -2   5    1.39    0.91
  10  -2   6   24.52    9.45
  10  -2   7   11.16    3.95
  10  -2   8    2.26    1.32
 -10   1  10    1.78    2.13
 -10   1   9   -0.95    2.01
 -10   1   8    0.95    2.09
 -10   1   7    0.74    2.10
  10  -1  -6    1.98    1.60
 -10   1   6    4.03    2.98
  10  -1  -5    0.97    1.42
 -10   1   5   -2.75    2.03
  10  -1  -4   -1.38    1.52
 -10   1   4    4.50    3.24
  10  -1  -3   -0.42    1.50
 -10   1   3    0.03    2.11
  10  -1  -2   -0.36    1.39
 -10   1   2   -0.23    1.77
  10  -1  -1    0.82    1.63
 -10   1   1   -0.69    1.78
  10  -1   0    1.88    1.25
 -10   1   0    4.44    2.62
  10  -1   1    2.15    1.74
 -10   1  -1    0.11    1.86
  10  -1   2    2.84    1.78
 -10   1  -2    2.56    1.42
  10  -1   3    2.58    1.93
 -10   1  -3    2.23    1.91
  10  -1   4    3.44    2.74
  10  -1   5    0.51    1.69
  10  -1   6    0.03    1.67
  10  -1   7   -2.77    1.83
  10  -1   8   -0.87    2.11
 -10   0  10    2.00    2.18
 -10   0   9   -0.12    1.96
 -10   0   8    0.59    2.07
 -10   0   7    1.25    2.13
  10   0  -6    3.32    2.44
 -10   0   6    1.82    2.24
  10   0  -5    3.41    2.47
 -10   0   5    3.64    2.43
  10   0  -4   14.12    4.37
 -10   0   4   17.97    5.15
  10   0  -3    1.76    1.56
 -10   0   3    0.97    1.26
  10   0  -2   11.45    3.44
 -10   0   2    5.11    2.01
  10   0  -1   23.28    4.17
 -10   0   1   22.62    4.33
  10   0   0    4.45    1.92
 -10   0   0    2.70    1.19
  10   0   1    2.53    1.36
 -10   0  -1    1.98    1.85
  10   0   2    5.15    3.08
 -10   0  -2   -0.13    1.72
  10   0   3    4.06    2.11
 -10   0  -3    4.39    2.12
  10   0   4    3.54    2.05
  10   0   5   -0.82    1.54
  10   0   6    2.72    2.09
  10   0   7    1.06    2.17
 -10  -1  10    0.77    2.11
 -10  -1   9    2.69    2.25
 -10  -1   8    0.12    2.06
  10   1  -7    0.91    1.60
 -10  -1   7   -1.58    2.01
  10   1  -6   -1.18    1.63
 -10  -1   6    3.43    1.91
  10   1  -5    2.14    1.78
 -10  -1   5    4.64    2.71
  10   1  -4    2.11    1.71
 -10  -1   4    2.71    2.23
  10   1  -3    0.09    1.47
 -10  -1   3    0.66    2.10
  10   1  -2   -1.58    1.58
 -10  -1   2   -0.41    2.10
  10   1  -1   -0.90    1.61
 -10  -1   1    1.12    2.94
  10   1   0    2.89    2.03
 -10  -1   0    2.02    0.94
  10   1   1    0.97    1.83
 -10  -1  -1    4.77    2.62
  10   1   2   -1.77    1.80
  10   1   3    3.44    1.37
 -10  -1  -3    1.72    1.94
  10   1   4    0.42    1.62
  10   1   5    2.68    2.12
  10   1   6   -0.21    2.07
 -10  -2  10    4.84    2.40
 -10  -2   9   -0.48    1.94
 -10  -2   8    2.69    2.20
  10   2  -7    5.20    2.21
 -10  -2   7   10.00    4.81
  10   2  -6   26.68    7.01
 -10  -2   6   18.62    6.41
  10   2  -5   12.31    4.04
 -10  -2   5   10.41    4.21
  10   2  -4    0.87    1.69
 -10  -2   4    2.08    2.31
  10   2  -3   -0.27    1.72
 -10  -2   3    2.97    1.58
  10   2  -2    5.50    2.62
 -10  -2   2    6.15    3.13
  10   2  -1    4.85    2.78
 -10  -2   1    1.76    1.74
  10   2   0    1.16    1.93
 -10  -2   0    0.12    1.99
  10   2   1   -0.75    1.76
 -10  -2  -1    2.04    1.96
  10   2   2    0.69    1.12
 -10  -2  -2    0.10    1.15
  10   2   3    9.12    3.59
 -10  -2  -3    6.77    2.42
  10   2   4    2.45    2.14
  10   2   5    8.37    3.26
 -10  -3   9    2.23    2.23
 -10  -3   8    0.84    1.52
  10   3  -7    1.63    1.67
 -10  -3   7   -0.01    1.97
  10   3  -6   -0.30    1.54
 -10  -3   6    0.66    1.67
  10   3  -5    2.41    1.72
 -10  -3   5    1.44    2.21
  10   3  -4    0.75    1.67
 -10  -3   4    1.03    1.03
  10   3  -3    1.38    1.93
 -10  -3   3   -0.37    2.08
  10   3  -2    0.57    1.77
 -10  -3   2    0.29    2.05
  10   3  -1    0.57    1.88
 -10  -3   1    1.50    1.08
  10   3   0    1.14    1.87
 -10  -3   0    2.26    2.20
  10   3   1   -0.61    1.59
 -10  -3  -1    1.64    1.27
  10   3   2    1.48    1.86
 -10  -3  -2    3.10    2.36
  10   3   3    2.93    2.29
 -10  -4   8    5.23    2.49
  10   4  -7    9.89    3.88
 -10  -4   7    7.64    3.30
  10   4  -6   11.23    3.97
 -10  -4   6    6.51    2.56
  10   4  -5    0.75    1.71
 -10  -4   5    4.27    2.26
  10   4  -4   10.30    3.96
 -10  -4   4    6.63    2.53
  10   4  -3   17.55    5.28
 -10  -4   3   12.90    4.55
  10   4  -2   14.23    4.72
 -10  -4   2    7.65    2.42
  10   4  -1   -1.17    1.64
 -10  -4   1   -0.20    2.03
  10   4   0    1.38    1.86
 -10  -4   0    1.50    2.22
  10   4   1    3.88    2.94
 -10  -4  -1    0.83    2.31
  10   4   2    2.61    2.30
  10   5  -6   -1.91    1.65
 -10  -5   6    0.88    1.01
  10   5  -5    0.78    1.90
 -10  -5   5    0.94    2.20
  10   5  -4    1.41    2.02
 -10  -5   4    2.97    2.24
  10   5  -3    1.80    1.88
 -10  -5   3    0.64    2.17
  10   5  -2    3.30    2.73
 -10  -5   2    0.74    2.09
 -10  -5   1    2.68    1.72
  10   5   0    2.31    2.96
   0   0   0    0.00    0.00
;
_shelx_hkl_checksum              20323
loop_
_space_group_symop_operation_xyz
'x, y, z'
'-x, -y, -z'
loop_
_atom_site_label
_atom_site_type_symbol
_atom_site_fract_x
_atom_site_fract_y
_atom_site_fract_z
_atom_site_U_iso_or_equiv
_atom_site_adp_type
_atom_site_occupancy
_atom_site_site_symmetry_order
_atom_site_calc_flag
_atom_site_refinement_flags_posn
_atom_site_refinement_flags_adp
C3 C 0.1245(3) 0.4211(3) 0.39355(12) 0.0273(4) Uani 1 1 d . .
C5 C 0.3498(3) 0.6728(3) 0.36903(13) 0.0319(5) Uani 1 1 d . .
H5 H 0.4782 0.7207 0.3781 0.038 Uiso 1 1 calc R U
C6 C 0.0115(3) 0.7124(3) 0.30498(13) 0.0311(5) Uani 1 1 d . .
H6 H -0.0911 0.7866 0.2700 0.037 Uiso 1 1 calc R U
C7 C 0.1985(3) 0.7842(3) 0.31868(12) 0.0270(4) Uani 1 1 d . .
C9 C -0.0245(3) 0.5331(3) 0.34234(13) 0.0309(4) Uani 1 1 d . .
H9 H -0.1527 0.4852 0.3330 0.037 Uiso 1 1 calc R U
C10 C 0.0757(3) 0.2350(3) 0.43612(12) 0.0288(4) Uani 1 1 d . .
C14 C 0.3132(3) 0.4928(3) 0.40581(13) 0.0306(4) Uani 1 1 d . .
H14 H 0.4174 0.4173 0.4397 0.037 Uiso 1 1 calc R U
C22 C 0.6266(3) 0.2102(2) 0.11740(12) 0.0244(4) Uani 1 1 d . .
C23 C 0.4091(3) 0.2799(3) 0.12090(13) 0.0271(4) Uani 1 1 d . .
H23 H 0.3294 0.3047 0.1770 0.033 Uiso 1 1 calc R U
C24 C 0.7463(3) 0.1723(3) 0.19854(13) 0.0260(4) Uani 1 1 d . .
C25 C 0.3077(3) 0.3136(3) 0.04281(14) 0.0309(4) Uani 1 1 d . .
H25 H 0.1593 0.3635 0.0460 0.037 Uiso 1 1 calc R U
C26 C 0.4196(4) 0.2755(3) -0.03996(13) 0.0324(5) Uani 1 1 d . .
C27 C 0.7411(3) 0.1756(3) 0.03432(13) 0.0287(4) Uani 1 1 d . .
H27 H 0.8908 0.1305 0.0308 0.034 Uiso 1 1 calc R U
C28 C 0.6373(4) 0.2069(3) -0.04296(13) 0.0334(5) Uani 1 1 d . .
H28 H 0.7165 0.1808 -0.0990 0.040 Uiso 1 1 calc R U
C51 C 0.3050(4) 0.3072(3) -0.12298(15) 0.0435(6) Uani 1 1 d . .
H50A H 0.4043 0.3438 -0.1740 0.052 Uiso 1 1 d R U
H50B H 0.1819 0.4090 -0.1158 0.052 Uiso 1 1 d R U
H50C H 0.2518 0.1879 -0.1347 0.052 Uiso 1 1 d R U
H51A H 0.1643 0.2645 -0.1100 0.052 Uiso 1 1 d R U
H51B H 0.3898 0.2349 -0.1706 0.052 Uiso 1 1 d R U
H51C H 0.2884 0.4446 -0.1418 0.052 Uiso 1 1 d R U
N1 N 0.6351(3) 0.1517(3) 0.27807(11) 0.0347(4) Uani 1 1 d . .
H1A H 0.7028 0.1289 0.3267 0.042 Uiso 1 1 d R U
H1B H 0.4939 0.1610 0.2822 0.042 Uiso 1 1 d R U
O1 O 0.2387(2) 0.9608(2) 0.28459(9) 0.0328(4) Uani 1 1 d . .
H1 H 0.1306 1.0178 0.2608 0.049 Uiso 1 1 d R U
O3 O 0.2286(2) 0.1370(2) 0.48087(10) 0.0374(4) Uani 1 1 d . .
H3 H 0.1889 0.0332 0.5030 0.056 Uiso 1 1 d R U
O6 O -0.0976(2) 0.1757(2) 0.43184(9) 0.0326(4) Uani 1 1 d . .
O7 O 0.9451(2) 0.1599(2) 0.19122(10) 0.0379(4) Uani 1 1 d . .
loop_
_atom_site_aniso_label
_atom_site_aniso_U_11
_atom_site_aniso_U_22
_atom_site_aniso_U_33
_atom_site_aniso_U_23
_atom_site_aniso_U_13
_atom_site_aniso_U_12
C3 0.0301(10) 0.0323(10) 0.0195(9) -0.0031(7) -0.0017(7) -0.0045(8)
C5 0.0242(9) 0.0384(11) 0.0343(11) 0.0001(8) -0.0079(8) -0.0065(8)
C6 0.0285(10) 0.0337(11) 0.0319(10) 0.0020(8) -0.0098(8) -0.0048(8)
C7 0.0273(9) 0.0304(10) 0.0230(9) -0.0013(7) -0.0004(7) -0.0051(7)
C9 0.0283(9) 0.0341(11) 0.0323(10) -0.0023(8) -0.0082(8) -0.0070(8)
C10 0.0338(10) 0.0332(10) 0.0202(9) -0.0031(7) -0.0056(8) -0.0041(8)
C14 0.0289(10) 0.0344(11) 0.0288(10) 0.0014(8) -0.0090(8) -0.0032(8)
C22 0.0263(9) 0.0189(9) 0.0293(10) 0.0002(7) -0.0056(7) -0.0061(7)
C23 0.0269(9) 0.0246(9) 0.0307(10) 0.0004(7) -0.0040(7) -0.0069(7)
C24 0.0259(9) 0.0208(9) 0.0324(10) 0.0004(7) -0.0062(8) -0.0057(7)
C25 0.0281(9) 0.0255(10) 0.0409(11) 0.0036(8) -0.0107(8) -0.0075(7)
C26 0.0461(12) 0.0209(9) 0.0340(11) 0.0030(7) -0.0152(9) -0.0123(8)
C27 0.0306(10) 0.0217(9) 0.0333(10) -0.0017(7) -0.0011(8) -0.0034(7)
C28 0.0464(12) 0.0258(10) 0.0290(10) -0.0035(8) -0.0023(9) -0.0082(8)
C51 0.0655(16) 0.0277(11) 0.0419(13) 0.0027(9) -0.0227(11) -0.0115(10)
N1 0.0267(8) 0.0513(11) 0.0272(9) -0.0020(7) -0.0063(7) -0.0064(7)
O1 0.0287(7) 0.0347(8) 0.0359(8) 0.0063(6) -0.0087(6) -0.0086(6)
O3 0.0402(8) 0.0364(8) 0.0377(8) 0.0098(6) -0.0152(6) -0.0108(6)
O6 0.0339(8) 0.0365(8) 0.0289(7) 0.0028(6) -0.0072(6) -0.0101(6)
O7 0.0240(7) 0.0500(9) 0.0390(8) 0.0117(7) -0.0074(6) -0.0077(6)
loop_
_atom_type_symbol
_atom_type_description
_atom_type_scat_dispersion_real
_atom_type_scat_dispersion_imag
_atom_type_scat_source
C C 0.0033 0.0016 'International Tables Vol C Tables 4.2.6.8 and 6.1.1.4'
H H 0.0000 0.0000 'International Tables Vol C Tables 4.2.6.8 and 6.1.1.4'
N N 0.0061 0.0033 'International Tables Vol C Tables 4.2.6.8 and 6.1.1.4'
O O 0.0106 0.0060 'International Tables Vol C Tables 4.2.6.8 and 6.1.1.4'
loop_
_geom_angle_atom_site_label_1
_geom_angle_atom_site_label_2
_geom_angle_atom_site_label_3
_geom_angle
C9 C3 C14 118.8(2)
C9 C3 C10 119.49(19)
C14 C3 C10 121.69(18)
C14 C5 C7 120.18(19)
C14 C5 H5 119.9
C7 C5 H5 119.9
C9 C6 C7 119.89(18)
C9 C6 H6 120.1
C7 C6 H6 120.1
O1 C7 C6 121.88(17)
O1 C7 C5 118.52(18)
C6 C7 C5 119.60(19)
C6 C9 C3 121.04(19)
C6 C9 H9 119.5
C3 C9 H9 119.5
O6 C10 O3 122.18(19)
O6 C10 C3 122.69(18)
O3 C10 C3 115.12(18)
C5 C14 C3 120.51(18)
C5 C14 H14 119.7
C3 C14 H14 119.7
C23 C22 C27 119.00(18)
C23 C22 C24 123.10(18)
C27 C22 C24 117.90(18)
C25 C23 C22 120.24(19)
C25 C23 H23 119.9
C22 C23 H23 119.9
O7 C24 N1 121.19(18)
O7 C24 C22 120.32(18)
N1 C24 C22 118.48(18)
C23 C25 C26 121.1(2)
C23 C25 H25 119.5
C26 C25 H25 119.5
C28 C26 C25 118.32(18)
C28 C26 C51 121.6(2)
C25 C26 C51 120.1(2)
C28 C27 C22 120.2(2)
C28 C27 H27 119.9
C22 C27 H27 119.9
C27 C28 C26 121.13(19)
C27 C28 H28 119.4
C26 C28 H28 119.4
C26 C51 H50A 109.5
C26 C51 H50B 110.4
H50A C51 H50B 109.4
C26 C51 H50C 109.7
H50A C51 H50C 109.1
H50B C51 H50C 108.7
C26 C51 H51A 109.1
H50A C51 H51A 140.4
H50B C51 H51A 64.1
H50C C51 H51A 48.1
C26 C51 H51B 109.4
H50A C51 H51B 47.2
H50B C51 H51B 139.1
H50C C51 H51B 64.9
H51A C51 H51B 110.2
C26 C51 H51C 108.7
H50A C51 H51C 64.9
H50B C51 H51C 48.2
H50C C51 H51C 140.6
H51A C51 H51C 109.9
H51B C51 H51C 109.5
C24 N1 H1A 119.9
C24 N1 H1B 120.1
H1A N1 H1B 120.0
C7 O1 H1 109.4
C10 O3 H3 109.4
loop_
_geom_bond_atom_site_label_1
_geom_bond_atom_site_label_2
_geom_bond_distance
C3 C9 1.395(3)
C3 C14 1.396(3)
C3 C10 1.471(3)
C5 C14 1.383(3)
C5 C7 1.396(3)
C5 H5 0.9500
C6 C9 1.381(3)
C6 C7 1.393(3)
C6 H6 0.9500
C7 O1 1.355(3)
C9 H9 0.9500
C10 O6 1.237(3)
C10 O3 1.318(3)
C14 H14 0.9500
C22 C23 1.387(3)
C22 C27 1.395(3)
C22 C24 1.491(3)
C23 C25 1.386(3)
C23 H23 0.9500
C24 O7 1.239(3)
C24 N1 1.327(3)
C25 C26 1.389(3)
C25 H25 0.9500
C26 C28 1.387(3)
C26 C51 1.497(3)
C27 C28 1.383(3)
C27 H27 0.9500
C28 H28 0.9500
C51 H50A 0.9781
C51 H50B 0.9829
C51 H50C 0.9865
C51 H51A 0.9731
C51 H51B 0.9787
C51 H51C 0.9813
N1 H1A 0.8800
N1 H1B 0.8801
O1 H1 0.8400
O3 H3 0.8400
loop_
_geom_torsion_atom_site_label_1
_geom_torsion_atom_site_label_2
_geom_torsion_atom_site_label_3
_geom_torsion_atom_site_label_4
_geom_torsion
C9 C6 C7 O1 -178.84(17)
C9 C6 C7 C5 1.0(3)
C14 C5 C7 O1 179.23(17)
C14 C5 C7 C6 -0.6(3)
C7 C6 C9 C3 -0.3(3)
C14 C3 C9 C6 -0.7(3)
C10 C3 C9 C6 176.89(17)
C9 C3 C10 O6 -3.2(3)
C14 C3 C10 O6 174.24(17)
C9 C3 C10 O3 178.07(17)
C14 C3 C10 O3 -4.4(3)
C7 C5 C14 C3 -0.4(3)
C9 C3 C14 C5 1.1(3)
C10 C3 C14 C5 -176.45(18)
C27 C22 C23 C25 0.3(3)
C24 C22 C23 C25 179.48(16)
C23 C22 C24 O7 -160.76(18)
C27 C22 C24 O7 18.4(3)
C23 C22 C24 N1 19.4(3)
C27 C22 C24 N1 -161.36(18)
C22 C23 C25 C26 1.1(3)
C23 C25 C26 C28 -1.5(3)
C23 C25 C26 C51 178.06(17)
C23 C22 C27 C28 -1.3(3)
C24 C22 C27 C28 179.42(16)
C22 C27 C28 C26 1.0(3)
C25 C26 C28 C27 0.4(3)
C51 C26 C28 C27 -179.12(18)
