#------------------------------------------------------------------------------
#$Date: 2019-11-26 00:04:13 +0200 (Tue, 26 Nov 2019) $
#$Revision: 242125 $
#$URL: file:///home/coder/svn-repositories/cod/cif/4/13/20/4132083.cif $
#------------------------------------------------------------------------------
#
# This file is available in the Crystallography Open Database (COD),
# http://www.crystallography.net/
#
# All data on this site have been placed in the public domain by the
# contributors.
#
data_4132083
loop_
_publ_author_name
'Purdum, Geoffrey E.'
'Telesz, Nicholas G.'
'Jarolimek, Karol'
'Ryno, Sean M.'
'Gessner, Thomas'
'Davy, Nicholas C.'
'Petty, 2nd, Anthony J'
'Zhen, Yonggang'
'Shu, Ying'
'Facchetti, Antonio'
'Collis, Gavin E.'
'Hu, Wenping'
'Wu, Chao'
'Anthony, John E.'
'Weitz, R. Thomas'
'Risko, Chad'
'Loo, Yueh-Lin'
_publ_section_title
;
 Presence of Short Intermolecular Contacts Screens for Kinetic Stability
 in Packing Polymorphs.
;
_journal_issue                   24
_journal_name_full               'Journal of the American Chemical Society'
_journal_page_first              7519
_journal_page_last               7525
_journal_paper_doi               10.1021/jacs.8b01421
_journal_volume                  140
_journal_year                    2018
_chemical_formula_sum            'C24 H6 Cl2 F18 N2 O4'
_chemical_formula_weight         799.21
_chemical_name_common            GEP2
_space_group_crystal_system      triclinic
_space_group_IT_number           2
_space_group_name_Hall           '-P 1'
_space_group_name_H-M_alt        'P -1'
_atom_sites_solution_hydrogens   geom
_audit_creation_method           SHELXL-2014/7
_cell_angle_alpha                83.772(3)
_cell_angle_beta                 86.990(3)
_cell_angle_gamma                69.934(3)
_cell_formula_units_Z            1
_cell_length_a                   5.2089(3)
_cell_length_b                   6.3003(4)
_cell_length_c                   20.6203(14)
_cell_measurement_reflns_used    8389
_cell_measurement_temperature    100(2)
_cell_measurement_theta_max      70.2135
_cell_measurement_theta_min      4.3143
_cell_volume                     631.80(7)
_computing_cell_refinement       'SAINT V8.34A (Bruker AXS Inc., 2013)'
_computing_data_collection       'Bruker Instrument Service (Bruker AXS Inc.)'
_computing_data_reduction        'SAINT V8.34A (Bruker AXS Inc., 2013)'
_computing_structure_refinement  'SHELXL-2014/7 (Sheldrick, 2014)'
_computing_structure_solution    'SHELXL-2014 (Sheldrick, 2014)'
_diffrn_ambient_temperature      100(2)
_diffrn_detector_area_resol_mean 10.4167
_diffrn_measured_fraction_theta_full 0.966
_diffrn_measured_fraction_theta_max 0.966
_diffrn_measurement_device_type  'Bruker Photon 100 CMOS'
_diffrn_radiation_type           CuK\a
_diffrn_radiation_wavelength     1.54178
_diffrn_reflns_av_R_equivalents  0.0425
_diffrn_reflns_av_unetI/netI     0.0356
_diffrn_reflns_Laue_measured_fraction_full 0.966
_diffrn_reflns_Laue_measured_fraction_max 0.966
_diffrn_reflns_limit_h_max       6
_diffrn_reflns_limit_h_min       -6
_diffrn_reflns_limit_k_max       7
_diffrn_reflns_limit_k_min       -7
_diffrn_reflns_limit_l_max       24
_diffrn_reflns_limit_l_min       -24
_diffrn_reflns_number            9438
_diffrn_reflns_point_group_measured_fraction_full 0.966
_diffrn_reflns_point_group_measured_fraction_max 0.966
_diffrn_reflns_theta_full        66.586
_diffrn_reflns_theta_max         66.586
_diffrn_reflns_theta_min         4.314
_diffrn_source                   'ImuS micro--focus source'
_exptl_absorpt_coefficient_mu    3.983
_exptl_absorpt_correction_T_max  0.92
_exptl_absorpt_correction_T_min  0.60
_exptl_absorpt_correction_type   multi-scan
_exptl_absorpt_process_details   'SADABS V2014/5 (Bruker AXS Inc.)'
_exptl_crystal_colour            'translucent pale yellow'
_exptl_crystal_density_diffrn    2.101
_exptl_crystal_density_method    'not measured'
_exptl_crystal_description       'very thin plate'
_exptl_crystal_F_000             392
_exptl_crystal_size_max          0.406
_exptl_crystal_size_mid          0.181
_exptl_crystal_size_min          0.022
_refine_diff_density_max         0.566
_refine_diff_density_min         -0.307
_refine_diff_density_rms         0.079
_refine_ls_extinction_method     none
_refine_ls_goodness_of_fit_ref   1.192
_refine_ls_hydrogen_treatment    constr
_refine_ls_matrix_type           full
_refine_ls_number_parameters     226
_refine_ls_number_reflns         2164
_refine_ls_number_restraints     0
_refine_ls_restrained_S_all      1.192
_refine_ls_R_factor_all          0.0430
_refine_ls_R_factor_gt           0.0415
_refine_ls_shift/su_max          0.000
_refine_ls_shift/su_mean         0.000
_refine_ls_structure_factor_coef Fsqd
_refine_ls_weighting_details
'w=1/[\s^2^(Fo^2^)+(0.0315P)^2^+1.3363P] where P=(Fo^2^+2Fc^2^)/3'
_refine_ls_weighting_scheme      calc
_refine_ls_wR_factor_gt          0.1123
_refine_ls_wR_factor_ref         0.1132
_reflns_Friedel_coverage         0.000
_reflns_number_gt                2059
_reflns_number_total             2164
_reflns_threshold_expression     'I > 2\s(I)'
_cod_data_source_file            ja8b01421_si_001.cif
_cod_data_source_block           cu_PDJGEP2_0m
_cod_database_code               4132083
_shelx_shelxl_version_number     2014/7
_shelx_space_group_comment
;
The symmetry employed for this shelxl refinement is uniquely defined
by the following loop, which should always be used as a source of
symmetry information in preference to the above space-group names.
They are only intended as comments.
;
_shelx_estimated_absorpt_t_min   0.295
_shelx_estimated_absorpt_t_max   0.917
_shelx_res_file
;

    cu_PDJGEP2_0m.res created by SHELXL-2014/7


TITL cu_PDJGEP2_0m in P-1
CELL 1.54178   5.20890   6.30030  20.62030  83.7724  86.9897  69.9344
ZERR    1.00   0.00030   0.00040   0.00140   0.0027   0.0033   0.0025
LATT  1
SFAC C H N O F CL
UNIT 24 6 2 4 18 2
TEMP -173.150
SIZE 0.022 0.181 0.406
L.S. 10
ACTA
BOND $H
LIST 4
FMAP 2
PLAN 20
WGHT    0.031500    1.336300
FVAR       0.23612
CL1   6    0.131899   -0.368510    0.398750    11.00000    0.01836    0.01409 =
         0.01677   -0.00142   -0.00111   -0.00853
F1    5    0.300427    0.469933    0.265555    11.00000    0.03032    0.02307 =
         0.01721   -0.00083    0.00584    0.00279
N1    3    0.616982    0.099610    0.330320    11.00000    0.01586    0.01498 =
         0.01521   -0.00046    0.00030   -0.00625
O1    4    0.357509   -0.106489    0.308130    11.00000    0.03542    0.02616 =
         0.01710   -0.00158   -0.00064   -0.01983
C1    1    0.481311   -0.018823    0.534117    11.00000    0.00989    0.01033 =
         0.01786   -0.00035   -0.00117   -0.00055
F2    5    0.275770    0.236459    0.197822    11.00000    0.02727    0.02850 =
         0.02864    0.00753   -0.00888   -0.01819
O2    4    0.850658    0.328755    0.352062    11.00000    0.02385    0.02536 =
         0.01931   -0.00007   -0.00018   -0.01654
C2    1    0.334883   -0.165578    0.557068    11.00000    0.01291    0.01109 =
         0.01767    0.00028   -0.00206   -0.00245
C3    1    0.235992   -0.267468    0.513840    11.00000    0.01297    0.01026 =
         0.01958    0.00027   -0.00112   -0.00325
AFIX  43
H3    2    0.140390   -0.366956    0.529913    11.00000   -1.20000
AFIX   0
F3    5    0.707997    0.555914    0.195912    11.00000    0.02798    0.02308 =
         0.03229    0.00241   -0.00673   -0.01580
C4    1    0.272770   -0.228144    0.446178    11.00000    0.01449    0.01030 =
         0.01775   -0.00140   -0.00215   -0.00236
F4    5    0.729727    0.297706    0.131246    11.00000    0.02799    0.02757 =
         0.01923   -0.00267    0.00657   -0.00822
C5    1    0.414596   -0.085402    0.420976    11.00000    0.01512    0.01014 =
         0.01730   -0.00115   -0.00111   -0.00307
F5    5    0.161616    0.775382    0.162050    11.00000    0.02874    0.02958 =
         0.03397    0.00913    0.00467    0.00025
C6    1    0.454570   -0.036436    0.349352    11.00000    0.01777    0.01267 =
         0.01796   -0.00091   -0.00159   -0.00565
F6    5    0.213457    0.527786    0.091687    11.00000    0.03603    0.04841 =
         0.02726    0.01168   -0.01388   -0.02649
C7    1    0.719391    0.208074    0.372168    11.00000    0.01396    0.01315 =
         0.01949    0.00048   -0.00213   -0.00488
F7    5    0.570671    0.900174    0.101663    11.00000    0.06338    0.02991 =
         0.03605    0.00376    0.00216   -0.02846
C8    1    0.679464    0.129930    0.260610    11.00000    0.02244    0.01793 =
         0.01462   -0.00094    0.00139   -0.00865
AFIX  23
H8A   2    0.709571   -0.013913    0.241228    11.00000   -1.20000
H8B   2    0.850660    0.165600    0.255014    11.00000   -1.20000
AFIX   0
F8    5    0.643995    0.646653    0.035266    11.00000    0.05564    0.04148 =
         0.02417    0.00110    0.01208   -0.02324
C9    1    0.448867    0.320943    0.224165    11.00000    0.01896    0.01913 =
         0.01609   -0.00248    0.00040   -0.00897
F9    5    0.255850    0.913594    0.036905    11.00000    0.04193    0.06488 =
         0.05442    0.04179   -0.01440   -0.01793
C10   1    0.560756    0.450585    0.168692    11.00000    0.01706    0.01846 =
         0.01822   -0.00149   -0.00030   -0.00760
C11   1    0.344756    0.631075    0.124362    11.00000    0.01965    0.02834 =
         0.02258    0.00334   -0.00305   -0.00981
C12   1    0.458422    0.776449    0.073451    11.00000    0.03141    0.02893 =
         0.02459    0.00842   -0.00371   -0.01228
HKLF 4

REM  cu_PDJGEP2_0m in P-1
REM R1 =  0.0415 for    2059 Fo > 4sig(Fo)  and  0.0430 for all    2164 data
REM    226 parameters refined using      0 restraints

END

WGHT      0.0315      1.3363

REM Highest difference peak  0.566,  deepest hole -0.307,  1-sigma level  0.079
Q1    1   0.1399 -0.3540  0.3504  11.00000  0.05    0.57
Q2    1   0.1246 -0.3920  0.4489  11.00000  0.05    0.53
Q3    1   0.5149  0.3867  0.1986  11.00000  0.05    0.42
Q4    1   0.3947  0.7111  0.1027  11.00000  0.05    0.37
Q5    1   0.8633  0.3379  0.3008  11.00000  0.05    0.35
Q6    1   0.3059  0.4615  0.3139  11.00000  0.05    0.35
Q7    1   0.4311 -0.1076  0.5477  11.00000  0.05    0.34
Q8    1   0.4416  0.5549  0.1507  11.00000  0.05    0.34
Q9    1   0.4661 -0.0820  0.3900  11.00000  0.05    0.32
Q10   1   0.3441 -0.1575  0.4303  11.00000  0.05    0.32
Q11   1   0.5694  0.2142  0.2404  11.00000  0.05    0.31
Q12   1   0.6246  0.1190  0.2932  11.00000  0.05    0.28
Q13   1   0.3920  0.6022  0.0025  11.00000  0.05    0.27
Q14   1   0.6125  0.5218 -0.0221  11.00000  0.05    0.26
Q15   1   0.4365 -0.0255  0.4456  11.00000  0.05    0.26
Q16   1   0.4794  0.7637  0.0188  11.00000  0.05    0.26
Q17   1   0.1366  0.5659  0.2569  11.00000  0.05    0.25
Q18   1   0.5000  0.0000  0.5000  10.50000  0.05    0.25
Q19   1   0.1677  0.5176  0.1384  11.00000  0.05    0.25
Q20   1   0.3604  0.4189  0.0901  11.00000  0.05    0.25
;
_shelx_res_checksum              56235
_shelx_hkl_file
;
  -1   0   0  477.45   27.31
  -1   0   0  453.78   27.31
   1   0   0  445.38   27.32
  -2   0   0  327.27   18.96
  -2   0   0  325.93   18.96
   2   0   0  303.62   18.98
  -3   0   0    0.56    0.11
  -3   0   0    0.64    0.10
   3   0   0    0.72    0.13
   3   0   0    0.45    0.09
   3   0   0    0.49    0.13
   3   0   0    0.42    0.08
  -4   0   0    1.45    0.15
   4   0   0    1.58    0.20
   4   0   0    1.12    0.17
   4   0   0    0.97    0.16
  -5   0   0    9.86    0.61
  -5   0   0    9.96    0.61
  -5   0   0    9.80    0.64
  -5   0   0    8.99    0.65
   5   0   0    9.75    0.65
   5  -1   0   12.89    0.70
   5  -1   0   12.65    0.70
  -5   1   0    9.69    0.70
  -5   1   0   10.03    0.71
   4  -1   0    8.65    0.57
  -4   1   0    7.54    0.50
  -4   1   0    7.48    0.52
   3  -1   0    1.63    0.17
   3  -1   0    1.46    0.16
   3  -1   0    1.14    0.16
  -3   1   0    1.51    0.17
   2  -1   0    4.32    0.31
   2  -1   0    4.67    0.30
  -2   1   0    4.75    0.29
  -2   1   0    4.73    0.31
   1  -1   0  866.20   55.13
   1  -1   0 1000.00   55.16
  -1   1   0  974.21   55.15
  -1   1   0  868.20   55.12
   0  -1   0    7.49    0.46
   0   1   0    7.72    0.46
   0   1   0    7.64    0.46
   1   1   0  120.03    7.15
  -2  -1   0  217.57   12.19
  -2  -1   0  192.52   12.19
  -3  -1   0    2.47    0.16
  -3  -1   0    2.52    0.18
   3   1   0    2.46    0.24
   3   1   0    2.41    0.20
  -4  -1   0    0.23    0.10
   4   1   0    0.47    0.14
  -5  -1   0    1.35    0.16
  -5  -1   0    1.35    0.16
  -5  -1   0    1.35    0.26
   5   1   0    0.99    0.15
   5   1   0    1.50    0.22
   5   1   0    1.67    0.27
  -6  -1   0    4.46    0.34
  -6  -1   0    4.11    0.36
   6   1   0    5.51    0.32
   5  -2   0    2.42    0.18
   4  -2   0    7.01    0.48
  -4   2   0    8.05    0.50
  -4   2   0    7.19    0.48
   3  -2   0    4.51    0.35
   3  -2   0    5.40    0.36
   3  -2   0    5.00    0.40
   3  -2   0    5.57    0.46
   3  -2   0    5.31    0.36
  -3   2   0    5.25    0.42
  -3   2   0    5.81    0.36
  -3   2   0    5.37    0.36
  -3   2   0    5.99    0.39
   2  -2   0  260.65   15.04
   2  -2   0  243.24   15.03
   2  -2   0  244.43   15.03
  -2   2   0  223.04   15.02
  -2   2   0  275.09   15.03
  -2   2   0  270.80   15.04
  -2   2   0  237.40   15.02
  -2   2   0  266.94   15.03
   1  -2   0   84.54    5.54
  -1   2   0   89.25    5.53
  -1   2   0   86.26    5.54
  -1   2   0   98.54    5.54
  -1   2   0  106.39    5.54
   0  -2   0    7.92    0.50
   0   2   0    8.31    0.50
   0   2   0    8.44    0.50
  -1  -2   0    0.83    0.07
   1   2   0    0.79    0.07
  -2  -2   0  110.45    6.48
  -2  -2   0  113.70    6.48
  -2  -2   0   96.16    6.49
   2   2   0  122.40    6.49
   2   2   0  100.06    6.50
   2   2   0  109.38    6.49
  -3  -2   0    3.09    0.20
  -3  -2   0    3.14    0.21
   3   2   0    3.27    0.28
   3   2   0    3.25    0.22
   3   2   0    3.31    0.24
  -4  -2   0   13.55    0.85
  -4  -2   0   13.76    0.86
   4   2   0   14.26    0.87
   4   2   0   14.08    0.87
   4   2   0   14.71    0.89
  -5  -2   0   10.52    0.65
  -5  -2   0   10.61    0.64
  -5  -2   0   10.48    0.71
   5   2   0   11.64    0.69
   5   2   0   10.61    0.68
   5   2   0    9.42    0.66
  -6  -2   0    3.57    0.30
  -6  -2   0    3.89    0.29
  -6  -2   0    3.62    0.27
  -6  -2   0    3.17    0.42
   6   2   0    2.89    0.31
   4  -3   0    0.37    0.08
  -4   3   0    0.59    0.09
   3  -3   0   73.54    4.57
   3  -3   0   70.49    4.60
   3  -3   0   70.80    4.56
  -3   3   0   91.41    4.56
   2  -3   0   17.14    1.18
   2  -3   0   18.48    1.17
   2  -3   0   19.01    1.19
  -2   3   0   20.99    1.16
  -2   3   0   20.54    1.16
  -2   3   0   19.92    1.18
   1  -3   0    2.56    0.20
  -1   3   0    2.47    0.20
  -1   3   0    2.96    0.24
  -1  -3   0   14.76    0.93
  -1  -3   0   14.73    0.93
  -1  -3   0   17.17    0.94
   1   3   0   15.04    0.94
  -2  -3   0   24.46    1.45
  -2  -3   0   26.10    1.45
  -2  -3   0   23.50    1.44
   2   3   0   22.57    1.45
   2   3   0   23.79    1.45
   2   3   0   23.99    1.45
  -3  -3   0    3.68    0.23
  -3  -3   0    4.00    0.26
  -3  -3   0    3.56    0.25
   3   3   0    3.57    0.25
   3   3   0    3.12    0.25
   3   3   0    3.59    0.27
   3   3   0    4.16    0.39
  -4  -3   0   23.34    1.40
  -4  -3   0   21.64    1.37
  -4  -3   0   23.15    1.39
  -4  -3   0   22.59    1.37
   4   3   0   23.14    1.39
   4   3   0   22.05    1.39
   4   3   0   22.78    1.39
   4   3   0   24.41    1.41
  -5  -3   0    9.02    0.76
  -5  -3   0    9.50    0.58
  -5  -3   0    9.28    0.57
   5   3   0    9.48    0.61
   5   3   0    8.96    0.59
   5   3   0   10.00    0.62
  -6  -3   0    0.96    0.18
  -6  -3   0    1.00    0.18
   6   3   0    0.66    0.16
   6   3   0    1.04    0.20
   6   3   0    0.89    0.13
   3  -4   0    0.25    0.09
  -3   4   0    0.59    0.22
  -3   4   0    0.50    0.07
   2  -4   0    2.96    0.23
   2  -4   0    2.71    0.25
   2  -4   0    3.31    0.42
  -2   4   0    3.71    0.35
  -2   4   0    3.38    0.23
   1  -4   0   14.21    0.84
   1  -4   0   12.51    0.83
   1  -4   0   14.41    0.87
  -1   4   0   13.55    0.83
  -1   4   0   14.27    0.89
  -1   4   0   13.86    0.85
   0  -4   0    4.00    0.28
   0  -4   0    4.22    0.27
   0  -4   0    4.44    0.30
   0  -4   0    3.18    0.40
   0  -4   0    4.21    0.27
   0  -4   0    3.97    0.27
   0   4   0    4.65    0.38
   0   4   0    4.09    0.29
   0   4   0    4.13    0.31
  -1  -4   0   18.30    1.11
  -1  -4   0   16.43    1.12
  -1  -4   0   18.74    1.13
  -1  -4   0   18.84    1.11
  -1  -4   0   19.03    1.11
   1   4   0   19.05    1.16
   1   4   0   19.46    1.12
   1   4   0   18.33    1.13
   1   4   0   18.84    1.12
   1   4   0   17.92    1.13
  -2  -4   0   13.03    0.81
  -2  -4   0   13.51    0.81
  -2  -4   0   13.29    0.82
  -2  -4   0   14.06    0.82
   2   4   0   13.71    0.81
   2   4   0   13.31    0.82
   2   4   0   13.59    0.86
   2   4   0   12.96    0.83
   2   4   0   12.77    0.82
  -3  -4   0   22.33    1.37
  -3  -4   0   25.52    1.39
  -3  -4   0   22.38    1.39
  -3  -4   0   23.80    1.37
   3   4   0   23.82    1.42
   3   4   0   22.40    1.39
   3   4   0   21.64    1.38
   3   4   0   22.06    1.37
   3   4   0   21.54    1.38
  -4  -4   0  186.21   11.24
  -4  -4   0  188.37   11.26
  -4  -4   0  175.97   11.24
  -4  -4   0  190.37   11.26
   4   4   0  193.78   11.26
   4   4   0  190.08   11.25
   4   4   0  197.82   11.26
  -5  -4   0    1.20    0.19
  -5  -4   0    1.38    0.13
  -5  -4   0    1.39    0.13
   5   4   0    1.39    0.20
  -6  -4   0    7.58    0.58
  -6  -4   0    9.31    0.53
   6   4   0    7.85    0.56
   6   4   0    9.60    0.55
   2  -5   0    4.59    0.29
  -2   5   0    4.11    0.41
   1  -5   0   22.81    1.31
  -1   5   0   20.54    1.35
   0  -5   0    3.77    0.39
   0  -5   0    3.30    0.24
   0   5   0    3.48    0.30
  -1  -5   0    0.20    0.07
  -1  -5   0    0.37    0.15
  -1  -5   0    0.16    0.09
  -1  -5   0    0.17    0.07
  -1  -5   0    0.19    0.06
   1   5   0    0.19    0.12
   1   5   0    0.23    0.09
   1   5   0    0.15    0.10
   1   5   0    0.39    0.20
  -2  -5   0    2.98    0.27
  -2  -5   0    2.65    0.20
  -2  -5   0    2.68    0.32
  -2  -5   0    2.79    0.21
  -2  -5   0    2.53    0.19
  -2  -5   0    2.50    0.20
   2   5   0    2.43    0.24
   2   5   0    2.90    0.26
   2   5   0    2.19    0.22
   2   5   0    3.03    0.33
   2   5   0    2.68    0.20
  -3  -5   0    2.78    0.22
  -3  -5   0    2.84    0.31
  -3  -5   0    2.92    0.21
  -3  -5   0    3.26    0.32
  -3  -5   0    3.01    0.21
   3   5   0    2.90    0.28
   3   5   0    2.70    0.24
   3   5   0    3.37    0.33
   3   5   0    3.05    0.22
   3   5   0    2.82    0.26
  -4  -5   0   27.53    1.63
  -4  -5   0   28.78    1.69
  -4  -5   0   25.62    1.63
  -4  -5   0   26.36    1.63
   4   5   0   27.95    1.67
   4   5   0   27.78    1.66
   4   5   0   26.88    1.65
  -5  -5   0    2.85    0.22
  -5  -5   0    3.12    0.21
  -5  -5   0    3.28    0.22
   5   5   0    3.39    0.27
   5   5   0    3.08    0.28
   1  -6   0    1.85    0.15
  -1   6   0    1.75    0.26
   0  -6   0    0.74    0.11
   0  -6   0    1.04    0.13
  -1  -6   0   12.46    0.76
  -1  -6   0   12.34    0.75
   1   6   0   12.63    0.81
  -2  -6   0   15.26    0.93
  -2  -6   0   15.43    0.92
  -2  -6   0   15.31    0.92
   2   6   0   15.24    0.96
   2   6   0   15.05    0.97
  -3  -6   0    0.91    0.12
  -3  -6   0    0.71    0.11
  -3  -6   0    0.86    0.10
  -3  -6   0    0.60    0.09
   3   6   0    0.76    0.16
   3   6   0    0.69    0.21
  -4  -6   0    5.35    0.34
  -4  -6   0    5.23    0.34
  -4  -6   0    5.47    0.35
   4   6   0    5.43    0.41
   4   6   0    5.88    0.40
  -5  -6   0    4.37    0.27
  -5  -6   0    4.32    0.27
   5   6   0    4.13    0.36
   5   6   0    4.55    0.32
   0  -7   0   10.41    0.68
   0   7   0   11.58    0.70
  -1  -7   0    8.15    0.52
   1   7   0    8.82    0.56
  -2  -7   0    0.58    0.09
   2   7   0    0.70    0.17
  -3  -7   0    2.16    0.16
  -3  -7   0    2.06    0.14
   3   7   0    2.30    0.25
   3   7  -1    3.17    0.28
  -3  -7   1    2.90    0.19
  -3  -7   1    2.95    0.21
   2   7  -1    0.05    0.22
  -2  -7   1    0.00    0.05
   1   7  -1    0.22    0.23
  -1  -7   1    0.03    0.08
   5   6  -1   12.63    0.81
   5   6  -1   12.69    0.79
  -5  -6   1   12.79    0.77
  -5  -6   1   13.26    0.77
   4   6  -1    2.76    0.26
   4   6  -1    2.39    0.28
  -4  -6   1    2.02    0.22
  -4  -6   1    2.50    0.17
  -4  -6   1    2.47    0.17
   3   6  -1   26.38    1.57
   3   6  -1   24.88    1.58
  -3  -6   1   25.89    1.54
  -3  -6   1   25.47    1.53
  -3  -6   1   25.33    1.53
   2   6  -1   21.24    1.24
   2   6  -1   19.71    1.24
  -2  -6   1   20.45    1.20
  -2  -6   1   20.15    1.19
  -2  -6   1   17.43    1.30
  -2  -6   1   19.86    1.19
   1   6  -1   11.64    0.75
   1   6  -1   11.56    0.75
  -1  -6   1   11.93    0.72
  -1  -6   1   11.03    0.70
  -1  -6   1   10.91    0.69
   0   6  -1   22.97    1.40
   0  -6   1   21.43    1.34
   0  -6   1   22.61    1.34
  -1   6  -1    5.32    0.40
   1  -6   1    5.03    0.33
   5   5  -1   10.71    0.67
   5   5  -1   10.88    0.66
  -5  -5   1   10.27    0.63
  -5  -5   1   10.04    0.64
  -5  -5   1   10.26    0.63
   4   5  -1   25.90    1.54
   4   5  -1   25.44    1.53
   4   5  -1   25.25    1.52
  -4  -5   1   24.60    1.50
  -4  -5   1   23.67    1.50
  -4  -5   1   25.55    1.50
   3   5  -1   38.14    2.45
   3   5  -1   40.37    2.48
   3   5  -1   42.49    2.48
  -3  -5   1   41.92    2.45
  -3  -5   1   40.28    2.44
  -3  -5   1   42.44    2.48
  -3  -5   1   41.57    2.44
  -3  -5   1   40.02    2.44
   2   5  -1   30.14    1.92
   2   5  -1   31.33    1.89
   2   5  -1   31.23    1.91
   2   5  -1   30.24    1.90
   2   5  -1   33.48    1.88
  -2  -5   1   33.08    1.88
  -2  -5   1   32.08    1.88
  -2  -5   1   31.69    1.88
  -2  -5   1   29.01    1.90
  -2  -5   1   32.00    1.88
  -2  -5   1   31.24    1.92
   1   5  -1   23.27    1.46
   1   5  -1   23.24    1.44
   1   5  -1   24.01    1.44
  -1  -5   1   24.44    1.41
  -1  -5   1   21.71    1.44
  -1  -5   1   23.09    1.42
  -1  -5   1   24.06    1.41
  -1  -5   1   24.60    1.42
   0   5  -1    8.59    0.55
   0   5  -1    7.94    0.55
   0  -5   1    8.40    0.65
   0  -5   1    7.95    0.51
  -1   5  -1    9.93    0.64
  -1   5  -1    9.14    0.66
   1  -5   1    8.75    0.57
  -2   5  -1    9.45    0.64
   2  -5   1    9.33    0.58
   6   4  -1    1.68    0.19
   5   4  -1    3.12    0.32
   5   4  -1    3.70    0.35
   5   4  -1    4.03    0.31
  -5  -4   1    3.52    0.24
  -5  -4   1    3.50    0.24
  -5  -4   1    3.78    0.25
   4   4  -1    2.27    0.21
   4   4  -1    2.81    0.27
   4   4  -1    2.50    0.26
   4   4  -1    1.85    0.26
  -4  -4   1    2.15    0.18
  -4  -4   1    2.51    0.26
  -4  -4   1    2.88    0.31
  -4  -4   1    2.05    0.17
   3   4  -1  188.96   11.18
   3   4  -1  190.97   11.16
   3   4  -1  179.57   11.16
   3   4  -1  188.36   11.18
  -3  -4   1  179.67   11.17
  -3  -4   1  187.74   11.16
  -3  -4   1  189.68   11.17
  -3  -4   1  187.18   11.16
  -3  -4   1  195.94   11.16
   2   4  -1   30.51    1.73
   2   4  -1   28.67    1.74
   2   4  -1   28.70    1.75
   2   4  -1   27.97    1.74
  -2  -4   1   27.82    1.73
  -2  -4   1   28.81    1.74
  -2  -4   1   28.40    1.73
  -2  -4   1   30.82    1.74
  -2  -4   1   28.58    1.73
   1   4  -1   83.06    5.11
   1   4  -1   85.25    5.12
   1   4  -1   86.94    5.10
   1   4  -1   90.45    5.10
   1   4  -1   88.90    5.11
  -1  -4   1   87.36    5.10
  -1  -4   1   82.93    5.10
  -1  -4   1   88.70    5.11
  -1  -4   1   78.33    5.10
  -1  -4   1   85.53    5.09
  -1  -4   1   83.83    5.09
   0   4  -1    5.47    0.41
   0   4  -1    4.87    0.32
   0   4  -1    4.84    0.34
   0   4  -1    5.14    0.36
   0  -4   1    5.16    0.32
   0  -4   1    4.48    0.35
   0  -4   1    5.21    0.33
   0  -4   1    5.23    0.32
   0  -4   1    5.05    0.32
  -1   4  -1   10.08    0.67
  -1   4  -1   11.21    0.70
  -1   4  -1   11.12    0.67
  -1   4  -1   11.68    0.73
   1  -4   1   10.37    0.69
   1  -4   1   11.35    0.68
   1  -4   1   11.67    0.72
  -2   4  -1    2.30    0.30
   2  -4   1    1.28    0.18
   2  -4   1    1.75    0.16
   2  -4   1    1.87    0.27
  -3   4  -1    1.96    0.31
  -3   4  -1    1.91    0.16
   3  -4   1    1.71    0.17
   3  -4   1    1.98    0.16
   5   3  -1   18.54    1.11
   5   3  -1   17.88    1.11
  -5  -3   1   16.92    1.07
  -5  -3   1   18.21    1.10
   4   3  -1    1.23    0.19
   4   3  -1    1.00    0.22
  -4  -3   1    1.47    0.21
  -4  -3   1    1.35    0.12
  -4  -3   1    1.49    0.18
  -4  -3   1    1.20    0.12
   3   3  -1   12.92    0.82
   3   3  -1   13.24    0.82
   3   3  -1   12.95    0.82
   3   3  -1   13.46    0.86
   3   3  -1   13.45    0.83
  -3  -3   1   13.92    0.83
  -3  -3   1   13.65    0.81
  -3  -3   1   14.72    0.82
  -3  -3   1   12.89    0.82
   2   3  -1    0.72    0.13
   2   3  -1    0.62    0.11
   2   3  -1    0.67    0.10
  -2  -3   1    0.77    0.10
  -2  -3   1    0.70    0.10
  -2  -3   1    0.76    0.08
   1   3  -1   17.45    1.02
   1   3  -1   17.28    1.01
  -1  -3   1   15.96    1.01
  -1  -3   1   16.15    1.00
   0   3  -1  117.26    6.57
   0   3  -1  121.19    6.56
   0  -3   1   98.11    6.57
   0  -3   1   98.49    6.57
   0  -3   1  116.42    6.56
  -1   3  -1    0.43    0.10
   2  -3   1    0.99    0.19
   2  -3   1    0.81    0.13
   2  -3   1    0.83    0.16
  -3   3  -1   55.62    3.33
  -3   3  -1   55.04    3.36
  -3   3  -1   61.02    3.34
   3  -3   1   54.18    3.34
   3  -3   1   62.85    3.35
   3  -3   1   52.90    3.34
   3  -3   1   49.60    3.38
  -4   3  -1    1.07    0.14
  -4   3  -1    0.77    0.12
   4  -3   1    1.17    0.13
  -6  -2   1    5.87    0.38
   5   2  -1   16.75    1.06
   5   2  -1   18.03    1.07
   5   2  -1   17.16    1.05
  -5  -2   1   17.35    1.03
  -5  -2   1   17.34    1.03
  -5  -2   1   15.77    1.08
   4   2  -1    0.10    0.09
   4   2  -1    0.17    0.13
   4   2  -1    0.16    0.10
  -4  -2   1    0.22    0.06
  -4  -2   1    0.19    0.06
  -4  -2   1    0.22    0.09
   3   2  -1    2.10    0.19
   3   2  -1    1.99    0.23
   3   2  -1    1.84    0.16
  -3  -2   1    2.19    0.15
   2   2  -1    1.01    0.11
  -2  -2   1    1.27    0.09
  -2  -2   1    1.00    0.09
  -2  -2   1    1.14    0.11
   1   2  -1  137.31    7.96
  -1  -2   1  125.03    7.95
  -1  -2   1  135.61    7.95
  -1  -2   1  136.81    7.95
   0   2  -1    1.11    0.08
   0   2  -1    1.06    0.08
   0   2  -1    1.15    0.10
   0  -2   1    0.91    0.08
  -1   2  -1   25.20    1.56
  -1   2  -1   26.05    1.56
  -1   2  -1   25.25    1.56
  -1   2  -1   24.75    1.57
   1  -2   1   29.18    1.57
  -2   2  -1  227.07   13.02
  -2   2  -1  230.70   13.02
  -2   2  -1  229.19   13.03
   2  -2   1  212.83   13.02
   2  -2   1  187.79   13.03
   2  -2   1  208.98   13.02
   2  -2   1  236.01   13.04
  -3   2  -1   13.33    0.88
  -3   2  -1   14.48    0.89
  -3   2  -1   15.03    0.92
  -3   2  -1   14.25    0.90
   3  -2   1   14.22    0.88
   3  -2   1   15.19    0.89
   3  -2   1   13.64    0.93
   3  -2   1   14.58    0.88
   3  -2   1   15.86    0.92
  -4   2  -1    4.66    0.34
  -4   2  -1    4.18    0.30
   4  -2   1    3.84    0.29
   4  -2   1    4.26    0.31
  -5   2  -1    1.31    0.14
   5  -2   1    1.05    0.12
   6   1  -1   11.26    0.79
   5   1  -1    2.19    0.26
   5   1  -1    1.96    0.22
   5   1  -1    2.12    0.27
   5   1  -1    2.78    0.29
  -5  -1   1    2.47    0.21
  -5  -1   1    3.03    0.32
  -5  -1   1    2.43    0.20
  -4  -1   1    2.49    0.21
  -4  -1   1    2.15    0.17
   3   1  -1    8.94    0.59
   3   1  -1    9.59    0.66
  -3  -1   1    9.48    0.57
  -3  -1   1    9.83    0.58
   2   1  -1   11.12    0.69
  -2  -1   1   11.28    0.68
  -2  -1   1   11.52    0.68
   1   1  -1   32.59    1.78
  -1  -1   1   28.47    1.78
  -1  -1   1   28.35    1.78
   0   1  -1   31.96    1.80
   0   1  -1   30.65    1.80
   0  -1   1   27.66    1.80
  -1   1  -1  394.69   24.14
  -1   1  -1  406.12   24.14
   1  -1   1  417.33   24.16
  -2   1  -1   17.75    1.18
  -2   1  -1   18.57    1.17
  -2   1  -1   19.94    1.19
   2  -1   1   22.11    1.18
  -3   1  -1    3.93    0.36
  -3   1  -1    4.83    0.32
  -3   1  -1    4.20    0.29
  -3   1  -1    4.24    0.30
   3  -1   1    4.71    0.31
   3  -1   1    4.20    0.35
   3  -1   1    4.77    0.32
  -4   1  -1    8.31    0.61
  -4   1  -1    8.33    0.57
  -4   1  -1    8.53    0.58
   4  -1   1    9.72    0.57
   4  -1   1    9.62    0.63
   4  -1   1    9.93    0.57
  -5   1  -1   19.69    1.17
  -5   1  -1   20.21    1.18
   5  -1   1   19.71    1.17
   5  -1   1   17.67    1.16
   5   0  -1    1.28    0.17
   5   0  -1    0.98    0.18
   5   0  -1    1.12    0.15
  -5   0   1    1.08    0.18
  -5   0   1    1.07    0.18
  -5   0   1    1.24    0.21
  -5   0   1    1.24    0.18
   4   0  -1    2.35    0.22
   4   0  -1    2.54    0.23
   4   0  -1    2.36    0.26
   4   0  -1    3.18    0.29
  -4   0   1    2.56    0.21
  -4   0   1    2.67    0.27
  -4   0   1    2.54    0.36
  -4   0   1    2.68    0.23
   3   0  -1   11.79    0.82
   3   0  -1   13.65    0.82
   3   0  -1   14.56    0.84
  -3   0   1   13.94    0.80
  -3   0   1   13.34    0.82
  -3   0   1   12.98    0.82
  -2   0   1    1.62    0.11
  -1   0   1    0.30    0.05
  -1   0   1    0.19    0.05
   1   0   1   92.22    5.49
  -2   0  -1   62.53    3.76
  -2   0  -1   66.57    3.77
   2   0   1   59.58    3.77
   2   0   1   64.24    3.77
  -3   0  -1    3.82    0.23
  -3   0  -1    3.78    0.25
   3   0   1    3.43    0.25
   3   0   1    3.61    0.25
   3   0   1    3.67    0.25
   3   0   1    3.00    0.28
  -4   0  -1   26.93    1.61
  -4   0  -1   25.28    1.59
   4   0   1   24.33    1.62
   4   0   1   27.59    1.59
   4   0   1   26.28    1.60
   4   0   1   28.13    1.60
  -5   0  -1    9.42    0.56
  -5   0  -1    8.36    0.59
  -5   0  -1    9.49    0.56
   5   0   1    9.61    0.60
   5   0   1    7.17    0.55
   4  -1  -1   19.56    1.15
   4  -1  -1   18.11    1.18
   4  -1  -1   19.57    1.15
  -4   1   1   17.00    1.15
  -4   1   1   19.53    1.16
  -4   1   1   19.69    1.15
  -4   1   1   18.50    1.14
   3  -1  -1   15.61    0.96
   3  -1  -1   16.84    0.98
   3  -1  -1   14.02    0.96
   3  -1  -1   15.22    0.96
   3  -1  -1   15.97    0.96
  -3   1   1   15.55    0.95
  -3   1   1   15.29    0.95
  -3   1   1   16.84    0.97
   2  -1  -1    0.41    0.08
   2  -1  -1    0.37    0.08
  -2   1   1    0.34    0.08
  -2   1   1    0.16    0.08
   1  -1  -1  390.83   21.90
   1  -1  -1  336.30   21.88
  -1   1   1  358.97   21.89
  -1   1   1  386.32   21.88
   0  -1  -1   94.24    5.73
   0  -1  -1  102.03    5.73
   0   1   1   95.49    5.73
   0   1   1   93.62    5.73
   1   1   1   32.37    1.93
  -2  -1  -1   47.81    2.89
  -3  -1  -1   74.75    4.54
  -3  -1  -1   77.99    4.54
   3   1   1   80.06    4.55
   3   1   1   72.07    4.57
  -4  -1  -1   27.58    1.65
   4   1   1   25.88    1.66
   4   1   1   27.48    1.65
   4   1   1   28.15    1.65
  -5  -1  -1    0.49    0.11
   5   1   1    0.56    0.19
   5   1   1    0.45    0.13
   5   1   1    0.25    0.09
  -6  -1  -1    7.52    0.46
  -6  -1  -1    7.60    0.45
   6   1   1    5.23    0.66
   6   1   1    6.46    0.43
   5  -2  -1    8.38    0.45
  -5   2   1    6.17    0.45
   4  -2  -1   14.20    0.81
   4  -2  -1   14.77    0.81
  -4   2   1   12.25    0.80
  -4   2   1   10.96    0.82
   3  -2  -1    4.48    0.33
   3  -2  -1    4.37    0.37
   3  -2  -1    4.74    0.33
   3  -2  -1    5.68    0.34
  -3   2   1    4.90    0.40
   2  -2  -1   99.28    6.12
   2  -2  -1  102.70    6.13
   2  -2  -1   98.33    6.12
  -2   2   1  109.81    6.13
  -2   2   1   98.72    6.12
  -2   2   1   97.36    6.11
  -2   2   1  113.01    6.12
   1  -2  -1    2.72    0.22
   1  -2  -1    2.78    0.19
   0  -2  -1    4.52    0.28
   0  -2  -1    4.57    0.27
   0   2   1    4.44    0.28
   0   2   1    4.10    0.27
  -1  -2  -1    5.12    0.30
  -1  -2  -1    4.74    0.30
  -1  -2  -1    5.01    0.30
  -1  -2  -1    4.44    0.32
   1   2   1    4.89    0.30
  -2  -2  -1   52.57    3.07
  -2  -2  -1   47.12    3.07
   2   2   1   54.79    3.07
  -3  -2  -1    0.89    0.09
  -3  -2  -1    1.17    0.10
   3   2   1    1.00    0.12
   3   2   1    1.17    0.31
   3   2   1    1.02    0.13
  -4  -2  -1    5.23    0.35
  -4  -2  -1    5.23    0.33
  -4  -2  -1    5.19    0.35
   4   2   1    5.17    0.36
   4   2   1    5.45    0.36
   4   2   1    5.43    0.39
  -5  -2  -1    1.12    0.31
  -5  -2  -1    2.02    0.17
  -5  -2  -1    1.89    0.17
   5   2   1    1.75    0.22
   5   2   1    2.37    0.27
  -6  -2  -1   19.35    1.30
  -6  -2  -1   20.42    1.30
  -6  -2  -1   21.00    1.30
   6   2   1   22.55    1.32
   6   2   1   24.44    1.32
   4  -3  -1    1.21    0.13
   3  -3  -1  184.90   10.57
   3  -3  -1  181.07   10.57
  -3   3   1  166.87   10.56
   2  -3  -1   32.43    2.03
   2  -3  -1   30.36    2.04
   2  -3  -1   31.44    2.06
  -2   3   1   38.47    2.02
  -2   3   1   31.57    2.03
  -2   3   1   38.79    2.03
   1  -3  -1   22.42    1.44
   1  -3  -1   23.68    1.45
   1  -3  -1   22.94    1.45
  -1   3   1   24.10    1.45
  -1   3   1   25.82    1.45
  -1   3   1   27.11    1.44
  -1   3   1   22.19    1.44
   0  -3  -1   16.13    0.90
   0  -3  -1   14.87    0.90
   0   3   1   14.29    0.90
   0   3   1   14.01    0.90
  -1  -3  -1   22.44    1.29
  -1  -3  -1   22.00    1.29
  -1  -3  -1   20.67    1.28
  -1  -3  -1   22.43    1.28
   1   3   1   19.42    1.29
  -2  -3  -1   11.68    0.67
  -2  -3  -1   11.73    0.66
  -2  -3  -1   10.55    0.66
   2   3   1    9.93    0.67
   2   3   1   10.55    0.67
   2   3   1   10.64    0.67
  -3  -3  -1    2.31    0.17
  -3  -3  -1    2.16    0.15
  -3  -3  -1    2.15    0.18
   3   3   1    2.38    0.27
   3   3   1    2.18    0.18
   3   3   1    2.08    0.19
  -4  -3  -1   15.68    1.04
  -4  -3  -1   17.69    1.05
  -4  -3  -1   18.06    1.06
   4   3   1   17.55    1.04
   4   3   1   16.17    1.04
   4   3   1   17.91    1.07
   4   3   1   16.63    1.05
  -5  -3  -1    1.63    0.15
  -5  -3  -1    1.94    0.14
  -5  -3  -1    2.25    0.40
   5   3   1    1.27    0.18
   5   3   1    1.58    0.25
   5   3   1    1.56    0.21
  -6  -3  -1    3.83    0.29
   6   3   1    3.58    0.26
   6   3   1    3.98    0.31
   3  -4  -1    0.86    0.14
   3  -4  -1    1.02    0.13
  -3   4   1    1.41    0.25
   1  -4  -1   15.19    0.92
   1  -4  -1   15.29    0.94
   1  -4  -1   13.92    0.92
  -1   4   1   14.69    0.96
  -1   4   1   15.14    0.93
  -1   4   1   15.71    0.91
  -1   4   1   15.58    0.93
   0  -4  -1    2.00    0.28
   0  -4  -1    2.30    0.16
   0  -4  -1    2.31    0.17
   0  -4  -1    2.08    0.16
   0   4   1    2.02    0.18
   0   4   1    2.30    0.21
  -1  -4  -1    1.52    0.17
  -1  -4  -1    1.12    0.11
  -1  -4  -1    1.23    0.10
   1   4   1    0.97    0.12
   1   4   1    1.22    0.16
  -2  -4  -1   10.41    0.57
  -2  -4  -1    9.06    0.56
  -2  -4  -1    9.05    0.56
   2   4   1    8.61    0.62
   2   4   1    8.62    0.57
   2   4   1    8.84    0.58
   2   4   1    9.17    0.56
   2   4   1    9.07    0.57
  -3  -4  -1   30.21    1.66
  -3  -4  -1   28.53    1.64
  -3  -4  -1   26.99    1.64
  -3  -4  -1   26.41    1.66
   3   4   1   27.14    1.68
   3   4   1   28.06    1.64
   3   4   1   26.61    1.65
   3   4   1   26.14    1.65
   3   4   1   26.15    1.65
  -4  -4  -1    2.52    0.18
  -4  -4  -1    2.79    0.19
   4   4   1    3.05    0.29
   4   4   1    2.12    0.21
   4   4   1    1.91    0.24
  -5  -4  -1    2.24    0.26
  -5  -4  -1    2.12    0.16
  -5  -4  -1    1.72    0.16
   5   4   1    2.23    0.22
  -6  -4  -1    2.35    0.26
   6   4   1    2.30    0.24
   6   4   1    3.00    0.24
   2  -5  -1    0.25    0.07
  -2   5   1    0.45    0.22
   1  -5  -1    1.84    0.16
  -1   5   1    1.80    0.32
   0  -5  -1    7.92    0.50
   0   5   1    8.04    0.53
  -1  -5  -1    0.15    0.10
  -1  -5  -1    0.10    0.06
  -1  -5  -1    0.06    0.07
  -1  -5  -1    0.49    0.15
   1   5   1    0.29    0.12
   1   5   1   -0.05    0.08
   1   5   1    0.06    0.09
   1   5   1    0.22    0.13
  -2  -5  -1    4.28    0.29
  -2  -5  -1    4.15    0.39
  -2  -5  -1    4.65    0.33
  -2  -5  -1    4.31    0.28
  -2  -5  -1    4.30    0.29
   2   5   1    4.15    0.31
   2   5   1    4.52    0.40
   2   5   1    4.22    0.33
   2   5   1    3.89    0.31
   2   5   1    4.44    0.29
  -3  -5  -1    6.51    0.43
  -3  -5  -1    5.54    0.39
  -3  -5  -1    5.44    0.36
  -3  -5  -1    6.30    0.44
  -3  -5  -1    5.42    0.36
  -3  -5  -1    5.47    0.36
   3   5   1    5.71    0.40
   3   5   1    5.44    0.39
   3   5   1    4.83    0.38
   3   5   1    5.46    0.40
   3   5   1    5.85    0.46
  -4  -5  -1    1.15    0.12
  -4  -5  -1    1.29    0.13
  -4  -5  -1    1.11    0.17
   4   5   1    1.27    0.22
   4   5   1    1.17    0.16
   4   5   1    1.35    0.25
  -5  -5  -1    0.23    0.07
  -5  -5  -1    0.26    0.07
  -5  -5  -1    0.37    0.09
   5   5   1    0.29    0.12
   5   5   1    0.31    0.14
   1  -6  -1    1.67    0.14
  -1   6   1    1.57    0.26
   0  -6  -1    6.78    0.42
   0  -6  -1    6.70    0.44
  -1  -6  -1    3.44    0.25
  -1  -6  -1    3.84    0.24
  -1  -6  -1    3.17    0.27
  -1  -6  -1    3.68    0.24
   1   6   1    3.98    0.36
   1   6   1    4.38    0.45
  -2  -6  -1    3.41    0.24
  -2  -6  -1    3.42    0.23
  -2  -6  -1    3.59    0.23
  -2  -6  -1    2.91    0.42
  -2  -6  -1    3.13    0.25
   2   6   1    3.36    0.34
   2   6   1    3.07    0.31
   2   6   1    4.20    0.37
  -3  -6  -1    1.64    0.15
  -3  -6  -1    1.48    0.16
  -3  -6  -1    1.71    0.14
  -3  -6  -1    1.64    0.15
   3   6   1    1.94    0.29
   3   6   1    1.75    0.24
   3   6   1    1.94    0.20
  -4  -6  -1    1.48    0.13
  -4  -6  -1    1.34    0.13
  -4  -6  -1    1.70    0.15
   4   6   1    1.24    0.23
   4   6   1    1.61    0.27
   4   6   1    1.48    0.23
  -5  -6  -1    0.43    0.07
  -5  -6  -1    0.50    0.07
   5   6   1    0.57    0.13
   0  -7  -1    1.41    0.16
   0   7   1    1.88    0.25
  -1  -7  -1   41.26    2.48
   1   7   1   41.84    2.50
  -2  -7  -1    0.60    0.07
   2   7   1    0.67    0.16
  -3  -7  -1    0.13    0.04
  -3  -7  -1    0.10    0.14
   3   7   1    0.29    0.15
  -4  -7  -1    0.02    0.04
   4   7   1    0.04    0.13
   3   7  -2    8.20    0.55
  -3  -7   2    8.39    0.51
   2   7  -2    7.11    0.49
  -2  -7   2    6.74    0.43
   1   7  -2    1.96    0.31
  -1  -7   2    2.02    0.16
   5   6  -2    3.57    0.32
   5   6  -2    3.72    0.29
  -5  -6   2    3.89    0.24
   4   6  -2   16.42    1.04
   4   6  -2   17.17    1.05
  -4  -6   2   17.11    1.01
  -4  -6   2   16.56    1.01
   3   6  -2    2.13    0.28
  -3  -6   2    2.12    0.17
  -3  -6   2    2.15    0.17
  -3  -6   2    2.17    0.16
   2   6  -2    2.94    0.32
   2   6  -2    3.16    0.32
  -2  -6   2    2.87    0.20
  -2  -6   2    3.00    0.20
  -2  -6   2    3.08    0.21
   1   6  -2    4.78    0.40
   1   6  -2    4.85    0.41
  -1  -6   2    4.72    0.31
   0   6  -2    4.04    0.37
   0  -6   2    3.57    0.25
   0  -6   2    3.93    0.26
  -1   6  -2    2.01    0.28
   1  -6   2    1.78    0.14
   5   5  -2    6.26    0.45
   5   5  -2    6.32    0.43
  -5  -5   2    6.34    0.39
  -5  -5   2    6.47    0.39
   4   5  -2    6.88    0.47
   4   5  -2    6.46    0.47
  -4  -5   2    6.54    0.56
  -4  -5   2    6.48    0.41
  -4  -5   2    6.18    0.41
  -4  -5   2    6.71    0.41
   3   5  -2    0.28    0.11
   3   5  -2    0.09    0.15
   3   5  -2    0.06    0.18
  -3  -5   2    0.13    0.07
  -3  -5   2    0.18    0.08
  -3  -5   2    0.03    0.17
  -3  -5   2    0.26    0.06
  -3  -5   2    0.14    0.08
   2   5  -2   26.65    1.63
   2   5  -2   27.43    1.62
   2   5  -2   25.36    1.64
   2   5  -2   25.82    1.64
  -2  -5   2   26.52    1.60
  -2  -5   2   26.76    1.60
  -2  -5   2   27.16    1.60
  -2  -5   2   27.89    1.60
   1   5  -2    0.42    0.14
   1   5  -2    0.78    0.20
   1   5  -2    0.62    0.15
  -1  -5   2    0.69    0.13
  -1  -5   2    0.58    0.08
  -1  -5   2    0.61    0.10
  -1  -5   2    0.47    0.10
  -1  -5   2    0.58    0.08
  -1  -5   2    0.67    0.16
   0   5  -2    0.44    0.15
   0   5  -2    0.62    0.20
   0   5  -2    0.86    0.16
   0  -5   2    0.66    0.09
   0  -5   2    0.34    0.20
   0  -5   2    0.58    0.08
  -1   5  -2   64.62    3.97
  -1   5  -2   64.33    3.97
   1  -5   2   71.74    3.95
   1  -5   2   63.93    4.03
  -2   5  -2   28.72    1.81
   2  -5   2   30.71    1.78
   5   4  -2    0.11    0.10
   5   4  -2    0.02    0.14
   5   4  -2    0.25    0.13
  -5  -4   2    0.09    0.06
  -5  -4   2    0.09    0.08
  -5  -4   2    0.15    0.07
   4   4  -2    7.80    0.51
   4   4  -2    7.31    0.50
   4   4  -2    5.98    0.49
  -4  -4   2    7.96    0.47
  -4  -4   2    6.80    0.51
  -4  -4   2    7.08    0.59
  -4  -4   2    6.93    0.44
  -4  -4   2    7.28    0.44
   3   4  -2   15.67    0.98
   3   4  -2   16.01    0.97
   3   4  -2   14.81    0.95
  -3  -4   2   15.55    0.97
  -3  -4   2   15.93    0.96
  -3  -4   2   15.42    0.94
  -3  -4   2   15.80    0.94
  -3  -4   2   15.09    0.94
   2   4  -2   30.29    1.92
   2   4  -2   31.82    1.91
   2   4  -2   29.67    1.90
   2   4  -2   34.57    1.90
   2   4  -2   32.56    1.90
  -2  -4   2   32.04    1.89
  -2  -4   2   31.22    1.89
  -2  -4   2   31.67    1.90
  -2  -4   2   32.94    1.90
  -2  -4   2   30.74    1.89
  -2  -4   2   30.50    1.89
   1   4  -2    0.30    0.07
   1   4  -2    0.45    0.12
   1   4  -2    0.22    0.09
   1   4  -2    0.54    0.17
  -1  -4   2    0.32    0.06
  -1  -4   2    0.29    0.05
  -1  -4   2    0.33    0.11
  -1  -4   2    0.14    0.12
  -1  -4   2    0.26    0.07
  -1  -4   2    0.30    0.05
   0   4  -2    3.19    0.32
   0   4  -2    2.93    0.23
   0   4  -2    3.06    0.27
   0  -4   2    2.76    0.22
   0  -4   2    3.18    0.21
   0  -4   2    2.96    0.25
   0  -4   2    3.14    0.21
  -1   4  -2    5.46    0.34
  -1   4  -2    6.18    0.44
  -1   4  -2    5.09    0.39
  -1   4  -2    5.25    0.34
   1  -4   2    5.21    0.35
   1  -4   2    5.08    0.41
  -2   4  -2   30.59    1.97
  -2   4  -2   31.37    2.00
   2  -4   2   35.58    1.98
   2  -4   2   32.23    1.98
   2  -4   2   35.25    2.04
  -3   4  -2    5.33    0.36
  -3   4  -2    5.52    0.44
   3  -4   2    6.01    0.36
   3  -4   2    5.74    0.37
   6   3  -2    5.52    0.34
   6   3  -2    5.20    0.36
   6   3  -2    4.36    0.38
  -6  -3   2    5.26    0.40
  -6  -3   2    5.13    0.35
  -6  -3   2    5.25    0.34
   5   3  -2    3.24    0.30
   5   3  -2    2.95    0.29
  -5  -3   2    3.38    0.22
  -5  -3   2    3.17    0.22
   4   3  -2   27.44    1.61
   4   3  -2   26.65    1.62
  -4  -3   2   26.54    1.61
  -4  -3   2   25.51    1.59
  -4  -3   2   25.45    1.58
  -4  -3   2   27.43    1.61
   3   3  -2   10.28    0.66
   3   3  -2    9.27    0.62
   3   3  -2   10.35    0.64
   3   3  -2    9.95    0.62
  -3  -3   2   10.31    0.63
  -3  -3   2   10.29    0.62
  -3  -3   2    9.89    0.61
  -3  -3   2   10.32    0.61
   2   3  -2   25.29    1.50
   2   3  -2   24.75    1.50
   2   3  -2   23.99    1.49
  -2  -3   2   23.72    1.49
  -2  -3   2   24.38    1.49
  -2  -3   2   25.04    1.49
  -2  -3   2   26.19    1.50
  -2  -3   2   25.45    1.49
   1   3  -2   17.89    1.11
   1   3  -2   19.72    1.13
  -1  -3   2   17.85    1.11
  -1  -3   2   19.61    1.11
  -1  -3   2   16.81    1.10
   0   3  -2   18.64    1.17
   0   3  -2   19.05    1.18
   0   3  -2   20.16    1.18
   0  -3   2   18.90    1.19
   0  -3   2   21.23    1.18
  -1   3  -2   39.18    2.48
  -1   3  -2   41.86    2.50
  -1   3  -2   39.68    2.48
  -1   3  -2   43.98    2.49
  -1   3  -2   42.76    2.49
   1  -3   2   44.65    2.50
   1  -3   2   40.18    2.48
   1  -3   2   40.71    2.49
  -2   3  -2    0.91    0.14
  -2   3  -2    0.98    0.11
  -2   3  -2    0.92    0.11
   2  -3   2    0.78    0.11
   2  -3   2    0.74    0.15
   2  -3   2    0.74    0.10
   3  -3   2    9.52    0.53
   3  -3   2    7.40    0.52
   3  -3   2    8.15    0.65
  -4   3  -2    6.27    0.43
  -4   3  -2    6.50    0.42
   4  -3   2    7.17    0.42
   6   2  -2   12.42    0.85
   6   2  -2   14.31    0.83
  -6  -2   2   13.85    0.82
   5   2  -2    9.08    0.60
   5   2  -2    7.70    0.60
   5   2  -2    9.48    0.58
  -5  -2   2    9.21    0.56
  -5  -2   2    9.25    0.56
  -5  -2   2    9.60    0.59
   4   2  -2    7.05    0.45
   4   2  -2    6.42    0.46
   4   2  -2    6.87    0.44
  -4  -2   2    6.63    0.44
  -4  -2   2    6.23    0.41
   3   2  -2   33.54    2.03
   3   2  -2   32.44    2.02
   3   2  -2   34.23    2.02
   3   2  -2   35.76    2.03
  -3  -2   2   34.28    2.01
  -3  -2   2   32.66    2.01
  -3  -2   2   32.75    2.01
   2   2  -2    9.83    0.59
   2   2  -2    9.24    0.60
  -2  -2   2    9.94    0.59
  -2  -2   2   10.00    0.59
  -2  -2   2    9.32    0.59
   1   2  -2   28.41    1.70
   1   2  -2   29.28    1.71
  -1  -2   2   28.06    1.70
  -1  -2   2   27.56    1.70
  -1  -2   2   29.07    1.70
   0   2  -2   72.13    4.37
   0   2  -2   73.03    4.37
   0  -2   2   77.60    4.37
   0  -2   2   70.52    4.36
  -1   2  -2   43.16    2.60
  -1   2  -2   42.82    2.60
  -1   2  -2   42.29    2.61
   1  -2   2   46.04    2.61
  -2   2  -2    0.08    0.08
  -3   2  -2    8.64    0.55
  -3   2  -2    8.15    0.57
  -3   2  -2    8.99    0.53
   3  -2   2    8.76    0.57
   3  -2   2    8.19    0.52
   3  -2   2    8.12    0.53
   3  -2   2    7.64    0.52
  -4   2  -2    1.82    0.23
   4  -2   2    1.24    0.21
   4  -2   2    1.09    0.15
  -5   2  -2    1.20    0.14
   5  -2   2    1.47    0.12
   5  -2   2    0.94    0.21
  -6  -1   2   31.15    1.86
   5   1  -2    4.23    0.38
  -5  -1   2    4.01    0.29
   4   1  -2   62.56    3.64
   4   1  -2   62.05    3.64
   4   1  -2   61.77    3.64
   4   1  -2   59.89    3.63
  -4  -1   2   60.74    3.62
  -4  -1   2   60.19    3.63
  -4  -1   2   57.98    3.63
   3   1  -2   27.86    1.69
   3   1  -2   27.05    1.68
  -3  -1   2   29.04    1.67
  -3  -1   2   28.19    1.66
  -3  -1   2   26.96    1.66
   2   1  -2    1.51    0.13
  -2  -1   2    1.51    0.10
  -2  -1   2    1.57    0.11
   1   1  -2   57.55    3.39
   1   1  -2   58.55    3.38
  -1  -1   2   55.69    3.38
  -1  -1   2   55.00    3.39
  -1  -1   2   57.65    3.38
   0   1  -2    0.43    0.05
   0   1  -2    0.46    0.06
  -1   1  -2  114.23    6.76
  -1   1  -2  107.69    6.76
  -1   1  -2  112.45    6.76
   1  -1   2  120.43    6.77
  -2   1  -2    7.64    0.51
  -2   1  -2    8.79    0.52
   2  -1   2    8.75    0.51
   2  -1   2    8.15    0.52
  -3   1  -2   19.94    1.15
  -3   1  -2   17.38    1.14
  -3   1  -2   17.57    1.13
   3  -1   2   20.65    1.15
   3  -1   2   16.60    1.16
   3  -1   2   19.88    1.16
   3  -1   2   19.95    1.14
  -4   1  -2    3.05    0.28
   4  -1   2    2.42    0.20
   4  -1   2    2.50    0.21
  -5   1  -2   21.44    1.23
  -5   1  -2   19.85    1.23
  -5   1  -2   20.34    1.23
   5  -1   2   19.59    1.22
   5   0  -2    0.49    0.18
   5   0  -2    0.45    0.12
   5   0  -2    0.52    0.10
  -5   0   2    0.40    0.15
  -5   0   2    0.42    0.12
  -5   0   2    0.44    0.11
  -4   0   2    0.61    0.15
   3   0  -2   70.02    4.18
   3   0  -2   67.93    4.17
   3   0  -2   70.13    4.18
  -3   0   2   72.70    4.17
  -3   0   2   65.95    4.16
  -3   0   2   72.55    4.16
   2   0  -2   35.49    2.14
  -2   0   2   35.85    2.13
   1   0  -2    8.78    0.51
  -1   0   2    7.86    0.51
  -1   0   2    8.51    0.51
   0   0  -2    0.87    0.07
   0   0   2    1.11    0.07
  -1   0  -2    0.11    0.03
   1   0   2    0.15    0.04
  -2   0  -2    1.98    0.16
   2   0   2    2.30    0.16
   2   0   2    2.44    0.17
  -3   0  -2    0.72    0.11
   3   0   2    0.78    0.12
   3   0   2    0.71    0.12
   3   0   2    0.76    0.12
   3   0   2    0.65    0.14
  -4   0  -2    2.22    0.33
   4   0   2    2.25    0.20
   4   0   2    2.09    0.19
  -5   0  -2    3.76    0.35
  -5   0  -2    4.26    0.29
  -5   0  -2    3.53    0.27
   5   0   2    3.12    0.25
   5  -1  -2   11.88    0.73
   5  -1  -2   12.29    0.72
  -5   1   2   11.04    0.72
  -5   1   2   11.86    0.73
   4  -1  -2   16.01    0.90
   4  -1  -2   15.93    0.90
   4  -1  -2   13.36    0.97
  -4   1   2   13.21    0.93
  -4   1   2   15.13    0.91
  -4   1   2   14.87    0.90
  -4   1   2   13.99    0.91
   3  -1  -2    5.76    0.45
   3  -1  -2    7.07    0.45
   3  -1  -2    6.40    0.44
   3  -1  -2    6.44    0.44
   3  -1  -2    6.96    0.46
  -3   1   2    7.54    0.45
  -3   1   2    6.50    0.42
  -3   1   2    6.55    0.45
  -3   1   2    6.66    0.47
  -3   1   2    7.48    0.43
   2  -1  -2    1.23    0.17
   2  -1  -2    1.56    0.13
  -2   1   2    1.69    0.14
  -2   1   2    1.42    0.19
  -2   1   2    1.63    0.14
   1  -1  -2   81.27    4.77
   1  -1  -2   80.88    4.77
  -1   1   2   81.91    4.76
  -1   1   2   79.52    4.76
  -1   1   2   76.70    4.77
   0  -1  -2  111.27    6.30
   0  -1  -2  106.46    6.30
   0  -1  -2   95.13    6.30
   0   1   2  112.86    6.30
   0   1   2  103.58    6.30
   1   1   2   31.20    1.86
  -2  -1  -2    2.40    0.26
  -3  -1  -2   10.09    0.61
   3   1   2   10.96    0.62
   3   1   2    8.66    0.64
   3   1   2   10.25    0.64
  -4  -1  -2    0.85    0.16
   4   1   2    0.94    0.16
  -5  -1  -2   14.54    0.96
   5   1   2   16.42    0.97
   5   1   2   13.97    0.99
   5   1   2   16.82    0.97
   5   1   2   16.75    0.98
   6   1   2    3.32    0.37
   6   1   2    3.56    0.24
   5  -2  -2    2.39    0.17
  -5   2   2    2.04    0.16
   4  -2  -2    0.39    0.10
   3  -2  -2   53.39    3.04
   3  -2  -2   53.36    3.04
   3  -2  -2   55.77    3.06
   3  -2  -2   56.17    3.04
  -3   2   2   43.72    3.04
  -3   2   2   44.72    3.04
  -3   2   2   48.72    3.03
   2  -2  -2   20.30    1.34
   2  -2  -2   23.12    1.34
   2  -2  -2   20.86    1.36
   2  -2  -2   19.55    1.34
  -2   2   2   22.77    1.35
  -2   2   2   25.12    1.34
  -2   2   2   23.90    1.33
  -2   2   2   21.61    1.33
   1  -2  -2    4.13    0.25
   1  -2  -2    4.04    0.27
   1  -2  -2    3.54    0.25
   1  -2  -2    3.84    0.24
  -1   2   2    3.68    0.25
  -1   2   2    3.68    0.25
  -1   2   2    4.08    0.27
   0  -2  -2   13.31    0.76
   0  -2  -2   12.75    0.76
   0   2   2   12.01    0.76
   0   2   2   12.09    0.76
  -1  -2  -2   28.74    1.60
  -1  -2  -2   24.51    1.59
  -1  -2  -2   24.70    1.60
   1   2   2   28.79    1.60
   2   2   2    2.65    0.19
   2   2   2    3.17    0.22
  -3  -2  -2   41.82    2.39
   3   2   2   41.03    2.40
   3   2   2   43.25    2.40
   3   2   2   34.10    2.41
  -4  -2  -2    4.22    0.26
  -4  -2  -2    3.87    0.29
   4   2   2    4.31    0.29
   4   2   2    3.37    0.33
   4   2   2    4.44    0.29
  -5  -2  -2    0.39    0.09
  -5  -2  -2    0.27    0.21
  -5  -2  -2    0.60    0.11
   5   2   2    0.39    0.09
   5   2   2    0.54    0.17
   5   2   2    0.43    0.11
  -6  -2  -2   11.73    0.73
   4  -3  -2    4.20    0.28
  -4   3   2    4.01    0.27
   3  -3  -2   31.19    1.75
   3  -3  -2   28.96    1.75
  -3   3   2   29.10    1.74
  -3   3   2   27.24    1.76
   2  -3  -2   89.92    5.67
   2  -3  -2   93.65    5.63
   2  -3  -2   98.57    5.62
  -2   3   2   95.37    5.62
   1  -3  -2   64.85    3.93
   1  -3  -2   63.73    3.94
  -1   3   2   72.70    3.94
  -1   3   2   60.60    3.93
  -1   3   2   68.22    3.94
   0  -3  -2   56.85    3.35
   0  -3  -2   54.78    3.34
   0  -3  -2   59.14    3.35
   0   3   2   54.78    3.35
   0   3   2   54.87    3.35
  -1  -3  -2    0.21    0.09
   1   3   2    0.39    0.07
  -2  -3  -2    0.19    0.04
  -2  -3  -2    0.23    0.08
   2   3   2    0.06    0.05
   2   3   2    0.20    0.06
  -3  -3  -2   28.89    1.84
  -3  -3  -2   31.63    1.85
  -3  -3  -2   32.34    1.84
   3   3   2   31.01    1.84
   3   3   2   30.58    1.85
   3   3   2   29.66    1.84
  -4  -3  -2    9.61    0.58
  -4  -3  -2   10.05    0.61
   4   3   2    8.24    0.62
   4   3   2    8.94    0.58
   4   3   2    8.73    0.58
   4   3   2    9.68    0.58
  -5  -3  -2    9.96    0.60
  -5  -3  -2    9.36    0.72
  -5  -3  -2   10.45    0.61
   5   3   2    9.39    0.65
   5   3   2    9.36    0.63
   5   3   2   10.26    0.63
  -6  -3  -2    5.11    0.35
  -6  -3  -2    3.68    0.40
   6   3   2    4.36    0.31
   6   3   2    4.78    0.35
   6   3   2    4.97    0.35
   3  -4  -2    0.19    0.09
   2  -4  -2   21.69    1.25
   2  -4  -2   20.39    1.25
  -2   4   2   20.27    1.24
  -2   4   2   20.17    1.29
   1  -4  -2   25.58    1.51
   1  -4  -2   26.30    1.52
   1  -4  -2   25.19    1.54
  -1   4   2   23.27    1.55
  -1   4   2   25.99    1.53
   0  -4  -2   32.41    1.89
   0  -4  -2   34.90    1.90
   0  -4  -2   32.27    1.89
   0  -4  -2   32.91    1.89
   0  -4  -2   29.73    1.92
   0   4   2   30.53    1.90
   0   4   2   30.85    1.89
   0   4   2   33.40    1.90
   0   4   2   26.93    1.92
  -1  -4  -2   83.25    4.74
  -1  -4  -2   74.38    4.75
  -1  -4  -2   82.38    4.74
  -1  -4  -2   72.37    4.75
  -1  -4  -2   78.32    4.74
   1   4   2   85.82    4.75
   1   4   2   76.71    4.75
   1   4   2   83.60    4.75
  -2  -4  -2   17.73    1.12
  -2  -4  -2   19.36    1.12
  -2  -4  -2   19.64    1.13
  -2  -4  -2   19.09    1.13
   2   4   2   17.86    1.13
   2   4   2   17.60    1.13
   2   4   2   19.04    1.13
   2   4   2   18.86    1.13
  -3  -4  -2    7.19    0.43
  -3  -4  -2    6.94    0.44
  -3  -4  -2    6.88    0.46
   3   4   2    6.79    0.44
   3   4   2    6.70    0.52
   3   4   2    7.32    0.45
   3   4   2    6.86    0.45
   3   4   2    6.48    0.44
  -4  -4  -2    2.43    0.19
  -4  -4  -2    2.95    0.29
  -4  -4  -2    2.33    0.17
  -4  -4  -2    2.13    0.28
   4   4   2    2.10    0.23
   4   4   2    1.87    0.20
   4   4   2    2.63    0.29
  -5  -4  -2   24.52    1.46
  -5  -4  -2   23.73    1.46
   5   4   2   24.59    1.48
  -6  -4  -2    4.97    0.33
   6   4   2    5.04    0.36
   6   4   2    4.86    0.35
   2  -5  -2    1.03    0.13
  -2   5   2    1.66    0.32
   1  -5  -2    1.50    0.15
  -1   5   2    1.51    0.32
   0  -5  -2   12.31    0.73
   0  -5  -2   10.78    0.85
   0   5   2   13.08    0.77
  -1  -5  -2   29.83    1.71
  -1  -5  -2   28.38    1.70
  -1  -5  -2   27.36    1.71
  -1  -5  -2   28.22    1.70
  -1  -5  -2   29.45    1.73
   1   5   2   28.42    1.71
   1   5   2   29.09    1.72
   1   5   2   26.74    1.72
  -2  -5  -2    2.62    0.22
  -2  -5  -2    2.60    0.19
  -2  -5  -2    2.68    0.32
  -2  -5  -2    2.56    0.19
   2   5   2    2.17    0.22
   2   5   2    2.61    0.22
   2   5   2    2.86    0.25
   2   5   2    2.64    0.20
   2   5   2    2.71    0.35
  -3  -5  -2   32.53    1.87
  -3  -5  -2   31.54    1.90
  -3  -5  -2   33.10    1.87
  -3  -5  -2   30.79    1.89
   3   5   2   30.92    1.88
   3   5   2   30.42    1.88
   3   5   2   29.31    1.92
   3   5   2   31.22    1.89
  -4  -5  -2    1.50    0.23
  -4  -5  -2    1.29    0.13
  -4  -5  -2    1.32    0.14
   4   5   2    1.37    0.17
   4   5   2    1.44    0.21
   4   5   2    1.79    0.27
  -5  -5  -2    7.91    0.49
  -5  -5  -2    7.89    0.49
  -5  -5  -2    7.78    0.51
   5   5   2    7.70    0.52
   5   5   2    8.39    0.53
   1  -6  -2    2.49    0.18
  -1   6   2    2.47    0.29
   0  -6  -2    2.02    0.16
  -1  -6  -2    7.91    0.49
  -1  -6  -2    8.02    0.48
  -1  -6  -2    7.92    0.48
  -1  -6  -2    7.47    0.49
   1   6   2    7.79    0.61
   1   6   2    7.30    0.57
  -2  -6  -2    1.71    0.15
  -2  -6  -2    1.52    0.15
  -2  -6  -2    1.58    0.14
  -2  -6  -2    1.52    0.15
   2   6   2    1.60    0.22
   2   6   2    1.60    0.15
   2   6   2    1.44    0.29
  -3  -6  -2   23.55    1.42
  -3  -6  -2   24.36    1.42
  -3  -6  -2   23.16    1.42
  -3  -6  -2   24.23    1.42
   3   6   2   22.82    1.43
   3   6   2   23.91    1.47
  -4  -6  -2    2.44    0.23
  -4  -6  -2    2.71    0.19
   4   6   2    2.85    0.29
   4   6   2    2.89    0.27
   4   6   2    2.54    0.22
  -5  -6  -2    1.40    0.12
  -5  -6  -2    1.05    0.13
   5   6   2    1.42    0.19
   0  -7  -2    0.30    0.09
  -1  -7  -2    9.45    0.60
   1   7   2   10.25    0.64
  -2  -7  -2   33.26    2.06
  -2  -7  -2   35.17    2.07
   2   7   2   35.26    2.09
  -3  -7  -2    6.99    0.43
  -3  -7  -2    7.18    0.47
  -3  -7  -2    6.38    0.43
   3   7   2    7.67    0.49
  -4  -7  -2    2.30    0.16
  -4  -7  -2    2.22    0.16
   4   7   2    2.49    0.24
  -3  -7   3    6.24    0.39
  -2  -7   3    0.01    0.06
   1   7  -3    3.40    0.36
  -1  -7   3    2.88    0.21
   4   6  -3    2.00    0.23
   4   6  -3    1.69    0.27
  -4  -6   3    1.90    0.14
  -4  -6   3    1.95    0.14
   3   6  -3    0.46    0.21
   3   6  -3    0.34    0.15
  -3  -6   3    0.35    0.06
  -3  -6   3    0.34    0.07
   2   6  -3    4.31    0.39
   2   6  -3    3.70    0.37
  -2  -6   3    4.32    0.27
  -2  -6   3    4.25    0.27
   1   6  -3    1.63    0.29
   1   6  -3    1.68    0.36
  -1  -6   3    1.95    0.14
  -1  -6   3    1.60    0.23
   0   6  -3    1.08    0.20
   0   6  -3    1.11    0.25
   0  -6   3    0.81    0.10
   0  -6   3    0.79    0.12
  -1   6  -3    0.14    0.16
   1  -6   3    0.20    0.06
   5   5  -3    3.06    0.26
  -5  -5   3    2.90    0.20
  -5  -5   3    3.13    0.20
   4   5  -3    0.79    0.17
   4   5  -3    0.44    0.15
  -4  -5   3    0.61    0.10
  -4  -5   3    0.75    0.09
  -4  -5   3    0.75    0.11
   3   5  -3    1.35    0.21
   3   5  -3    1.43    0.22
  -3  -5   3    1.57    0.15
  -3  -5   3    1.61    0.30
  -3  -5   3    1.40    0.14
  -3  -5   3    1.62    0.15
  -3  -5   3    1.72    0.14
   2   5  -3    2.28    0.29
   2   5  -3    2.58    0.30
   2   5  -3    2.51    0.25
  -2  -5   3    2.41    0.29
  -2  -5   3    2.51    0.19
  -2  -5   3    2.66    0.18
  -2  -5   3    2.48    0.18
  -2  -5   3    2.41    0.18
   1   5  -3   13.76    0.93
   1   5  -3   13.95    0.94
   1   5  -3   15.10    0.94
  -1  -5   3   15.13    0.88
  -1  -5   3   14.59    0.89
  -1  -5   3   15.14    0.91
  -1  -5   3   15.22    0.89
   0   5  -3    1.50    0.26
   0   5  -3    1.67    0.23
   0   5  -3    1.58    0.26
   0  -5   3    1.48    0.25
   0  -5   3    2.03    0.16
   0  -5   3    1.61    0.14
   1  -5   3    0.99    0.35
   1  -5   3    1.19    0.14
  -2   5  -3    7.94    0.49
   2  -5   3    5.97    0.43
   5   4  -3    1.22    0.23
   5   4  -3    1.45    0.18
   5   4  -3    1.49    0.21
  -5  -4   3    1.38    0.12
  -5  -4   3    1.36    0.13
   4   4  -3   13.88    0.84
   4   4  -3   12.31    0.85
   4   4  -3   12.03    0.82
  -4  -4   3   13.82    0.80
  -4  -4   3   13.43    0.80
  -4  -4   3   13.86    0.80
   3   4  -3   18.80    1.16
   3   4  -3   18.98    1.19
   3   4  -3   18.95    1.18
  -3  -4   3   17.46    1.16
  -3  -4   3   19.69    1.17
  -3  -4   3   19.39    1.18
  -3  -4   3   19.32    1.15
  -3  -4   3   19.17    1.15
  -3  -4   3   19.91    1.15
   2   4  -3    0.17    0.13
   2   4  -3    0.06    0.06
   2   4  -3    0.04    0.09
   2   4  -3   -0.12    0.22
  -2  -4   3   -0.08    0.10
  -2  -4   3    0.19    0.08
  -2  -4   3    0.12    0.12
  -2  -4   3    0.07    0.05
  -2  -4   3    0.05    0.05
  -2  -4   3    0.04    0.04
   1   4  -3    0.36    0.17
   1   4  -3    0.03    0.11
   1   4  -3    0.05    0.06
  -1  -4   3    0.10    0.05
  -1  -4   3    0.10    0.05
  -1  -4   3    0.17    0.08
  -1  -4   3    0.15    0.11
  -1  -4   3    0.08    0.16
  -1  -4   3    0.13    0.15
  -1  -4   3    0.10    0.05
   0   4  -3   74.26    5.13
   0   4  -3   86.86    5.16
   0  -4   3   91.73    5.14
   0  -4   3   86.18    5.14
   0  -4   3   92.42    5.13
  -1   4  -3   12.36    0.77
  -1   4  -3   13.20    0.74
  -1   4  -3   11.15    0.74
  -1   4  -3   12.58    0.80
   1  -4   3   12.87    0.75
   1  -4   3   10.73    0.79
  -2   4  -3    9.22    0.52
   2  -4   3    7.88    0.53
   2  -4   3    8.43    0.52
   2  -4   3    7.67    0.66
  -3   4  -3    2.65    0.18
  -3   4  -3    2.89    0.30
   3  -4   3    2.02    0.19
   3  -4   3    2.15    0.18
   6   3  -3    0.10    0.14
   6   3  -3    0.14    0.09
   6   3  -3    0.17    0.12
  -6  -3   3    0.11    0.09
  -6  -3   3    0.31    0.08
   5   3  -3   15.45    0.97
   5   3  -3   15.91    0.97
  -5  -3   3   14.31    0.99
  -5  -3   3   15.77    0.93
  -5  -3   3   15.50    0.93
   4   3  -3    1.08    0.22
   4   3  -3    0.98    0.22
   4   3  -3    0.97    0.13
  -4  -3   3    1.05    0.10
  -4  -3   3    0.62    0.18
  -4  -3   3    0.83    0.11
  -4  -3   3    1.00    0.11
   3   3  -3    0.32    0.11
   3   3  -3    0.29    0.08
   3   3  -3    0.29    0.11
   3   3  -3    0.47    0.18
   3   3  -3    0.37    0.09
  -3  -3   3    0.40    0.09
  -3  -3   3    0.52    0.15
  -3  -3   3    0.36    0.06
  -3  -3   3    0.31    0.05
  -3  -3   3    0.43    0.10
   2   3  -3    6.86    0.41
   2   3  -3    6.80    0.42
   2   3  -3    5.88    0.40
   2   3  -3    6.04    0.45
  -2  -3   3    6.69    0.40
  -2  -3   3    6.41    0.40
  -2  -3   3    6.04    0.39
  -2  -3   3    6.71    0.41
  -2  -3   3    6.14    0.40
   1   3  -3   99.62    6.00
  -1  -3   3  100.75    5.99
  -1  -3   3  106.72    6.00
  -1  -3   3   95.57    5.99
   0   3  -3   19.27    1.20
   0   3  -3   19.80    1.21
   0  -3   3   21.31    1.21
   0  -3   3   19.16    1.19
  -1   3  -3   17.81    1.10
  -1   3  -3   18.77    1.09
  -1   3  -3   17.94    1.11
  -1   3  -3   18.42    1.10
  -1   3  -3   19.91    1.09
   1  -3   3   17.78    1.10
   1  -3   3   16.41    1.14
  -2   3  -3    0.36    0.12
  -2   3  -3    0.34    0.07
  -2   3  -3    0.35    0.08
  -2   3  -3    0.29    0.15
   2  -3   3    0.21    0.09
   2  -3   3    0.27    0.08
   2  -3   3    0.29    0.12
   2  -3   3    0.45    0.15
  -3   3  -3    3.95    0.26
   3  -3   3    3.45    0.47
   3  -3   3    3.32    0.26
   3  -3   3    4.13    0.27
  -4   3  -3    3.39    0.24
  -4   3  -3    3.45    0.33
   6   2  -3   12.85    0.89
   6   2  -3   16.33    0.96
  -6  -2   3   14.96    0.89
   5   2  -3    1.77    0.24
   5   2  -3    1.50    0.21
  -5  -2   3    1.70    0.23
  -5  -2   3    1.58    0.15
  -5  -2   3    1.81    0.14
   4   2  -3    4.28    0.33
   4   2  -3    4.61    0.33
   4   2  -3    3.87    0.30
  -4  -2   3    3.96    0.26
  -4  -2   3    3.79    0.32
  -4  -2   3    3.98    0.26
  -4  -2   3    4.16    0.31
  -4  -2   3    4.21    0.32
   3   2  -3   14.26    0.82
   3   2  -3   12.92    0.83
   3   2  -3   12.50    0.81
  -3  -2   3   13.29    0.80
  -3  -2   3   13.50    0.80
  -3  -2   3   12.97    0.81
   2   2  -3  346.23   20.16
   2   2  -3  337.87   20.16
   2   2  -3  334.88   20.16
  -2  -2   3  352.81   20.16
  -2  -2   3  346.20   20.16
  -2  -2   3  332.32   20.15
  -2  -2   3  323.00   20.16
   1   2  -3  325.66   18.83
   1   2  -3  302.64   18.82
  -1  -2   3  326.63   18.82
  -1  -2   3  318.94   18.81
  -1  -2   3  308.65   18.82
   0   2  -3   78.69    4.83
   0   2  -3   78.01    4.84
   0   2  -3   80.07    4.84
   0  -2   3   88.12    4.84
  -1   2  -3   28.63    1.77
  -1   2  -3   31.48    1.76
  -1   2  -3   28.42    1.77
  -2   2  -3    6.97    0.41
  -2   2  -3    6.55    0.41
  -2   2  -3    6.22    0.43
   2  -2   3    6.16    0.41
   2  -2   3    6.97    0.44
   2  -2   3    6.34    0.45
  -3   2  -3    2.74    0.25
  -3   2  -3    2.17    0.28
  -3   2  -3    2.75    0.20
   3  -2   3    2.08    0.20
   3  -2   3    2.39    0.20
   3  -2   3    2.19    0.29
   3  -2   3    2.46    0.23
  -4   2  -3    6.20    0.44
  -4   2  -3    7.00    0.44
   4  -2   3    6.70    0.45
   4  -2   3    7.55    0.44
   5   1  -3    9.47    0.58
   5   1  -3    7.86    0.56
  -5  -1   3    7.99    0.52
  -5  -1   3    8.05    0.52
  -5  -1   3    7.95    0.56
  -5  -1   3    8.36    0.55
   4   1  -3   23.35    1.54
   4   1  -3   24.93    1.53
   4   1  -3   26.86    1.54
   4   1  -3   25.50    1.55
  -4  -1   3   25.10    1.52
  -4  -1   3   25.60    1.52
  -4  -1   3   26.85    1.54
  -4  -1   3   24.65    1.55
   3   1  -3   30.92    1.90
   3   1  -3   31.63    1.90
  -3  -1   3   32.91    1.89
  -3  -1   3   30.44    1.88
  -3  -1   3   31.88    1.88
  -2  -1   3  102.94    6.11
  -2  -1   3  102.57    6.12
   1   1  -3    6.77    0.42
   1   1  -3    6.73    0.41
  -1  -1   3    6.46    0.41
  -1  -1   3    6.48    0.41
  -1  -1   3    6.87    0.41
   0   1  -3   52.66    3.21
   0   1  -3   52.45    3.21
   0   1  -3   51.84    3.21
   0  -1   3   58.78    3.21
  -1   1  -3    1.20    0.09
  -1   1  -3    1.38    0.09
  -1   1  -3    1.00    0.10
   1  -1   3    1.37    0.10
  -2   1  -3    2.33    0.18
  -2   1  -3    2.36    0.16
   2  -1   3    2.58    0.18
   2  -1   3    2.08    0.19
  -3   1  -3   25.45    1.51
  -3   1  -3   24.79    1.52
   3  -1   3   26.25    1.52
   3  -1   3   26.47    1.52
   3  -1   3   23.31    1.54
  -4   1  -3    1.65    0.30
  -4   1  -3    2.07    0.27
  -4   1  -3    2.08    0.19
   4  -1   3    2.12    0.18
   4  -1   3    2.21    0.34
   4  -1   3    2.35    0.19
  -5   1  -3    8.78    0.55
   5   0  -3    1.83    0.29
   5   0  -3    1.22    0.17
   5   0  -3    1.21    0.18
  -5   0   3    1.24    0.20
   4   0  -3   41.84    2.95
   4   0  -3   48.80    2.95
   4   0  -3   54.93    2.97
   4   0  -3   50.23    2.95
  -4   0   3   51.80    2.94
  -4   0   3   49.92    2.98
  -4   0   3   51.73    2.96
  -4   0   3   45.41    2.95
  -4   0   3   48.87    2.94
   3   0  -3    6.03    0.41
   3   0  -3    5.71    0.43
   3   0  -3    6.58    0.44
  -3   0   3    6.29    0.39
  -3   0   3    6.52    0.39
  -3   0   3    6.68    0.41
  -2   0   3  142.99    9.18
  -2   0   3  157.41    9.19
  -2   0   3  162.75    9.18
   1   0  -3   15.01    0.93
  -1   0   3   15.99    0.93
   1   0   3    3.16    0.20
   2   0   3   28.46    1.71
  -3   0  -3    0.05    0.06
   3   0   3    0.12    0.07
   3   0   3    0.14    0.12
   3   0   3    0.13    0.08
   3   0   3    0.18    0.07
  -4   0  -3    6.74    0.46
   4   0   3    6.60    0.49
   4   0   3    7.28    0.44
   4   0   3    6.79    0.44
   4   0   3    6.64    0.45
  -5   0  -3    6.48    0.47
  -5   0  -3    5.59    0.41
  -5   0  -3    5.52    0.40
   5   0   3    5.88    0.39
   5   0   3    6.06    0.39
   5   0   3    6.64    0.44
   5  -1  -3    4.22    0.30
   5  -1  -3    4.05    0.28
   4  -1  -3    0.11    0.10
   4  -1  -3    0.17    0.10
  -4   1   3    0.30    0.13
  -4   1   3    0.20    0.11
  -4   1   3    0.37    0.27
   3  -1  -3    6.98    0.46
   3  -1  -3    8.23    0.48
   3  -1  -3    6.60    0.47
  -3   1   3    6.62    0.44
  -3   1   3    7.81    0.45
  -3   1   3    6.69    0.46
  -3   1   3    5.89    0.48
  -3   1   3    7.78    0.47
   2  -1  -3   18.06    1.06
  -2   1   3   17.05    1.07
  -2   1   3   17.29    1.06
  -2   1   3   18.00    1.06
   1  -1  -3  120.55    7.18
   1  -1  -3  119.99    7.18
   1  -1  -3  119.78    7.18
  -1   1   3  124.33    7.18
  -1   1   3  121.77    7.18
  -1   1   3  117.33    7.18
   0  -1  -3  523.34   33.39
   0   1   3  599.73   33.40
   1   1   3   69.06    4.12
   2   1   3    6.90    0.43
   3   1   3   18.16    1.08
   3   1   3   17.12    1.07
   3   1   3   17.65    1.07
  -4  -1  -3    1.78    0.20
  -4  -1  -3    1.76    0.15
   4   1   3    2.07    0.18
   4   1   3    2.16    0.19
   4   1   3    1.59    0.23
   4   1   3    1.56    0.22
  -5  -1  -3    8.35    0.54
   5   1   3    7.96    0.60
   5   1   3    9.06    0.55
  -6  -1  -3    9.57    0.67
  -6  -1  -3    9.68    0.64
   6   1   3   10.47    0.63
   6   1   3   11.10    0.71
   5  -2  -3    1.91    0.16
   4  -2  -3    6.25    0.46
   4  -2  -3    7.30    0.44
  -4   2   3    6.48    0.48
  -4   2   3    6.53    0.43
  -4   2   3    6.93    0.46
   3  -2  -3    0.38    0.17
   3  -2  -3    0.27    0.10
   3  -2  -3    0.12    0.12
   2  -2  -3   10.71    0.74
   2  -2  -3   11.61    0.73
  -2   2   3   11.95    0.74
  -2   2   3   10.75    0.74
  -2   2   3   12.71    0.72
  -2   2   3   12.86    0.72
  -2   2   3   12.76    0.73
   1  -2  -3    5.86    0.37
   1  -2  -3    5.61    0.37
   1  -2  -3    6.55    0.39
   1  -2  -3    6.21    0.37
  -1   2   3    6.08    0.37
  -1   2   3    6.11    0.37
  -1   2   3    6.32    0.37
  -1   2   3    5.82    0.38
  -1   2   3    5.31    0.38
   0  -2  -3   13.45    0.79
   0  -2  -3   13.37    0.79
   0  -2  -3   13.38    0.79
   0   2   3   12.20    0.79
  -1  -2  -3   13.21    0.79
   1   2   3   13.01    0.79
   2   2   3  342.26   19.58
   2   2   3  316.51   19.58
   3   2   3   38.69    2.14
   3   2   3   31.67    2.15
   3   2   3   36.75    2.14
  -4  -2  -3   48.40    3.03
  -4  -2  -3   50.16    3.02
   4   2   3   54.11    3.03
   4   2   3   49.80    3.03
  -5  -2  -3    3.73    0.30
  -5  -2  -3    3.69    0.29
   5   2   3    4.56    0.31
   5   2   3    3.93    0.35
   5   2   3    4.31    0.29
  -6  -2  -3    2.92    0.37
  -6  -2  -3    3.85    0.32
   6   2   3    3.93    0.31
   6   2   3    3.69    0.25
   6   2   3    4.10    0.33
   4  -3  -3    4.04    0.29
  -4   3   3    4.63    0.38
   3  -3  -3    1.76    0.18
   2  -3  -3    0.41    0.15
   1  -3  -3    8.20    0.55
   1  -3  -3    9.06    0.57
   1  -3  -3    8.69    0.55
   1  -3  -3    8.28    0.56
  -1   3   3    9.77    0.55
  -1   3   3   10.37    0.56
  -1   3   3    9.27    0.56
   0  -3  -3  124.89    7.32
   0  -3  -3  121.31    7.32
   0  -3  -3  123.12    7.33
   0  -3  -3  125.58    7.32
   0   3   3  126.09    7.32
   0   3   3  117.29    7.32
  -1  -3  -3   73.45    4.91
  -1  -3  -3   92.39    4.91
  -1  -3  -3   74.47    4.91
   1   3   3   82.10    4.91
   1   3   3   89.64    4.92
  -2  -3  -3   10.70    0.65
  -2  -3  -3    9.43    0.64
   2   3   3   10.69    0.65
   2   3   3   11.24    0.64
  -3  -3  -3   52.34    3.04
  -3  -3  -3   51.28    3.03
   3   3   3   51.70    3.04
   3   3   3   48.90    3.03
   3   3   3   49.50    3.03
  -4  -3  -3   62.34    3.68
  -4  -3  -3   57.04    3.66
   4   3   3   58.72    3.66
   4   3   3   63.72    3.66
   4   3   3   64.65    3.67
  -5  -3  -3   10.18    0.63
  -5  -3  -3    9.99    0.62
   5   3   3   10.29    0.64
  -6  -3  -3    4.34    0.36
   6   3   3    5.43    0.34
   6   3   3    4.87    0.32
   6   3   3    4.82    0.36
   3  -4  -3    3.22    0.25
   3  -4  -3    3.44    0.24
   2  -4  -3    1.34    0.18
   2  -4  -3    1.59    0.15
   1  -4  -3   28.54    1.72
   1  -4  -3   29.40    1.71
  -1   4   3   29.88    1.72
  -1   4   3   26.59    1.75
  -1   4   3   28.48    1.72
   0  -4  -3   51.62    3.10
   0  -4  -3   53.47    3.11
   0  -4  -3   51.69    3.11
   0  -4  -3   53.41    3.12
   0  -4  -3   53.00    3.10
   0   4   3   50.21    3.11
   0   4   3   49.97    3.13
   0   4   3   52.88    3.11
  -1  -4  -3    1.42    0.13
  -1  -4  -3    1.39    0.12
  -1  -4  -3    1.81    0.18
  -1  -4  -3    1.83    0.13
   1   4   3    1.09    0.17
   1   4   3    1.28    0.14
   1   4   3    1.87    0.17
  -2  -4  -3  146.65    8.62
  -2  -4  -3  129.11    8.62
  -2  -4  -3  156.11    8.61
   2   4   3  149.55    8.61
   2   4   3  141.09    8.62
   2   4   3  136.92    8.62
   2   4   3  153.68    8.62
  -3  -4  -3   32.74    1.91
  -3  -4  -3   32.36    1.93
  -3  -4  -3   33.52    1.93
   3   4   3   31.15    1.92
   3   4   3   30.46    1.92
   3   4   3   32.20    1.92
   3   4   3   31.36    1.93
  -4  -4  -3    6.83    0.46
  -4  -4  -3    7.40    0.52
  -4  -4  -3    7.49    0.44
   4   4   3    5.80    0.51
   4   4   3    7.44    0.47
   4   4   3    7.41    0.46
  -5  -4  -3   10.09    0.61
  -5  -4  -3   10.05    0.62
   5   4   3    9.77    0.63
  -6  -4  -3    7.30    0.48
   6   4   3    8.46    0.49
   6   4   3    7.03    0.50
   2  -5  -3    7.71    0.48
  -2   5   3    7.62    0.57
   1  -5  -3    2.08    0.18
  -1   5   3    2.20    0.33
   0  -5  -3    6.72    0.42
   0   5   3    6.88    0.46
   0   5   3    6.36    0.46
  -1  -5  -3   10.94    0.68
  -1  -5  -3   11.97    0.72
  -1  -5  -3   11.18    0.68
  -1  -5  -3   10.50    0.69
  -1  -5  -3   12.72    0.72
  -1  -5  -3   11.31    0.68
   1   5   3    9.78    0.76
   1   5   3   11.41    0.69
   1   5   3   11.28    0.70
   1   5   3   10.50    0.70
  -2  -5  -3   24.62    1.47
  -2  -5  -3   25.27    1.47
  -2  -5  -3   25.99    1.48
  -2  -5  -3   24.66    1.47
  -2  -5  -3   21.83    1.51
   2   5   3   24.38    1.47
   2   5   3   24.68    1.48
   2   5   3   24.10    1.48
  -3  -5  -3   21.24    1.22
  -3  -5  -3   20.84    1.22
  -3  -5  -3   18.65    1.26
  -3  -5  -3   21.01    1.24
   3   5   3   19.73    1.23
   3   5   3   19.88    1.24
   3   5   3   20.30    1.24
  -4  -5  -3   75.08    4.92
  -4  -5  -3   80.85    4.89
  -4  -5  -3   83.60    4.89
   4   5   3   84.45    4.90
   4   5   3   84.78    4.89
   4   5   3   83.49    4.90
  -5  -5  -3    8.61    0.51
  -5  -5  -3    8.29    0.51
   5   5   3    8.05    0.53
   5   5   3    7.73    0.55
   1  -6  -3    2.42    0.18
  -1   6   3    2.35    0.29
   0  -6  -3   14.30    0.87
  -1  -6  -3   18.37    1.09
  -1  -6  -3   19.18    1.09
  -1  -6  -3   18.43    1.10
  -1  -6  -3   18.96    1.10
   1   6   3   15.50    1.15
   1   6   3   18.10    1.10
  -2  -6  -3    7.76    0.48
  -2  -6  -3    7.88    0.49
  -2  -6  -3    7.89    0.48
  -2  -6  -3    7.71    0.48
   2   6   3    7.86    0.48
   2   6   3    7.30    0.51
  -3  -6  -3    8.64    0.53
  -3  -6  -3    8.79    0.53
  -3  -6  -3    8.71    0.53
  -3  -6  -3    8.54    0.53
   3   6   3    8.45    0.53
   3   6   3    8.39    0.55
   3   6   3    8.00    0.62
  -4  -6  -3    8.58    0.52
  -4  -6  -3    9.20    0.53
   4   6   3    7.66    0.58
   4   6   3    8.66    0.54
  -5  -6  -3    0.24    0.11
  -5  -6  -3    0.27    0.07
   5   6   3    0.26    0.13
   0  -7  -3   20.59    1.22
   0   7   3   19.91    1.24
  -1  -7  -3    3.01    0.21
   1   7   3    3.19    0.29
  -2  -7  -3   23.08    1.34
  -2  -7  -3   22.88    1.35
   2   7   3   21.34    1.38
  -3  -7  -3    1.23    0.18
  -3  -7  -3    1.42    0.12
  -3  -7  -3    1.60    0.13
   3   7   3    1.38    0.23
  -4  -7  -3    1.47    0.12
  -4  -7  -3    1.38    0.12
   4   7   3    1.37    0.21
   3   7  -4    1.32    0.22
  -3  -7   4    1.34    0.15
   2   7  -4    0.21    0.20
  -2  -7   4    0.09    0.06
  -1  -7   4    8.28    0.51
   4   6  -4    4.98    0.38
  -4  -6   4    5.33    0.32
  -4  -6   4    5.20    0.33
   3   6  -4   14.08    0.96
  -3  -6   4   16.18    0.93
  -3  -6   4   15.60    0.93
  -3  -6   4   15.30    0.92
   2   6  -4    0.11    0.17
  -2  -6   4    0.49    0.07
  -2  -6   4    0.34    0.06
   1   6  -4    3.05    0.34
  -1  -6   4    3.80    0.24
   0   6  -4    1.20    0.27
   0   6  -4    1.40    0.19
   0  -6   4    1.22    0.12
   0  -6   4    1.27    0.14
  -1   6  -4    1.13    0.21
   1  -6   4    0.96    0.11
   5   5  -4    0.18    0.13
   5   5  -4   -0.14    0.14
  -5  -5   4    0.06    0.06
  -5  -5   4    0.14    0.07
  -5  -5   4    0.07    0.05
  -4  -5   4    4.83    0.31
  -4  -5   4    4.74    0.31
  -4  -5   4    4.74    0.30
   3   5  -4   97.01    6.24
  -3  -5   4  106.43    6.22
  -3  -5   4  103.60    6.22
  -3  -5   4  111.01    6.24
   2   5  -4   -0.04    0.15
   2   5  -4    0.08    0.11
  -2  -5   4    0.04    0.06
  -2  -5   4    0.03    0.06
  -2  -5   4   -0.25    0.16
   1   5  -4   18.60    1.10
   1   5  -4   17.03    1.07
  -1  -5   4   17.23    1.08
  -1  -5   4   16.97    1.05
  -1  -5   4   16.83    1.05
   0   5  -4    5.22    0.39
   0   5  -4    4.49    0.39
   0   5  -4    3.69    0.38
   0  -5   4    5.00    0.31
   0  -5   4    3.94    0.50
   0  -5   4    4.76    0.30
  -1   5  -4    0.70    0.17
  -1   5  -4    0.78    0.21
   1  -5   4    0.81    0.12
  -2   5  -4    0.36    0.18
   5   4  -4    1.92    0.26
   5   4  -4    1.84    0.23
   5   4  -4    2.15    0.20
  -5  -4   4    1.95    0.15
  -5  -4   4    1.95    0.18
  -5  -4   4    1.96    0.16
   4   4  -4   50.91    3.25
   4   4  -4   53.56    3.26
  -4  -4   4   55.40    3.24
  -4  -4   4   57.25    3.24
   3   4  -4    2.12    0.27
   3   4  -4    2.23    0.20
   3   4  -4    2.11    0.24
   3   4  -4    2.17    0.28
  -3  -4   4    1.90    0.21
  -3  -4   4    2.24    0.18
  -3  -4   4    1.92    0.21
  -3  -4   4    2.12    0.18
  -3  -4   4    1.66    0.28
  -3  -4   4    2.13    0.16
   2   4  -4    6.40    0.42
   2   4  -4    6.11    0.43
   2   4  -4    5.91    0.47
  -2  -4   4    6.74    0.42
  -2  -4   4    6.64    0.39
  -2  -4   4    6.17    0.39
  -2  -4   4    6.38    0.39
  -2  -4   4    5.68    0.46
   1   4  -4   11.36    0.72
   1   4  -4   10.71    0.76
  -1  -4   4   12.43    0.73
  -1  -4   4   11.38    0.70
  -1  -4   4   11.21    0.70
  -1  -4   4   12.48    0.71
  -1  -4   4   11.56    0.71
   0   4  -4    1.65    0.23
   0   4  -4    1.85    0.26
   0   4  -4    1.46    0.14
   0   4  -4    1.59    0.16
   0  -4   4    1.52    0.13
   0  -4   4    1.85    0.19
   0  -4   4    1.46    0.15
  -1   4  -4    0.21    0.13
  -1   4  -4    0.17    0.07
  -1   4  -4    0.16    0.07
  -1   4  -4    0.04    0.10
  -1   4  -4    0.26    0.19
   1  -4   4    0.30    0.07
   1  -4   4    0.04    0.15
  -2   4  -4    3.19    0.22
  -2   4  -4    3.41    0.32
   2  -4   4    2.54    0.23
   2  -4   4    2.32    0.46
   2  -4   4    2.97    0.22
  -3   4  -4    6.56    0.50
  -3   4  -4    6.60    0.42
   3  -4   4    7.12    0.43
   3  -4   4    6.79    0.43
   6   3  -4    1.21    0.24
   6   3  -4    1.63    0.16
  -6  -3   4    1.19    0.24
  -6  -3   4    1.39    0.18
  -6  -3   4    1.63    0.14
   5   3  -4   18.48    1.34
   5   3  -4   24.13    1.34
  -5  -3   4   22.11    1.31
  -5  -3   4   21.82    1.33
  -5  -3   4   22.63    1.31
   4   3  -4    5.97    0.49
   4   3  -4    6.82    0.47
   4   3  -4    7.71    0.48
  -4  -3   4    7.24    0.48
  -4  -3   4    7.04    0.43
  -4  -3   4    6.73    0.44
  -4  -3   4    7.07    0.43
   3   3  -4    4.01    0.34
   3   3  -4    4.08    0.27
   3   3  -4    3.82    0.32
  -3  -3   4    3.91    0.28
  -3  -3   4    3.69    0.28
  -3  -3   4    3.94    0.28
  -3  -3   4    4.06    0.25
  -3  -3   4    4.00    0.25
   2   3  -4    5.88    0.37
   2   3  -4    5.39    0.43
   2   3  -4    5.47    0.36
  -2  -3   4    5.75    0.36
  -2  -3   4    5.78    0.35
  -2  -3   4    5.79    0.37
  -2  -3   4    4.99    0.36
  -2  -3   4    5.93    0.35
   1   3  -4   94.87    5.67
  -1  -3   4   95.78    5.68
  -1  -3   4   92.86    5.66
  -1  -3   4   96.09    5.67
  -1  -3   4   96.49    5.67
   0   3  -4   14.62    0.94
   0   3  -4   15.58    0.94
   0   3  -4   16.40    0.95
   0   3  -4   15.28    0.95
   0   3  -4   15.24    0.96
   0  -3   4   15.33    0.94
   0  -3   4   16.94    0.95
  -1   3  -4    4.54    0.29
  -1   3  -4    4.38    0.31
  -1   3  -4    4.23    0.29
  -1   3  -4    4.51    0.27
  -1   3  -4    4.89    0.27
   1  -3   4    4.04    0.28
   1  -3   4    3.77    0.32
   1  -3   4    3.78    0.27
   1  -3   4    3.81    0.31
   1  -3   4    3.86    0.30
  -2   3  -4    6.83    0.46
  -2   3  -4    7.54    0.51
  -2   3  -4    6.81    0.43
   2  -3   4    5.76    0.47
   2  -3   4    7.04    0.45
   2  -3   4    6.95    0.51
   2  -3   4    7.84    0.44
  -3   3  -4    8.51    0.54
  -3   3  -4    8.30    0.52
  -3   3  -4    7.58    0.52
   3  -3   4    8.33    0.52
   3  -3   4    8.66    0.53
   3  -3   4    9.71    0.70
  -4   3  -4    1.55    0.27
  -4   3  -4    1.16    0.13
  -4   3  -4    1.17    0.13
   4  -3   4    1.02    0.13
   6   2  -4   22.33    1.55
  -6  -2   4   29.23    1.56
   5   2  -4    1.53    0.25
   5   2  -4    1.35    0.25
  -5  -2   4    1.32    0.20
  -5  -2   4    1.28    0.15
  -5  -2   4    1.26    0.12
   4   2  -4    1.75    0.24
   4   2  -4    1.78    0.22
  -4  -2   4    1.70    0.13
  -4  -2   4    1.63    0.23
  -4  -2   4    1.69    0.16
  -4  -2   4    1.27    0.21
   3   2  -4    0.73    0.16
   3   2  -4    0.49    0.12
   3   2  -4    0.72    0.15
  -3  -2   4    0.50    0.06
  -3  -2   4    0.39    0.07
  -3  -2   4    0.53    0.09
  -3  -2   4    0.42    0.07
   2   2  -4    0.86    0.09
   2   2  -4    1.07    0.12
   2   2  -4    1.15    0.17
  -2  -2   4    1.05    0.11
   1   2  -4  699.94   42.03
   1   2  -4  704.24   42.01
   1   2  -4  728.86   42.04
  -1  -2   4  744.14   42.03
  -1  -2   4  701.67   42.01
  -1  -2   4  680.66   42.01
  -1  -2   4  689.28   42.00
  -1  -2   4  705.93   42.01
   0   2  -4    5.29    0.35
   0   2  -4    6.30    0.34
   0   2  -4    5.57    0.36
   0   2  -4    5.36    0.35
   0  -2   4    5.36    0.35
   0  -2   4    5.28    0.34
  -1   2  -4  483.41   29.29
  -1   2  -4  502.46   29.31
  -2   2  -4    2.07    0.19
  -2   2  -4    2.19    0.18
  -2   2  -4    2.43    0.16
   2  -2   4    2.05    0.18
   2  -2   4    2.29    0.21
   2  -2   4    2.00    0.18
   2  -2   4    2.30    0.17
  -3   2  -4    8.68    0.59
  -3   2  -4    7.97    0.53
  -3   2  -4    8.01    0.53
  -3   2  -4    7.45    0.56
   3  -2   4    9.13    0.54
   3  -2   4    8.62    0.53
   3  -2   4    9.94    0.68
   5   1  -4    0.98    0.17
   5   1  -4    0.83    0.16
  -5  -1   4    1.21    0.15
  -5  -1   4    0.88    0.12
  -5  -1   4    1.49    0.24
   4   1  -4    8.68    0.59
   4   1  -4    7.52    0.58
   4   1  -4    8.88    0.57
  -4  -1   4    9.06    0.56
  -4  -1   4    9.06    0.54
  -4  -1   4    9.45    0.58
  -4  -1   4    8.94    0.54
   3   1  -4   48.94    3.08
   3   1  -4   51.26    3.08
  -3  -1   4   51.73    3.06
  -3  -1   4   51.11    3.06
  -3  -1   4   54.11    3.07
  -2  -1   4   11.09    0.67
  -2  -1   4   11.22    0.68
   1   1  -4   10.99    0.66
   1   1  -4   11.44    0.66
   1   1  -4   10.95    0.66
  -1  -1   4   10.84    0.66
  -1  -1   4   10.99    0.66
  -1  -1   4   10.51    0.66
   0   1  -4    1.35    0.11
   0   1  -4    1.60    0.10
   0   1  -4    1.54    0.10
   0  -1   4    1.37    0.12
  -1   1  -4  837.40   48.04
  -1   1  -4  771.90   48.04
  -1   1  -4  814.36   48.01
  -2   1  -4   15.56    0.95
  -2   1  -4   16.54    0.95
   2  -1   4   14.44    0.96
   2  -1   4   16.42    0.97
  -3   1  -4   35.09    2.13
  -3   1  -4   34.81    2.14
  -3   1  -4   34.66    2.13
   3  -1   4   34.37    2.15
   3  -1   4   36.17    2.14
   3  -1   4   38.87    2.16
  -4   1  -4   15.69    1.04
   4  -1   4   16.48    1.04
   4  -1   4   18.90    1.12
   4  -1   4   17.82    1.05
  -5   1  -4    0.86    0.14
  -5   1  -4    0.91    0.14
   5  -1   4    1.28    0.13
   5  -1   4    1.17    0.14
   5   0  -4    2.85    0.40
   5   0  -4    3.81    0.28
   5   0  -4    4.08    0.29
  -5   0   4    3.65    0.32
  -5   0   4    3.66    0.27
   4   0  -4   31.61    1.80
   4   0  -4   29.53    1.80
   4   0  -4   30.50    1.81
  -4   0   4   27.35    1.80
  -4   0   4   29.82    1.78
  -4   0   4   29.96    1.80
  -4   0   4   29.59    1.78
   3   0  -4    6.56    0.43
   3   0  -4    5.17    0.43
   3   0  -4    5.69    0.41
  -3   0   4    6.15    0.38
  -3   0   4    6.51    0.38
  -3   0   4    6.44    0.43
  -3   0   4    6.42    0.40
  -2   0   4   52.54    2.78
  -2   0   4   45.26    2.78
  -2   0   4   42.04    2.77
   1   0  -4   28.36    1.61
   1   0  -4   25.28    1.62
  -1   0   4   26.84    1.61
  -1   0   4   27.67    1.61
   0   0  -4   96.79    6.75
   0   0  -4  123.96    6.75
   0   0   4  120.05    6.75
   1   0   4   11.16    0.68
   2   0   4    8.63    0.55
   2   0   4    9.50    0.56
  -3   0  -4  126.35    7.57
   3   0   4  137.11    7.58
   3   0   4  119.17    7.56
   3   0   4  133.85    7.57
   3   0   4  118.89    7.57
  -4   0  -4    9.63    0.59
  -4   0  -4    8.91    0.62
   4   0   4    9.80    0.60
   4   0   4    9.86    0.61
   4   0   4    9.49    0.63
   4   0   4    9.47    0.60
  -5   0  -4   10.62    0.77
  -5   0  -4   11.94    0.74
  -5   0  -4   12.62    0.73
   5   0   4   11.17    0.72
   5   0   4   10.86    0.72
   5   0   4   13.24    0.76
   5  -1  -4   12.18    0.67
   5  -1  -4    9.14    0.67
  -5   1   4   12.07    0.66
  -5   1   4    9.38    0.82
   4  -1  -4    1.86    0.22
   4  -1  -4    2.25    0.20
  -4   1   4    2.41    0.21
   3  -1  -4    9.19    0.61
   3  -1  -4    9.50    0.64
  -3   1   4    9.87    0.60
  -3   1   4    9.82    0.62
  -3   1   4    9.84    0.62
  -3   1   4   10.93    0.66
  -3   1   4    9.15    0.61
   2  -1  -4    6.34    0.39
  -2   1   4    5.64    0.39
  -2   1   4    6.11    0.41
  -2   1   4    6.11    0.37
   1  -1  -4   37.48    2.19
   1  -1  -4   35.31    2.19
   1  -1  -4   39.16    2.19
  -1   1   4   35.34    2.19
  -1   1   4   35.62    2.18
   0  -1  -4   56.27    3.25
   0  -1  -4   50.36    3.25
   0   1   4   57.16    3.25
   1   1   4  158.83    9.45
   2   1   4   77.49    4.49
   2   1   4   73.29    4.49
   3   1   4   10.00    0.63
   3   1   4    9.94    0.64
   3   1   4   10.62    0.63
  -4  -1  -4    5.46    0.37
   4   1   4    4.91    0.37
   4   1   4    5.72    0.40
   4   1   4    5.71    0.36
   4   1   4    5.37    0.36
  -5  -1  -4    7.82    0.49
  -5  -1  -4    7.61    0.51
   5   1   4    7.38    0.50
   5   1   4    7.64    0.54
  -6  -1  -4   18.98    1.22
  -6  -1  -4   21.78    1.21
   6   1   4   19.82    1.20
   6   1   4   19.45    1.26
   4  -2  -4    1.29    0.17
   4  -2  -4    0.95    0.18
  -4   2   4    1.22    0.14
  -4   2   4    1.48    0.21
   3  -2  -4   10.45    0.70
   3  -2  -4   10.12    0.71
  -3   2   4   12.46    0.72
  -3   2   4   11.42    0.69
  -3   2   4   11.52    0.70
   2  -2  -4   25.70    1.74
   2  -2  -4   29.11    1.75
  -2   2   4   31.86    1.74
  -2   2   4   31.93    1.73
  -2   2   4   26.35    1.74
   1  -2  -4    9.26    0.58
   1  -2  -4    9.49    0.58
   1  -2  -4    9.96    0.60
  -1   2   4   10.37    0.58
  -1   2   4    8.68    0.59
  -1   2   4    9.85    0.58
   0  -2  -4   90.60    5.30
   0  -2  -4   91.35    5.30
   0  -2  -4   86.41    5.30
   0   2   4   87.81    5.30
  -1  -2  -4   30.45    1.90
   1   2   4   33.33    1.90
   2   2   4   68.42    4.02
   2   2   4   66.23    4.01
   3   2   4   52.06    3.41
   3   2   4   61.49    3.39
   3   2   4   56.45    3.38
   4   2   4    1.32    0.21
   4   2   4    1.20    0.19
   4   2   4    1.52    0.16
  -5  -2  -4   77.44    4.80
  -5  -2  -4   76.83    4.80
  -5  -2  -4   74.57    4.85
   5   2   4   85.96    4.83
   5   2   4   88.18    4.82
  -6  -2  -4    5.75    0.42
   6   2   4    6.77    0.43
   6   2   4    5.69    0.38
   6   2   4    6.26    0.42
   4  -3  -4    2.97    0.22
   3  -3  -4    1.79    0.18
   3  -3  -4    1.60    0.17
   2  -3  -4   17.87    1.06
   2  -3  -4   17.48    1.07
   2  -3  -4   17.23    1.09
  -2   3   4   18.25    1.07
  -2   3   4   16.41    1.06
   1  -3  -4   45.47    2.87
   1  -3  -4   43.85    2.87
   1  -3  -4   47.44    2.89
   1  -3  -4   44.13    2.88
  -1   3   4   51.20    2.88
  -1   3   4   49.95    2.88
  -1   3   4   55.41    2.88
   0  -3  -4   24.26    1.46
   0  -3  -4   23.15    1.45
   0   3   4   26.67    1.46
   0   3   4   23.66    1.46
   0   3   4   23.40    1.47
  -1  -3  -4    2.24    0.15
  -1  -3  -4    2.32    0.17
  -1  -3  -4    2.13    0.15
   1   3   4    2.15    0.18
   1   3   4    1.89    0.16
  -2  -3  -4   12.42    0.68
  -2  -3  -4   11.34    0.69
   2   3   4   11.56    0.68
   2   3   4    9.28    0.70
   2   3   4   10.76    0.69
  -3  -3  -4    9.63    0.60
   3   3   4    9.61    0.59
   3   3   4    9.50    0.63
   3   3   4    9.38    0.59
   3   3   4    9.10    0.58
  -4  -3  -4   15.46    1.00
  -4  -3  -4   15.28    1.00
  -4  -3  -4   17.52    1.03
   4   3   4   17.62    1.01
   4   3   4   15.84    1.00
   4   3   4   16.80    1.00
   4   3   4   16.10    1.03
  -5  -3  -4   13.60    0.81
  -5  -3  -4   13.38    0.82
   5   3   4   12.34    0.85
   5   3   4   13.61    0.82
   6   3   4    3.86    0.31
   6   3   4    3.96    0.29
   6   3   4    3.75    0.29
   3  -4  -4   10.28    0.61
   3  -4  -4    9.46    0.61
  -3   4   4    9.64    0.67
   2  -4  -4    1.81    0.16
   2  -4  -4    1.37    0.19
   1  -4  -4    1.72    0.15
   1  -4  -4    1.70    0.15
  -1   4   4    1.58    0.20
  -1   4   4    2.15    0.29
  -1   4   4    1.81    0.20
   0  -4  -4   30.90    1.91
   0  -4  -4   31.58    1.91
   0  -4  -4   30.40    1.92
   0  -4  -4   31.63    1.92
   0  -4  -4   32.86    1.93
   0   4   4   31.35    1.94
   0   4   4   34.77    1.93
   0   4   4   32.40    1.92
   0   4   4   31.53    1.92
  -1  -4  -4    1.82    0.18
  -1  -4  -4    1.52    0.13
  -1  -4  -4    1.34    0.12
   1   4   4    1.25    0.17
   1   4   4    1.52    0.14
   1   4   4    1.48    0.17
   1   4   4    1.89    0.28
  -2  -4  -4    5.13    0.35
  -2  -4  -4    5.71    0.33
  -2  -4  -4    4.21    0.35
  -2  -4  -4    5.12    0.32
   2   4   4    5.85    0.43
   2   4   4    5.02    0.35
   2   4   4    5.16    0.35
   2   4   4    4.89    0.33
   2   4   4    4.92    0.34
  -3  -4  -4   53.02    3.32
  -3  -4  -4   58.59    3.32
  -3  -4  -4   57.30    3.31
   3   4   4   54.90    3.32
   3   4   4   57.05    3.31
   3   4   4   55.78    3.32
   3   4   4   51.45    3.34
  -4  -4  -4   11.70    0.76
  -4  -4  -4   11.10    0.72
  -4  -4  -4   12.14    0.78
   4   4   4   12.45    0.74
   4   4   4   12.17    0.74
   4   4   4   11.46    0.73
   4   4   4   11.99    0.78
  -5  -4  -4    2.12    0.22
  -5  -4  -4    2.24    0.19
   5   4   4    2.48    0.21
   6   4   4    4.59    0.33
   6   4   4    4.19    0.32
   2  -5  -4    5.67    0.36
  -2   5   4    5.47    0.47
   1  -5  -4    5.33    0.35
  -1   5   4    5.47    0.46
   0  -5  -4    0.26    0.07
   0  -5  -4    0.34    0.10
   0   5   4    0.28    0.13
   0   5   4    0.47    0.13
  -1  -5  -4    7.02    0.46
  -1  -5  -4    7.10    0.45
  -1  -5  -4    7.29    0.47
  -1  -5  -4    6.98    0.46
  -1  -5  -4    6.94    0.51
  -1  -5  -4    7.93    0.50
   1   5   4    7.46    0.48
   1   5   4    7.54    0.55
   1   5   4    7.07    0.48
   1   5   4    7.31    0.46
  -2  -5  -4   76.82    4.47
  -2  -5  -4   73.98    4.50
  -2  -5  -4   75.43    4.47
  -2  -5  -4   79.96    4.48
  -2  -5  -4   74.87    4.48
   2   5   4   77.08    4.48
   2   5   4   69.29    4.51
   2   5   4   74.18    4.47
   2   5   4   73.47    4.48
  -3  -5  -4   38.41    2.20
  -3  -5  -4   36.27    2.23
  -3  -5  -4   38.53    2.21
  -3  -5  -4   37.93    2.20
   3   5   4   37.50    2.22
   3   5   4   37.19    2.21
   3   5   4   37.02    2.22
   3   5   4   36.49    2.21
   3   5   4   31.69    2.25
  -4  -5  -4    7.67    0.46
  -4  -5  -4    7.31    0.46
  -4  -5  -4    7.18    0.62
  -4  -5  -4    6.91    0.54
   4   5   4    6.21    0.54
   4   5   4    7.70    0.49
   4   5   4    7.64    0.46
   4   5   4    7.88    0.48
  -5  -5  -4    3.35    0.23
  -5  -5  -4    3.39    0.24
   5   5   4    3.56    0.27
   5   5   4    2.86    0.30
   1  -6  -4    1.24    0.12
   0  -6  -4    0.87    0.12
   0  -6  -4    0.88    0.12
  -1  -6  -4   58.24    3.30
  -1  -6  -4   57.13    3.30
  -1  -6  -4   54.60    3.31
   1   6   4   54.68    3.32
   1   6   4   55.49    3.31
   1   6   4   52.21    3.34
  -2  -6  -4    7.49    0.46
  -2  -6  -4    7.45    0.45
  -2  -6  -4    7.33    0.46
   2   6   4    7.41    0.46
   2   6   4    7.34    0.49
   2   6   4    6.47    0.54
  -3  -6  -4    1.48    0.15
  -3  -6  -4    1.68    0.14
  -3  -6  -4    1.65    0.15
   3   6   4    1.60    0.14
   3   6   4    1.36    0.26
   3   6   4    1.50    0.19
  -4  -6  -4    3.51    0.26
  -4  -6  -4    3.19    0.23
  -4  -6  -4    3.46    0.25
   4   6   4    2.98    0.25
  -5  -6  -4    1.11    0.16
  -5  -6  -4    1.13    0.13
   5   6   4    0.85    0.19
   0  -7  -4   23.16    1.43
   0   7   4   24.48    1.45
  -1  -7  -4   24.05    1.35
   1   7   4   20.86    1.37
  -2  -7  -4    8.09    0.49
  -2  -7  -4    8.19    0.48
  -2  -7  -4    8.03    0.48
   2   7   4    7.12    0.54
  -3  -7  -4    8.91    0.53
  -3  -7  -4    8.60    0.54
  -3  -7  -4    8.91    0.56
  -4  -7  -4    4.07    0.27
  -4  -7  -4    4.23    0.27
   3   7  -5    2.61    0.31
  -3  -7   5    1.99    0.20
   2   7  -5    1.52    0.27
  -2  -7   5    1.51    0.14
  -1  -7   5   20.40    1.23
   4   6  -5   10.24    0.68
  -4  -6   5   10.32    0.62
   3   6  -5   14.23    1.06
   3   6  -5   17.49    1.06
  -3  -6   5   17.50    1.01
  -3  -6   5   18.38    1.02
   2   6  -5   77.22    5.19
  -2  -6   5   96.29    5.17
   1   6  -5    5.36    0.45
   1   6  -5    6.29    0.48
  -1  -6   5    6.23    0.38
   0   6  -5    0.31    0.16
   0  -6   5    0.24    0.07
   0  -6   5    0.46    0.09
   1  -6   5    5.66    0.36
   5   5  -5    0.14    0.15
  -5  -5   5    0.06    0.07
  -5  -5   5    0.04    0.05
  -5  -5   5    0.12    0.09
   4   5  -5    0.82    0.20
   4   5  -5    0.63    0.16
  -4  -5   5    0.99    0.10
   3   5  -5    0.26    0.18
   3   5  -5    0.08    0.20
  -3  -5   5    0.29    0.07
  -3  -5   5    0.23    0.09
  -3  -5   5    0.18    0.07
   2   5  -5   37.06    2.32
  -2  -5   5   40.22    2.30
  -2  -5   5   39.22    2.29
  -2  -5   5   36.53    2.32
  -2  -5   5   38.68    2.29
   1   5  -5   24.71    1.70
   1   5  -5   29.70    1.70
  -1  -5   5   28.45    1.70
  -1  -5   5   28.54    1.67
   0   5  -5   27.89    1.69
   0   5  -5   26.10    1.69
   0  -5   5   29.21    1.71
   0  -5   5   27.25    1.66
  -1   5  -5   45.49    2.75
  -1   5  -5   41.91    2.71
   1  -5   5   48.05    2.70
  -2   5  -5    0.03    0.25
  -2   5  -5    0.08    0.20
   2  -5   5    0.09    0.06
   5   4  -5    0.03    0.11
   5   4  -5    0.08    0.14
   5   4  -5    0.07    0.14
  -5  -4   5    0.13    0.09
  -5  -4   5    0.03    0.06
  -5  -4   5   -0.02    0.05
   4   4  -5   41.96    2.51
   4   4  -5   39.56    2.51
  -4  -4   5   42.26    2.49
  -4  -4   5   41.90    2.48
  -4  -4   5   42.44    2.48
   3   4  -5    1.46    0.27
   3   4  -5    1.38    0.27
   3   4  -5    1.80    0.23
  -3  -4   5    2.06    0.15
  -3  -4   5    1.96    0.15
  -3  -4   5    1.32    0.29
  -3  -4   5    1.92    0.16
  -3  -4   5    1.79    0.20
  -3  -4   5    1.80    0.14
   2   4  -5    6.03    0.42
  -2  -4   5    6.56    0.44
  -2  -4   5    6.74    0.40
  -2  -4   5    6.55    0.40
  -2  -4   5    6.79    0.41
   1   4  -5    7.19    0.48
  -1  -4   5    7.39    0.44
  -1  -4   5    7.20    0.44
   0   4  -5   29.84    1.76
   0   4  -5   28.09    1.74
   0   4  -5   28.00    1.76
   0   4  -5   26.03    1.77
   0   4  -5   31.23    1.74
   0  -4   5   31.16    1.77
   0  -4   5   29.45    1.74
  -1   4  -5   42.15    2.54
  -1   4  -5   42.59    2.57
  -1   4  -5   45.33    2.55
  -1   4  -5   40.44    2.58
  -1   4  -5   43.72    2.54
   1  -4   5   44.61    2.55
   1  -4   5   39.64    2.56
   1  -4   5   42.72    2.57
  -2   4  -5   18.59    1.09
  -2   4  -5   16.91    1.14
  -2   4  -5   18.27    1.09
   2  -4   5   17.23    1.13
   2  -4   5   17.57    1.10
   2  -4   5   20.09    1.10
  -3   4  -5   10.34    0.69
  -3   4  -5    9.97    0.62
   3  -4   5   10.12    0.64
   3  -4   5   10.80    0.63
   5   3  -5    4.90    0.37
   5   3  -5    4.81    0.35
   5   3  -5    4.26    0.36
  -5  -3   5    4.67    0.30
  -5  -3   5    4.56    0.32
  -5  -3   5    4.99    0.32
   4   3  -5   21.73    1.31
  -4  -3   5   21.40    1.28
  -4  -3   5   21.17    1.28
  -4  -3   5   21.96    1.32
  -4  -3   5   20.49    1.31
   3   3  -5    0.05    0.17
   3   3  -5    0.14    0.11
  -3  -3   5    0.09    0.11
  -3  -3   5   -0.03    0.10
  -3  -3   5    0.00    0.05
  -3  -3   5    0.11    0.08
   2   3  -5   47.74    2.95
   2   3  -5   50.32    2.95
  -2  -3   5   49.48    2.94
  -2  -3   5   50.96    2.95
  -2  -3   5   50.96    2.95
  -2  -3   5   47.21    2.95
  -2  -3   5   49.62    2.94
  -2  -3   5   48.81    2.94
   1   3  -5    1.82    0.14
   1   3  -5    1.18    0.16
   1   3  -5    1.58    0.13
   1   3  -5    1.16    0.21
  -1  -3   5    1.67    0.12
  -1  -3   5    1.75    0.16
  -1  -3   5    1.75    0.12
  -1  -3   5    1.51    0.14
   0   3  -5   18.35    1.17
   0   3  -5   19.63    1.15
   0   3  -5   22.09    1.16
   0   3  -5   18.13    1.16
   0   3  -5   20.37    1.15
   0  -3   5   19.31    1.16
   0  -3   5   16.30    1.17
  -1   3  -5    1.73    0.17
  -1   3  -5    1.59    0.21
  -1   3  -5    2.21    0.14
  -1   3  -5    1.71    0.17
  -1   3  -5    2.14    0.14
  -1   3  -5    1.53    0.28
   1  -3   5    1.75    0.20
   1  -3   5    2.09    0.21
   1  -3   5    1.82    0.15
   1  -3   5    1.86    0.14
   1  -3   5    1.59    0.19
  -2   3  -5   14.23    0.95
  -2   3  -5   14.73    0.89
  -2   3  -5   14.39    0.89
  -2   3  -5   14.54    0.91
   2  -3   5   16.25    0.90
   2  -3   5   14.50    0.90
  -3   3  -5    1.95    0.17
   3  -3   5    1.60    0.27
   3  -3   5    1.93    0.18
   3  -3   5    1.96    0.40
   3  -3   5    2.12    0.17
  -4   3  -5    0.51    0.22
  -4   3  -5    0.42    0.07
  -4   3  -5    0.28    0.09
   4  -3   5    0.60    0.11
   5   2  -5    1.41    0.24
   5   2  -5    1.47    0.20
  -5  -2   5    1.35    0.16
   4   2  -5    1.52    0.23
   4   2  -5    1.98    0.25
   4   2  -5    2.20    0.21
  -4  -2   5    1.56    0.24
  -4  -2   5    1.86    0.16
  -4  -2   5    1.88    0.14
  -4  -2   5    1.98    0.25
  -4  -2   5    1.73    0.20
  -4  -2   5    1.67    0.15
   3   2  -5    9.80    0.62
   3   2  -5    8.68    0.64
  -3  -2   5   10.26    0.62
  -3  -2   5   10.33    0.60
  -3  -2   5    9.93    0.61
  -3  -2   5   10.21    0.60
   2   2  -5   18.83    1.16
   2   2  -5   20.81    1.16
   2   2  -5   17.00    1.18
  -2  -2   5   19.30    1.15
  -2  -2   5   18.45    1.15
  -2  -2   5   19.41    1.16
  -2  -2   5   19.70    1.16
  -2  -2   5   20.17    1.16
   1   2  -5   24.30    1.47
   1   2  -5   23.54    1.46
   1   2  -5   25.42    1.46
   1   2  -5   24.02    1.47
  -1  -2   5   24.84    1.46
  -1  -2   5   24.20    1.46
  -1  -2   5   24.25    1.46
  -1  -2   5   25.83    1.46
  -1  -2   5   23.52    1.47
   0   2  -5    6.41    0.43
   0   2  -5    6.20    0.43
   0   2  -5    7.53    0.42
   0   2  -5    7.67    0.42
   0  -2   5    7.68    0.43
   0  -2   5    6.03    0.42
  -1   2  -5   11.68    0.62
  -1   2  -5   10.51    0.63
  -1   2  -5   10.01    0.62
  -1   2  -5    9.45    0.63
   1  -2   5    9.28    0.63
  -2   2  -5   34.69    2.11
  -2   2  -5   37.61    2.10
  -2   2  -5   36.52    2.11
  -2   2  -5   34.56    2.09
   2  -2   5   37.83    2.10
   2  -2   5   30.50    2.12
   2  -2   5   34.85    2.10
   2  -2   5   34.04    2.10
  -3   2  -5    8.00    0.50
  -3   2  -5    7.35    0.57
  -3   2  -5    7.80    0.49
  -3   2  -5    6.84    0.60
   3  -2   5    8.16    0.50
   3  -2   5    8.05    0.50
   3  -2   5    8.36    0.52
   3  -2   5    8.32    0.58
  -4   2  -5    0.87    0.15
  -4   2  -5    1.36    0.15
  -4   2  -5    1.11    0.18
   4  -2   5    1.16    0.16
   5   1  -5    1.49    0.25
   5   1  -5    1.44    0.19
  -5  -1   5    1.89    0.16
  -5  -1   5    1.21    0.17
   4   1  -5    0.10    0.13
   4   1  -5    0.16    0.14
   4   1  -5    0.09    0.10
   4   1  -5    0.10    0.14
  -4  -1   5   -0.08    0.11
  -4  -1   5   -0.20    0.15
  -4  -1   5    0.13    0.19
  -4  -1   5    0.00    0.07
  -4  -1   5    0.09    0.05
   3   1  -5   12.56    0.75
   3   1  -5   10.78    0.76
   3   1  -5   12.19    0.76
  -3  -1   5   12.37    0.72
  -3  -1   5   12.72    0.74
  -3  -1   5   11.46    0.73
   2   1  -5   25.64    1.72
   2   1  -5   28.18    1.72
  -2  -1   5   28.38    1.70
  -2  -1   5   30.70    1.71
  -2  -1   5   30.00    1.71
  -2  -1   5   27.92    1.70
   1   1  -5    3.18    0.19
   1   1  -5    3.14    0.20
   1   1  -5    3.12    0.19
  -1  -1   5    2.97    0.19
  -1  -1   5    2.86    0.19
  -1  -1   5    3.03    0.19
   0   1  -5  167.19   10.24
   0   1  -5  166.57   10.23
   0   1  -5  171.04   10.24
   0  -1   5  183.86   10.24
  -1   1  -5  162.18    8.72
  -1   1  -5  156.46    8.71
  -1   1  -5  141.30    8.72
   1  -1   5  126.46    8.72
  -2   1  -5   65.77    4.11
  -2   1  -5   68.59    4.12
  -2   1  -5   75.86    4.11
   2  -1   5   68.38    4.11
   2  -1   5   68.84    4.11
   2  -1   5   66.45    4.13
  -3   1  -5   10.14    0.69
  -3   1  -5   12.13    0.68
  -3   1  -5   10.81    0.70
   3  -1   5    9.59    0.73
   3  -1   5   11.17    0.69
   3  -1   5   11.37    0.72
   3  -1   5   11.62    0.70
   3  -1   5   12.13    0.69
  -4   1  -5    6.21    0.43
   4  -1   5    6.01    0.40
   4  -1   5    6.35    0.40
   4  -1   5    6.06    0.48
  -5   1  -5   14.71    1.02
  -5   1  -5   16.09    1.01
  -5   1  -5   16.40    1.02
   5  -1   5   18.10    1.02
   5  -1   5   18.27    1.01
   5   0  -5    1.23    0.18
   5   0  -5    1.34    0.18
   4   0  -5    6.80    0.43
  -4   0   5    6.14    0.45
  -4   0   5    5.87    0.40
  -4   0   5    5.32    0.43
  -4   0   5    7.10    0.41
   3   0  -5   30.11    1.81
   3   0  -5   28.16    1.78
   3   0  -5   28.28    1.79
   3   0  -5   30.80    1.78
  -3   0   5   28.30    1.77
  -3   0   5   31.12    1.76
  -3   0   5   29.84    1.78
   2   0  -5    6.20    0.38
  -2   0   5    5.10    0.35
  -2   0   5    6.23    0.37
   1   0  -5  169.42    9.27
   1   0  -5  135.52    9.27
  -1   0   5  162.99    9.27
   0   0  -5    5.62    0.39
   0   0  -5    7.21    0.39
   0   0   5    6.70    0.39
   1   0   5    0.46    0.06
   2   0   5    2.31    0.19
  -3   0  -5    2.78    0.21
   3   0   5    3.16    0.25
   3   0   5    3.12    0.25
   3   0   5    2.93    0.22
   3   0   5    3.42    0.22
   3   0   5    2.61    0.26
  -4   0  -5    3.16    0.36
  -4   0  -5    2.76    0.30
   4   0   5    3.16    0.24
   4   0   5    4.19    0.27
  -5   0  -5   41.65    2.35
  -5   0  -5   36.36    2.35
   5   0   5   39.29    2.35
   5   0   5   38.93    2.35
   5   0   5   40.06    2.37
   5  -1  -5    3.85    0.29
  -5   1   5    3.86    0.45
   4  -1  -5   33.40    1.86
   4  -1  -5   32.94    1.85
  -4   1   5   28.29    1.84
  -4   1   5   29.17    1.85
  -4   1   5   29.73    1.84
   3  -1  -5    1.10    0.20
   3  -1  -5    1.34    0.24
  -3   1   5    1.14    0.14
  -3   1   5    1.68    0.21
  -3   1   5    1.24    0.13
   2  -1  -5  166.61    9.38
  -2   1   5  156.05    9.35
  -2   1   5  163.11    9.36
  -2   1   5  163.72    9.35
  -2   1   5  136.74    9.35
   1  -1  -5    8.83    0.53
   1  -1  -5    8.64    0.53
  -1   1   5    8.44    0.53
  -1   1   5    8.19    0.53
  -1   1   5    9.80    0.55
   0  -1  -5    7.66    0.46
   0  -1  -5    7.22    0.46
   0   1   5    7.87    0.46
   1   1   5    1.05    0.08
   1   1   5    1.06    0.09
   2   1   5    0.16    0.06
   3   1   5   36.81    2.22
   3   1   5   37.32    2.22
   3   1   5   36.99    2.22
  -4  -1  -5    8.46    0.55
   4   1   5    8.96    0.54
   4   1   5    8.14    0.54
   4   1   5    8.72    0.57
   4  -2  -5    1.37    0.23
   4  -2  -5    1.87    0.20
  -4   2   5    1.45    0.25
   3  -2  -5    9.86    0.62
   3  -2  -5    9.74    0.67
  -3   2   5   10.14    0.60
  -3   2   5   10.19    0.61
  -3   2   5    8.85    0.62
   2  -2  -5   40.82    2.57
   2  -2  -5   44.63    2.60
   2  -2  -5   39.87    2.59
  -2   2   5   41.83    2.58
  -2   2   5   46.34    2.58
  -2   2   5   41.31    2.59
  -2   2   5   47.48    2.57
  -1   2   5    0.68    0.08
  -1   2   5    0.59    0.12
   0  -2  -5   71.90    4.18
   0  -2  -5   66.68    4.18
   0   2   5   67.17    4.19
   0   2   5   65.12    4.19
   0   2   5   80.66    4.19
   1   2   5    3.71    0.26
   1   2   5    3.32    0.22
   2   2   5   19.01    1.19
   2   2   5   20.52    1.21
   3   2   5    2.90    0.23
   3   2   5    2.53    0.21
   4   2   5    1.71    0.18
   4   2   5    1.86    0.22
   4   2   5    1.87    0.18
   4   2   5    1.91    0.22
  -5  -2  -5   47.28    2.90
   5   2   5   46.21    2.91
   5   2   5   52.13    2.92
  -6  -2  -5   10.18    0.66
   6   2   5    9.69    0.62
   6   2   5   10.44    0.64
   4  -3  -5    7.34    0.46
  -4   3   5    7.25    0.55
   3  -3  -5   22.32    1.26
  -3   3   5   20.31    1.25
  -3   3   5   19.66    1.27
   2  -3  -5    9.66    0.59
  -2   3   5    8.96    0.59
  -2   3   5    9.38    0.58
   1  -3  -5    0.21    0.07
   1  -3  -5    0.09    0.06
   1  -3  -5    0.06    0.11
   1  -3  -5    0.11    0.06
   1  -3  -5    0.35    0.22
  -1   3   5    0.12    0.06
   0  -3  -5   11.45    0.69
   0  -3  -5   11.12    0.69
   0  -3  -5   10.39    0.68
   0   3   5   11.83    0.70
   0   3   5   12.38    0.69
   0   3   5   10.72    0.69
  -1  -3  -5   31.92    1.96
  -1  -3  -5   33.93    1.97
  -1  -3  -5   33.34    1.96
   1   3   5   31.09    1.97
   1   3   5   34.23    1.97
  -2  -3  -5    0.20    0.09
   2   3   5    0.09    0.08
   2   3   5   -0.04    0.06
   2   3   5   -0.02    0.05
  -3  -3  -5   13.18    0.84
   3   3   5   14.05    0.84
   3   3   5   13.47    0.83
   3   3   5   14.30    0.87
   3   3   5   12.97    0.82
  -4  -3  -5   67.73    4.34
   4   3   5   73.41    4.33
   4   3   5   70.20    4.32
   4   3   5   77.77    4.32
  -5  -3  -5   56.98    3.63
   5   3   5   60.67    3.64
   5   3   5   61.24    3.64
   5   3   5   64.63    3.66
   6   3   5    7.64    0.51
   6   3   5    8.37    0.53
   3  -4  -5    8.12    0.49
   3  -4  -5    7.49    0.49
  -3   4   5    7.63    0.57
   2  -4  -5   41.16    2.41
   2  -4  -5   38.04    2.42
  -2   4   5   40.93    2.44
  -2   4   5   41.04    2.44
   1  -4  -5    0.74    0.09
   1  -4  -5    0.78    0.11
  -1   4   5    0.89    0.14
  -1   4   5    0.78    0.13
  -1   4   5    1.00    0.21
   0  -4  -5    1.54    0.13
   0  -4  -5    1.73    0.16
   0  -4  -5    1.69    0.13
   0  -4  -5    1.65    0.20
   0  -4  -5    1.37    0.19
   0   4   5    1.49    0.25
   0   4   5    1.31    0.14
  -1  -4  -5   22.34    1.32
  -1  -4  -5   22.04    1.33
  -1  -4  -5   21.10    1.32
   1   4   5   22.45    1.36
   1   4   5   21.77    1.32
   1   4   5   22.15    1.33
   1   4   5   21.73    1.32
  -2  -4  -5    0.44    0.10
  -2  -4  -5    0.31    0.06
  -2  -4  -5    0.52    0.10
   2   4   5    0.42    0.08
   2   4   5    0.34    0.14
   2   4   5    0.24    0.07
   2   4   5    0.21    0.18
   2   4   5    0.32    0.10
  -3  -4  -5   88.81    5.01
  -3  -4  -5   75.47    5.01
  -3  -4  -5   84.52    5.00
   3   4   5   84.35    5.00
   3   4   5   82.46    5.04
   3   4   5   88.38    5.03
   3   4   5   82.32    5.00
   3   4   5   84.99    5.01
  -4  -4  -5   25.88    1.75
  -4  -4  -5   27.79    1.70
  -4  -4  -5   29.42    1.72
   4   4   5   30.53    1.74
   4   4   5   29.93    1.72
   4   4   5   26.38    1.71
   4   4   5   28.75    1.72
  -5  -4  -5    3.32    0.24
   5   4   5    3.00    0.25
   6   4   5    1.37    0.19
   2  -5  -5    0.53    0.09
  -2   5   5    0.76    0.21
   1  -5  -5    0.22    0.08
   0  -5  -5   29.15    1.74
   0  -5  -5   28.38    1.75
   0  -5  -5   28.41    1.74
   0   5   5   30.40    1.77
   0   5   5   30.00    1.82
   0   5   5   28.57    1.77
  -1  -5  -5    1.55    0.21
  -1  -5  -5    1.19    0.14
  -1  -5  -5    1.37    0.16
  -1  -5  -5    1.39    0.13
   1   5   5    1.49    0.30
   1   5   5    1.39    0.16
   1   5   5    1.22    0.20
   1   5   5    1.47    0.17
  -2  -5  -5   69.80    4.26
  -2  -5  -5   73.37    4.26
  -2  -5  -5   70.80    4.26
  -2  -5  -5   69.22    4.28
   2   5   5   70.21    4.26
   2   5   5   73.34    4.27
   2   5   5   72.91    4.27
   2   5   5   71.86    4.30
  -3  -5  -5   30.87    1.79
  -3  -5  -5   29.43    1.78
  -3  -5  -5   32.03    1.82
  -3  -5  -5   29.09    1.78
   3   5   5   27.98    1.80
   3   5   5   28.72    1.78
   3   5   5   30.15    1.83
   3   5   5   29.35    1.80
  -4  -5  -5    6.25    0.51
  -4  -5  -5    7.02    0.45
  -4  -5  -5    7.07    0.44
   4   5   5    7.32    0.46
   4   5   5    7.40    0.52
   4   5   5    7.03    0.47
   4   5   5    7.02    0.44
  -5  -5  -5    0.74    0.14
  -5  -5  -5    0.97    0.16
   5   5   5    0.91    0.17
   5   5   5    1.17    0.21
   1  -6  -5   13.86    0.85
  -1   6   5   14.25    0.89
   0  -6  -5    0.00    0.08
   0  -6  -5    0.11    0.08
  -1  -6  -5   19.51    1.21
  -1  -6  -5   20.36    1.20
  -1  -6  -5   20.25    1.20
   1   6   5   21.50    1.26
   1   6   5   19.23    1.23
   1   6   5   19.28    1.21
  -2  -6  -5    0.30    0.07
  -2  -6  -5    0.29    0.08
  -2  -6  -5    0.17    0.07
   2   6   5    0.22    0.07
   2   6   5    0.41    0.19
   2   6   5    0.33    0.17
   2   6   5    0.17    0.12
  -3  -6  -5    4.76    0.31
  -3  -6  -5    4.64    0.31
  -3  -6  -5    4.74    0.38
   3   6   5    4.75    0.43
   3   6   5    4.99    0.34
   3   6   5    4.53    0.31
  -4  -6  -5    0.42    0.09
  -4  -6  -5    0.59    0.12
  -4  -6  -5    0.31    0.08
   4   6   5    0.58    0.18
   4   6   5    0.35    0.10
  -5  -6  -5    3.35    0.29
  -5  -6  -5    3.89    0.26
   5   6   5    3.73    0.30
   0  -7  -5   15.35    0.98
   0   7   5   17.33    1.02
  -1  -7  -5    1.32    0.13
  -2  -7  -5    6.96    0.41
  -2  -7  -5    6.68    0.41
  -2  -7  -5    6.54    0.41
   2   7   5    6.34    0.47
  -3  -7  -5    0.40    0.07
  -3  -7  -5    0.39    0.07
  -3  -7  -5    0.29    0.11
   3   7   5    0.46    0.16
   3   7   5    0.56    0.13
   2   7  -6   -0.03    0.17
  -2  -7   6    0.06    0.08
   4   6  -6   20.15    1.24
   3   6  -6    1.73    0.27
  -3  -6   6    1.83    0.16
   2   6  -6    4.92    0.39
  -2  -6   6    5.12    0.32
   1   6  -6   10.85    0.72
  -1  -6   6   11.20    0.67
   0   6  -6    2.31    0.27
   0  -6   6    2.06    0.17
   0  -6   6    1.95    0.17
   1  -6   6    0.99    0.12
   5   5  -6   16.27    0.96
  -5  -5   6   13.98    0.92
  -5  -5   6   15.56    0.91
   4   5  -6    0.52    0.15
  -4  -5   6    0.57    0.09
  -4  -5   6    0.73    0.08
   3   5  -6   19.58    1.22
   3   5  -6   18.25    1.23
  -3  -5   6   20.71    1.19
  -3  -5   6   19.22    1.18
  -3  -5   6   20.26    1.18
   2   5  -6    5.40    0.39
   2   5  -6    5.65    0.48
   2   5  -6    4.80    0.43
  -2  -5   6    4.97    0.33
  -2  -5   6    5.12    0.32
   1   5  -6    0.75    0.16
   1   5  -6    0.75    0.25
   1   5  -6    0.50    0.18
  -1  -5   6    0.80    0.10
  -1  -5   6    0.65    0.15
  -1  -5   6    0.76    0.14
   0   5  -6    0.87    0.17
   0   5  -6    0.61    0.19
   0   5  -6    0.42    0.24
   0  -5   6    0.40    0.08
   0  -5   6    0.49    0.09
  -1   5  -6    0.91    0.26
  -1   5  -6    0.61    0.14
   1  -5   6    0.45    0.10
  -2   5  -6    7.02    0.50
   2  -5   6    6.87    0.43
   5   4  -6    0.11    0.14
   5   4  -6    0.00    0.11
  -5  -4   6    0.01    0.08
  -5  -4   6   -0.04    0.06
  -5  -4   6    0.03    0.06
   4   4  -6   14.21    0.94
   4   4  -6   14.55    0.97
   4   4  -6   15.11    0.94
  -4  -4   6   15.47    0.90
  -4  -4   6   15.16    0.90
   3   4  -6   15.47    1.00
  -3  -4   6   16.08    0.94
  -3  -4   6   16.07    0.97
  -3  -4   6   15.60    0.94
  -3  -4   6   15.30    0.95
   2   4  -6    2.63    0.31
   2   4  -6    3.12    0.30
   2   4  -6    2.98    0.24
   2   4  -6    3.31    0.40
  -2  -4   6    3.32    0.21
  -2  -4   6    3.02    0.20
  -2  -4   6    3.25    0.21
  -2  -4   6    2.81    0.27
  -2  -4   6    3.28    0.21
   1   4  -6    5.44    0.49
   1   4  -6    5.65    0.40
   1   4  -6    5.62    0.37
  -1  -4   6    5.57    0.38
  -1  -4   6    5.33    0.35
   0   4  -6    6.09    0.43
   0   4  -6    6.18    0.43
   0   4  -6    6.41    0.39
   0   4  -6    6.14    0.51
   0   4  -6    6.65    0.39
   0  -4   6    5.84    0.40
   0  -4   6    6.52    0.43
   0  -4   6    6.17    0.39
  -1   4  -6    0.13    0.22
  -1   4  -6    0.37    0.12
  -1   4  -6    0.13    0.07
   1  -4   6   -0.04    0.14
   1  -4   6    0.03    0.16
  -2   4  -6   21.25    1.39
  -2   4  -6   22.34    1.34
  -2   4  -6   21.50    1.34
   2  -4   6   21.64    1.35
   2  -4   6   24.93    1.35
   3  -4   6    0.96    0.12
   3  -4   6    1.08    0.15
   5   3  -6   61.63    3.45
   5   3  -6   51.00    3.44
   5   3  -6   59.96    3.45
  -5  -3   6   61.55    3.43
  -5  -3   6   53.00    3.42
  -5  -3   6   58.04    3.43
   4   3  -6    0.05    0.16
   4   3  -6    0.20    0.16
   4   3  -6    0.28    0.13
  -4  -3   6    0.15    0.06
  -4  -3   6    0.24    0.07
  -4  -3   6    0.49    0.25
   3   3  -6    1.45    0.25
   3   3  -6    2.13    0.31
   3   3  -6    1.84    0.23
  -3  -3   6    2.04    0.15
  -3  -3   6    1.83    0.19
  -3  -3   6    2.07    0.14
  -3  -3   6    1.93    0.23
   2   3  -6    4.70    0.35
   2   3  -6    4.33    0.30
  -2  -3   6    4.80    0.29
  -2  -3   6    4.32    0.33
  -2  -3   6    4.89    0.29
  -2  -3   6    4.49    0.30
  -2  -3   6    4.56    0.29
  -2  -3   6    4.62    0.29
   1   3  -6    7.89    0.46
   1   3  -6    6.26    0.45
   1   3  -6    6.23    0.45
   1   3  -6    7.52    0.50
  -1  -3   6    7.31    0.44
  -1  -3   6    7.62    0.44
  -1  -3   6    7.58    0.44
   0   3  -6   12.72    0.78
   0   3  -6   12.98    0.77
   0   3  -6   12.91    0.80
   0   3  -6   14.25    0.77
   0   3  -6   13.88    0.77
   0  -3   6   12.40    0.78
   0  -3   6   12.46    0.79
   0  -3   6   12.14    0.77
   0  -3   6   11.30    0.78
  -1   3  -6   16.48    0.94
  -1   3  -6   16.06    0.93
  -1   3  -6   15.11    0.97
  -1   3  -6   17.29    0.94
  -1   3  -6   15.88    0.96
   1  -3   6   13.99    0.95
   1  -3   6   15.75    0.96
   1  -3   6   14.83    0.94
   1  -3   6   15.90    0.99
   1  -3   6   14.27    0.94
  -2   3  -6   26.91    1.68
  -2   3  -6   25.76    1.64
  -2   3  -6   27.42    1.64
  -2   3  -6   27.01    1.63
   2  -3   6   29.54    1.64
   2  -3   6   27.29    1.64
  -3   3  -6    1.44    0.15
  -3   3  -6    1.71    0.14
  -3   3  -6    1.50    0.19
   3  -3   6    1.93    0.17
   3  -3   6    1.66    0.16
  -4   3  -6    2.14    0.38
  -4   3  -6    1.88    0.16
   4  -3   6    2.61    0.36
   4  -3   6    2.03    0.17
   5   2  -6   20.79    1.28
   5   2  -6   23.44    1.29
   5   2  -6   19.21    1.28
  -5  -2   6   20.37    1.26
   4   2  -6   22.41    1.45
   4   2  -6   26.08    1.45
   4   2  -6   24.23    1.46
  -4  -2   6   23.22    1.42
  -4  -2   6   23.54    1.42
  -4  -2   6   22.54    1.43
  -4  -2   6   24.34    1.42
   3   2  -6   62.54    3.87
  -3  -2   6   64.39    3.86
  -3  -2   6   65.31    3.85
  -3  -2   6   64.67    3.85
  -3  -2   6   65.92    3.85
  -3  -2   6   65.27    3.86
   2   2  -6   94.28    5.66
   2   2  -6   91.74    5.70
  -2  -2   6   97.14    5.66
  -2  -2   6   89.99    5.66
  -2  -2   6   99.21    5.65
  -2  -2   6   97.88    5.66
   1   2  -6   51.09    3.01
   1   2  -6   42.63    3.01
   1   2  -6   52.66    3.01
  -1  -2   6   51.67    3.01
  -1  -2   6   51.67    3.00
  -1  -2   6   49.78    3.00
  -1  -2   6   52.11    3.01
  -1  -2   6   51.44    3.00
   0   2  -6    0.86    0.10
   0   2  -6    1.00    0.10
   0   2  -6    0.81    0.12
   0  -2   6    1.00    0.11
  -1   2  -6    8.29    0.52
  -1   2  -6    8.31    0.53
  -1   2  -6    8.87    0.53
   1  -2   6    8.38    0.53
  -2   2  -6    0.23    0.11
  -2   2  -6    0.22    0.06
  -2   2  -6    0.27    0.09
  -2   2  -6    0.17    0.08
   2  -2   6    0.17    0.09
   2  -2   6    0.21    0.07
   2  -2   6    0.24    0.07
   2  -2   6    0.22    0.12
  -3   2  -6    6.90    0.50
  -3   2  -6    6.97    0.43
  -3   2  -6    6.30    0.42
  -3   2  -6    7.11    0.49
   3  -2   6    6.43    0.43
   3  -2   6    5.42    0.53
   3  -2   6    7.37    0.45
  -4   2  -6    0.41    0.16
  -4   2  -6    0.41    0.10
  -4   2  -6    0.32    0.09
   4  -2   6    0.47    0.11
   4  -2   6    0.43    0.09
   5   1  -6    3.58    0.35
   5   1  -6    3.38    0.29
  -5  -1   6    4.30    0.27
  -5  -1   6    3.91    0.27
   4   1  -6    1.23    0.25
   4   1  -6    1.24    0.23
   4   1  -6    1.66    0.20
   4   1  -6    1.40    0.22
  -4  -1   6    1.35    0.14
  -4  -1   6    1.17    0.14
  -4  -1   6    1.76    0.34
   3   1  -6   14.89    0.88
   3   1  -6   12.92    0.89
   3   1  -6   13.21    0.89
  -3  -1   6   14.69    0.85
  -3  -1   6   14.59    0.87
  -3  -1   6   13.89    0.87
  -3  -1   6   14.06    0.85
  -3  -1   6   14.59    0.85
  -3  -1   6   14.49    0.87
   2   1  -6   47.46    2.68
   2   1  -6   39.24    2.71
   2   1  -6   44.04    2.71
  -2  -1   6   46.85    2.69
  -2  -1   6   47.27    2.69
   1   1  -6  122.40    7.10
   1   1  -6  124.48    7.10
   1   1  -6  119.34    7.10
  -1  -1   6  115.39    7.10
  -1  -1   6  115.02    7.10
   0   1  -6    9.57    0.59
   0   1  -6    9.46    0.59
   0   1  -6    9.75    0.59
   0  -1   6   10.26    0.59
  -1   1  -6   45.69    2.84
  -1   1  -6   49.16    2.84
  -1   1  -6   50.65    2.83
   1  -1   6   44.73    2.84
  -2   1  -6    8.79    0.53
  -2   1  -6    9.09    0.52
  -2   1  -6    9.12    0.53
   2  -1   6    9.12    0.53
   2  -1   6    7.75    0.53
   2  -1   6    7.12    0.54
  -3   1  -6    0.40    0.18
  -3   1  -6    0.33    0.11
   3  -1   6    0.43    0.08
   3  -1   6    0.42    0.08
   3  -1   6    0.31    0.14
   3  -1   6    0.30    0.10
  -4   1  -6    1.63    0.23
   4  -1   6    2.36    0.31
   4  -1   6    1.96    0.18
   4  -1   6    1.77    0.18
   4  -1   6    1.13    0.32
   5   0  -6   13.48    0.78
   5   0  -6   11.82    0.78
  -5   0   6   12.16    0.77
  -5   0   6   12.88    0.78
   4   0  -6    2.62    0.26
   4   0  -6    2.91    0.26
  -4   0   6    2.62    0.23
  -4   0   6    3.35    0.31
  -4   0   6    3.50    0.24
  -4   0   6    3.54    0.24
   3   0  -6    0.76    0.13
   3   0  -6    1.02    0.17
   3   0  -6    0.68    0.16
   3   0  -6    0.69    0.16
  -3   0   6    0.80    0.12
  -3   0   6    0.64    0.11
  -3   0   6    0.79    0.10
  -2   0   6    6.76    0.42
   1   0  -6    0.18    0.04
   1   0  -6    0.26    0.05
  -1   0   6    0.19    0.07
  -1   0   6    0.15    0.03
   0   0  -6    3.66    0.22
   0   0   6    3.55    0.22
   1   0   6    0.14    0.04
  -2   0  -6   17.21    0.99
   2   0   6   15.62    1.00
  -3   0  -6    0.03    0.07
   3   0   6    0.02    0.08
   3   0   6    0.16    0.11
   3   0   6    0.15    0.07
   3   0   6    0.05    0.07
  -4   0  -6   15.05    0.96
  -4   0  -6   14.92    0.93
   4   0   6   15.03    0.94
   4   0   6   15.63    0.93
   4   0   6   14.68    0.96
   4   0   6   16.04    0.93
   5  -1  -6    1.43    0.16
  -5   1   6    1.40    0.20
   4  -1  -6    1.58    0.19
   4  -1  -6    1.42    0.23
  -4   1   6    1.49    0.19
  -4   1   6    1.77    0.22
  -4   1   6    2.19    0.19
   3  -1  -6    6.66    0.45
   3  -1  -6    6.44    0.43
  -3   1   6    6.57    0.43
  -3   1   6    6.59    0.41
  -3   1   6    6.05    0.41
   2  -1  -6   77.26    4.51
   2  -1  -6   75.93    4.52
  -2   1   6   75.65    4.52
  -2   1   6   73.99    4.52
   1  -1  -6   84.71    5.60
   1  -1  -6   97.63    5.60
   1  -1  -6   97.66    5.60
  -1   1   6   88.84    5.60
  -1   1   6   94.35    5.60
  -1   1   6  101.62    5.60
   0  -1  -6   27.65    1.79
   0  -1  -6   29.99    1.78
   0   1   6   31.96    1.78
   1   1   6    2.59    0.16
   1   1   6    2.30    0.16
   2   1   6    3.88    0.26
   3   1   6    0.19    0.07
   3   1   6    0.21    0.14
   3   1   6    0.22    0.07
  -4  -1  -6   25.04    1.45
   4   1   6   23.36    1.43
   4   1   6   23.36    1.45
   4   1   6   23.19    1.43
   4   1   6   23.60    1.44
  -5  -1  -6    2.00    0.23
  -5  -1  -6    2.15    0.21
   5   1   6    1.92    0.22
   5   1   6    2.11    0.19
  -3   2   6    0.11    0.08
  -3   2   6    0.13    0.12
   2  -2  -6   49.95    3.05
   2  -2  -6   48.24    3.07
  -2   2   6   52.14    3.06
  -2   2   6   54.64    3.05
   1  -2  -6  139.38    8.29
  -1   2   6  139.86    8.29
  -1   2   6  138.76    8.29
   0  -2  -6  132.77    7.43
   0  -2  -6  119.78    7.43
   0   2   6  135.53    7.43
   0   2   6  113.89    7.44
   0   2   6  122.43    7.43
  -1  -2  -6    6.87    0.49
   1   2   6    8.44    0.49
   1   2   6    8.06    0.49
   1   2   6    8.74    0.51
   2   2   6  116.47    6.93
   3   2   6    2.13    0.26
   3   2   6    2.34    0.22
   3   2   6    2.22    0.19
   4   2   6    7.44    0.44
   4   2   6    6.71    0.47
   4   2   6    6.92    0.45
   4   2   6    6.46    0.47
  -6  -2  -6    5.00    0.45
   4  -3  -6    2.13    0.18
   3  -3  -6    0.12    0.10
   3  -3  -6    0.11    0.12
  -3   3   6    0.29    0.16
   2  -3  -6    3.49    0.26
  -2   3   6    2.83    0.26
   1  -3  -6   12.51    0.78
   1  -3  -6   12.82    0.77
   1  -3  -6   13.28    0.78
   1  -3  -6   13.79    0.81
  -1   3   6   12.11    0.81
  -1   3   6   11.21    0.79
  -1   3   6   13.88    0.78
   0  -3  -6   71.18    4.25
   0  -3  -6   68.46    4.25
   0   3   6   68.61    4.25
   0   3   6   71.92    4.26
   0   3   6   76.70    4.26
  -1  -3  -6   42.04    2.39
  -1  -3  -6   40.95    2.40
  -1  -3  -6   38.30    2.39
   1   3   6   39.34    2.40
  -2  -3  -6  296.99   19.30
   2   3   6  339.82   19.29
   2   3   6  316.87   19.29
   2   3   6  344.20   19.29
  -3  -3  -6   27.41    1.96
   3   3   6   35.02    1.96
   3   3   6   31.73    1.94
   3   3   6   34.31    1.97
   3   3   6   33.99    1.95
   4   3   6   31.98    1.94
   4   3   6   31.60    1.93
   4   3   6   32.78    1.95
   5   3   6   12.13    0.82
   5   3   6   13.34    0.83
   5   3   6   14.94    0.86
   6   3   6   10.78    0.71
   6   3   6   12.07    0.72
   3  -4  -6    6.84    0.46
   3  -4  -6    7.49    0.46
  -3   4   6    7.11    0.54
   2  -4  -6    6.82    0.49
   2  -4  -6    7.11    0.48
  -2   4   6    8.33    0.55
  -2   4   6    8.11    0.54
   1  -4  -6    0.12    0.23
   1  -4  -6    0.42    0.08
   1  -4  -6    0.51    0.08
  -1   4   6    0.53    0.13
  -1   4   6    0.57    0.19
  -1   4   6    0.33    0.12
   0  -4  -6   22.22    1.33
   0  -4  -6   21.23    1.33
   0  -4  -6   21.59    1.34
   0   4   6   20.99    1.36
   0   4   6   24.27    1.34
  -1  -4  -6   30.30    2.06
  -1  -4  -6   33.23    2.05
  -1  -4  -6   36.20    2.05
  -1  -4  -6   35.01    2.05
   1   4   6   34.13    2.05
   1   4   6   34.00    2.05
   1   4   6   35.53    2.06
   1   4   6   35.46    2.08
  -2  -4  -6    1.80    0.15
  -2  -4  -6    2.32    0.18
   2   4   6    1.79    0.16
   2   4   6    1.95    0.21
   2   4   6    1.71    0.17
   2   4   6    1.93    0.29
  -3  -4  -6   18.34    1.12
  -3  -4  -6   18.57    1.15
   3   4   6   18.57    1.13
   3   4   6   19.69    1.17
   3   4   6   18.12    1.13
   3   4   6   18.35    1.14
   3   4   6   18.79    1.14
  -4  -4  -6   -0.09    0.18
  -4  -4  -6    0.59    0.23
   4   4   6    0.29    0.12
   4   4   6    0.20    0.16
   4   4   6    0.08    0.11
   4   4   6    0.10    0.08
   5   4   6    5.48    0.39
   5   4   6    4.66    0.35
   2  -5  -6    3.42    0.25
  -2   5   6    3.85    0.33
   1  -5  -6   36.09    2.13
  -1   5   6   35.80    2.16
  -1   5   6   34.70    2.16
   0  -5  -6    1.00    0.13
   0  -5  -6    0.98    0.13
   0  -5  -6    1.01    0.15
   0   5   6    1.33    0.22
   0   5   6    1.23    0.16
   0   5   6    1.60    0.27
  -1  -5  -6    0.01    0.09
  -1  -5  -6    0.17    0.13
  -1  -5  -6    0.06    0.07
  -1  -5  -6    0.19    0.07
   1   5   6    0.33    0.20
   1   5   6    0.23    0.09
   1   5   6    0.22    0.12
  -2  -5  -6    1.02    0.13
  -2  -5  -6    1.23    0.14
   2   5   6    1.82    0.29
   2   5   6    1.40    0.21
   2   5   6    1.27    0.15
  -3  -5  -6    0.65    0.25
  -3  -5  -6    0.74    0.13
  -3  -5  -6    0.86    0.12
  -3  -5  -6    0.63    0.11
   3   5   6    0.78    0.21
   3   5   6    0.87    0.13
   3   5   6    0.72    0.14
  -4  -5  -6   22.93    1.43
  -4  -5  -6   23.49    1.43
   4   5   6   23.64    1.43
   4   5   6   24.86    1.45
   4   5   6   23.76    1.47
  -5  -5  -6    4.40    0.32
   5   5   6    4.80    0.35
   1  -6  -6    4.82    0.34
  -1   6   6    6.11    0.42
   0  -6  -6    2.66    0.20
   0  -6  -6    2.33    0.21
   0  -6  -6    2.45    0.18
   0   6   6    3.15    0.38
  -1  -6  -6    5.00    0.38
  -1  -6  -6    5.57    0.35
  -1  -6  -6    5.95    0.35
  -1  -6  -6    5.37    0.37
   1   6   6    5.17    0.37
   1   6   6    5.03    0.41
   1   6   6    6.44    0.45
  -2  -6  -6   42.90    2.56
  -2  -6  -6   43.08    2.56
  -2  -6  -6   43.75    2.56
   2   6   6   43.47    2.57
   2   6   6   43.52    2.60
   2   6   6   41.59    2.59
   2   6   6   41.09    2.56
  -3  -6  -6   69.13    4.09
  -3  -6  -6   69.34    4.09
  -3  -6  -6   69.40    4.09
   3   6   6   69.43    4.12
   3   6   6   65.22    4.09
   3   6   6   68.85    4.10
  -4  -6  -6   11.21    0.75
  -4  -6  -6   11.37    0.73
  -4  -6  -6   12.58    0.73
   4   6   6   12.13    0.73
   4   6   6   12.51    0.75
   4   6   6   11.73    0.77
  -5  -6  -6    7.57    0.50
   5   6   6    8.43    0.52
  -1  -7  -6    4.88    0.32
   1   7   6    5.52    0.38
  -2  -7  -6    8.74    0.53
  -2  -7  -6    8.53    0.53
  -2  -7  -6    8.67    0.52
   2   7   6    7.95    0.58
   2   7   6    8.98    0.58
  -3  -7  -6    9.33    0.56
  -3  -7  -6    9.39    0.55
  -3  -7  -6    8.88    0.55
   3   7   6    9.66    0.60
   3   7   6    7.82    0.63
  -4  -6   7    0.48    0.07
   3   6  -7    1.58    0.25
  -3  -6   7    1.40    0.16
   2   6  -7    0.11    0.14
  -2  -6   7    0.07    0.06
   1   6  -7    1.57    0.24
  -1  -6   7    1.33    0.13
   0   6  -7    5.35    0.39
   0  -6   7    4.95    0.34
   0  -6   7    4.60    0.33
   1  -6   7    5.93    0.38
   5   5  -7   21.54    1.26
  -5  -5   7   20.16    1.23
  -5  -5   7   20.28    1.24
   4   5  -7    0.34    0.15
  -4  -5   7    0.31    0.08
   3   5  -7   12.87    0.91
   3   5  -7   13.89    0.87
  -3  -5   7   12.85    0.80
  -3  -5   7   13.72    0.82
  -2  -5   7    9.85    0.59
   1   5  -7    6.71    0.49
   0   5  -7    4.71    0.49
   0   5  -7    6.14    0.51
   0   5  -7    5.33    0.41
   0  -5   7    5.71    0.36
   0  -5   7    5.38    0.36
  -1   5  -7    0.11    0.12
   1  -5   7    0.05    0.10
   2  -5   7    1.45    0.13
   5   4  -7    4.61    0.35
   5   4  -7    5.33    0.38
  -5  -4   7    4.67    0.30
  -5  -4   7    4.69    0.31
   4   4  -7    1.02    0.18
   4   4  -7    0.82    0.17
  -4  -4   7    0.84    0.10
  -4  -4   7    0.78    0.11
   3   4  -7    0.68    0.17
   3   4  -7    0.61    0.16
  -3  -4   7    0.79    0.09
  -3  -4   7    0.72    0.10
  -3  -4   7    0.39    0.17
   2   4  -7    8.59    0.56
   2   4  -7    8.97    0.59
   2   4  -7    8.70    0.59
  -2  -4   7    8.66    0.53
  -2  -4   7    8.52    0.52
  -2  -4   7    8.26    0.52
   1   4  -7   16.51    1.04
   1   4  -7   18.20    1.07
   1   4  -7   18.26    1.07
  -1  -4   7   16.55    1.04
  -1  -4   7   16.98    1.06
   0   4  -7    5.08    0.36
   0   4  -7    5.46    0.33
   0   4  -7    4.88    0.32
   0   4  -7    5.16    0.37
   0  -4   7    4.84    0.33
   0  -4   7    5.07    0.37
   0  -4   7    5.05    0.32
  -1   4  -7    0.19    0.07
  -1   4  -7    0.28    0.13
  -1   4  -7    0.07    0.18
  -1   4  -7    0.18    0.07
   1  -4   7    0.08    0.07
   1  -4   7    0.23    0.17
   1  -4   7    0.17    0.08
  -2   4  -7    2.44    0.17
   2  -4   7    2.06    0.25
   2  -4   7    2.37    0.29
   2  -4   7    2.35    0.19
  -3   4  -7    5.27    0.37
  -3   4  -7    4.28    0.27
   3  -4   7    4.46    0.29
   3  -4   7    3.50    0.31
   5   3  -7    9.48    0.60
   5   3  -7    9.32    0.61
  -5  -3   7    8.98    0.57
  -5  -3   7    9.22    0.57
   4   3  -7    3.31    0.33
   4   3  -7    3.65    0.39
   4   3  -7    3.36    0.31
  -4  -3   7    3.43    0.24
  -4  -3   7    3.56    0.23
  -4  -3   7    3.43    0.23
  -4  -3   7    3.58    0.26
   3   3  -7   31.39    1.88
   3   3  -7   31.25    1.88
  -3  -3   7   31.00    1.85
  -3  -3   7   31.04    1.85
  -3  -3   7   28.83    1.86
  -3  -3   7   32.09    1.85
   2   3  -7    1.25    0.14
   2   3  -7    1.26    0.18
   2   3  -7    1.53    0.23
  -2  -3   7    0.96    0.20
  -2  -3   7    1.14    0.15
  -2  -3   7    1.17    0.10
  -2  -3   7    1.13    0.11
  -2  -3   7    1.24    0.11
  -2  -3   7    1.53    0.11
   1   3  -7    5.22    0.35
   1   3  -7    4.75    0.31
  -1  -3   7    4.36    0.30
  -1  -3   7    5.12    0.32
  -1  -3   7    4.36    0.29
   0   3  -7    1.49    0.12
   0   3  -7    1.37    0.20
   0   3  -7    1.53    0.17
   0   3  -7    1.15    0.14
   0   3  -7    1.56    0.12
   0   3  -7    1.35    0.15
   0  -3   7    1.22    0.14
   0  -3   7    1.62    0.18
   0  -3   7    1.11    0.14
   0  -3   7    1.26    0.11
  -1   3  -7   20.79    1.27
  -1   3  -7   23.03    1.27
  -1   3  -7   22.56    1.27
  -1   3  -7   22.10    1.29
  -1   3  -7   21.28    1.30
   1  -3   7   19.23    1.27
   1  -3   7   20.53    1.28
   1  -3   7   21.48    1.30
   1  -3   7   19.13    1.27
  -2   3  -7   24.34    1.39
  -2   3  -7   21.94    1.38
  -2   3  -7   23.35    1.39
   2  -3   7   21.88    1.40
   2  -3   7   24.43    1.45
   2  -3   7   22.88    1.41
  -3   3  -7    4.53    0.32
  -3   3  -7    4.84    0.34
  -3   3  -7    5.14    0.32
   3  -3   7    4.57    0.42
   3  -3   7    5.20    0.34
   3  -3   7    5.26    0.33
  -4   3  -7    4.14    0.28
  -4   3  -7    4.15    0.28
   4  -3   7    4.38    0.29
   4  -3   7    4.70    0.32
   5   2  -7    1.49    0.20
   5   2  -7    1.26    0.24
   5   2  -7    0.99    0.19
  -5  -2   7    1.44    0.16
  -5  -2   7    1.60    0.22
  -5  -2   7    0.94    0.14
   4   2  -7    1.11    0.20
  -4  -2   7    1.13    0.11
  -4  -2   7    1.54    0.27
  -4  -2   7    0.92    0.13
  -4  -2   7    1.01    0.13
   3   2  -7   72.24    4.18
   3   2  -7   68.23    4.18
  -3  -2   7   73.50    4.18
  -3  -2   7   67.42    4.17
  -3  -2   7   68.02    4.16
   2   2  -7   40.38    2.45
   2   2  -7   41.37    2.46
   2   2  -7   41.72    2.47
   2   2  -7   37.03    2.47
  -2  -2   7   44.42    2.45
  -2  -2   7   41.60    2.45
  -2  -2   7   39.86    2.46
  -2  -2   7   41.75    2.45
   1   2  -7  248.41   14.55
   1   2  -7  253.70   14.55
   1   2  -7  237.13   14.55
  -1  -2   7  249.62   14.54
  -1  -2   7  233.80   14.54
   0   2  -7   11.31    0.71
   0   2  -7   11.52    0.73
   0   2  -7   11.42    0.70
   0  -2   7   11.96    0.71
  -1   2  -7    6.84    0.43
  -1   2  -7    6.04    0.41
  -1   2  -7    7.11    0.41
  -1   2  -7    7.08    0.42
   1  -2   7    6.39    0.42
   1  -2   7    6.71    0.43
   1  -2   7    6.60    0.41
  -2   2  -7    9.33    0.59
  -2   2  -7    7.62    0.55
  -2   2  -7    9.34    0.61
  -2   2  -7    9.31    0.55
   2  -2   7    8.64    0.56
   2  -2   7    9.38    0.56
   2  -2   7    9.14    0.60
   2  -2   7    9.45    0.56
  -3   2  -7    1.56    0.23
  -3   2  -7    2.02    0.16
  -3   2  -7    1.97    0.19
   3  -2   7    1.71    0.28
   3  -2   7    1.87    0.18
   3  -2   7    1.68    0.18
   3  -2   7    1.90    0.17
  -4   2  -7    4.32    0.29
  -4   2  -7    4.47    0.29
  -4   2  -7    4.42    0.35
   4  -2   7    4.20    0.32
   5   1  -7    0.20    0.11
  -5  -1   7    0.25    0.09
   4   1  -7    0.42    0.13
  -4  -1   7    0.35    0.10
  -4  -1   7    0.39    0.09
  -4  -1   7    0.29    0.08
   3   1  -7   25.01    1.56
   3   1  -7   25.89    1.55
  -3  -1   7   27.09    1.53
  -3  -1   7   26.45    1.52
  -3  -1   7   22.01    1.53
  -3  -1   7   25.87    1.53
  -3  -1   7   26.27    1.54
   2   1  -7   10.62    0.73
   2   1  -7   11.33    0.66
   2   1  -7   10.92    0.69
  -2  -1   7   11.07    0.65
  -2  -1   7   10.88    0.66
  -2  -1   7   10.28    0.66
   1   1  -7  676.25   38.63
   1   1  -7  650.34   38.64
  -1  -1   7  608.05   38.61
  -1  -1   7  663.98   38.62
   0   1  -7    0.09    0.04
   0   1  -7    0.25    0.05
   0   1  -7    0.22    0.05
  -1   1  -7  356.54   20.45
  -1   1  -7  348.90   20.46
   1  -1   7  326.94   20.47
  -2   1  -7   24.70    1.51
  -2   1  -7   26.39    1.51
  -2   1  -7   25.23    1.49
   2  -1   7   27.20    1.50
   2  -1   7   23.85    1.52
   2  -1   7   23.17    1.50
   2  -1   7   24.61    1.51
  -3   1  -7    0.78    0.13
  -3   1  -7    0.97    0.18
   3  -1   7    0.74    0.17
   3  -1   7    1.15    0.13
   3  -1   7    1.17    0.19
   3  -1   7    0.95    0.13
  -4   1  -7   19.91    1.18
  -4   1  -7   17.21    1.19
   4  -1   7   19.46    1.21
   4  -1   7   21.41    1.18
  -5   1  -7    4.58    0.33
  -5   1  -7    4.50    0.36
   5  -1   7    4.92    0.31
   5  -1   7    4.75    0.32
   5   0  -7    2.82    0.26
   5   0  -7    3.90    0.27
   4   0  -7    3.74    0.29
   4   0  -7    3.61    0.30
  -4   0   7    3.35    0.26
  -4   0   7    3.75    0.25
  -4   0   7    3.06    0.31
   3   0  -7    1.03    0.19
   3   0  -7    1.30    0.19
  -3   0   7    1.43    0.16
  -3   0   7    1.22    0.12
  -2   0   7    6.41    0.40
   1   0  -7    7.29    0.45
   1   0  -7    7.60    0.44
  -1   0   7    6.78    0.44
   0   0  -7    1.94    0.16
   0   0  -7    2.68    0.15
   1   0   7   22.15    1.33
  -2   0  -7    0.15    0.05
   2   0   7    0.08    0.07
   2   0   7    0.03    0.06
   3   0   7   74.64    4.23
   3   0   7   60.87    4.25
   3   0   7   69.99    4.23
   3   0   7   78.25    4.23
  -4   0  -7   24.93    1.46
  -4   0  -7   23.31    1.49
   4   0   7   24.87    1.48
   4   0   7   22.70    1.48
   4   0   7   25.17    1.46
   4   0   7   24.54    1.46
  -5   0  -7    7.97    0.53
   5   0   7    8.65    0.52
   5   0   7    8.47    0.52
   5   0   7    7.99    0.56
   5  -1  -7    0.06    0.09
   4  -1  -7    1.59    0.26
   4  -1  -7    1.82    0.20
  -4   1   7    1.92    0.18
   3  -1  -7   10.37    0.64
   3  -1  -7    9.59    0.63
  -3   1   7   10.24    0.61
  -3   1   7    8.59    0.62
  -3   1   7   10.61    0.61
   2  -1  -7   11.56    0.70
   2  -1  -7   11.53    0.70
  -2   1   7   11.49    0.71
   1  -1  -7   57.02    3.70
   1  -1  -7   60.32    3.71
   1  -1  -7   64.79    3.70
  -1   1   7   66.68    3.71
   0  -1  -7    2.05    0.13
   0  -1  -7    1.58    0.15
   0  -1  -7    1.67    0.14
   0   1   7    2.18    0.13
   1   1   7   76.60    5.04
   1   1   7   92.65    5.04
   2   1   7   67.50    4.03
   3   1   7   14.28    0.82
   3   1   7   13.22    0.81
   3   1   7   12.67    0.83
   4   1   7   13.32    0.86
   4   1   7   14.63    0.86
   4   1   7   13.51    0.88
   4   1   7   14.70    0.87
  -5  -1  -7    1.73    0.21
   5   1   7    1.63    0.21
   5   1   7    1.38    0.16
   5   1   7    1.43    0.28
   4  -2  -7    6.24    0.42
   3  -2  -7    0.63    0.12
   2  -2  -7    0.05    0.07
   2  -2  -7    0.08    0.11
  -2   2   7    0.28    0.07
   1  -2  -7    5.56    0.36
   1  -2  -7    5.57    0.40
   1  -2  -7    5.77    0.36
  -1   2   7    5.96    0.36
  -1   2   7    6.20    0.37
   0  -2  -7    9.89    0.64
   0   2   7   11.13    0.64
   0   2   7   10.48    0.64
   1   2   7  233.49   15.24
   1   2   7  267.03   15.24
   1   2   7  268.14   15.24
   3   2   7   65.13    3.91
   3   2   7   65.70    3.90
   4   2   7    2.30    0.28
   4   2   7    2.84    0.23
   4   2   7    2.96    0.26
  -5  -2  -7    3.14    0.26
   5   2   7    3.13    0.23
   5   2   7    3.01    0.29
   5   2   7    2.45    0.24
   6   2   7    0.21    0.12
   6   2   7    0.10    0.07
   4  -3  -7   11.22    0.70
  -4   3   7   11.44    0.74
   3  -3  -7    0.00    0.12
   3  -3  -7    0.01    0.11
  -3   3   7    0.14    0.16
   2  -3  -7   19.47    1.16
  -2   3   7   18.56    1.16
   1  -3  -7    2.10    0.17
   1  -3  -7    2.01    0.24
   1  -3  -7    2.20    0.16
   1  -3  -7    2.37    0.18
   1  -3  -7    2.17    0.23
  -1   3   7    2.47    0.18
  -1   3   7    2.38    0.20
  -1   3   7    1.68    0.33
   0  -3  -7   28.96    1.70
   0  -3  -7   30.21    1.70
   0  -3  -7   28.55    1.70
   0   3   7   27.78    1.70
   0   3   7   23.87    1.72
   0   3   7   30.85    1.70
  -1  -3  -7   15.03    0.96
  -1  -3  -7   16.53    0.96
   1   3   7   15.46    0.97
   1   3   7   16.86    0.98
   1   3   7   16.36    0.97
  -2  -3  -7   47.14    3.20
   2   3   7   58.90    3.20
   2   3   7   54.44    3.19
   3   3   7  220.84   12.64
   3   3   7  208.94   12.64
   3   3   7  216.64   12.63
   3   3   7  202.61   12.63
   4   3   7   18.29    1.07
   4   3   7   16.82    1.09
  -5  -3  -7   20.11    1.29
   5   3   7   22.41    1.29
   6   3   7   10.60    0.67
   3  -4  -7    2.75    0.22
   3  -4  -7    2.50    0.22
  -3   4   7    2.67    0.36
   2  -4  -7   22.68    1.28
   2  -4  -7   21.26    1.29
  -2   4   7   20.24    1.30
  -2   4   7   20.62    1.32
   1  -4  -7   13.17    0.77
   1  -4  -7   11.61    0.81
   1  -4  -7   12.90    0.77
  -1   4   7   11.97    0.80
  -1   4   7   13.25    0.79
  -1   4   7   13.19    0.83
   0  -4  -7   23.61    1.41
   0  -4  -7   22.89    1.41
   0  -4  -7   23.99    1.40
   0  -4  -7   23.06    1.42
   0   4   7   24.02    1.41
   0   4   7   23.55    1.42
   0   4   7   22.64    1.41
  -1  -4  -7    5.75    0.36
  -1  -4  -7    5.32    0.36
  -1  -4  -7    5.80    0.36
   1   4   7    5.36    0.36
   1   4   7    5.75    0.44
   1   4   7    5.65    0.37
   1   4   7    5.87    0.38
   1   4   7    5.78    0.39
  -2  -4  -7   19.01    1.10
  -2  -4  -7   16.24    1.08
  -2  -4  -7   18.41    1.08
   2   4   7   17.19    1.08
   2   4   7   17.73    1.12
   2   4   7   18.75    1.09
  -3  -4  -7    7.18    0.47
   3   4   7    6.54    0.49
   3   4   7    6.32    0.43
   3   4   7    6.12    0.43
   3   4   7    6.89    0.46
  -4  -4  -7    1.31    0.27
   4   4   7    0.79    0.11
   4   4   7    0.83    0.17
  -5  -4  -7   32.90    2.09
   5   4   7   33.45    2.10
   5   4   7   38.44    2.11
   2  -5  -7    6.74    0.44
  -2   5   7    7.11    0.51
   1  -5  -7   17.89    1.02
   1  -5  -7   16.60    1.04
  -1   5   7   17.06    1.06
  -1   5   7   16.62    1.07
   0  -5  -7    2.39    0.19
   0  -5  -7    2.48    0.18
   0  -5  -7    2.37    0.19
   0   5   7    2.29    0.28
   0   5   7    2.22    0.30
   0   5   7    1.98    0.31
   0   5   7    1.99    0.27
  -1  -5  -7   29.80    1.81
  -1  -5  -7   30.99    1.81
  -1  -5  -7   30.83    1.81
   1   5   7   29.72    1.81
   1   5   7   31.38    1.82
   1   5   7   32.57    1.83
   1   5   7   25.69    1.85
  -2  -5  -7    0.08    0.10
  -2  -5  -7   -0.06    0.06
  -2  -5  -7    0.02    0.08
   2   5   7    0.01    0.12
   2   5   7    0.02    0.09
   2   5   7   -0.05    0.08
  -3  -5  -7    6.91    0.46
  -3  -5  -7    6.96    0.45
  -3  -5  -7    7.09    0.52
   3   5   7    6.77    0.45
   3   5   7    7.18    0.49
   3   5   7    7.78    0.53
  -4  -5  -7    9.20    0.60
  -4  -5  -7    8.33    0.58
   4   5   7    9.68    0.62
   4   5   7    9.23    0.57
   4   5   7    9.66    0.60
  -5  -5  -7    7.72    0.52
   5   5   7    7.74    0.54
   5   5   7    8.87    0.54
   1  -6  -7    9.73    0.61
  -1   6   7   10.17    0.66
   0  -6  -7    6.07    0.39
   0  -6  -7    5.97    0.39
   0  -6  -7    6.12    0.38
   0   6   7    6.34    0.47
   0   6   7    6.07    0.46
  -1  -6  -7    0.64    0.11
  -1  -6  -7    0.87    0.10
  -1  -6  -7    0.59    0.10
   1   6   7    1.01    0.21
   1   6   7    0.65    0.13
  -2  -6  -7    4.21    0.30
  -2  -6  -7    3.99    0.28
  -2  -6  -7    4.00    0.28
   2   6   7    4.19    0.32
   2   6   7    4.78    0.38
   2   6   7    3.97    0.28
  -3  -6  -7    3.52    0.27
  -3  -6  -7    3.89    0.26
  -3  -6  -7    4.11    0.31
   3   6   7    3.87    0.30
   3   6   7    3.75    0.26
  -4  -6  -7   10.83    0.69
  -4  -6  -7   11.23    0.69
   4   6   7   11.39    0.73
   4   6   7   11.23    0.69
   4   6   7   11.60    0.71
  -5  -6  -7   -0.27    0.15
   5   6   7    0.06    0.12
  -1  -7  -7    5.81    0.37
  -1  -7  -7    5.49    0.35
   1   7   7    6.15    0.41
  -2  -7  -7    6.90    0.41
  -2  -7  -7    6.36    0.42
  -2  -7  -7    6.79    0.41
   2   7   7    6.97    0.46
   2   7   7    5.94    0.49
  -3  -7  -7    5.84    0.37
  -3  -7  -7    5.75    0.37
   3   7   7    5.74    0.42
   3   7   7    6.03    0.42
   4   6  -8    7.33    0.47
  -4  -6   8    6.51    0.43
   3   6  -8   14.04    0.86
  -3  -6   8   12.82    0.83
  -3  -6   8   13.89    0.82
   2   6  -8    6.13    0.45
  -2  -6   8    6.42    0.40
   1   6  -8    6.70    0.47
  -1  -6   8    6.55    0.42
   0   6  -8    2.27    0.26
   0  -6   8    1.96    0.18
   0  -6   8    2.00    0.19
   5   5  -8    0.22    0.14
  -5  -5   8    0.23    0.06
   4   5  -8   19.36    1.18
  -4  -5   8   18.29    1.14
  -4  -5   8   19.71    1.15
   3   5  -8   12.55    0.92
   3   5  -8   15.25    0.89
  -3  -5   8   14.02    0.84
  -3  -5   8   13.85    0.85
   2   5  -8   16.84    1.04
  -2  -5   8   16.02    1.00
   1   5  -8    0.40    0.16
  -1  -5   8    0.49    0.08
   0   5  -8   12.11    0.78
   0  -5   8   12.48    0.75
   0  -5   8   12.10    0.75
  -1   5  -8    0.70    0.09
  -1   5  -8    0.90    0.14
   1  -5   8    0.74    0.11
  -2   5  -8    0.70    0.15
   2  -5   8    0.54    0.08
   5   4  -8    1.76    0.23
  -5  -4   8    2.28    0.16
  -5  -4   8    2.25    0.16
   4   4  -8    5.08    0.39
  -4  -4   8    4.68    0.31
  -4  -4   8    5.04    0.33
  -4  -4   8    4.77    0.31
   3   4  -8    0.14    0.17
   3   4  -8    0.05    0.15
  -3  -4   8    0.16    0.06
  -3  -4   8    0.09    0.20
  -3  -4   8    0.08    0.06
   2   4  -8    0.87    0.17
   2   4  -8    0.73    0.17
   2   4  -8    0.44    0.13
  -2  -4   8    0.58    0.09
  -2  -4   8    0.70    0.18
  -2  -4   8    0.76    0.10
   1   4  -8    9.06    0.58
   1   4  -8    9.87    0.55
   1   4  -8    8.60    0.58
  -1  -4   8    9.05    0.58
  -1  -4   8    7.96    0.55
   0   4  -8   48.26    2.77
   0   4  -8   48.64    2.74
   0   4  -8   45.76    2.74
   0   4  -8   43.77    2.75
   0  -4   8   44.92    2.76
   0  -4   8   44.27    2.74
   0  -4   8   45.74    2.74
  -1   4  -8    6.60    0.52
  -1   4  -8    6.16    0.43
  -1   4  -8    6.66    0.40
  -1   4  -8    6.24    0.39
   1  -4   8    5.93    0.41
   1  -4   8    6.43    0.40
  -2   4  -8    2.05    0.17
  -2   4  -8    2.24    0.16
  -2   4  -8    2.53    0.23
   2  -4   8    2.41    0.19
   2  -4   8    1.68    0.26
  -3   4  -8    8.96    0.54
   3  -4   8    9.79    0.56
   3  -4   8    7.93    0.56
   5   3  -8    7.57    0.51
   5   3  -8    7.37    0.50
  -5  -3   8    7.02    0.46
  -5  -3   8    7.37    0.46
  -5  -3   8    7.52    0.46
  -5  -3   8    7.56    0.51
   4   3  -8    0.11    0.14
   4   3  -8   -0.07    0.25
  -4  -3   8    0.06    0.07
  -4  -3   8   -0.01    0.09
   3   3  -8   -0.04    0.15
   3   3  -8   -0.13    0.14
  -3  -3   8    0.14    0.05
  -3  -3   8    0.23    0.13
  -3  -3   8    0.11    0.06
   2   3  -8   80.80    4.40
   2   3  -8   66.91    4.37
   2   3  -8   77.85    4.39
  -2  -3   8   74.09    4.37
  -2  -3   8   66.44    4.39
  -2  -3   8   77.60    4.38
  -2  -3   8   70.80    4.37
   1   3  -8   15.85    0.95
   1   3  -8   16.35    0.95
   1   3  -8   16.09    1.00
   1   3  -8   15.93    0.93
   1   3  -8   16.10    0.93
   1   3  -8   15.01    0.93
  -1  -3   8   14.93    0.93
  -1  -3   8   13.79    0.94
  -1  -3   8   15.02    0.92
   0   3  -8   43.74    2.49
   0   3  -8   42.26    2.50
   0   3  -8   40.02    2.47
   0   3  -8   45.16    2.47
   0   3  -8   43.97    2.47
   0   3  -8   39.08    2.48
   0  -3   8   39.55    2.48
   0  -3   8   38.61    2.47
   0  -3   8   40.32    2.47
  -1   3  -8    0.05    0.11
  -1   3  -8    0.20    0.06
  -1   3  -8    0.21    0.14
  -1   3  -8    0.12    0.06
   1  -3   8    0.30    0.11
   1  -3   8    0.16    0.14
   1  -3   8    0.06    0.06
   1  -3   8    0.21    0.10
   1  -3   8    0.12    0.06
  -2   3  -8   77.47    4.62
  -2   3  -8   77.99    4.67
  -2   3  -8   76.02    4.63
  -2   3  -8   73.07    4.62
   2  -3   8   75.38    4.63
   2  -3   8   77.04    4.63
   2  -3   8   83.22    4.63
   2  -3   8   80.97    4.67
  -3   3  -8    1.92    0.42
  -3   3  -8    1.97    0.18
  -3   3  -8    2.57    0.25
  -3   3  -8    2.32    0.17
   3  -3   8    2.39    0.22
  -4   3  -8    1.46    0.12
  -4   3  -8    1.44    0.13
   4  -3   8    1.49    0.16
   4  -3   8    1.46    0.20
   5   2  -8    1.66    0.21
  -5  -2   8    1.72    0.15
  -5  -2   8    1.45    0.16
   4   2  -8    2.28    0.31
   4   2  -8    2.85    0.27
   4   2  -8    2.61    0.32
  -4  -2   8    2.57    0.21
  -4  -2   8    2.42    0.20
  -4  -2   8    2.74    0.18
   3   2  -8   39.29    2.37
   3   2  -8   40.88    2.36
  -3  -2   8   39.70    2.34
  -3  -2   8   37.96    2.34
  -3  -2   8   41.40    2.34
  -3  -2   8   35.90    2.35
   2   2  -8    0.55    0.16
   2   2  -8    0.50    0.08
   2   2  -8    0.38    0.14
   2   2  -8    0.31    0.09
   2   2  -8    0.46    0.12
  -2  -2   8    0.39    0.08
  -2  -2   8    0.48    0.08
  -2  -2   8    0.60    0.06
  -2  -2   8    0.44    0.05
   1   2  -8   33.71    2.00
   1   2  -8   32.58    2.00
   1   2  -8   33.82    2.00
   1   2  -8   32.21    1.99
  -1  -2   8   34.05    1.99
   0   2  -8    5.19    0.33
   0   2  -8    5.15    0.34
   0   2  -8    4.99    0.32
   0  -2   8    4.97    0.31
   0  -2   8    4.69    0.33
   0  -2   8    5.06    0.32
  -1   2  -8   46.11    3.13
  -1   2  -8   49.76    3.12
  -1   2  -8   55.14    3.14
  -1   2  -8   57.20    3.14
   1  -2   8   51.27    3.13
   1  -2   8   56.25    3.14
   1  -2   8   51.26    3.13
  -2   2  -8   43.96    2.51
  -2   2  -8   44.47    2.51
  -2   2  -8   36.14    2.49
  -2   2  -8   43.00    2.49
   2  -2   8   43.75    2.49
   2  -2   8   43.01    2.52
   2  -2   8   37.74    2.50
   2  -2   8   41.45    2.49
  -3   2  -8    0.89    0.12
  -3   2  -8    1.00    0.13
  -3   2  -8    1.03    0.22
   3  -2   8    0.91    0.14
   3  -2   8    0.73    0.13
   3  -2   8    1.02    0.14
  -4   2  -8   20.66    1.24
  -4   2  -8   20.40    1.23
  -4   2  -8   20.24    1.23
   5   1  -8    4.06    0.35
  -5  -1   8    5.60    0.35
   4   1  -8   32.35    1.80
   4   1  -8   32.25    1.82
   4   1  -8   28.11    1.80
  -4  -1   8   29.83    1.79
  -4  -1   8   27.88    1.77
  -4  -1   8   28.44    1.77
  -4  -1   8   28.45    1.79
   3   1  -8    3.37    0.29
  -3  -1   8    3.34    0.22
  -3  -1   8    2.92    0.24
  -3  -1   8    3.22    0.22
   2   1  -8    0.81    0.14
   2   1  -8    0.91    0.14
   2   1  -8    1.02    0.12
   2   1  -8    0.90    0.13
  -2  -1   8    0.94    0.11
  -2  -1   8    0.98    0.09
  -2  -1   8    0.90    0.12
   1   1  -8   25.08    1.48
   1   1  -8   24.26    1.48
   0   1  -8  250.99   16.26
   0   1  -8  291.50   16.26
   0   1  -8  261.73   16.27
   0  -1   8  289.82   16.26
  -1   1  -8  103.06    6.35
  -1   1  -8  110.24    6.35
  -2   1  -8   48.46    2.73
  -2   1  -8   45.51    2.74
  -2   1  -8   49.69    2.74
   2  -1   8   42.48    2.73
   2  -1   8   45.20    2.75
   2  -1   8   47.89    2.73
   2  -1   8   40.90    2.74
  -3   1  -8   34.64    1.99
   3  -1   8   33.72    1.97
   3  -1   8   30.82    1.97
   3  -1   8   32.61    2.01
   3  -1   8   34.98    1.97
   3  -1   8   30.56    1.99
  -4   1  -8   22.16    1.47
  -4   1  -8   23.84    1.46
   4  -1   8   26.75    1.47
   4  -1   8   22.87    1.60
   4  -1   8   25.65    1.47
  -5   1  -8    3.70    0.42
  -5   1  -8    3.68    0.29
  -5   1  -8    4.39    0.28
   5  -1   8    4.74    0.28
   5  -1   8    4.00    0.29
   5   0  -8   22.95    1.23
   5   0  -8   18.06    1.22
  -5   0   8   21.82    1.22
  -5   0   8   17.71    1.20
   4   0  -8    0.24    0.14
   4   0  -8    0.16    0.12
   3   0  -8    0.16    0.13
  -3   0   8    0.21    0.07
  -3   0   8    0.38    0.09
  -3   0   8    0.32    0.08
  -3   0   8    0.35    0.13
  -3   0   8    0.13    0.14
   2   0  -8   20.66    1.22
   2   0  -8   20.98    1.22
   2   0  -8   19.29    1.22
   2   0  -8   20.49    1.24
  -2   0   8   18.74    1.22
  -2   0   8   20.81    1.23
  -2   0   8   21.04    1.22
   1   0  -8  139.81    9.10
   1   0  -8  153.41    9.10
   1   0  -8  166.01    9.11
   0   0  -8    3.09    0.20
   0   0  -8    3.17    0.20
   1   0   8    7.92    0.51
   1   0   8    8.46    0.50
  -2   0  -8   41.82    2.46
   2   0   8   40.37    2.47
   3   0   8   19.34    1.23
   3   0   8   19.97    1.20
   3   0   8   20.20    1.20
  -4   0  -8   -0.04    0.17
   4   0   8    0.16    0.08
   4   0   8    0.16    0.08
  -5   0  -8    7.91    0.49
  -5   0  -8    6.98    0.47
   5   0   8    7.22    0.46
   5   0   8    6.92    0.46
   5  -1  -8    2.13    0.20
  -5   1   8    2.00    0.24
   4  -1  -8   29.59    1.78
  -4   1   8   26.00    1.76
  -4   1   8   32.66    1.77
   3  -1  -8    0.49    0.16
   3  -1  -8    0.23    0.12
  -3   1   8    0.25    0.09
  -3   1   8    0.82    0.13
  -3   1   8    0.45    0.12
   2  -1  -8   66.65    4.05
   2  -1  -8   65.20    4.07
   2  -1  -8   69.61    4.05
  -2   1   8   64.96    4.06
  -2   1   8   73.85    4.05
   1  -1  -8    0.29    0.06
   1  -1  -8    0.26    0.06
  -1   1   8    0.40    0.09
   0  -1  -8   34.13    2.23
   0  -1  -8   38.41    2.23
   0   1   8   38.97    2.24
   0   1   8   37.37    2.23
   1   1   8   49.51    3.10
   1   1   8   54.50    3.10
   2   1   8   33.95    2.04
   3   1   8   75.57    4.27
   3   1   8   74.46    4.27
   3   1   8   64.82    4.29
   4   1   8   12.41    0.81
   4   1   8   13.91    0.81
   5   1   8    7.35    0.50
   5   1   8    7.37    0.46
   5   1   8    6.99    0.48
   4  -2  -8   20.28    1.22
  -4   2   8   19.87    1.23
   3  -2  -8   15.85    1.07
  -3   2   8   19.23    1.08
   2  -2  -8   65.97    3.90
   2  -2  -8   66.58    3.90
   2  -2  -8   63.79    3.91
   1  -2  -8   28.52    1.80
   1  -2  -8   30.22    1.79
  -1   2   8   29.98    1.79
  -1   2   8   31.04    1.81
   0  -2  -8   38.42    2.21
   0  -2  -8   34.24    2.21
   0   2   8   38.52    2.21
   1   2   8  100.01    6.59
   1   2   8  120.96    6.59
   2   2   8   66.26    4.06
   2   2   8   69.66    4.05
   3   2   8    7.22    0.53
   3   2   8    8.20    0.49
   4   2   8    0.28    0.15
   4   2   8    0.41    0.10
   4   2   8    0.36    0.15
   4   2   8    0.28    0.09
  -5  -2  -8    2.69    0.30
   5   2   8    3.33    0.24
   5   2   8    3.17    0.25
   4  -3  -8   12.62    0.77
   3  -3  -8    0.42    0.13
   3  -3  -8    0.17    0.12
  -3   3   8   -0.05    0.24
  -3   3   8    0.24    0.15
   2  -3  -8    7.26    0.43
   2  -3  -8    7.20    0.47
  -2   3   8    6.90    0.51
  -2   3   8    6.52    0.46
   1  -3  -8   11.37    0.78
   1  -3  -8   12.41    0.76
   1  -3  -8   11.99    0.75
   1  -3  -8   12.51    0.75
   1  -3  -8   13.49    0.79
  -1   3   8   11.35    0.83
  -1   3   8   12.59    0.76
  -1   3   8   12.92    0.77
  -1   3   8   12.76    0.76
   0  -3  -8   25.40    1.58
   0  -3  -8   28.22    1.58
   0  -3  -8   25.81    1.58
   0   3   8   26.03    1.58
   0   3   8   26.62    1.58
   0   3   8   29.15    1.58
   0   3   8   23.02    1.59
  -1  -3  -8   16.66    0.93
   1   3   8   15.58    0.94
   1   3   8   12.99    0.96
   1   3   8   16.59    0.94
   1   3   8   15.20    0.93
  -2  -3  -8   23.43    1.62
   2   3   8   28.25    1.63
   2   3   8   27.79    1.61
   2   3   8   27.81    1.61
  -3  -3  -8    0.95    0.19
   3   3   8    0.60    0.21
   3   3   8    0.76    0.15
  -4  -3  -8    3.02    0.36
   4   3   8    2.74    0.26
   4   3   8    2.81    0.25
   5   3   8    0.93    0.20
   5   3   8    1.43    0.17
   3  -4  -8    0.27    0.11
  -3   4   8    0.72    0.22
   2  -4  -8    8.99    0.57
   2  -4  -8    9.42    0.55
  -2   4   8    7.76    0.59
  -2   4   8    8.72    0.62
   1  -4  -8   32.97    1.83
   1  -4  -8   27.67    1.86
   1  -4  -8   32.66    1.82
  -1   4   8   32.14    1.86
  -1   4   8   26.32    1.84
  -1   4   8   30.87    1.84
   0  -4  -8   15.34    0.99
   0  -4  -8   16.72    0.97
   0  -4  -8   16.55    0.97
   0  -4  -8   16.43    0.98
   0   4   8   13.96    0.98
   0   4   8   15.68    1.01
   0   4   8   16.40    0.98
   0   4   8   16.85    0.98
  -1  -4  -8    2.05    0.16
  -1  -4  -8    2.38    0.18
  -1  -4  -8    1.97    0.17
   1   4   8    2.04    0.16
   1   4   8    1.81    0.19
   1   4   8    2.05    0.29
  -2  -4  -8    7.21    0.45
  -2  -4  -8    7.47    0.45
  -2  -4  -8    6.68    0.47
   2   4   8    7.62    0.46
   2   4   8    5.97    0.53
   2   4   8    7.88    0.49
   2   4   8    7.43    0.45
  -3  -4  -8   15.52    0.99
   3   4   8   16.25    0.97
   3   4   8   15.63    1.00
   3   4   8   15.49    0.97
   3   4   8   16.59    0.99
  -4  -4  -8   11.07    0.85
   4   4   8   12.91    0.74
   4   4   8   12.45    0.76
   4   4   8   11.18    0.80
   4   4   8   11.92    0.81
  -5  -4  -8    0.99    0.16
   2  -5  -8   16.75    1.01
  -2   5   8   16.43    1.04
   1  -5  -8    0.53    0.08
   1  -5  -8    0.47    0.10
  -1   5   8    0.50    0.20
  -1   5   8    0.69    0.18
   0  -5  -8   33.62    2.09
   0  -5  -8   35.55    2.08
   0  -5  -8   35.27    2.08
   0   5   8   34.78    2.10
   0   5   8   33.35    2.11
   0   5   8   35.92    2.09
  -1  -5  -8    0.14    0.12
  -1  -5  -8    0.18    0.14
  -1  -5  -8    0.12    0.06
  -1  -5  -8    0.17    0.08
   1   5   8    0.13    0.10
   1   5   8    0.07    0.13
  -2  -5  -8   11.84    0.74
  -2  -5  -8   11.32    0.75
  -2  -5  -8   11.75    0.75
   2   5   8   13.85    0.83
   2   5   8   11.64    0.76
   2   5   8   12.77    0.78
  -3  -5  -8    0.20    0.10
  -3  -5  -8    0.30    0.08
   3   5   8    0.31    0.18
   3   5   8    0.21    0.09
  -4  -5  -8    1.75    0.19
   4   5   8    1.92    0.23
   4   5   8    1.74    0.18
   4   5   8    1.78    0.26
  -5  -5  -8   16.42    0.98
   5   5   8   15.49    0.99
   1  -6  -8    0.13    0.06
  -1   6   8    0.00    0.18
   0  -6  -8   45.89    2.73
   0  -6  -8   45.87    2.73
   0   6   8   45.41    2.75
   0   6   8   45.74    2.76
  -1  -6  -8    4.21    0.28
  -1  -6  -8    3.89    0.33
  -1  -6  -8    4.08    0.29
   1   6   8    4.28    0.35
   1   6   8    4.25    0.38
  -2  -6  -8   33.06    1.97
  -2  -6  -8   33.71    1.97
   2   6   8   31.64    1.97
   2   6   8   33.94    1.99
   2   6   8   32.26    2.00
  -3  -6  -8    5.00    0.33
  -3  -6  -8    4.73    0.33
  -3  -6  -8    4.97    0.38
   3   6   8    5.56    0.47
   3   6   8    4.80    0.36
  -4  -6  -8   14.98    0.92
  -4  -6  -8   15.30    0.92
   4   6   8   15.46    0.94
   4   6   8   15.16    0.91
   4   6   8   14.40    0.93
  -1  -7  -8    0.17    0.08
  -1  -7  -8    0.15    0.05
   1   7   8    0.17    0.14
  -2  -7  -8    6.51    0.39
  -2  -7  -8    6.48    0.40
   2   7   8    6.17    0.49
   2   7   8    6.04    0.40
   2   7   8    6.20    0.45
  -3  -7  -8    9.26    0.57
  -3  -7  -8    8.92    0.57
  -3  -7  -8    9.56    0.57
   3   7   8    8.98    0.56
   3   7   8    9.84    0.60
   3   7   8    8.80    0.60
   3   6  -9   18.68    1.10
  -3  -6   9   17.86    1.08
  -3  -6   9   16.68    1.07
   2   6  -9    5.25    0.38
  -2  -6   9    5.00    0.34
   1   6  -9    0.68    0.14
  -1  -6   9    0.70    0.10
   0  -6   9    2.72    0.20
   4   5  -9   17.58    1.03
  -4  -5   9   15.52    1.00
   3   5  -9   27.51    1.65
  -3  -5   9   24.88    1.62
  -3  -5   9   28.54    1.62
   2   5  -9    0.30    0.18
   2   5  -9    0.22    0.14
  -2  -5   9    0.25    0.08
  -2  -5   9   -0.01    0.10
   1   5  -9    2.21    0.34
   1   5  -9    1.71    0.23
  -1  -5   9    1.85    0.15
   0   5  -9    6.50    0.45
   0  -5   9    6.68    0.44
   0  -5   9    6.51    0.42
  -1   5  -9    7.16    0.45
  -1   5  -9    7.40    0.49
   1  -5   9    7.68    0.47
  -2   5  -9    3.37    0.30
   2  -5   9    2.77    0.21
   5   4  -9   29.80    1.87
  -5  -4   9   31.37    1.83
   4   4  -9    4.75    0.38
  -4  -4   9    4.69    0.30
  -4  -4   9    4.63    0.32
   3   4  -9    1.75    0.28
  -3  -4   9    2.21    0.15
  -3  -4   9    2.27    0.22
   2   4  -9    1.76    0.28
   2   4  -9    2.45    0.27
  -2  -4   9    2.59    0.18
   1   4  -9   13.96    0.87
   1   4  -9   14.43    0.83
   1   4  -9   13.95    0.86
  -1  -4   9   12.64    0.85
  -1  -4   9   13.40    0.83
   0   4  -9    0.53    0.08
   0   4  -9    0.32    0.16
   0   4  -9    0.34    0.12
   0  -4   9    0.38    0.14
   0  -4   9    0.52    0.09
   0  -4   9    0.41    0.08
  -1   4  -9   10.30    0.58
  -1   4  -9    9.17    0.62
  -1   4  -9    9.93    0.58
  -1   4  -9   10.17    0.70
   1  -4   9    9.41    0.58
   1  -4   9    8.70    0.60
   1  -4   9    8.51    0.61
  -2   4  -9    0.05    0.07
  -2   4  -9    0.17    0.12
  -2   4  -9    0.04    0.06
   2  -4   9   -0.06    0.11
   2  -4   9    0.00    0.12
  -3   4  -9   34.20    1.82
  -3   4  -9   27.05    1.79
   3  -4   9   28.87    1.80
   5   3  -9    0.12    0.12
  -5  -3   9    0.21    0.07
  -5  -3   9    0.15    0.07
  -5  -3   9    0.31    0.16
   4   3  -9    0.04    0.15
   4   3  -9    0.00    0.17
  -4  -3   9    0.01    0.07
  -4  -3   9    0.12    0.09
  -4  -3   9   -0.12    0.07
   3   3  -9    0.34    0.19
   3   3  -9    0.75    0.17
  -3  -3   9    0.70    0.07
  -3  -3   9    0.54    0.07
  -3  -3   9    0.60    0.16
  -2  -3   9    9.25    0.57
   1   3  -9   33.11    1.98
   1   3  -9   32.41    2.00
   1   3  -9   31.21    2.00
   1   3  -9   35.41    1.98
   1   3  -9   34.70    1.99
   1   3  -9   35.91    2.10
  -1  -3   9   31.57    1.98
  -1  -3   9   31.07    1.99
   0   3  -9   19.10    1.10
   0   3  -9   18.21    1.10
   0   3  -9   17.43    1.09
   0   3  -9   18.84    1.13
   0   3  -9   19.36    1.09
   0  -3   9   18.30    1.09
   0  -3   9   19.07    1.09
   0  -3   9   15.53    1.13
   0  -3   9   16.74    1.11
  -1   3  -9    0.34    0.14
  -1   3  -9    0.33    0.17
  -1   3  -9    0.41    0.09
  -1   3  -9    0.38    0.07
   1  -3   9    0.33    0.11
   1  -3   9    0.26    0.08
   1  -3   9    0.24    0.12
   1  -3   9    0.38    0.10
   1  -3   9    0.22    0.07
  -2   3  -9    9.47    0.55
  -2   3  -9    8.96    0.56
  -2   3  -9    8.76    0.55
   2  -3   9    8.61    0.56
   2  -3   9    9.72    0.68
   2  -3   9    8.50    0.57
   2  -3   9    8.83    0.56
  -3   3  -9    1.20    0.13
  -3   3  -9    1.39    0.16
  -3   3  -9    1.26    0.14
   3  -3   9    1.55    0.18
   3  -3   9    1.59    0.18
   3  -3   9    1.62    0.18
   5   2  -9    8.17    0.59
  -5  -2   9    9.48    0.60
  -5  -2   9    9.86    0.56
   4   2  -9    1.63    0.25
  -4  -2   9    1.39    0.16
  -4  -2   9    1.68    0.16
   3   2  -9    2.14    0.26
  -3  -2   9    1.97    0.14
  -3  -2   9    1.79    0.19
  -3  -2   9    2.09    0.21
  -3  -2   9    2.19    0.15
  -3  -2   9    1.58    0.19
   2   2  -9   23.71    1.39
   2   2  -9   23.79    1.43
   2   2  -9   22.83    1.37
  -2  -2   9   21.75    1.39
  -2  -2   9   23.41    1.37
  -2  -2   9   20.06    1.38
  -2  -2   9   24.69    1.37
   1   2  -9    1.70    0.14
   1   2  -9    1.67    0.21
  -1  -2   9    1.69    0.16
  -1  -2   9    1.53    0.13
   0   2  -9    1.72    0.12
   0   2  -9    1.50    0.17
   0   2  -9    1.54    0.13
   0   2  -9    1.59    0.14
   0  -2   9    1.56    0.14
   0  -2   9    1.39    0.15
  -1   2  -9  120.67    6.76
  -1   2  -9  119.92    6.74
  -1   2  -9   96.19    6.74
  -1   2  -9  118.78    6.76
   1  -2   9  103.08    6.74
   1  -2   9  115.53    6.75
   1  -2   9  119.31    6.76
   1  -2   9  112.61    6.75
   1  -2   9  113.79    6.74
  -2   2  -9   29.62    1.68
  -2   2  -9   24.86    1.68
  -2   2  -9   29.07    1.71
   2  -2   9   28.96    1.72
   2  -2   9   29.14    1.68
   2  -2   9   26.54    1.68
  -3   2  -9    0.02    0.13
  -3   2  -9    0.10    0.07
   3  -2   9    0.16    0.08
   3  -2   9    0.07    0.11
   3  -2   9    0.21    0.09
   4  -2   9    4.37    0.30
   4  -2   9    4.01    0.30
   5   1  -9    2.51    0.26
  -5  -1   9    3.12    0.25
  -5  -1   9    3.31    0.21
   4   1  -9    6.72    0.44
  -4  -1   9    5.65    0.42
  -4  -1   9    5.62    0.38
   3   1  -9   14.53    0.88
  -3  -1   9   13.53    0.85
  -3  -1   9   13.89    0.84
   2   1  -9    6.74    0.42
   2   1  -9    6.55    0.46
   2   1  -9    6.63    0.47
  -2  -1   9    6.46    0.42
  -2  -1   9    6.59    0.41
   1   1  -9   22.43    1.35
   1   1  -9   21.43    1.36
  -1  -1   9   23.91    1.35
   0   1  -9  196.91   11.40
   0   1  -9  177.78   11.41
   0  -1   9  200.53   11.41
  -1   1  -9    7.49    0.44
  -1   1  -9    6.08    0.43
  -1   1  -9    7.01    0.44
   1  -1   9    7.41    0.44
   1  -1   9    7.15    0.43
  -2   1  -9    1.70    0.15
  -2   1  -9    1.80    0.17
  -2   1  -9    1.84    0.19
   2  -1   9    1.78    0.15
   2  -1   9    1.64    0.16
   2  -1   9    1.88    0.19
   2  -1   9    2.06    0.16
   2  -1   9    1.80    0.20
  -3   1  -9    0.38    0.15
  -3   1  -9    0.68    0.26
   3  -1   9    0.57    0.09
   3  -1   9    0.50    0.20
   3  -1   9    0.72    0.13
   3  -1   9    0.40    0.10
  -4   1  -9    8.25    0.54
  -4   1  -9    7.99    0.53
   4  -1   9    9.08    0.54
  -5   1  -9    0.75    0.16
  -5   1  -9    1.04    0.13
   5  -1   9    1.04    0.15
   5  -1   9    0.63    0.10
   5   0  -9    3.38    0.31
   5   0  -9    4.03    0.38
  -5   0   9    4.64    0.30
   4   0  -9    5.70    0.38
   4   0  -9    4.56    0.39
  -4   0   9    5.16    0.37
  -4   0   9    4.88    0.33
   3   0  -9    6.84    0.45
   3   0  -9    6.63    0.47
  -3   0   9    6.50    0.42
  -3   0   9    6.53    0.41
  -3   0   9    6.09    0.41
   2   0  -9    2.76    0.28
   2   0  -9    2.81    0.19
   2   0  -9    2.51    0.24
   2   0  -9    2.92    0.20
   2   0  -9    2.48    0.19
  -2   0   9    2.41    0.18
  -2   0   9    2.35    0.20
  -2   0   9    2.12    0.18
  -2   0   9    2.60    0.23
   1   0  -9  309.58   18.95
  -1   0   9  327.67   18.94
   0   0  -9    0.03    0.03
   0   0  -9    0.02    0.04
   0   0   9   -0.05    0.06
   1   0   9    5.54    0.34
   1   0   9    5.32    0.34
  -2   0  -9   16.66    1.05
   2   0   9   16.95    1.06
   2   0   9   18.26    1.06
   3   0   9   11.28    0.69
   3   0   9   11.41    0.73
   3   0   9   11.07    0.70
   3   0   9   11.33    0.69
  -4   0  -9    0.20    0.11
  -4   0  -9    0.11    0.21
   4   0   9    0.47    0.09
   4   0   9    0.29    0.09
   4   0   9    0.34    0.16
  -5   0  -9    0.67    0.16
   5   0   9    0.59    0.10
   5  -1  -9    0.02    0.09
   4  -1  -9   33.71    2.10
  -4   1   9   35.70    2.09
   3  -1  -9   12.59    0.75
   3  -1  -9   11.81    0.77
  -3   1   9   10.69    0.73
  -3   1   9   12.18    0.72
   2  -1  -9  162.24    9.85
   2  -1  -9  166.25    9.83
   2  -1  -9  167.05    9.85
   2  -1  -9  175.89    9.83
  -2   1   9  154.24    9.83
  -2   1   9  165.88    9.83
   1  -1  -9    4.24    0.29
  -1   1   9    4.63    0.29
  -1   1   9    4.38    0.30
   0  -1  -9   -0.01    0.05
   0  -1  -9    0.04    0.05
   0   1   9    0.10    0.10
   0   1   9    0.01    0.05
   1   1   9   40.95    2.45
   2   1   9   52.05    3.12
   3   1   9    0.20    0.08
   3   1   9    0.23    0.08
   4   1   9   16.53    1.02
   4   1   9   17.80    1.01
   4   1   9   14.94    1.02
   4   1   9   16.95    1.01
  -5  -1  -9    0.38    0.14
   4  -2  -9    7.25    0.45
  -4   2   9    6.43    0.46
   3  -2  -9  124.86    7.13
  -3   2   9  114.11    7.13
   2  -2  -9   31.33    1.89
   2  -2  -9   31.98    1.87
  -2   2   9   30.64    1.88
   1  -2  -9  209.76   12.02
   1  -2  -9  187.15   12.02
   1  -2  -9  197.29   12.02
   1  -2  -9  180.79   12.02
  -1   2   9  204.75   12.03
  -1   2   9  219.46   12.02
  -1   2   9  225.93   12.02
  -1   2   9  191.61   12.02
   0  -2  -9    4.01    0.29
   0  -2  -9    4.44    0.29
   0  -2  -9    4.60    0.32
   0   2   9    4.76    0.31
   0   2   9    4.60    0.30
   0   2   9    4.75    0.29
   1   2   9    0.22    0.05
   1   2   9    0.17    0.06
   2   2   9    4.50    0.28
   2   2   9    3.88    0.27
   3   2   9    0.10    0.09
   3   2   9    0.28    0.16
   4   2   9    9.68    0.71
   4   2   9   10.10    0.62
   4   2   9   10.23    0.63
   5   2   9    9.21    0.59
   5   2   9    8.94    0.60
   5   2   9    9.59    0.58
   4  -3  -9   11.77    0.70
  -4   3   9   10.71    0.79
   3  -3  -9    0.13    0.13
  -3   3   9    0.07    0.13
  -2   3   9    1.82    0.21
   1  -3  -9   39.15    2.41
   1  -3  -9   39.79    2.41
   1  -3  -9   39.76    2.41
   1  -3  -9   36.99    2.43
  -1   3   9   41.15    2.42
  -1   3   9   41.17    2.42
  -1   3   9   43.53    2.44
  -1   3   9   41.55    2.42
   0  -3  -9   13.09    0.87
   0  -3  -9   15.57    0.87
   0  -3  -9   14.65    0.87
   0   3   9   15.67    0.87
   0   3   9   14.29    0.88
   0   3   9   13.52    0.88
   0   3   9   13.86    0.87
   0   3   9   14.08    0.88
  -1  -3  -9    4.06    0.26
  -1  -3  -9    3.98    0.25
   1   3   9    4.01    0.28
   1   3   9    4.02    0.26
   1   3   9    3.58    0.25
   2   3   9    7.99    0.47
   2   3   9    7.94    0.47
   2   3   9    6.21    0.50
   2   3   9    7.65    0.48
  -3  -3  -9    1.17    0.21
   3   3   9    0.84    0.16
   3   3   9    1.10    0.14
  -4  -3  -9   21.27    1.34
   4   3   9   23.21    1.29
   4   3   9   18.77    1.31
   4   3   9   21.70    1.30
   5   3   9    0.46    0.15
   5   3   9    0.33    0.11
  -3   4   9    1.04    0.25
  -3   4   9    1.29    0.27
   2  -4  -9    0.10    0.10
   2  -4  -9   -0.01    0.15
  -2   4   9    0.07    0.15
  -2   4   9   -0.04    0.24
   1  -4  -9    9.90    0.58
   1  -4  -9    9.78    0.58
   1  -4  -9    9.61    0.64
  -1   4   9    9.12    0.65
  -1   4   9    8.44    0.61
   0  -4  -9    0.30    0.13
   0  -4  -9    0.20    0.07
   0  -4  -9    0.18    0.08
   0  -4  -9    0.16    0.10
   0   4   9    0.16    0.08
   0   4   9    0.09    0.12
   0   4   9    0.46    0.12
   0   4   9    0.43    0.18
   0   4   9    0.21    0.08
  -1  -4  -9    4.03    0.26
  -1  -4  -9    3.79    0.27
  -1  -4  -9    3.91    0.26
   1   4   9    4.08    0.27
   1   4   9    3.63    0.35
   1   4   9    3.76    0.27
  -2  -4  -9   10.06    0.61
  -2  -4  -9    9.51    0.61
   2   4   9   10.84    0.70
   2   4   9    9.71    0.62
   2   4   9   10.52    0.62
   2   4   9    9.06    0.65
   2   4   9   10.29    0.62
   3   4   9   10.37    0.68
   3   4   9    9.12    0.68
   3   4   9   11.18    0.65
   3   4   9   10.80    0.66
   4   4   9    0.03    0.10
   4   4   9    0.04    0.13
   4   4   9    0.16    0.16
   5   4   9    0.88    0.18
   2  -5  -9    5.98    0.39
  -2   5   9    6.32    0.46
   1  -5  -9    2.87    0.20
   1  -5  -9    2.91    0.23
  -1   5   9    2.33    0.30
  -1   5   9    2.34    0.37
   0  -5  -9   10.60    0.66
   0  -5  -9   10.82    0.66
   0  -5  -9   11.31    0.66
   0   5   9   10.40    0.68
   0   5   9   10.76    0.69
   0   5   9   10.06    0.70
  -1  -5  -9    3.00    0.32
  -1  -5  -9    3.10    0.22
  -1  -5  -9    3.06    0.22
   1   5   9    2.75    0.30
   1   5   9    2.98    0.32
   1   5   9    2.84    0.25
   1   5   9    2.86    0.24
  -2  -5  -9    8.40    0.50
  -2  -5  -9    7.59    0.51
  -2  -5  -9    8.10    0.52
   2   5   9    8.35    0.52
   2   5   9    7.78    0.51
   2   5   9    7.62    0.56
   2   5   9    7.79    0.55
  -3  -5  -9    3.01    0.33
  -3  -5  -9    2.61    0.21
   3   5   9    2.37    0.29
   3   5   9    2.48    0.29
   3   5   9    2.76    0.22
  -4  -5  -9    0.30    0.11
   4   5   9    0.21    0.13
   4   5   9    0.25    0.12
   5   5   9    2.23    0.22
   1  -6  -9    0.17    0.07
  -1   6   9   -0.16    0.17
   0  -6  -9    4.87    0.33
   0  -6  -9    5.37    0.34
   0   6   9    4.94    0.46
   0   6   9    5.60    0.41
  -1  -6  -9   11.36    0.68
  -1  -6  -9   11.21    0.69
  -1  -6  -9   11.29    0.70
  -1  -6  -9   11.55    0.69
   1   6   9   10.78    0.70
   1   6   9   10.82    0.72
  -2  -6  -9   24.38    1.41
  -2  -6  -9   23.24    1.42
  -2  -6  -9   23.70    1.41
   2   6   9   23.11    1.43
   2   6   9   22.71    1.41
  -3  -6  -9    4.77    0.32
  -3  -6  -9    4.93    0.32
   3   6   9    4.64    0.32
   3   6   9    4.42    0.36
   3   6   9    4.77    0.39
  -4  -6  -9    2.81    0.24
  -4  -6  -9    2.87    0.26
   4   6   9    2.79    0.21
   4   6   9    2.95    0.26
  -1  -7  -9    1.53    0.13
   1   7   9    2.05    0.36
   1   7   9    2.18    0.25
  -2  -7  -9    5.62    0.34
  -2  -7  -9    5.43    0.34
  -2  -7  -9    5.21    0.33
   2   7   9    4.94    0.34
   2   7   9    4.84    0.41
   2   7   9    5.53    0.39
  -3  -7  -9    7.76    0.48
  -3  -7  -9    7.81    0.48
  -3  -7  -9    7.59    0.48
   3   7   9    8.00    0.51
   3   7   9    7.68    0.47
   3   7   9    7.22    0.51
   3   6 -10    1.22    0.23
  -3  -6  10    1.20    0.12
  -3  -6  10    1.28    0.16
   2   6 -10   10.74    0.68
  -2  -6  10   10.41    0.65
   1   6 -10    4.13    0.31
  -1  -6  10    3.55    0.26
   0   6 -10    5.64    0.42
   4   5 -10    0.98    0.18
  -4  -5  10    1.03    0.12
   3   5 -10    5.09    0.38
  -3  -5  10    4.79    0.33
  -3  -5  10    4.70    0.32
   2   5 -10   11.36    0.69
   2   5 -10    9.30    0.71
  -2  -5  10   11.17    0.66
  -2  -5  10   10.78    0.66
   1   5 -10    1.00    0.20
  -1  -5  10    0.90    0.12
   0   5 -10    0.50    0.13
   0  -5  10    0.56    0.12
   0  -5  10    0.35    0.09
  -1   5 -10   21.74    1.30
   1  -5  10   21.11    1.29
   5   4 -10    0.28    0.11
  -5  -4  10    0.18    0.06
   4   4 -10   36.41    2.16
  -4  -4  10   34.12    2.15
  -4  -4  10   36.62    2.13
   3   4 -10   25.96    1.56
  -3  -4  10   25.91    1.54
  -3  -4  10   23.75    1.52
  -3  -4  10   26.31    1.53
   2   4 -10   19.26    1.23
   2   4 -10   21.58    1.23
   2   4 -10   19.26    1.24
  -2  -4  10   17.84    1.23
  -2  -4  10   21.12    1.20
   1   4 -10    3.43    0.33
   1   4 -10    4.10    0.32
  -1  -4  10    3.80    0.31
  -1  -4  10    3.77    0.26
   0   4 -10    9.09    0.62
   0   4 -10   10.28    0.59
   0   4 -10    9.65    0.59
   0   4 -10    9.60    0.66
   0  -4  10   10.13    0.60
   0  -4  10    9.18    0.64
   0  -4  10    9.60    0.60
  -1   4 -10    0.23    0.07
  -1   4 -10    0.32    0.17
  -1   4 -10    0.17    0.07
  -1   4 -10    0.01    0.30
   1  -4  10    0.12    0.13
   1  -4  10    0.10    0.08
   1  -4  10    0.16    0.10
  -2   4 -10    2.62    0.18
  -2   4 -10    2.77    0.19
  -2   4 -10    2.46    0.24
   2  -4  10    2.67    0.21
   2  -4  10    2.60    0.23
  -3   4 -10   12.01    0.68
  -3   4 -10    9.50    0.64
   3  -4  10   10.52    0.65
   5   3 -10    9.32    0.62
  -5  -3  10    9.14    0.63
  -5  -3  10   10.53    0.59
   4   3 -10    8.14    0.57
  -4  -3  10    7.89    0.50
  -4  -3  10    8.03    0.49
   3   3 -10    0.02    0.15
   3   3 -10    0.28    0.16
  -3  -3  10   -0.20    0.20
  -3  -3  10    0.24    0.12
   2   3 -10   12.63    0.79
   2   3 -10   10.92    0.76
   2   3 -10   12.23    0.80
   2   3 -10   13.76    0.80
  -2  -3  10   13.19    0.76
  -2  -3  10   12.15    0.75
   1   3 -10   80.01    4.78
   1   3 -10   73.41    4.78
   1   3 -10   81.63    4.77
  -1  -3  10   80.99    4.77
  -1  -3  10   83.93    4.77
   0   3 -10   27.49    1.58
   0   3 -10   25.14    1.59
   0   3 -10   27.33    1.63
   0   3 -10   27.67    1.61
   0   3 -10   26.84    1.58
   0  -3  10   24.23    1.59
   0  -3  10   26.51    1.60
  -1   3 -10    2.21    0.19
  -1   3 -10    2.46    0.35
  -1   3 -10    2.19    0.16
  -1   3 -10    2.14    0.17
  -1   3 -10    2.39    0.29
   1  -3  10    2.35    0.18
   1  -3  10    2.18    0.23
   1  -3  10    2.10    0.18
   1  -3  10    1.97    0.24
  -2   3 -10   15.20    0.90
  -2   3 -10   15.46    0.90
  -2   3 -10   13.75    0.90
   2  -3  10   15.68    0.91
   2  -3  10   14.22    0.92
   2  -3  10   15.18    0.92
  -3   3 -10    0.36    0.09
  -3   3 -10    0.38    0.12
  -3   3 -10    0.40    0.08
   3  -3  10    0.31    0.10
   3  -3  10    0.32    0.10
   3  -3  10    0.48    0.11
   5   2 -10    6.66    0.47
  -5  -2  10    7.61    0.48
  -4  -2  10   19.69    1.24
  -4  -2  10   20.32    1.21
  -4  -2  10   20.20    1.21
   3   2 -10    0.19    0.15
  -3  -2  10    0.49    0.08
  -3  -2  10    0.58    0.10
   2   2 -10    4.24    0.37
   2   2 -10    4.10    0.30
  -2  -2  10    4.41    0.29
  -2  -2  10    4.22    0.27
  -2  -2  10    4.31    0.28
   1   2 -10   18.36    0.96
   1   2 -10   14.72    1.03
   1   2 -10   16.47    0.96
   1   2 -10   14.57    0.97
   1   2 -10   14.94    0.99
   1   2 -10   17.78    0.96
  -1  -2  10   14.08    0.97
  -1  -2  10   16.31    0.96
   0   2 -10    1.24    0.17
   0   2 -10    1.25    0.17
   0   2 -10    1.53    0.14
   0   2 -10    1.38    0.12
   0   2 -10    1.38    0.11
   0  -2  10    1.48    0.18
   0  -2  10    1.25    0.12
   0  -2  10    1.00    0.18
   0  -2  10    1.25    0.15
   0  -2  10    1.54    0.13
  -1   2 -10   41.44    2.47
  -1   2 -10   42.47    2.50
  -1   2 -10   42.45    2.49
  -1   2 -10   38.56    2.47
   1  -2  10   43.02    2.48
   1  -2  10   43.88    2.49
   1  -2  10   40.22    2.48
   1  -2  10   39.60    2.48
  -2   2 -10    0.36    0.08
  -2   2 -10    0.52    0.09
  -2   2 -10    0.49    0.15
  -2   2 -10    0.48    0.20
   2  -2  10    0.52    0.15
   2  -2  10    0.44    0.12
   2  -2  10    0.62    0.09
   2  -2  10    0.46    0.09
  -3   2 -10   -0.05    0.09
  -3   2 -10    0.22    0.07
   3  -2  10    0.11    0.09
   3  -2  10    0.31    0.10
   3  -2  10    0.11    0.11
  -4   2 -10    2.52    0.24
  -4   2 -10    2.41    0.21
  -4   2 -10    2.59    0.20
   4  -2  10    3.21    0.22
   4  -2  10    3.00    0.23
   5   1 -10    0.28    0.12
  -5  -1  10    0.20    0.10
   4   1 -10    0.14    0.15
  -4  -1  10    0.37    0.08
  -4  -1  10    0.17    0.16
  -4  -1  10    0.22    0.12
   3   1 -10    0.19    0.15
  -3  -1  10    0.01    0.08
  -3  -1  10    0.11    0.07
  -3  -1  10    0.18    0.14
  -3  -1  10    0.12    0.07
   2   1 -10   36.05    2.23
   2   1 -10   34.68    2.17
   2   1 -10   34.24    2.17
   2   1 -10   31.74    2.16
   2   1 -10   36.72    2.16
  -2  -1  10   38.65    2.16
  -2  -1  10   41.00    2.16
   1   1 -10    8.34    0.48
   1   1 -10    8.72    0.48
   1   1 -10    7.31    0.49
   1   1 -10    7.88    0.50
  -1  -1  10    8.01    0.48
  -1  -1  10    6.64    0.48
   0   1 -10   41.77    2.48
   0   1 -10   39.71    2.47
   0   1 -10   43.05    2.47
   0   1 -10   42.37    2.48
   0  -1  10   40.11    2.47
  -1   1 -10    0.36    0.07
  -1   1 -10    0.37    0.07
  -1   1 -10    0.53    0.11
   1  -1  10    0.32    0.10
   1  -1  10    0.49    0.10
   1  -1  10    0.37    0.09
   1  -1  10    0.40    0.09
   1  -1  10    0.44    0.07
  -2   1 -10    7.29    0.49
  -2   1 -10    8.23    0.52
   2  -1  10    9.20    0.53
   2  -1  10    7.71    0.50
   2  -1  10    7.82    0.50
   2  -1  10    7.86    0.51
  -3   1 -10    0.49    0.10
  -3   1 -10    0.93    0.18
   3  -1  10    0.73    0.14
   3  -1  10    0.75    0.22
  -4   1 -10    0.35    0.10
  -4   1 -10    0.22    0.13
   4  -1  10    0.43    0.11
   5   0 -10    3.81    0.27
   5   0 -10    2.68    0.27
   4   0 -10    6.44    0.46
  -4   0  10    6.25    0.41
  -4   0  10    6.75    0.43
   3   0 -10    0.61    0.15
   3   0 -10    0.42    0.17
  -3   0  10    0.62    0.13
  -3   0  10    0.56    0.11
   2   0 -10    1.54    0.14
   2   0 -10    1.15    0.16
   2   0 -10    1.49    0.26
   2   0 -10    1.42    0.15
   2   0 -10    1.58    0.26
   2   0 -10    1.19    0.15
  -2   0  10    1.56    0.14
  -2   0  10    1.53    0.17
   1   0 -10    0.83    0.12
   1   0 -10    1.05    0.12
  -1   0  10    0.96    0.11
   0   0 -10    0.35    0.06
   1   0  10   16.48    0.93
   1   0  10   14.16    0.93
  -2   0 -10    0.79    0.12
   2   0  10    0.70    0.13
   2   0  10    0.63    0.14
   2   0  10    0.81    0.12
   3   0  10    4.31    0.29
   3   0  10    4.26    0.29
   3   0  10    4.58    0.35
   3   0  10    3.83    0.29
   3   0  10    4.31    0.31
  -4   0 -10    1.05    0.30
  -4   0 -10    0.81    0.14
   4   0  10    1.07    0.18
   4   0  10    1.45    0.16
   4   0  10    1.12    0.15
  -5   0 -10    1.80    0.26
  -5   0 -10    1.78    0.27
   5   0  10    2.76    0.20
   5   0  10    2.25    0.19
   4  -1 -10    2.70    0.34
  -4   1  10    3.09    0.24
  -3   1  10    0.09    0.10
   2  -1 -10    7.19    0.46
   2  -1 -10    7.35    0.46
   2  -1 -10    7.86    0.46
   2  -1 -10    7.15    0.53
  -2   1  10    7.19    0.46
  -2   1  10    7.59    0.47
   1  -1 -10   29.24    1.80
   1  -1 -10   28.93    1.78
   1  -1 -10   28.92    1.79
  -1   1  10   33.18    1.78
  -1   1  10   28.74    1.79
   0  -1 -10   16.19    0.98
   0  -1 -10   17.29    0.98
   0   1  10   15.49    0.99
   2   1  10   17.00    1.04
  -3  -1 -10  136.84    7.73
   3   1  10  123.41    7.72
   3   1  10  128.89    7.72
   4   1  10    6.89    0.42
   4   1  10    6.79    0.43
   4   1  10    5.59    0.48
  -5  -1 -10    0.98    0.17
   5   1  10    0.98    0.16
   5   1  10    1.28    0.15
   4  -2 -10    0.60    0.12
  -4   2  10    0.68    0.14
   3  -2 -10    8.21    0.49
  -3   2  10    6.20    0.47
   2  -2 -10    3.23    0.28
   2  -2 -10    3.38    0.23
   2  -2 -10    3.10    0.23
  -2   2  10    2.57    0.40
  -2   2  10    2.94    0.23
   1  -2 -10   53.33    3.13
   1  -2 -10   57.35    3.14
   1  -2 -10   50.88    3.14
   1  -2 -10   47.71    3.14
  -1   2  10   44.34    3.14
  -1   2  10   56.75    3.14
  -1   2  10   57.33    3.14
   0  -2 -10    9.09    0.60
   0  -2 -10    9.47    0.59
   0   2  10   10.31    0.60
   0   2  10    9.83    0.60
   0   2  10   10.32    0.61
   0   2  10    9.43    0.62
   1   2  10   11.18    0.70
   1   2  10   11.00    0.72
   1   2  10   12.40    0.71
   2   2  10   19.26    1.38
   2   2  10   25.94    1.36
   3   2  10   27.96    1.70
   4   2  10    6.88    0.44
   4   2  10    5.85    0.43
   4   2  10    6.63    0.44
   5   2  10    1.94    0.22
   5   2  10    1.57    0.17
   5   2  10    1.88    0.21
   4  -3 -10    8.47    0.53
   3  -3 -10    0.71    0.17
  -3   3  10    0.89    0.15
   2  -3 -10    7.12    0.48
   2  -3 -10    7.22    0.44
  -2   3  10    6.88    0.57
  -2   3  10    6.66    0.47
   1  -3 -10   11.74    0.75
   1  -3 -10   12.19    0.75
   1  -3 -10   12.17    0.75
  -1   3  10   13.82    0.77
  -1   3  10   11.98    0.77
  -1   3  10   11.94    0.76
   0  -3 -10   20.79    1.19
   0  -3 -10   18.13    1.19
   0  -3 -10   19.42    1.19
   0   3  10   19.38    1.19
   0   3  10   19.22    1.20
   0   3  10   20.57    1.19
   0   3  10   20.46    1.20
   0   3  10   19.48    1.19
  -1  -3 -10   12.41    0.80
   1   3  10   12.63    0.80
   1   3  10   14.08    0.81
   1   3  10   13.00    0.83
   1   3  10   14.00    0.81
   2   3  10   19.81    1.19
   2   3  10   19.35    1.19
   2   3  10   19.81    1.19
   3   3  10    3.56    0.32
   3   3  10    3.95    0.33
   3   3  10    4.10    0.32
  -4  -3 -10    0.56    0.28
   4   3  10    0.73    0.15
   5   3  10   14.11    0.87
   3  -4 -10    4.92    0.37
  -3   4  10    5.69    0.45
   2  -4 -10    0.07    0.11
  -2   4  10   -0.10    0.14
   1  -4 -10    6.28    0.40
   1  -4 -10    6.07    0.45
   1  -4 -10    6.38    0.39
  -1   4  10    5.87    0.54
  -1   4  10    5.66    0.43
  -1   4  10    6.03    0.46
   0  -4 -10   18.89    1.09
   0  -4 -10   17.07    1.11
   0  -4 -10   18.26    1.09
   0  -4 -10   18.48    1.09
   0   4  10   17.25    1.11
   0   4  10   19.14    1.10
   0   4  10   17.73    1.10
   0   4  10   16.91    1.13
   0   4  10   18.20    1.10
  -1  -4 -10   10.96    0.67
  -1  -4 -10   11.05    0.66
   1   4  10   10.08    0.66
   1   4  10   10.85    0.67
   1   4  10   10.83    0.67
  -2  -4 -10   20.01    1.18
   2   4  10   20.65    1.18
   2   4  10   17.59    1.21
   2   4  10   19.48    1.18
   2   4  10   19.69    1.18
   3   4  10    1.16    0.22
   3   4  10    1.17    0.16
   3   4  10    1.17    0.18
   3   4  10    1.41    0.18
   4   4  10   31.02    1.90
   4   4  10   34.86    1.89
   4   4  10   28.39    1.91
   5   4  10    1.00    0.17
   2  -5 -10    0.20    0.08
  -2   5  10    0.04    0.24
  -2   5  10    0.09    0.28
  -1   5  10   15.43    1.06
  -1   5  10   18.74    1.10
   0  -5 -10    0.56    0.10
   0  -5 -10    0.90    0.14
   0  -5 -10    0.99    0.21
   0   5  10    0.75    0.20
   0   5  10    0.65    0.17
   0   5  10    0.92    0.14
   0   5  10    0.79    0.18
  -1  -5 -10    3.00    0.24
  -1  -5 -10    2.94    0.26
  -1  -5 -10    3.08    0.22
   1   5  10    2.98    0.24
   1   5  10    2.85    0.32
   1   5  10    3.14    0.26
  -2  -5 -10    0.97    0.14
  -2  -5 -10    0.91    0.14
  -2  -5 -10    0.85    0.13
   2   5  10    0.83    0.22
   2   5  10    1.11    0.20
   2   5  10    0.91    0.12
  -3  -5 -10    0.96    0.16
   3   5  10    1.10    0.19
   3   5  10    1.10    0.16
   3   5  10    0.64    0.17
   4   5  10    3.66    0.32
   4   5  10    4.00    0.29
   5   5  10    5.86    0.39
   1  -6 -10    0.88    0.12
   0  -6 -10    3.06    0.21
   0  -6 -10    3.31    0.23
   0   6  10    2.72    0.35
   0   6  10    3.10    0.31
  -1  -6 -10   13.40    0.82
  -1  -6 -10   13.72    0.82
  -1  -6 -10   13.75    0.83
  -1  -6 -10   13.92    0.81
   1   6  10   13.34    0.85
   1   6  10   13.65    0.82
   1   6  10   11.29    0.84
  -2  -6 -10    1.67    0.17
  -2  -6 -10    1.69    0.18
  -2  -6 -10    1.85    0.21
   2   6  10    2.16    0.29
   2   6  10    1.78    0.22
   2   6  10    1.69    0.22
  -3  -6 -10    0.78    0.12
   3   6  10    0.67    0.09
   3   6  10    0.63    0.18
   3   6  10    0.58    0.14
  -4  -6 -10    4.07    0.32
   4   6  10    3.99    0.31
   4   6  10    4.10    0.27
  -1  -7 -10    3.21    0.22
   1   7  10    3.57    0.31
   1   7  10    3.27    0.50
  -2  -7 -10    1.17    0.14
  -2  -7 -10    1.26    0.13
  -2  -7 -10    1.51    0.14
   2   7  10    1.40    0.26
   2   7  10    1.31    0.15
   2   7  10    1.45    0.22
  -3  -7 -10    1.64    0.17
  -3  -7 -10    1.76    0.16
   3   7  10    1.96    0.14
   3   7  10    1.88    0.20
   3   7  10    1.48    0.23
   3   6 -11    0.05    0.14
  -3  -6  11    0.08    0.06
   2   6 -11    7.14    0.55
  -2  -6  11    7.91    0.47
  -1  -6  11    1.63    0.14
   4   5 -11    1.47    0.27
   4   5 -11    1.21    0.18
  -4  -5  11    1.32    0.12
   3   5 -11    5.67    0.40
   3   5 -11    5.08    0.39
  -3  -5  11    5.38    0.36
  -3  -5  11    5.02    0.34
   2   5 -11    2.52    0.26
  -2  -5  11    2.18    0.23
  -2  -5  11    2.29    0.19
   1   5 -11   11.65    0.72
  -1  -5  11   10.75    0.69
   0   5 -11   44.82    2.64
   0  -5  11   43.30    2.63
   0  -5  11   44.04    2.64
  -1   5 -11    2.03    0.23
   1  -5  11    1.68    0.17
   5   4 -11    0.02    0.11
  -5  -4  11    0.06    0.06
   4   4 -11    0.07    0.17
   4   4 -11    0.06    0.14
  -4  -4  11    0.16    0.07
   3   4 -11    1.28    0.20
   3   4 -11    1.45    0.26
  -3  -4  11    1.54    0.17
  -3  -4  11    1.22    0.15
   2   4 -11    5.72    0.40
   2   4 -11    5.53    0.43
  -2  -4  11    4.92    0.35
  -2  -4  11    5.15    0.36
   1   4 -11   93.01    5.31
   1   4 -11   89.94    5.33
  -1  -4  11   89.06    5.33
  -1  -4  11   84.80    5.32
   0   4 -11   38.51    2.23
   0  -4  11   36.32    2.24
  -1   4 -11   20.79    1.27
  -1   4 -11   20.55    1.25
  -1   4 -11   21.73    1.25
   1  -4  11   20.10    1.26
   1  -4  11   23.03    1.30
   1  -4  11   18.66    1.26
  -2   4 -11    0.00    0.07
  -2   4 -11    0.11    0.12
  -2   4 -11    0.15    0.06
   2  -4  11    0.07    0.10
   2  -4  11   -0.06    0.08
   5   3 -11    8.24    0.52
  -5  -3  11    7.66    0.49
   4   3 -11    0.28    0.19
   4   3 -11    0.15    0.19
  -4  -3  11    0.29    0.08
  -4  -3  11    0.12    0.08
   3   3 -11   22.32    1.25
   3   3 -11   17.72    1.25
  -3  -3  11   20.63    1.20
  -3  -3  11   20.02    1.22
  -3  -3  11   19.85    1.21
   2   3 -11  245.79   13.95
   2   3 -11  258.07   13.96
   2   3 -11  202.16   13.96
   2   3 -11  251.62   13.94
  -2  -3  11  238.75   13.94
  -2  -3  11  206.78   13.95
  -2  -3  11  237.39   13.94
   1   3 -11   -0.08    0.10
   1   3 -11    0.29    0.07
   1   3 -11   -0.13    0.12
   1   3 -11    0.15    0.07
  -1  -3  11    0.00    0.15
  -1  -3  11    0.07    0.12
  -1  -3  11    0.04    0.07
   0   3 -11  387.31   22.16
   0   3 -11  396.43   22.17
   0   3 -11  364.37   22.19
   0   3 -11  363.89   22.17
   0   3 -11  377.85   22.16
   0   3 -11  358.08   22.20
   0  -3  11  356.17   22.17
   0  -3  11  378.82   22.18
   0  -3  11  372.96   22.17
  -1   3 -11   13.12    0.80
  -1   3 -11   14.05    0.80
  -1   3 -11   11.75    0.89
  -1   3 -11   13.24    0.80
   1  -3  11   12.79    0.80
   1  -3  11   14.00    0.82
   1  -3  11   12.59    0.82
   1  -3  11   13.52    0.84
  -2   3 -11   13.56    0.84
  -2   3 -11   14.39    0.84
  -2   3 -11   13.45    0.84
   2  -3  11   13.81    0.85
   2  -3  11   14.19    0.86
  -3   3 -11    0.43    0.10
  -3   3 -11    0.61    0.09
  -3   3 -11    0.76    0.10
   3  -3  11    0.59    0.10
   3  -3  11    0.50    0.11
   3  -3  11    0.60    0.10
   5   2 -11    6.72    0.43
  -5  -2  11    6.08    0.43
   4   2 -11    1.67    0.27
  -4  -2  11    1.38    0.20
  -4  -2  11    1.48    0.15
  -4  -2  11    1.56    0.14
  -3  -2  11   35.94    2.17
  -3  -2  11   36.60    2.19
  -3  -2  11   36.39    2.17
   2   2 -11   25.07    1.42
   2   2 -11   20.22    1.39
   2   2 -11   20.43    1.40
  -2  -2  11   24.13    1.39
  -2  -2  11   25.54    1.39
   1   2 -11    0.75    0.13
   1   2 -11    0.88    0.10
   1   2 -11    0.71    0.14
   1   2 -11    0.72    0.10
   1   2 -11    0.57    0.15
   1   2 -11    0.77    0.10
  -1  -2  11    0.68    0.10
  -1  -2  11    1.14    0.14
  -1  -2  11    0.88    0.23
  -1  -2  11    0.64    0.09
   0   2 -11   44.34    2.78
   0   2 -11   44.99    2.79
   0   2 -11   47.47    2.77
   0   2 -11   46.45    2.77
   0   2 -11   47.60    2.77
   0   2 -11   44.66    2.78
   0  -2  11   46.06    2.77
   0  -2  11   48.00    2.77
   0  -2  11   48.41    2.78
   0  -2  11   46.30    2.78
  -1   2 -11    0.36    0.06
  -1   2 -11    0.33    0.12
  -1   2 -11    0.47    0.08
   1  -2  11    0.34    0.09
   1  -2  11    0.20    0.12
   1  -2  11    0.31    0.09
  -2   2 -11   16.18    1.05
  -2   2 -11   16.27    1.15
  -2   2 -11   18.63    1.12
  -2   2 -11   17.83    1.05
   2  -2  11   17.32    1.06
   2  -2  11   17.98    1.07
   2  -2  11   17.94    1.06
  -3   2 -11    3.81    0.26
  -3   2 -11    3.59    0.46
  -3   2 -11    3.74    0.26
   3  -2  11    3.94    0.28
   3  -2  11    4.12    0.29
   3  -2  11    3.80    0.30
  -4   2 -11    1.48    0.15
  -4   2 -11    1.42    0.18
  -4   2 -11    1.20    0.18
   4  -2  11    1.49    0.16
   4  -2  11    1.74    0.16
   5   1 -11    2.48    0.23
  -5  -1  11    2.22    0.21
   4   1 -11   34.83    2.35
  -4  -1  11   41.93    2.32
  -4  -1  11   39.78    2.34
  -3  -1  11   52.40    2.92
  -3  -1  11   45.75    2.93
   2   1 -11    1.14    0.16
   2   1 -11    1.07    0.16
   2   1 -11    1.29    0.17
   2   1 -11    1.32    0.23
   2   1 -11    0.97    0.14
  -2  -1  11    1.47    0.21
  -2  -1  11    0.92    0.17
   1   1 -11   -0.03    0.07
   1   1 -11    0.05    0.06
   1   1 -11    0.02    0.08
  -1  -1  11    0.27    0.13
  -1  -1  11    0.00    0.14
   0   1 -11    7.06    0.46
   0   1 -11    7.53    0.46
   0   1 -11    7.43    0.46
   0  -1  11    7.14    0.46
   0  -1  11    8.02    0.50
   0  -1  11    7.32    0.47
  -1   1 -11    0.41    0.07
  -1   1 -11    0.29    0.07
  -1   1 -11    0.19    0.07
   1  -1  11    0.21    0.10
   1  -1  11    0.24    0.05
   1  -1  11    0.14    0.08
   1  -1  11    0.26    0.09
   1  -1  11    0.21    0.08
  -2   1 -11   41.30    2.56
  -2   1 -11   40.04    2.54
  -2   1 -11   42.70    2.56
   2  -1  11   43.69    2.57
   2  -1  11   45.59    2.57
   2  -1  11   42.60    2.55
  -3   1 -11    0.28    0.20
  -3   1 -11   -0.45    0.25
  -3   1 -11    0.12    0.09
   3  -1  11    0.34    0.09
   3  -1  11    0.18    0.09
   3  -1  11    0.26    0.11
   3  -1  11   -0.02    0.20
  -4   1 -11    0.20    0.10
  -4   1 -11    0.05    0.13
   4  -1  11    0.24    0.11
   4  -1  11    0.21    0.11
   5   0 -11   18.37    1.14
   5   0 -11   19.21    1.14
  -5   0  11   18.81    1.14
   4   0 -11   19.49    1.24
   4   0 -11   20.44    1.22
  -4   0  11   19.16    1.20
   3   0 -11    2.25    0.28
  -3   0  11    2.79    0.24
  -3   0  11    2.36    0.20
   2   0 -11    1.55    0.28
   2   0 -11    1.05    0.14
   2   0 -11    1.20    0.15
   2   0 -11    1.08    0.15
   2   0 -11    0.93    0.12
   2   0 -11    1.13    0.19
  -2   0  11    1.28    0.14
  -2   0  11    1.05    0.18
  -2   0  11    1.22    0.15
   1   0 -11    1.46    0.15
   1   0 -11    1.68    0.14
   1   0 -11    1.27    0.15
  -1   0  11    1.42    0.13
  -1   0  11    1.28    0.21
  -1   0  11    1.73    0.13
   0   0 -11    1.52    0.13
   0   0 -11    1.74    0.12
   0   0  11    1.67    0.13
   1   0  11    4.96    0.32
   1   0  11    4.93    0.30
   1   0  11    4.60    0.32
  -2   0 -11   12.36    0.70
   2   0  11   12.27    0.69
   2   0  11   11.07    0.71
   2   0  11    9.70    0.71
   2   0  11   10.97    0.70
   2   0  11   11.41    0.70
   3   0  11    1.94    0.18
   3   0  11    1.92    0.24
   3   0  11    2.11    0.19
   3   0  11    2.23    0.28
  -4   0 -11    5.77    0.43
   4   0  11    6.71    0.43
   4   0  11    6.41    0.48
   4   0  11    6.81    0.43
   5   0  11    4.22    0.27
   5   0  11    3.38    0.28
   4  -1 -11    1.04    0.17
   4  -1 -11    1.21    0.32
  -4   1  11    1.15    0.17
   3  -1 -11   14.32    1.05
   3  -1 -11   18.91    1.04
  -3   1  11   16.52    1.01
   2  -1 -11    4.43    0.32
  -2   1  11    4.87    0.32
  -2   1  11    4.78    0.33
   1  -1 -11   14.75    0.86
   1  -1 -11   12.44    0.85
  -1   1  11   15.38    0.85
  -1   1  11   14.18    0.86
  -1   1  11   13.54    0.88
   0  -1 -11    0.10    0.04
   0  -1 -11    0.10    0.05
   0   1  11    0.21    0.06
   2   1  11   82.44    4.51
   2   1  11   68.39    4.50
  -3  -1 -11   18.20    1.08
   3   1  11   16.58    1.05
   3   1  11   15.89    1.05
   3   1  11   18.15    1.04
   4   1  11   96.85    6.34
   4   1  11  106.21    6.35
   4   1  11  116.07    6.34
   5   1  11    1.38    0.17
   5   1  11    1.22    0.24
   4  -2 -11    0.16    0.11
  -4   2  11    0.19    0.12
   3  -2 -11   10.44    0.62
  -3   2  11    8.61    0.60
   2  -2 -11    3.30    0.24
   2  -2 -11    3.39    0.24
   2  -2 -11    3.48    0.29
  -2   2  11    3.05    0.24
  -2   2  11    2.30    0.35
   1  -2 -11   27.04    1.78
   1  -2 -11   29.10    1.78
   1  -2 -11   29.51    1.78
   1  -2 -11   28.96    1.78
  -1   2  11   32.06    1.79
  -1   2  11   31.41    1.78
  -1   2  11   29.48    1.79
   0  -2 -11    0.06    0.06
   0  -2 -11    0.35    0.07
   0   2  11    0.19    0.05
   0   2  11    0.38    0.11
   0   2  11    0.02    0.09
   0   2  11    0.40    0.08
   0   2  11    0.32    0.10
   1   2  11   12.72    0.74
   1   2  11   11.00    0.72
   1   2  11   11.84    0.73
   2   2  11    7.98    0.50
   2   2  11    7.99    0.55
   3  -3 -11    0.92    0.16
  -3   3  11    1.00    0.19
   2  -3 -11    7.11    0.42
   2  -3 -11    7.18    0.47
  -2   3  11    5.79    0.47
   1  -3 -11   16.12    1.01
   1  -3 -11   16.49    1.03
   1  -3 -11   14.63    1.03
   1  -3 -11   17.57    1.08
   1  -3 -11   17.01    1.00
  -1   3  11   16.65    1.02
  -1   3  11   17.35    1.01
  -1   3  11   16.62    1.01
   0  -3 -11    4.03    0.26
   0  -3 -11    3.16    0.28
   0  -3 -11    3.70    0.27
   0   3  11    4.14    0.29
   0   3  11    3.62    0.28
   0   3  11    3.72    0.26
   0   3  11    3.61    0.31
   0   3  11    3.98    0.27
  -1  -3 -11   35.14    2.13
  -1  -3 -11   35.71    2.13
   1   3  11   33.73    2.14
   1   3  11   36.13    2.15
   1   3  11   37.13    2.14
   1   3  11   34.40    2.13
   1   3  11   37.01    2.14
   2   3  11   10.10    0.62
   2   3  11    8.94    0.64
   2   3  11    9.84    0.61
   3   3  11    9.57    0.56
   3   3  11    7.22    0.59
   3   3  11    8.51    0.58
   4   3  11    0.00    0.17
   4   3  11    0.04    0.13
   3  -4 -11    4.34    0.35
  -3   4  11    5.44    0.41
   2  -4 -11    5.49    0.43
  -2   4  11    6.16    0.42
   1  -4 -11    1.91    0.28
   1  -4 -11    1.67    0.17
  -1   4  11    1.87    0.30
   0  -4 -11   47.38    2.72
   0  -4 -11   45.85    2.71
   0  -4 -11   42.83    2.73
   0  -4 -11   44.19    2.71
   0   4  11   43.28    2.75
   0   4  11   47.25    2.72
   0   4  11   44.84    2.72
   0   4  11   47.05    2.73
   0   4  11   45.48    2.72
  -1  -4 -11   10.75    0.72
  -1  -4 -11   11.07    0.69
   1   4  11   10.67    0.71
   1   4  11   10.96    0.75
   1   4  11   10.43    0.68
   1   4  11   11.39    0.68
   1   4  11   11.35    0.68
  -2  -4 -11    0.23    0.08
   2   4  11    0.13    0.11
   2   4  11    0.47    0.20
   2   4  11    0.24    0.16
   2   4  11    0.37    0.09
   2   4  11    0.34    0.10
   3   4  11    0.22    0.11
   3   4  11    0.21    0.15
   3   4  11    0.12    0.11
   3   4  11    0.17    0.16
   4   4  11    9.57    0.66
   4   4  11   10.51    0.68
   4   4  11   10.68    0.66
   2  -5 -11    0.78    0.12
  -2   5  11    0.67    0.22
   1  -5 -11    4.86    0.32
  -1   5  11    5.07    0.42
  -1   5  11    4.69    0.39
   0  -5 -11    9.98    0.60
   0  -5 -11    9.75    0.59
   0  -5 -11    9.83    0.59
   0   5  11   10.19    0.66
   0   5  11    8.45    0.63
   0   5  11    9.80    0.62
   0   5  11    8.44    0.67
  -1  -5 -11   12.51    0.79
  -1  -5 -11   12.83    0.77
  -1  -5 -11   13.16    0.79
   1   5  11   12.50    0.78
   1   5  11   12.16    0.81
   1   5  11   12.23    0.79
  -2  -5 -11    6.28    0.45
  -2  -5 -11    6.43    0.47
  -2  -5 -11    6.45    0.41
   2   5  11    6.31    0.46
   2   5  11    6.48    0.41
   2   5  11    5.15    0.50
  -3  -5 -11   27.54    1.64
   3   5  11   25.41    1.65
   3   5  11   28.50    1.64
  -4  -5 -11    3.48    0.33
   4   5  11    3.72    0.33
   4   5  11    3.91    0.29
   4   5  11    3.72    0.31
   1  -6 -11    4.67    0.31
   0  -6 -11    1.75    0.15
   0  -6 -11    1.88    0.17
   0   6  11    2.30    0.29
   0   6  11    1.68    0.35
  -1  -6 -11    5.66    0.36
  -1  -6 -11    5.54    0.36
  -1  -6 -11    6.57    0.41
  -1  -6 -11    5.63    0.37
   1   6  11    5.68    0.38
   1   6  11    5.15    0.43
   1   6  11    4.74    0.42
  -2  -6 -11   24.11    1.53
  -2  -6 -11   25.93    1.51
  -2  -6 -11   25.77    1.52
  -2  -6 -11   25.78    1.52
   2   6  11   24.62    1.51
   2   6  11   24.39    1.54
  -3  -6 -11   13.57    0.82
  -3  -6 -11   13.54    0.82
   3   6  11   12.76    0.84
   3   6  11   13.49    0.81
  -4  -6 -11    0.56    0.19
  -4  -6 -11    0.59    0.15
   4   6  11    0.48    0.08
   4   6  11    0.63    0.13
  -2  -7 -11    1.17    0.14
  -2  -7 -11    1.16    0.13
  -2  -7 -11    1.49    0.14
   2   7  11    1.24    0.14
   2   7  11    1.05    0.17
   2   6 -12    4.81    0.38
  -2  -6  12    4.99    0.32
   1   6 -12    2.85    0.28
  -1  -6  12    2.08    0.17
  -4  -5  12   -0.05    0.05
   3   5 -12    3.12    0.28
   3   5 -12    3.09    0.32
  -3  -5  12    2.97    0.21
  -3  -5  12    3.38    0.25
   2   5 -12    1.78    0.24
   2   5 -12    2.11    0.25
  -2  -5  12    1.74    0.16
  -2  -5  12    1.76    0.16
   1   5 -12   -0.03    0.13
  -1  -5  12    0.11    0.07
   0   5 -12   25.57    1.54
   0  -5  12   25.46    1.53
   0  -5  12   25.10    1.52
   1  -5  12    0.69    0.09
   4   4 -12    1.04    0.20
  -4  -4  12    1.24    0.11
   3   4 -12    3.85    0.35
  -3  -4  12    3.37    0.25
   2   4 -12    8.70    0.56
   2   4 -12    8.45    0.59
  -2  -4  12    8.59    0.53
  -2  -4  12    7.95    0.52
   1   4 -12   75.06    4.47
  -1  -4  12   75.00    4.49
   0   4 -12    3.89    0.26
   0   4 -12    4.04    0.35
   0   4 -12    3.96    0.25
   0  -4  12    3.75    0.27
   0  -4  12    3.47    0.29
  -1   4 -12    1.86    0.14
  -1   4 -12    1.55    0.13
  -1   4 -12    1.52    0.20
   1  -4  12    1.40    0.17
   1  -4  12    1.46    0.22
   1  -4  12    1.18    0.20
  -2   4 -12    0.84    0.11
  -2   4 -12    0.90    0.09
  -2   4 -12    0.77    0.14
   2  -4  12    0.81    0.11
   2  -4  12    0.93    0.13
   5   3 -12    0.33    0.11
  -5  -3  12    0.33    0.10
   4   3 -12    0.41    0.15
  -4  -3  12    0.37    0.08
   3   3 -12    0.14    0.15
  -3  -3  12    0.28    0.09
   2   3 -12   61.29    3.48
   2   3 -12   64.40    3.46
   2   3 -12   63.71    3.49
   2   3 -12   50.01    3.50
  -2  -3  12   52.27    3.46
  -2  -3  12   53.70    3.48
  -2  -3  12   60.43    3.46
   1   3 -12    9.85    0.61
   1   3 -12    8.79    0.65
   1   3 -12    9.96    0.65
   1   3 -12   10.53    0.61
   1   3 -12   10.33    0.62
  -1  -3  12    9.54    0.64
  -1  -3  12   10.29    0.65
  -1  -3  12   11.14    0.62
  -1  -3  12    9.42    0.62
   0   3 -12   18.23    1.09
   0   3 -12   17.23    1.08
   0   3 -12   18.03    1.10
   0   3 -12   18.28    1.17
   0   3 -12   17.96    1.08
   0   3 -12   17.44    1.12
   0  -3  12   18.36    1.11
   0  -3  12   18.15    1.10
   0  -3  12   18.08    1.10
   0  -3  12   18.04    1.09
  -1   3 -12   34.80    2.18
  -1   3 -12   34.48    2.13
  -1   3 -12   34.74    2.15
  -1   3 -12   37.03    2.13
  -1   3 -12   35.98    2.13
   1  -3  12   33.94    2.14
   1  -3  12   35.17    2.17
   1  -3  12   37.37    2.14
   1  -3  12   36.13    2.14
   1  -3  12   37.22    2.14
  -2   3 -12   13.88    0.82
  -2   3 -12   13.50    0.82
  -2   3 -12   13.95    0.82
   2  -3  12   13.57    0.83
   2  -3  12   13.48    0.85
   2  -3  12   12.64    0.84
  -3   3 -12    0.00    0.07
  -3   3 -12    0.06    0.08
   3  -3  12    0.09    0.08
   3  -3  12    0.01    0.08
   3  -3  12    0.06    0.07
   5   2 -12    0.96    0.16
  -5  -2  12    0.86    0.13
   4   2 -12    2.06    0.44
  -4  -2  12    1.95    0.24
  -4  -2  12    2.22    0.17
   3   2 -12  128.79    8.04
  -3  -2  12  140.53    8.02
   2   2 -12   22.49    1.32
   2   2 -12   21.78    1.29
   2   2 -12   18.42    1.31
   2   2 -12   22.84    1.29
  -2  -2  12   21.51    1.29
  -2  -2  12   21.18    1.29
   1   2 -12   41.90    2.46
   1   2 -12   43.73    2.43
   1   2 -12   39.04    2.44
   1   2 -12   42.00    2.41
   1   2 -12   37.41    2.44
   1   2 -12   38.41    2.41
  -1  -2  12   40.81    2.41
  -1  -2  12   39.99    2.41
  -1  -2  12   38.95    2.42
  -1  -2  12   41.30    2.44
   0   2 -12    1.74    0.22
   0   2 -12    1.57    0.22
   0   2 -12    1.39    0.19
   0   2 -12    1.77    0.13
   0   2 -12    1.76    0.14
   0  -2  12    1.78    0.15
   0  -2  12    1.72    0.19
   0  -2  12    1.78    0.18
   0  -2  12    1.73    0.17
  -1   2 -12   13.65    0.90
  -1   2 -12   14.58    0.87
  -1   2 -12   14.84    0.87
  -1   2 -12   13.57    0.91
   1  -2  12   14.37    0.89
   1  -2  12   13.28    0.88
   1  -2  12   13.98    0.88
   1  -2  12   16.62    0.88
   1  -2  12   14.10    0.87
  -2   2 -12    9.24    0.63
  -2   2 -12    7.91    0.57
  -2   2 -12    8.17    0.52
  -2   2 -12    8.58    0.69
   2  -2  12    9.54    0.54
   2  -2  12    8.03    0.54
   2  -2  12    7.53    0.54
   2  -2  12    8.90    0.59
  -3   2 -12    8.26    0.53
  -3   2 -12    8.97    0.59
  -3   2 -12    8.36    0.53
   3  -2  12    8.96    0.55
   3  -2  12    7.62    0.55
   3  -2  12    9.12    0.54
  -4   2 -12   14.07    0.92
  -4   2 -12   15.95    0.91
  -4   2 -12   14.31    0.92
   4  -2  12   15.52    0.92
   4  -2  12   15.61    0.92
   5   1 -12    4.35    0.30
  -5  -1  12    3.75    0.29
  -4  -1  12   87.29    5.08
  -4  -1  12   83.34    5.09
   3   1 -12   34.23    2.16
  -3  -1  12   34.50    2.15
  -3  -1  12   38.24    2.13
   2   1 -12   13.54    0.97
   2   1 -12   16.16    0.99
   2   1 -12   17.31    1.00
  -2  -1  12   16.83    0.96
  -2  -1  12   16.44    0.97
  -2  -1  12   15.24    0.97
   1   1 -12   13.66    0.79
   1   1 -12   12.56    0.79
   1   1 -12   12.58    0.80
   1   1 -12   14.05    0.79
   1   1 -12   12.66    0.80
  -1  -1  12   13.17    0.79
  -1  -1  12   12.12    0.79
  -1  -1  12   12.73    0.81
  -1  -1  12   12.71    0.81
  -1  -1  12   13.67    0.79
   0   1 -12    6.11    0.37
   0   1 -12    5.58    0.38
   0   1 -12    6.06    0.39
   0   1 -12    6.07    0.38
   0  -1  12    5.71    0.38
   0  -1  12    6.50    0.37
   0  -1  12    5.95    0.38
   0  -1  12    5.70    0.38
  -1   1 -12    0.16    0.08
  -1   1 -12    0.08    0.07
  -1   1 -12    0.13    0.05
   1  -1  12    0.16    0.05
   1  -1  12    0.07    0.08
   1  -1  12    0.12    0.08
   1  -1  12    0.16    0.10
  -2   1 -12   10.20    0.70
  -2   1 -12   10.19    0.67
  -2   1 -12   12.09    0.71
   2  -1  12   11.57    0.70
   2  -1  12   10.29    0.68
   2  -1  12   11.33    0.67
   2  -1  12   11.46    0.68
   2  -1  12   10.32    0.68
  -3   1 -12   10.39    0.66
  -3   1 -12   11.19    0.76
   3  -1  12   11.31    0.66
   3  -1  12   11.49    0.67
   3  -1  12    8.97    0.67
  -4   1 -12    1.98    0.18
  -4   1 -12    1.46    0.20
   4  -1  12    1.81    0.20
  -5   0  12   41.38    2.47
   4   0 -12    4.38    0.35
  -4   0  12    3.72    0.29
   3   0 -12  102.49    6.61
  -3   0  12  112.71    6.59
  -3   0  12  116.70    6.59
  -2   0  12    5.04    0.36
  -2   0  12    5.11    0.33
  -2   0  12    4.82    0.32
   1   0 -12    1.36    0.14
   1   0 -12    0.92    0.14
   1   0 -12    1.32    0.12
  -1   0  12    1.07    0.11
  -1   0  12    0.94    0.12
  -1   0  12    1.40    0.23
  -1   0  12    1.15    0.15
   0   0 -12    0.81    0.08
   0   0 -12    0.78    0.10
   0   0  12    0.86    0.09
   0   0  12    0.83    0.14
  -1   0 -12   18.73    1.07
   1   0  12   17.55    1.07
   1   0  12   18.65    1.07
   1   0  12   16.36    1.08
  -2   0 -12   41.44    2.36
   2   0  12   37.98    2.40
   2   0  12   42.12    2.36
   2   0  12   35.91    2.35
   3   0  12    1.97    0.26
   3   0  12    1.93    0.22
   3   0  12    1.89    0.19
   3   0  12    1.73    0.17
  -4   0 -12   12.42    0.83
   4   0  12   15.25    0.87
   4   0  12   12.86    0.84
   5   0  12    1.63    0.17
   5   0  12    1.62    0.16
   4  -1 -12    3.46    0.32
  -4   1  12    4.46    0.29
   3  -1 -12    7.76    0.61
   3  -1 -12    8.49    0.56
   2  -1 -12   11.63    0.76
   2  -1 -12   12.44    0.76
   2  -1 -12   12.88    0.76
   1  -1 -12   45.43    2.80
   1  -1 -12   40.64    2.80
   1  -1 -12   42.97    2.80
   1  -1 -12   49.63    2.80
  -1   1  12   44.60    2.81
  -1   1  12   52.72    2.80
  -1   1  12   51.95    2.80
   0  -1 -12    7.61    0.51
   0  -1 -12    9.04    0.52
   0   1  12    7.85    0.53
   0   1  12    8.23    0.52
   0   1  12    9.21    0.52
   1   1  12   18.27    1.10
   2   1  12    0.65    0.10
   2   1  12    0.43    0.12
   3   1  12   19.65    1.31
   3   1  12   23.42    1.30
   4   1  12    1.38    0.24
   4   1  12    1.12    0.17
   5   1  12    2.36    0.21
   4  -2 -12    4.45    0.35
  -4   2  12    5.89    0.37
   3  -2 -12    0.33    0.14
  -3   2  12    0.02    0.10
   2  -2 -12    0.30    0.10
   2  -2 -12    0.39    0.16
   2  -2 -12    0.22    0.15
  -2   2  12    0.50    0.11
  -2   2  12    0.43    0.15
   1  -2 -12    6.00    0.41
   1  -2 -12    6.20    0.42
   1  -2 -12    6.62    0.43
  -1   2  12    6.79    0.43
  -1   2  12    6.08    0.44
  -1   2  12    6.21    0.42
   0  -2 -12   27.82    1.81
   0  -2 -12   29.24    1.81
   0  -2 -12   33.19    1.81
   0   2  12   28.33    1.81
   0   2  12   34.71    1.81
   0   2  12   27.29    1.81
   0   2  12   30.27    1.81
   1   2  12   -0.10    0.11
   1   2  12   -0.02    0.07
   1   2  12    0.04    0.13
   1   2  12   -0.02    0.10
   2   2  12    7.68    0.52
   2   2  12    8.74    0.57
   3  -3 -12    2.76    0.26
  -3   3  12    2.96    0.25
   2  -3 -12    0.13    0.08
   2  -3 -12    0.12    0.14
  -2   3  12   -0.07    0.11
   1  -3 -12    9.32    0.61
   1  -3 -12    9.31    0.58
   1  -3 -12    9.27    0.59
   1  -3 -12    9.31    0.58
  -1   3  12    9.47    0.59
  -1   3  12    8.38    0.59
  -1   3  12    9.15    0.58
   0  -3 -12   20.94    1.29
   0  -3 -12   20.97    1.28
   0   3  12   20.73    1.29
   0   3  12   21.84    1.29
   0   3  12   20.63    1.29
   0   3  12   22.24    1.29
  -1  -3 -12   14.54    0.83
  -1  -3 -12   12.48    0.82
   1   3  12   14.28    0.84
   1   3  12   12.63    0.84
   1   3  12   13.96    0.83
   1   3  12   13.28    0.83
   2   3  12   17.78    1.17
   2   3  12   19.80    1.19
   2   3  12   19.19    1.17
   2   3  12   20.02    1.17
   3   3  12    6.07    0.42
   3   3  12    5.32    0.44
   3  -4 -12    0.08    0.15
  -3   4  12    0.16    0.17
   2  -4 -12    3.77    0.35
   2  -4 -12    3.50    0.30
  -2   4  12    4.60    0.33
   1  -4 -12   12.02    0.86
   1  -4 -12   12.50    0.80
   1  -4 -12   13.13    0.79
  -1   4  12   13.95    0.81
  -1   4  12   13.01    0.82
   0  -4 -12    4.35    0.37
   0  -4 -12    4.74    0.32
   0  -4 -12    4.35    0.32
   0  -4 -12    4.64    0.38
   0   4  12    4.91    0.35
   0   4  12    4.83    0.36
   0   4  12    4.88    0.33
   0   4  12    4.69    0.35
  -1  -4 -12  126.66    8.61
  -1  -4 -12  140.67    8.60
  -1  -4 -12  152.39    8.61
   1   4  12  139.09    8.61
   1   4  12  149.88    8.61
   1   4  12  155.05    8.62
   1   4  12  147.75    8.61
  -2  -4 -12    0.15    0.10
   2   4  12    0.21    0.12
   2   4  12    0.27    0.16
   2   4  12    0.02    0.11
   2   4  12    0.03    0.08
   2   4  12    0.14    0.19
   3   4  12    1.03    0.15
   3   4  12    0.82    0.22
   3   4  12    1.04    0.15
   4   4  12    1.05    0.17
   2  -5 -12    2.49    0.19
  -2   5  12    1.84    0.32
   1  -5 -12    0.99    0.13
  -1   5  12    1.28    0.24
   0  -5 -12    5.52    0.39
   0  -5 -12    5.90    0.39
   0  -5 -12    5.93    0.38
   0   5  12    6.05    0.43
   0   5  12    5.63    0.49
   0   5  12    5.83    0.42
  -1  -5 -12   26.81    1.61
  -1  -5 -12   26.93    1.62
   1   5  12   27.00    1.63
   1   5  12   26.24    1.64
   1   5  12   26.83    1.62
  -2  -5 -12    0.91    0.15
  -2  -5 -12    0.80    0.11
   2   5  12    0.80    0.20
   2   5  12    0.90    0.20
   2   5  12    0.79    0.12
  -3  -5 -12   24.11    1.43
   3   5  12   22.79    1.45
   3   5  12   22.60    1.44
   3   5  12   24.58    1.43
   4   5  12    6.75    0.46
   4   5  12    7.13    0.47
   4   5  12    5.85    0.43
   0  -6 -12    9.91    0.62
   0  -6 -12    9.51    0.61
   0   6  12   10.79    0.68
  -1  -6 -12    0.33    0.11
  -1  -6 -12    0.25    0.08
  -1  -6 -12    0.22    0.09
   1   6  12    0.12    0.20
   1   6  12    0.28    0.10
   1   6  12    0.28    0.15
  -2  -6 -12    2.67    0.28
  -2  -6 -12    2.91    0.25
  -2  -6 -12    2.70    0.22
  -2  -6 -12    2.55    0.23
   2   6  12    2.74    0.30
   2   6  12    2.42    0.26
   2   6  12    2.63    0.21
  -3  -6 -12   10.91    0.70
  -3  -6 -12   11.26    0.71
   3   6  12   11.03    0.69
   3   6  12   11.01    0.72
   3   6  12   12.13    0.74
  -4  -6 -12    3.12    0.38
   4   6  12    3.36    0.23
   3   5 -13    5.88    0.50
   3   5 -13    4.93    0.37
  -3  -5  13    5.45    0.36
  -3  -5  13    5.10    0.33
   2   5 -13    0.44    0.13
   2   5 -13    0.60    0.17
  -2  -5  13    0.57    0.09
   1   5 -13    7.96    0.52
  -1  -5  13    7.44    0.48
   0   5 -13   39.13    2.32
   0  -5  13   38.28    2.30
   0  -5  13   38.20    2.30
  -1   5 -13    6.73    0.47
   1  -5  13    6.73    0.43
   4   4 -13    1.00    0.18
  -4  -4  13    1.18    0.10
   3   4 -13    0.85    0.16
   3   4 -13    1.02    0.20
  -3  -4  13    0.84    0.13
   2   4 -13    7.48    0.53
   2   4 -13    7.67    0.51
  -2  -4  13    7.51    0.47
  -2  -4  13    7.19    0.47
   1   4 -13   35.73    2.08
   1   4 -13   35.07    2.10
  -1  -4  13   34.53    2.11
  -1  -4  13   33.81    2.09
   0   4 -13   -0.04    0.14
   0   4 -13    0.21    0.06
   0   4 -13    0.26    0.07
   0  -4  13    0.08    0.08
   0  -4  13    0.03    0.10
  -1   4 -13   14.23    0.84
  -1   4 -13   14.23    0.86
  -1   4 -13   13.89    0.84
   1  -4  13   14.40    0.86
   1  -4  13   13.87    0.85
   1  -4  13   12.44    0.85
  -2   4 -13    2.30    0.17
  -2   4 -13    3.08    0.34
   2  -4  13    2.72    0.19
   2  -4  13    2.52    0.22
   4   3 -13    4.14    0.32
  -4  -3  13    3.83    0.26
   3   3 -13   29.30    1.68
  -3  -3  13   26.83    1.64
  -3  -3  13   26.09    1.66
   2   3 -13    4.04    0.32
   2   3 -13    3.50    0.38
   2   3 -13    4.27    0.27
  -2  -3  13    3.51    0.27
  -2  -3  13    4.01    0.27
   1   3 -13    3.21    0.21
   1   3 -13    2.92    0.23
   1   3 -13    3.13    0.22
   1   3 -13    2.78    0.30
   1   3 -13    2.79    0.29
  -1  -3  13    3.08    0.22
  -1  -3  13    2.72    0.32
  -1  -3  13    3.28    0.22
  -1  -3  13    2.76    0.36
   0   3 -13    0.21    0.07
   0   3 -13    0.23    0.14
   0   3 -13    0.20    0.16
   0   3 -13    0.29    0.08
   0  -3  13    0.14    0.12
   0  -3  13    0.12    0.17
   0  -3  13    0.19    0.08
  -1   3 -13    2.00    0.17
  -1   3 -13    1.24    0.27
  -1   3 -13    1.64    0.15
   1  -3  13    1.77    0.19
   1  -3  13    2.18    0.18
  -2   3 -13    6.76    0.41
  -2   3 -13    6.93    0.42
  -2   3 -13    6.39    0.45
  -2   3 -13    6.05    0.41
   2  -3  13    6.41    0.43
   2  -3  13    6.40    0.44
  -3   3 -13    0.14    0.08
  -3   3 -13    0.07    0.08
   3  -3  13   -0.07    0.06
   3  -3  13    0.02    0.08
   5   2 -13    0.34    0.11
   4   2 -13    8.29    0.54
  -4  -2  13    7.83    0.50
   3   2 -13   19.71    1.11
  -3  -2  13   15.37    1.09
  -3  -2  13   18.22    1.07
   2   2 -13    0.14    0.10
   2   2 -13    0.15    0.15
   2   2 -13    0.16    0.09
   2   2 -13    0.14    0.14
  -2  -2  13    0.16    0.07
  -2  -2  13    0.05    0.07
   1   2 -13    4.92    0.35
   1   2 -13    4.88    0.36
   1   2 -13    5.24    0.33
   1   2 -13    5.19    0.34
   1   2 -13    5.23    0.47
  -1  -2  13    5.52    0.33
  -1  -2  13    5.09    0.37
  -1  -2  13    5.58    0.43
   0   2 -13    0.26    0.07
   0   2 -13    0.20    0.10
   0   2 -13    0.22    0.07
   0   2 -13    0.28    0.13
   0   2 -13    0.14    0.17
   0   2 -13    0.03    0.11
   0  -2  13    0.18    0.06
   0  -2  13    0.15    0.13
   0  -2  13    0.34    0.20
  -1   2 -13   32.99    2.00
  -1   2 -13   33.03    1.96
  -1   2 -13   32.76    1.96
  -1   2 -13   33.09    1.99
   1  -2  13   31.87    1.97
   1  -2  13   34.02    1.97
   1  -2  13   32.21    1.98
   1  -2  13   32.16    1.96
  -2   2 -13    0.80    0.25
  -2   2 -13    0.69    0.11
  -2   2 -13    0.80    0.14
   2  -2  13    0.72    0.11
   2  -2  13    0.77    0.16
   2  -2  13    0.48    0.12
  -3   2 -13    0.87    0.11
  -3   2 -13    0.75    0.13
  -3   2 -13    0.97    0.18
   3  -2  13    0.93    0.15
   3  -2  13    0.72    0.14
   3  -2  13    0.94    0.11
  -4   2 -13    2.09    0.18
  -4   2 -13    2.08    0.22
   4  -2  13    2.28    0.19
   4  -2  13    2.36    0.18
   5   1 -13   -0.04    0.11
  -5  -1  13    0.09    0.12
   4   1 -13    9.10    0.65
  -4  -1  13    9.66    0.58
  -4  -1  13    9.47    0.60
   3   1 -13   23.78    1.37
  -3  -1  13   21.94    1.33
  -3  -1  13   20.80    1.34
   2   1 -13    8.84    0.60
   2   1 -13    9.35    0.59
   2   1 -13    9.80    0.59
   2   1 -13   10.08    0.63
  -2  -1  13    9.32    0.58
   1   1 -13   18.53    1.06
   1   1 -13   17.37    1.08
   1   1 -13   16.58    1.07
   1   1 -13   16.73    1.06
   1   1 -13   18.00    1.06
  -1  -1  13   17.65    1.06
  -1  -1  13   17.84    1.08
  -1  -1  13   17.90    1.06
   0   1 -13   21.59    1.26
   0   1 -13   20.55    1.26
   0   1 -13   21.27    1.27
   0   1 -13   20.87    1.27
   0  -1  13   20.71    1.26
   0  -1  13   20.69    1.28
   0  -1  13   20.03    1.27
   0  -1  13   21.94    1.26
  -1   1 -13    0.88    0.10
  -1   1 -13    0.91    0.16
  -1   1 -13    0.86    0.13
   1  -1  13    0.92    0.12
   1  -1  13    0.81    0.18
   1  -1  13    0.72    0.14
   1  -1  13    0.73    0.15
   1  -1  13    0.96    0.14
  -2   1 -13    3.37    0.32
  -2   1 -13    3.80    0.33
  -2   1 -13    2.61    0.25
   2  -1  13    2.80    0.26
   2  -1  13    3.32    0.30
   2  -1  13    3.36    0.24
  -3   1 -13   19.76    1.15
  -3   1 -13   19.00    1.26
  -3   1 -13   17.60    1.17
   3  -1  13   21.76    1.16
   3  -1  13   19.62    1.17
   3  -1  13   16.92    1.16
  -4   1 -13    0.21    0.11
  -4   1 -13    0.27    0.13
   4  -1  13    0.44    0.10
   4  -1  13    0.70    0.14
   4   0 -13    0.06    0.14
   4   0 -13    0.30    0.16
  -4   0  13    0.13    0.10
   3   0 -13   45.53    2.67
  -3   0  13   44.08    2.65
  -3   0  13   42.89    2.64
   2   0 -13  129.91    8.46
   2   0 -13  133.79    8.46
   2   0 -13  130.89    8.46
   2   0 -13  147.85    8.48
  -2   0  13  150.15    8.47
  -2   0  13  154.88    8.47
  -2   0  13  147.54    8.46
   1   0 -13   44.60    2.78
   1   0 -13   48.41    2.77
   1   0 -13   50.57    2.78
   1   0 -13   43.21    2.78
   1   0 -13   47.47    2.78
  -1   0  13   46.42    2.78
  -1   0  13   45.31    2.78
  -1   0  13   48.66    2.77
  -1   0  13   43.33    2.77
   0   0 -13   35.70    2.16
   0   0 -13   36.90    2.15
   0   0 -13   36.47    2.16
   0   0  13   37.23    2.16
   0   0  13   35.05    2.16
   0   0  13   35.00    2.16
  -1   0 -13    1.96    0.15
  -1   0 -13    2.07    0.16
   1   0  13    1.83    0.16
   1   0  13    1.77    0.14
   1   0  13    1.65    0.17
   1   0  13    1.53    0.19
  -2   0 -13    3.34    0.24
   2   0  13    3.14    0.25
   2   0  13    3.10    0.29
   2   0  13    2.32    0.24
   2   0  13    2.78    0.22
   2   0  13    2.88    0.24
   3   0  13    9.58    0.57
   3   0  13    8.01    0.56
   3   0  13    8.75    0.56
   4   0  13    2.84    0.26
   4   0  13    3.24    0.26
   4  -1 -13    1.52    0.20
  -4   1  13    1.55    0.18
   3  -1 -13    0.13    0.16
  -3   1  13    0.20    0.12
  -3   1  13    0.53    0.14
   2  -1 -13   17.71    1.16
   2  -1 -13   19.82    1.15
   2  -1 -13   19.27    1.15
   1  -1 -13   40.55    2.64
   1  -1 -13   46.14    2.64
   1  -1 -13   42.55    2.64
   1  -1 -13   44.58    2.64
  -1   1  13   43.09    2.63
  -1   1  13   47.77    2.64
  -1   1  13   46.37    2.64
  -1   1  13   41.86    2.65
   0  -1 -13   59.79    3.81
   0  -1 -13   61.11    3.81
   0  -1 -13   66.33    3.80
   0   1  13   63.39    3.81
   0   1  13   63.01    3.81
   0   1  13   69.54    3.81
   1   1  13   86.22    5.38
   1   1  13   94.51    5.39
   2   1  13    7.52    0.43
   2   1  13    6.25    0.42
   2   1  13    6.26    0.43
   3   1  13    0.75    0.12
   3   1  13    0.70    0.10
   3   1  13    0.57    0.11
   4   1  13    1.49    0.20
   5   1  13   15.89    0.97
   4  -2 -13    8.01    0.48
  -4   2  13    6.86    0.48
   3  -2 -13    0.22    0.16
  -3   2  13    0.11    0.11
   2  -2 -13    0.05    0.15
   2  -2 -13    0.13    0.10
   2  -2 -13    0.04    0.10
  -2   2  13    0.27    0.11
   1  -2 -13    0.10    0.09
   1  -2 -13    0.07    0.09
   1  -2 -13    0.15    0.11
  -1   2  13    0.05    0.11
  -1   2  13   -0.07    0.13
  -1   2  13    0.03    0.09
  -1   2  13    0.17    0.12
   0  -2 -13   35.98    2.04
   0  -2 -13   34.30    2.04
   0  -2 -13   33.32    2.04
   0   2  13   34.36    2.04
   0   2  13   32.54    2.05
   0   2  13   36.49    2.05
   0   2  13   31.56    2.05
  -1  -2 -13   18.77    1.08
   1   2  13   17.02    1.09
   1   2  13   18.34    1.09
   1   2  13   15.92    1.09
   1   2  13   19.29    1.10
   2   2  13    0.29    0.10
   2   2  13    0.37    0.18
   3  -3 -13    0.15    0.12
  -3   3  13    0.26    0.12
   2  -3 -13    6.73    0.47
   2  -3 -13    5.90    0.41
  -2   3  13    7.00    0.43
   1  -3 -13    4.10    0.32
   1  -3 -13    4.27    0.31
  -1   3  13    4.78    0.32
  -1   3  13    4.19    0.34
  -1   3  13    4.86    0.34
   0  -3 -13    0.24    0.11
   0  -3 -13    0.14    0.10
   0  -3 -13    0.30    0.12
   0   3  13    0.28    0.10
   0   3  13    0.53    0.12
   0   3  13    0.27    0.11
   0   3  13    0.28    0.12
  -1  -3 -13    3.04    0.25
  -1  -3 -13    2.98    0.24
   1   3  13    3.07    0.23
   1   3  13    2.57    0.25
   1   3  13    2.74    0.26
   1   3  13    2.97    0.22
   2   3  13    2.83    0.24
   2   3  13    2.90    0.28
   2   3  13    3.34    0.32
   2   3  13    3.15    0.27
   3   3  13   20.24    1.29
   3   3  13   21.44    1.30
   2  -4 -13    4.37    0.38
  -2   4  13    5.48    0.37
   1  -4 -13    0.29    0.20
   1  -4 -13    0.27    0.11
   1  -4 -13    0.24    0.09
  -1   4  13    0.44    0.16
  -1   4  13    0.29    0.12
   0  -4 -13    3.45    0.28
   0  -4 -13    3.47    0.30
   0  -4 -13    3.66    0.27
   0   4  13    3.90    0.31
   0   4  13    3.70    0.29
   0   4  13    3.74    0.29
  -1  -4 -13   29.74    1.91
  -1  -4 -13   31.57    1.92
  -1  -4 -13   31.78    1.91
   1   4  13   31.10    1.91
   1   4  13   30.14    1.91
   1   4  13   35.66    1.92
  -2  -4 -13   40.93    2.65
  -2  -4 -13   46.09    2.66
   2   4  13   43.07    2.66
   2   4  13   44.28    2.67
   2   4  13   42.96    2.66
   2   4  13   48.62    2.68
   3   4  13    1.34    0.22
   3   4  13    0.93    0.17
   3   4  13    0.84    0.15
  -1   5  13    0.48    0.15
   0  -5 -13    0.98    0.18
   0  -5 -13    0.92    0.14
   0   5  13    1.10    0.16
   0   5  13    0.53    0.29
  -1  -5 -13    0.82    0.15
  -1  -5 -13    0.73    0.13
  -1  -5 -13    0.80    0.18
   1   5  13    0.75    0.13
   1   5  13    1.04    0.17
  -2  -5 -13    3.99    0.42
  -2  -5 -13    3.78    0.31
  -2  -5 -13    3.73    0.28
   2   5  13    3.70    0.34
   2   5  13    3.56    0.28
   2   5  13    2.70    0.44
  -3  -5 -13   20.24    1.24
   3   5  13   21.74    1.25
   3   5  13   18.68    1.23
   4   5  13    8.78    0.56
   0  -6 -13    7.70    0.49
   0  -6 -13    7.44    0.51
   0   6  13    9.29    0.57
  -1  -6 -13    0.68    0.10
  -1  -6 -13    0.91    0.14
   1   6  13    0.74    0.12
   1   6  13    0.97    0.16
  -2  -6 -13    3.81    0.29
  -2  -6 -13    3.92    0.30
  -2  -6 -13    3.98    0.32
   2   6  13    4.45    0.32
   2   6  13    3.84    0.28
  -3  -6 -13    1.09    0.17
  -3  -6 -13    1.22    0.16
   3   6  13    1.53    0.22
   3   6  13    1.29    0.14
   4   6  13    1.89    0.18
   4   6  13    2.63    0.24
   3   5 -14   16.18    1.01
  -3  -5  14   16.74    0.99
   2   5 -14   18.03    1.13
  -2  -5  14   18.94    1.12
   1   5 -14   25.23    1.47
  -1  -5  14   22.37    1.43
   0  -5  14    9.48    0.58
   0  -5  14    8.82    0.60
   4   4 -14   24.01    1.45
  -4  -4  14   23.95    1.43
   3   4 -14    1.05    0.18
  -3  -4  14    1.30    0.15
  -3  -4  14    0.94    0.11
   2   4 -14    8.06    0.56
   2   4 -14    7.87    0.53
  -2  -4  14    7.94    0.49
  -2  -4  14    7.46    0.48
   1   4 -14    5.90    0.37
   1   4 -14    5.93    0.45
  -1  -4  14    6.28    0.39
  -1  -4  14    5.61    0.38
   0   4 -14   17.60    1.04
   0   4 -14   16.19    1.00
   0   4 -14   16.16    1.00
   0  -4  14   16.82    1.01
  -1   4 -14    0.65    0.15
  -1   4 -14    0.62    0.09
  -1   4 -14    0.40    0.08
   1  -4  14    0.28    0.08
  -2   4 -14    7.34    0.49
  -2   4 -14    6.62    0.42
   2  -4  14    6.71    0.43
   4   3 -14    8.83    0.55
  -4  -3  14    8.29    0.52
  -3  -3  14    1.66    0.14
   2   3 -14   42.86    2.59
   2   3 -14   45.48    2.56
  -2  -3  14   40.55    2.56
   1   3 -14    9.18    0.63
   1   3 -14    9.03    0.57
   1   3 -14    9.42    0.65
   1   3 -14    9.23    0.58
  -1  -3  14    9.14    0.62
  -1  -3  14    9.54    0.63
  -1  -3  14    9.28    0.58
  -1  -3  14   10.07    0.58
   0   3 -14    9.60    0.60
   0   3 -14    9.34    0.66
   0   3 -14   10.02    0.60
   0   3 -14   10.18    0.66
   0   3 -14    9.68    0.60
   0  -3  14    9.45    0.61
   0  -3  14    9.69    0.62
   0  -3  14   10.14    0.61
  -1   3 -14    9.83    0.84
  -1   3 -14   10.94    0.66
  -1   3 -14   10.54    0.67
  -1   3 -14   11.55    0.67
  -1   3 -14   11.34    0.70
   1  -3  14   10.88    0.67
   1  -3  14   10.96    0.68
   1  -3  14   10.65    0.67
  -2   3 -14    0.56    0.15
  -2   3 -14    0.45    0.10
  -2   3 -14    0.65    0.10
  -2   3 -14    0.48    0.08
   2  -3  14    0.47    0.09
   2  -3  14    0.49    0.10
  -3   3 -14    0.18    0.08
  -3   3 -14    0.01    0.07
  -3   3 -14    0.22    0.17
   3  -3  14    0.03    0.07
   3  -3  14   -0.05    0.06
   4   2 -14   -0.09    0.11
  -4  -2  14    0.05    0.07
   3   2 -14    8.18    0.53
  -3  -2  14    7.43    0.48
   2   2 -14    5.91    0.42
   2   2 -14    6.77    0.39
  -2  -2  14    5.84    0.38
  -2  -2  14    5.54    0.38
   1   2 -14    0.56    0.09
   1   2 -14    0.46    0.12
   1   2 -14    0.67    0.11
  -1  -2  14    0.60    0.13
  -1  -2  14    0.61    0.09
  -1  -2  14    0.59    0.13
  -1  -2  14    0.65    0.08
   0   2 -14   65.04    3.94
   0   2 -14   63.16    3.93
   0   2 -14   65.39    3.93
   0   2 -14   66.52    3.95
   0   2 -14   68.73    3.97
   0  -2  14   65.57    3.94
   0  -2  14   67.64    3.94
   0  -2  14   66.22    3.94
  -1   2 -14   16.12    1.02
  -1   2 -14   17.12    1.06
  -1   2 -14   16.84    1.05
  -1   2 -14   15.58    1.02
  -1   2 -14   17.64    1.07
   1  -2  14   17.15    1.02
   1  -2  14   17.58    1.03
  -2   2 -14    2.83    0.24
  -2   2 -14    3.04    0.22
   2  -2  14    3.00    0.23
   2  -2  14    3.14    0.25
   2  -2  14    3.10    0.24
  -3   2 -14    1.80    0.17
  -3   2 -14    1.70    0.19
  -3   2 -14    1.55    0.17
   3  -2  14    1.79    0.17
   3  -2  14    1.79    0.17
   3  -2  14    2.07    0.17
   4   1 -14    6.23    0.40
  -4  -1  14    5.50    0.36
  -4  -1  14    5.12    0.38
   3   1 -14    0.12    0.15
  -3  -1  14    0.04    0.07
   2   1 -14    0.94    0.14
   2   1 -14    0.89    0.12
   2   1 -14    1.04    0.17
   2   1 -14    0.81    0.15
  -2  -1  14    1.25    0.14
  -2  -1  14    0.86    0.12
   1   1 -14    2.98    0.21
   1   1 -14    2.98    0.35
   1   1 -14    2.48    0.22
   1   1 -14    2.86    0.20
  -1  -1  14    2.70    0.25
  -1  -1  14    2.80    0.20
   0   1 -14   16.33    1.01
   0   1 -14   17.57    1.03
   0   1 -14   16.61    1.01
   0   1 -14   15.69    1.02
   0  -1  14   16.97    1.01
   0  -1  14   18.52    1.04
   0  -1  14   16.32    1.01
   0  -1  14   16.37    1.02
  -1   1 -14    2.63    0.22
  -1   1 -14    2.60    0.19
  -1   1 -14    2.61    0.25
  -1   1 -14    2.33    0.22
   1  -1  14    2.61    0.21
   1  -1  14    2.28    0.18
   1  -1  14    2.44    0.20
   1  -1  14    2.56    0.21
  -2   1 -14   44.28    2.51
  -2   1 -14   40.16    2.47
  -2   1 -14   41.99    2.53
   2  -1  14   46.01    2.48
   2  -1  14   38.47    2.52
   2  -1  14   37.22    2.50
  -3   1 -14    4.53    0.33
   3  -1  14    5.03    0.35
   3  -1  14    4.61    0.34
   3  -1  14    5.17    0.33
  -4   1 -14   18.93    1.20
   4  -1  14   20.41    1.20
   4  -1  14   20.04    1.20
   4   0 -14    3.94    0.30
   4   0 -14    3.59    0.32
  -4   0  14    3.43    0.27
   3   0 -14    5.43    0.46
   3   0 -14    7.10    0.47
  -3   0  14    6.07    0.40
  -3   0  14    6.33    0.42
   2   0 -14    3.89    0.27
   2   0 -14    3.80    0.36
   2   0 -14    3.61    0.30
   2   0 -14    3.62    0.27
  -2   0  14    3.12    0.25
  -2   0  14    3.76    0.27
   1   0 -14    8.67    0.50
   1   0 -14    7.21    0.51
   1   0 -14    8.14    0.52
   1   0 -14    7.69    0.52
  -1   0  14    8.49    0.50
  -1   0  14    8.35    0.53
  -1   0  14    7.61    0.49
   0   0 -14   36.42    2.27
   0   0 -14   37.27    2.27
   0   0 -14   37.72    2.26
   0   0 -14   40.31    2.26
   0   0  14   38.46    2.27
   0   0  14   37.59    2.26
   0   0  14   37.31    2.27
   0   0  14   37.88    2.27
  -1   0 -14    3.64    0.30
  -1   0 -14    3.68    0.25
   1   0  14    4.03    0.27
   1   0  14    4.05    0.26
   1   0  14    3.39    0.32
  -2   0 -14   -0.03    0.12
   2   0  14   -0.02    0.07
   2   0  14    0.17    0.08
   2   0  14    0.00    0.10
   2   0  14   -0.01    0.09
   3   0  14    6.20    0.39
   3   0  14    5.98    0.37
   3   0  14    4.96    0.39
  -4   0 -14    9.27    0.69
   4   0  14   11.10    0.69
   4   0  14   12.53    0.69
   4  -1 -14    0.86    0.13
  -4   1  14    0.79    0.12
   3  -1 -14    2.11    0.29
  -3   1  14    2.62    0.23
  -3   1  14    3.27    0.26
   2  -1 -14    2.44    0.27
   2  -1 -14    2.80    0.24
   2  -1 -14    3.03    0.25
  -2   1  14    3.28    0.23
  -2   1  14    2.71    0.23
   1  -1 -14    2.74    0.26
   1  -1 -14    2.82    0.22
   1  -1 -14    2.57    0.25
   1  -1 -14    3.01    0.22
   0  -1 -14   23.86    1.48
   0  -1 -14   25.13    1.47
   0  -1 -14   24.24    1.49
   0   1  14   23.36    1.48
   0   1  14   24.81    1.48
   0   1  14   26.66    1.48
   0   1  14   24.01    1.48
  -1  -1 -14    4.63    0.31
   1   1  14    5.06    0.33
   1   1  14    4.41    0.31
   1   1  14    4.53    0.31
   1   1  14    4.50    0.30
   2   1  14   30.49    1.89
   2   1  14   29.71    1.89
   2   1  14   34.40    1.90
   3   1  14   12.12    0.66
   3   1  14    8.82    0.66
   4   1  14    1.14    0.21
   4   1  14    1.67    0.20
   4  -2 -14    0.23    0.09
  -4   2  14   -0.05    0.10
   3  -2 -14    4.64    0.37
  -3   2  14    4.82    0.33
   2  -2 -14    1.84    0.22
   2  -2 -14    1.27    0.20
   2  -2 -14    1.50    0.18
  -2   2  14    1.64    0.23
  -2   2  14    2.22    0.22
   1  -2 -14    0.30    0.13
   1  -2 -14    0.05    0.09
   1  -2 -14    0.11    0.13
   1  -2 -14    0.05    0.10
  -1   2  14    0.17    0.10
  -1   2  14   -0.05    0.12
  -1   2  14   -0.13    0.13
  -1   2  14    0.05    0.09
   0  -2 -14    0.17    0.08
   0  -2 -14    0.13    0.08
   0  -2 -14    0.01    0.11
   0   2  14    0.03    0.09
   0   2  14    0.03    0.11
  -1  -2 -14    0.19    0.08
   1   2  14    0.05    0.09
   1   2  14    0.46    0.15
   1   2  14    0.26    0.11
   2   2  14   20.09    1.15
   2   2  14   16.95    1.16
   2   2  14   19.44    1.15
   3  -3 -14    1.23    0.18
  -3   3  14    1.06    0.20
   2  -3 -14    0.48    0.09
   2  -3 -14    0.55    0.17
  -2   3  14    0.58    0.12
   1  -3 -14   -0.06    0.11
   1  -3 -14    0.00    0.11
   1  -3 -14    0.05    0.10
  -1   3  14   -0.06    0.11
  -1   3  14   -0.11    0.15
  -1   3  14    0.30    0.13
   0  -3 -14   13.03    0.88
   0  -3 -14   14.63    0.89
   0  -3 -14   15.68    0.90
   0   3  14   13.76    0.89
   0   3  14   16.01    0.89
   0   3  14   14.18    0.89
   0   3  14   13.31    0.90
  -1  -3 -14   21.26    1.21
  -1  -3 -14   21.32    1.20
   1   3  14   16.69    1.20
   1   3  14   18.31    1.21
   1   3  14   21.28    1.21
   2   3  14    2.93    0.25
   2   3  14    2.08    0.27
   2   3  14    2.20    0.22
   2   3  14    3.28    0.30
   3   3  14    6.19    0.48
   3   3  14    6.98    0.47
   2  -4 -14    0.35    0.10
   2  -4 -14    0.27    0.15
  -2   4  14    0.50    0.13
   1  -4 -14    0.20    0.10
   1  -4 -14    0.32    0.11
  -1   4  14    0.56    0.21
  -1   4  14    0.41    0.13
   0  -4 -14   26.16    1.53
   0  -4 -14   26.00    1.53
   0  -4 -14   24.11    1.54
   0   4  14   24.54    1.53
   0   4  14   25.51    1.54
  -1  -4 -14    0.53    0.16
  -1  -4 -14    0.46    0.15
  -1  -4 -14    0.64    0.11
   1   4  14    0.57    0.13
   1   4  14    0.85    0.15
   1   4  14    0.41    0.12
   1   4  14    0.38    0.13
  -2  -4 -14   22.98    1.45
   2   4  14   24.46    1.46
   2   4  14   22.81    1.46
   2   4  14   26.44    1.50
   2   4  14   23.25    1.46
   3   4  14    3.43    0.30
   3   4  14    4.11    0.36
   1  -5 -14   11.10    0.73
  -1   5  14   13.19    0.77
   0  -5 -14    1.76    0.23
   0  -5 -14    1.80    0.24
   0  -5 -14    2.01    0.18
   0   5  14    1.93    0.24
   0   5  14    2.19    0.22
  -1  -5 -14    9.87    0.69
  -1  -5 -14    9.90    0.65
  -1  -5 -14    9.93    0.65
   1   5  14   11.68    0.67
   1   5  14   10.27    0.66
  -2  -5 -14    1.36    0.19
  -2  -5 -14    1.59    0.24
   2   5  14    1.21    0.15
   2   5  14    1.42    0.25
  -3  -5 -14    5.20    0.38
   3   5  14    4.65    0.36
   4   5  14    0.72    0.11
   0  -6 -14    7.94    0.52
   0  -6 -14    8.57    0.51
   0   6  14    8.36    0.55
  -1  -6 -14    0.11    0.09
  -1  -6 -14    0.03    0.09
   1   6  14    0.15    0.14
   1   6  14    0.01    0.10
  -2  -6 -14    5.30    0.38
  -2  -6 -14    5.83    0.39
  -2  -6 -14    5.78    0.38
   2   6  14    5.38    0.36
  -3  -6 -14    0.56    0.15
   3   6  14    0.64    0.09
   3   5 -15    0.92    0.15
  -3  -5  15    0.77    0.09
   2   5 -15    0.41    0.11
  -2  -5  15    0.58    0.09
   1   5 -15   29.94    1.72
  -1  -5  15   26.10    1.68
   0   5 -15    0.46    0.18
   0  -5  15    0.34    0.08
   4   4 -15    5.28    0.36
  -4  -4  15    5.59    0.34
   3   4 -15    7.01    0.46
  -3  -4  15    7.03    0.43
   2   4 -15    2.19    0.22
  -2  -4  15    1.98    0.17
  -2  -4  15    2.46    0.18
   1   4 -15    1.28    0.21
  -1  -4  15    0.84    0.11
   0   4 -15    2.44    0.31
   0   4 -15    2.41    0.19
   0   4 -15    2.35    0.17
   0  -4  15    2.55    0.21
   0  -4  15    2.53    0.18
  -1   4 -15   45.22    2.72
  -1   4 -15   48.70    2.76
  -1   4 -15   45.07    2.72
   1  -4  15   43.90    2.73
   4   3 -15    4.79    0.33
  -4  -3  15    4.56    0.29
   3   3 -15   -0.01    0.12
  -3  -3  15    0.02    0.08
   2   3 -15   -0.02    0.12
   2   3 -15    0.06    0.08
  -2  -3  15    0.02    0.08
  -2  -3  15    0.07    0.06
   1   3 -15    1.58    0.14
   1   3 -15    1.63    0.18
  -1  -3  15    1.73    0.15
  -1  -3  15    1.81    0.25
  -1  -3  15    1.60    0.16
  -1  -3  15    1.43    0.23
   0   3 -15    7.47    0.50
   0   3 -15    8.02    0.49
   0   3 -15    8.11    0.50
   0   3 -15    8.16    0.58
   0   3 -15    7.95    0.57
   0  -3  15    8.13    0.50
   0  -3  15    7.79    0.52
   0  -3  15    7.90    0.50
  -1   3 -15    9.40    0.61
  -1   3 -15    9.48    0.56
  -1   3 -15    8.82    0.56
  -1   3 -15    9.05    0.55
   1  -3  15    8.56    0.56
   1  -3  15    8.61    0.56
   1  -3  15    9.14    0.57
  -2   3 -15    1.58    0.14
  -2   3 -15    1.88    0.26
  -2   3 -15    1.79    0.16
  -2   3 -15    1.41    0.16
   2  -3  15    1.62    0.15
   2  -3  15    1.63    0.17
   4   2 -15    0.74    0.12
  -4  -2  15    0.70    0.10
   3   2 -15    0.10    0.14
  -3  -2  15    0.22    0.07
   2   2 -15    5.38    0.35
   2   2 -15    5.38    0.38
   2   2 -15    5.56    0.36
  -2  -2  15    5.13    0.34
  -2  -2  15    5.14    0.35
   1   2 -15    1.97    0.17
   1   2 -15    1.76    0.22
   1   2 -15    1.80    0.17
   1   2 -15    1.99    0.16
  -1  -2  15    1.85    0.22
  -1  -2  15    1.93    0.16
  -1  -2  15    1.90    0.16
  -1  -2  15    2.07    0.22
   0   2 -15   10.05    0.61
   0   2 -15    9.51    0.65
   0   2 -15    9.39    0.61
   0   2 -15   10.29    0.62
   0  -2  15   10.35    0.63
   0  -2  15   10.17    0.62
   0  -2  15   10.12    0.62
  -1   2 -15    6.97    0.47
  -1   2 -15    8.01    0.54
  -1   2 -15    7.91    0.55
  -1   2 -15    7.83    0.50
  -1   2 -15    7.07    0.47
  -1   2 -15    8.36    0.58
   1  -2  15    8.06    0.49
   1  -2  15    7.18    0.48
   1  -2  15    6.98    0.47
  -2   2 -15    4.75    0.31
  -2   2 -15    4.57    0.47
  -2   2 -15    4.72    0.31
   2  -2  15    4.53    0.33
   2  -2  15    4.66    0.32
   2  -2  15    4.66    0.32
  -3   2 -15    2.56    0.25
  -3   2 -15    2.92    0.21
  -3   2 -15    2.40    0.21
   3  -2  15    2.71    0.20
   3  -2  15    2.70    0.21
   3  -2  15    2.67    0.21
   4   1 -15    0.01    0.12
  -4  -1  15    0.03    0.12
  -4  -1  15    0.08    0.08
   3   1 -15   15.39    0.94
  -3  -1  15   14.40    0.90
   2   1 -15    3.37    0.25
   2   1 -15    3.60    0.31
  -2  -1  15    3.43    0.24
  -2  -1  15    3.19    0.25
   1   1 -15    1.04    0.15
   1   1 -15    0.67    0.11
   1   1 -15    0.75    0.12
   1   1 -15    0.78    0.16
  -1  -1  15    0.69    0.13
  -1  -1  15    0.74    0.11
  -1  -1  15    0.59    0.13
  -1  -1  15    0.71    0.10
   0   1 -15    9.45    0.56
   0   1 -15    8.49    0.56
   0   1 -15    8.88    0.57
   0   1 -15    9.08    0.59
   0  -1  15    9.21    0.57
   0  -1  15    9.39    0.57
   0  -1  15    9.36    0.56
   0  -1  15    8.78    0.56
  -1   1 -15    0.28    0.14
  -1   1 -15    0.41    0.08
  -1   1 -15    0.25    0.12
  -1   1 -15    0.42    0.11
   1  -1  15    0.32    0.07
   1  -1  15    0.36    0.10
   1  -1  15    0.35    0.09
  -2   1 -15    6.32    0.55
  -2   1 -15    6.50    0.43
  -2   1 -15    5.77    0.46
   2  -1  15    7.67    0.44
   2  -1  15    7.14    0.44
   2  -1  15    7.11    0.44
   2  -1  15    6.45    0.43
  -3   1 -15   43.81    2.73
  -3   1 -15   46.18    2.73
   3  -1  15   43.98    2.74
   3  -1  15   48.60    2.73
  -4   1 -15    6.32    0.45
   4  -1  15    6.82    0.42
   4  -1  15    6.62    0.42
   4   0 -15    1.99    0.28
   4   0 -15    2.26    0.23
  -4   0  15    2.54    0.22
   3   0 -15    3.37    0.31
  -3   0  15    3.22    0.26
  -3   0  15    2.89    0.23
   2   0 -15   20.04    1.23
   2   0 -15   21.07    1.20
  -2   0  15   19.35    1.27
  -2   0  15   19.56    1.20
  -2   0  15   18.91    1.19
   1   0 -15    5.93    0.37
   1   0 -15    5.94    0.36
   1   0 -15    5.12    0.37
   1   0 -15    5.37    0.40
   1   0 -15    6.00    0.44
   1   0 -15    5.08    0.42
  -1   0  15    5.54    0.36
  -1   0  15    5.75    0.39
  -1   0  15    5.82    0.36
   0   0 -15    6.19    0.37
   0   0 -15    5.85    0.38
   0   0 -15    5.71    0.38
   0   0 -15    5.76    0.39
   0   0  15    6.02    0.37
   0   0  15    6.22    0.37
   0   0  15    5.51    0.39
  -1   0 -15    1.93    0.18
  -1   0 -15    1.90    0.17
  -1   0 -15    1.60    0.19
   1   0  15    1.88    0.18
   1   0  15    1.85    0.15
   1   0  15    1.82    0.18
   1   0  15    1.83    0.17
  -2   0 -15    1.22    0.20
   2   0  15    0.98    0.13
   2   0  15    0.92    0.16
   2   0  15    0.85    0.11
   2   0  15    0.93    0.16
   3   0  15    1.72    0.17
   3   0  15    1.73    0.19
   3   0  15    1.97    0.20
   4   0  15    0.40    0.09
   4   0  15    0.43    0.10
   4  -1 -15    1.53    0.17
  -4   1  15    1.32    0.20
   3  -1 -15    3.03    0.30
  -3   1  15    2.89    0.24
   2  -1 -15   12.53    0.77
   2  -1 -15   12.76    0.77
  -2   1  15   11.89    0.76
  -2   1  15   12.45    0.77
   1  -1 -15    5.86    0.43
   1  -1 -15    6.14    0.42
   1  -1 -15    6.72    0.41
  -1   1  15    6.22    0.43
  -1   1  15    6.74    0.41
  -1   1  15    6.08    0.41
  -1   1  15    5.95    0.40
   0  -1 -15   28.50    1.67
   0  -1 -15   26.53    1.66
   0  -1 -15   28.11    1.66
   0   1  15   26.84    1.67
   0   1  15   26.45    1.67
   0   1  15   29.94    1.67
  -1  -1 -15    7.02    0.44
   1   1  15    6.94    0.44
   1   1  15    6.39    0.44
   1   1  15    7.14    0.46
   1   1  15    6.86    0.44
   2   1  15   26.44    1.49
   2   1  15   23.87    1.48
   2   1  15   23.57    1.48
   3   1  15    1.69    0.17
   3   1  15    1.54    0.18
   4   1  15    0.51    0.11
   4   1  15    0.45    0.11
   3  -2 -15    0.21    0.13
  -3   2  15    0.20    0.10
   2  -2 -15    4.85    0.40
   2  -2 -15    5.14    0.35
   2  -2 -15    5.25    0.37
  -2   2  15    5.36    0.37
  -2   2  15    5.82    0.37
   1  -2 -15   13.90    0.91
   1  -2 -15   15.71    0.95
   1  -2 -15   14.95    0.90
   1  -2 -15   15.17    0.91
  -1   2  15   15.13    0.90
  -1   2  15   14.13    0.91
  -1   2  15   14.39    0.90
  -1   2  15   14.32    0.92
   0  -2 -15   23.34    1.37
   0  -2 -15   22.13    1.37
   0  -2 -15   23.64    1.36
   0   2  15   21.80    1.37
   0   2  15   21.92    1.36
   0   2  15   22.22    1.37
   0   2  15   22.90    1.37
  -1  -2 -15   49.68    3.00
   1   2  15   46.21    3.00
   1   2  15   52.80    3.01
   1   2  15   52.32    3.00
   1   2  15   49.83    3.00
   2   2  15   10.33    0.63
   2   2  15    9.30    0.63
   2   2  15   10.05    0.66
   2   2  15   10.35    0.63
   3  -3 -15   12.47    0.73
  -3   3  15   11.04    0.79
   2  -3 -15    5.80    0.49
  -2   3  15    5.22    0.46
  -2   3  15    5.89    0.39
   1  -3 -15    6.01    0.42
   1  -3 -15    6.01    0.42
   1  -3 -15    5.73    0.42
  -1   3  15    5.62    0.45
  -1   3  15    7.01    0.46
  -1   3  15    6.71    0.43
   0  -3 -15   12.32    0.76
   0  -3 -15   11.53    0.75
   0  -3 -15   12.81    0.75
   0   3  15   11.39    0.75
   0   3  15   12.50    0.81
   0   3  15   11.74    0.75
  -1  -3 -15   27.75    1.76
  -1  -3 -15   31.68    1.73
   1   3  15   26.78    1.73
   1   3  15   28.05    1.73
   1   3  15   29.34    1.73
   1   3  15   28.09    1.73
   2   3  15   14.75    0.85
   2   3  15   11.62    0.82
   3   3  15    7.87    0.57
   3   3  15    9.25    0.58
   2  -4 -15   11.27    0.75
   2  -4 -15   12.45    0.73
  -2   4  15   11.67    0.74
   1  -4 -15   62.77    3.67
   1  -4 -15   58.98    3.69
  -1   4  15   58.44    3.68
  -1   4  15   66.01    3.68
   0  -4 -15    5.05    0.36
   0  -4 -15    5.00    0.38
   0  -4 -15    5.39    0.36
   0   4  15    5.51    0.38
   0   4  15    4.90    0.37
   0   4  15    4.80    0.37
  -1  -4 -15    0.12    0.10
  -1  -4 -15    0.30    0.17
   1   4  15    0.02    0.17
   1   4  15   -0.04    0.11
   1   4  15    0.00    0.12
  -2  -4 -15    2.36    0.30
  -2  -4 -15    2.23    0.24
   2   4  15    1.88    0.22
   2   4  15    2.01    0.23
   2   4  15    2.11    0.24
   2   4  15    2.75    0.32
   3   4  15    3.81    0.32
   3   4  15    3.47    0.29
   1  -5 -15   13.74    0.82
  -1   5  15   13.47    0.87
   0  -5 -15    4.92    0.35
   0  -5 -15    4.98    0.42
   0  -5 -15    5.57    0.35
   0   5  15    6.07    0.38
   0   5  15    4.76    0.38
  -1  -5 -15   31.34    1.89
  -1  -5 -15   30.69    1.89
  -1  -5 -15   31.11    1.88
   1   5  15   35.97    1.90
   1   5  15   27.15    1.92
  -2  -5 -15    4.86    0.39
  -2  -5 -15    5.40    0.41
   2   5  15    6.35    0.41
   3   5  15   16.20    1.07
   3   5  15   18.86    1.08
   4   5  15    8.84    0.59
  -1  -6 -15    0.33    0.09
   1   6  15    0.40    0.11
  -2  -6 -15   15.28    0.88
  -2  -6 -15   15.05    0.87
   2   6  15   12.67    0.91
   2   6  15   13.65    0.86
  -3  -6 -15    2.59    0.40
   3   6  15    2.78    0.20
   3   6  15    2.73    0.26
   2   5 -16    3.35    0.27
  -2  -5  16    3.57    0.24
  -1  -5  16    0.33    0.07
   3   4 -16    5.37    0.35
  -3  -4  16    5.04    0.32
   2   4 -16   23.87    1.49
  -2  -4  16   24.43    1.47
  -2  -4  16   25.37    1.48
   1   4 -16    1.14    0.16
   1   4 -16    1.43    0.25
  -1  -4  16    0.79    0.11
   0   4 -16   10.38    0.65
   0   4 -16   11.46    0.73
   0  -4  16   10.79    0.66
   0  -4  16   10.51    0.66
  -1   4 -16    6.63    0.40
  -1   4 -16    6.21    0.41
   1  -4  16    6.76    0.41
   4   3 -16    9.05    0.58
  -4  -3  16    9.58    0.57
   3   3 -16   19.07    1.19
  -3  -3  16   19.83    1.17
  -2  -3  16    0.36    0.07
  -2  -3  16    0.53    0.09
   1   3 -16    7.77    0.50
   1   3 -16    7.83    0.50
  -1  -3  16    8.79    0.50
  -1  -3  16    7.95    0.54
  -1  -3  16    8.13    0.51
   0   3 -16    4.15    0.29
   0   3 -16    4.80    0.46
   0   3 -16    4.41    0.29
   0   3 -16    4.61    0.29
   0  -3  16    4.13    0.30
   0  -3  16    4.38    0.33
   0  -3  16    4.02    0.29
  -1   3 -16    1.18    0.13
  -1   3 -16    1.66    0.16
  -1   3 -16    1.45    0.22
  -1   3 -16    1.08    0.15
   1  -3  16    1.16    0.17
   1  -3  16    1.12    0.13
   1  -3  16    1.38    0.20
  -2   3 -16    3.16    0.24
  -2   3 -16    3.14    0.22
   2  -3  16    2.73    0.21
   2  -3  16    2.89    0.23
   4   2 -16   33.24    1.96
  -4  -2  16   32.07    1.95
   3   2 -16    0.07    0.12
  -3  -2  16    0.12    0.07
   2   2 -16   16.14    1.02
   2   2 -16   17.01    1.00
  -2  -2  16   16.52    1.00
  -2  -2  16   16.33    1.00
   1   2 -16    2.94    0.23
   1   2 -16    3.23    0.22
   1   2 -16    2.93    0.23
   1   2 -16    2.77    0.29
  -1  -2  16    2.99    0.31
  -1  -2  16    2.98    0.27
  -1  -2  16    3.30    0.23
  -1  -2  16    3.45    0.22
   0   2 -16   10.66    0.73
   0   2 -16   11.38    0.70
   0   2 -16   11.10    0.69
   0   2 -16   11.58    0.70
   0  -2  16   11.85    0.71
   0  -2  16   11.46    0.70
   0  -2  16   11.30    0.70
  -1   2 -16    1.15    0.27
  -1   2 -16    0.68    0.21
  -1   2 -16    1.38    0.21
  -1   2 -16    1.01    0.13
  -1   2 -16    1.17    0.15
   1  -2  16    1.22    0.14
   1  -2  16    1.20    0.15
   1  -2  16    1.15    0.17
  -2   2 -16    1.75    0.17
  -2   2 -16    1.65    0.16
  -2   2 -16    1.82    0.21
  -2   2 -16    2.08    0.24
   2  -2  16    1.96    0.20
   2  -2  16    2.02    0.26
  -3   2 -16    7.42    0.51
  -3   2 -16    8.39    0.56
  -3   2 -16    7.99    0.65
   3  -2  16    8.76    0.51
   3  -2  16    8.53    0.51
   4   1 -16    0.07    0.12
  -4  -1  16    0.11    0.08
   3   1 -16    0.02    0.16
  -3  -1  16    0.06    0.07
   2   1 -16   68.52    4.03
   2   1 -16   67.71    4.04
   2   1 -16   68.82    4.02
  -2  -1  16   66.54    4.02
  -2  -1  16   65.95    4.03
   1   1 -16   12.49    0.75
   1   1 -16   12.12    0.76
   1   1 -16   12.60    0.76
   1   1 -16   12.96    0.82
  -1  -1  16   12.11    0.77
  -1  -1  16   11.75    0.77
  -1  -1  16   12.18    0.75
  -1  -1  16   12.54    0.75
   0   1 -16    5.39    0.41
   0   1 -16    5.55    0.48
   0   1 -16    5.20    0.38
   0   1 -16    5.37    0.35
   0   1 -16    5.76    0.36
   0  -1  16    5.34    0.36
   0  -1  16    5.12    0.35
   0  -1  16    5.34    0.37
   0  -1  16    5.53    0.35
  -1   1 -16   13.49    0.80
  -1   1 -16   12.17    0.76
  -1   1 -16   12.17    0.75
  -1   1 -16   12.85    0.79
   1  -1  16   11.66    0.75
   1  -1  16   11.53    0.80
  -2   1 -16    6.01    0.40
  -2   1 -16    5.48    0.59
  -2   1 -16    6.00    0.63
  -2   1 -16    5.77    0.44
   2  -1  16    6.68    0.42
   2  -1  16    6.68    0.41
   2  -1  16    6.71    0.41
   2  -1  16    6.12    0.41
  -3   1 -16   21.68    1.34
   3  -1  16   21.90    1.33
   3  -1  16   22.28    1.33
   3  -1  16   22.47    1.33
  -4   1 -16   18.10    1.18
   4  -1  16   19.46    1.17
   4  -1  16   20.66    1.17
   4   0 -16    4.94    0.32
  -4   0  16    4.34    0.34
   3   0 -16   39.18    2.27
   3   0 -16   39.21    2.27
  -3   0  16   36.37    2.25
  -3   0  16   35.58    2.25
   2   0 -16    0.58    0.10
   2   0 -16    0.33    0.11
   2   0 -16    0.57    0.17
  -2   0  16    0.65    0.21
  -2   0  16    0.48    0.14
  -2   0  16    0.54    0.19
  -2   0  16    0.28    0.08
   1   0 -16    1.12    0.17
   1   0 -16    0.75    0.17
   1   0 -16    0.74    0.16
   1   0 -16    0.89    0.12
   1   0 -16    0.92    0.13
   1   0 -16    0.72    0.14
  -1   0  16    0.75    0.13
  -1   0  16    0.95    0.12
  -1   0  16    0.86    0.13
   0   0 -16   13.48    0.88
   0   0 -16   14.16    0.87
   0   0 -16   14.65    0.88
   0   0  16   14.21    0.87
   0   0  16   14.74    0.88
   0   0  16   14.42    0.87
  -1   0 -16   15.89    0.94
  -1   0 -16   14.06    0.93
   1   0  16   14.34    0.92
   1   0  16   15.59    0.93
   1   0  16   15.37    0.93
   1   0  16   15.84    0.93
  -2   0 -16   41.00    2.69
  -2   0 -16   47.50    2.72
  -2   0 -16   48.42    2.72
   2   0  16   42.92    2.70
   2   0  16   46.30    2.70
   2   0  16   44.28    2.70
   2   0  16   45.19    2.70
  -3   0 -16   47.04    3.18
   3   0  16   54.27    3.19
   3   0  16   58.80    3.19
   4   0  16    5.99    0.39
   4   0  16    5.93    0.38
   4  -1 -16   11.91    0.66
  -4   1  16    9.50    0.67
   3  -1 -16   14.70    0.87
  -3   1  16   13.39    0.85
  -3   1  16   13.37    0.85
   2  -1 -16   33.32    2.18
   2  -1 -16   38.89    2.16
  -2   1  16   35.85    2.16
   1  -1 -16    0.49    0.10
   1  -1 -16    0.71    0.11
   1  -1 -16    0.71    0.16
   1  -1 -16    0.50    0.12
  -1   1  16    0.62    0.12
  -1   1  16    0.63    0.13
  -1   1  16    0.53    0.10
  -1   1  16    0.43    0.13
   0  -1 -16    1.42    0.18
   0  -1 -16    1.47    0.17
   0   1  16    1.20    0.17
   0   1  16    1.20    0.14
   0   1  16    1.20    0.14
   0   1  16    1.36    0.19
  -1  -1 -16  102.90    5.94
   1   1  16   96.62    5.94
   1   1  16   96.74    5.94
   1   1  16  104.12    5.94
   1   1  16   98.23    5.94
  -2  -1 -16   53.43    3.12
   2   1  16   50.53    3.11
   3   1  16    8.17    0.49
   3   1  16    7.23    0.49
   3   1  16    7.29    0.48
   3  -2 -16    0.16    0.11
  -3   2  16    0.08    0.10
   2  -2 -16    3.25    0.23
   2  -2 -16    3.15    0.24
   2  -2 -16    2.66    0.29
  -2   2  16    2.64    0.25
  -2   2  16    3.13    0.26
   1  -2 -16    0.34    0.12
   1  -2 -16    0.13    0.10
   1  -2 -16    0.31    0.11
  -1   2  16    0.04    0.12
  -1   2  16    0.15    0.14
  -1   2  16   -0.01    0.12
  -1   2  16   -0.06    0.10
   0  -2 -16   94.81    6.38
   0  -2 -16  114.07    6.37
   0  -2 -16  111.31    6.37
   0   2  16  104.92    6.37
   0   2  16  108.27    6.37
   0   2  16  112.49    6.38
   0   2  16  102.42    6.37
  -1  -2 -16   51.23    2.96
   1   2  16   45.22    2.96
   1   2  16   49.11    2.96
   1   2  16   51.15    2.96
   1   2  16   50.81    2.97
   2   2  16   12.53    0.78
   2   2  16   12.72    0.79
   2   2  16   12.33    0.81
   3  -3 -16    0.08    0.10
  -3   3  16    0.07    0.12
   2  -3 -16    4.57    0.33
   2  -3 -16    4.04    0.27
  -2   3  16    3.98    0.40
  -2   3  16    4.02    0.30
   1  -3 -16   46.09    2.65
   1  -3 -16   43.89    2.64
   1  -3 -16   44.94    2.64
  -1   3  16   40.85    2.65
  -1   3  16   43.07    2.64
  -1   3  16   45.50    2.64
   0  -3 -16   40.71    2.50
   0  -3 -16   41.04    2.50
   0  -3 -16   42.83    2.49
   0  -3 -16   44.03    2.49
   0   3  16   40.50    2.50
   0   3  16   41.26    2.49
   0   3  16   42.28    2.49
   0   3  16   39.46    2.49
  -1  -3 -16    2.53    0.30
  -1  -3 -16    2.68    0.26
  -1  -3 -16    2.60    0.23
   1   3  16    2.77    0.25
   1   3  16    2.48    0.24
   1   3  16    2.87    0.24
   1   3  16    2.73    0.28
   2   3  16   42.71    2.45
   2   3  16   39.21    2.45
   2   3  16   41.16    2.45
   2   3  16   39.86    2.46
   3   3  16    1.17    0.19
   2  -4 -16   22.59    1.34
  -2   4  16   21.98    1.37
   1  -4 -16   20.31    1.29
   1  -4 -16   21.69    1.26
   1  -4 -16   22.31    1.26
  -1   4  16   20.01    1.27
  -1   4  16   20.02    1.27
   0  -4 -16    0.26    0.15
   0  -4 -16    0.05    0.10
   0  -4 -16    0.14    0.11
   0   4  16    0.10    0.12
   0   4  16    0.06    0.12
   0   4  16    0.15    0.12
  -1  -4 -16   14.34    0.85
  -1  -4 -16   14.75    0.95
  -1  -4 -16   14.79    0.88
   1   4  16   11.66    0.84
   1   4  16   13.50    0.86
   1   4  16   13.01    0.85
  -2  -4 -16    1.81    0.23
   2   4  16    2.10    0.28
   2   4  16    1.72    0.20
   2   4  16    1.97    0.24
   2   4  16    2.12    0.22
   3   4  16   -0.05    0.12
   1  -5 -16    0.02    0.07
  -1   5  16    0.05    0.13
   0  -5 -16    2.01    0.17
   0  -5 -16    1.38    0.16
   0   5  16    1.68    0.21
   0   5  16    1.64    0.20
  -1  -5 -16   21.33    1.35
  -1  -5 -16   23.00    1.34
   1   5  16   23.14    1.35
   1   5  16   21.36    1.34
  -2  -5 -16   13.20    0.84
  -2  -5 -16   13.90    0.84
   2   5  16   12.70    0.83
   2   5  16   13.79    0.84
  -3  -5 -16    6.35    0.48
   3   5  16    6.57    0.43
   3   5  16    6.66    0.46
  -1  -6 -16    0.16    0.09
  -1  -6 -16    0.22    0.08
   1   6  16    0.29    0.10
   1   6  16    0.07    0.14
  -2  -6 -16    7.29    0.45
  -2  -6 -16    7.71    0.47
   2   6  16    6.45    0.47
   2   6  16    6.84    0.44
   3   4 -17    3.82    0.28
  -3  -4  17    4.15    0.25
   2   4 -17   29.17    1.83
  -2  -4  17   30.53    1.81
  -2  -4  17   31.34    1.82
   1   4 -17    4.19    0.29
  -1  -4  17    3.88    0.26
   0   4 -17    0.21    0.05
   0  -4  17    0.01    0.09
   0  -4  17    0.11    0.07
  -1   4 -17    2.32    0.16
   1  -4  17    2.42    0.19
   3   3 -17   16.09    1.00
  -3  -3  17   16.51    0.98
   2   3 -17    1.04    0.17
  -2  -3  17    1.04    0.13
  -2  -3  17    1.11    0.14
   1   3 -17    0.16    0.07
   1   3 -17    0.20    0.08
  -1  -3  17    0.10    0.07
  -1  -3  17    0.07    0.17
   0   3 -17   12.35    0.75
   0  -3  17   11.91    0.75
   0  -3  17   12.46    0.77
   0  -3  17   12.43    0.77
  -1   3 -17    1.51    0.16
  -1   3 -17    2.27    0.39
  -1   3 -17    1.80    0.15
  -1   3 -17    1.50    0.18
   1  -3  17    1.68    0.15
   1  -3  17    1.60    0.15
   1  -3  17    1.79    0.19
  -2   3 -17    5.35    0.32
   2  -3  17    4.87    0.32
   2  -3  17    4.87    0.33
   4   2 -17    0.98    0.16
  -4  -2  17    1.10    0.11
   3   2 -17    2.28    0.22
  -3  -2  17    2.04    0.17
   2   2 -17   13.56    0.86
   2   2 -17   13.66    0.83
  -2  -2  17   13.34    0.83
  -2  -2  17   14.12    0.84
   1   2 -17   37.77    2.37
   1   2 -17   39.08    2.37
   1   2 -17   38.78    2.37
  -1  -2  17   42.40    2.37
  -1  -2  17   40.36    2.38
   0   2 -17    4.53    0.31
   0   2 -17    4.66    0.32
   0   2 -17    4.50    0.31
   0  -2  17    4.80    0.33
   0  -2  17    4.61    0.31
   0  -2  17    4.66    0.32
  -1   2 -17    0.58    0.10
  -1   2 -17    0.72    0.14
  -1   2 -17    0.63    0.10
   1  -2  17    0.47    0.11
   1  -2  17    0.53    0.09
   1  -2  17    0.56    0.09
  -2   2 -17    0.15    0.09
  -2   2 -17   -0.05    0.09
  -2   2 -17   -0.12    0.14
   2  -2  17    0.00    0.08
   2  -2  17    0.04    0.08
  -3   2 -17    0.21    0.13
  -3   2 -17    0.16    0.10
   3  -2  17    0.27    0.07
   3  -2  17    0.26    0.07
   4   1 -17    0.09    0.18
   3   1 -17    1.40    0.24
   3   1 -17    1.20    0.21
  -3  -1  17    1.18    0.13
   2   1 -17   13.37    0.85
   2   1 -17   13.50    0.82
   2   1 -17   13.77    0.81
  -2  -1  17   13.09    0.83
  -2  -1  17   13.14    0.81
   1   1 -17   33.83    2.10
   1   1 -17   34.64    2.10
   1   1 -17   34.70    2.10
  -1  -1  17   36.52    2.10
  -1  -1  17   34.62    2.10
  -1  -1  17   36.13    2.10
   0   1 -17   38.21    2.30
   0   1 -17   35.64    2.28
   0   1 -17   38.53    2.27
   0   1 -17   36.55    2.26
   0  -1  17   39.58    2.27
   0  -1  17   39.54    2.27
   0  -1  17   37.08    2.27
  -1   1 -17    1.85    0.21
  -1   1 -17    2.12    0.27
  -1   1 -17    2.14    0.36
  -1   1 -17    1.85    0.17
   1  -1  17    2.22    0.19
   1  -1  17    1.95    0.20
   1  -1  17    1.92    0.17
  -2   1 -17   28.87    1.85
  -2   1 -17   29.89    1.85
  -2   1 -17   33.90    1.96
   2  -1  17   31.67    1.85
   2  -1  17   30.76    1.86
   2  -1  17   30.39    1.85
  -3   1 -17   18.21    1.18
  -3   1 -17   18.70    1.18
   3  -1  17   19.51    1.17
   3  -1  17   20.91    1.17
   3  -1  17   19.60    1.17
   4   0 -17    1.57    0.20
   3   0 -17    2.84    0.28
   3   0 -17    2.78    0.35
  -3   0  17    2.75    0.21
   2   0 -17    0.94    0.19
   2   0 -17    1.06    0.17
   2   0 -17    0.95    0.15
  -2   0  17    0.80    0.19
  -2   0  17    1.08    0.21
  -2   0  17    0.81    0.13
   1   0 -17   11.20    0.68
   1   0 -17   11.03    0.71
   1   0 -17   10.59    0.74
   1   0 -17    9.64    0.69
   1   0 -17   11.61    0.67
  -1   0  17   11.43    0.68
   0   0 -17   13.49    0.84
   0   0 -17   13.47    0.84
   0   0  17   14.07    0.84
   0   0  17   14.09    0.84
   0   0  17   13.68    0.85
   0   0  17   14.00    0.85
  -1   0 -17   26.56    1.57
  -1   0 -17   27.01    1.55
  -1   0 -17   27.60    1.57
  -1   0 -17   24.51    1.58
   1   0  17   25.92    1.55
   1   0  17   22.32    1.58
   1   0  17   26.05    1.56
  -2   0 -17  151.93    9.37
  -2   0 -17  165.52    9.39
  -2   0 -17  160.30    9.39
   2   0  17  155.55    9.38
   2   0  17  148.41    9.38
   2   0  17  157.54    9.37
   2   0  17  163.18    9.37
  -3   0 -17   52.66    3.23
   3   0  17   55.77    3.21
   3   0  17   52.94    3.21
   4   0  17    1.50    0.18
   4   0  17    1.61    0.15
   3  -1 -17    2.46    0.23
  -3   1  17    2.36    0.22
  -3   1  17    2.21    0.21
   2  -1 -17   13.47    0.82
   2  -1 -17   13.69    0.82
  -2   1  17   13.23    0.83
  -2   1  17   13.05    0.82
   1  -1 -17    3.96    0.27
   1  -1 -17    3.46    0.28
   1  -1 -17    3.93    0.27
  -1   1  17    3.62    0.26
  -1   1  17    3.88    0.29
  -1   1  17    3.86    0.30
  -1   1  17    3.09    0.31
   0  -1 -17   15.38    0.96
   0  -1 -17   16.10    0.96
   0   1  17   15.35    0.97
   0   1  17   16.00    0.97
   0   1  17   16.40    0.97
   0   1  17   15.65    0.96
  -1  -1 -17   53.21    3.02
  -1  -1 -17   48.66    3.01
   1   1  17   51.16    3.02
   1   1  17   46.78    3.01
   1   1  17   52.17    3.01
  -2  -1 -17   26.43    1.54
   2   1  17   24.99    1.52
   2   1  17   25.11    1.52
   2   1  17   24.22    1.52
   3   1  17    0.15    0.09
   3   1  17    0.03    0.10
   3  -2 -17    1.80    0.18
  -3   2  17    1.70    0.20
   2  -2 -17   -0.01    0.10
  -2   2  17    0.06    0.11
   1  -2 -17   36.46    2.19
   1  -2 -17   37.46    2.19
   1  -2 -17   36.06    2.19
  -1   2  17   35.23    2.19
  -1   2  17   36.00    2.20
  -1   2  17   37.79    2.20
   0  -2 -17    9.54    0.60
   0  -2 -17    8.94    0.57
   0  -2 -17    8.62    0.57
   0   2  17    9.01    0.57
   0   2  17    9.00    0.58
   0   2  17    9.42    0.58
   0   2  17    8.55    0.59
  -1  -2 -17   35.06    2.20
  -1  -2 -17   38.61    2.21
   1   2  17   36.36    2.21
   1   2  17   36.75    2.21
   2   2  17    7.14    0.46
   2   2  17    6.33    0.50
   2   2  17    7.62    0.49
   2   2  17    7.50    0.48
   3   2  17    2.76    0.26
   3   2  17    2.88    0.25
   2  -3 -17   17.85    1.06
  -2   3  17   17.42    1.07
  -2   3  17   16.73    1.06
   1  -3 -17   25.25    1.54
   1  -3 -17   24.97    1.52
   1  -3 -17   25.96    1.52
   1  -3 -17   25.76    1.52
  -1   3  17   23.58    1.52
  -1   3  17   25.46    1.52
   0  -3 -17   68.77    4.05
   0  -3 -17   71.24    4.04
   0  -3 -17   68.36    4.05
   0   3  17   66.22    4.05
   0   3  17   63.32    4.05
   0   3  17   68.42    4.05
   0   3  17   67.68    4.04
  -1  -3 -17   -0.09    0.15
  -1  -3 -17   -0.04    0.10
   1   3  17    0.07    0.11
   1   3  17    0.13    0.11
   1   3  17    0.04    0.18
   2   3  17   26.61    1.57
   2   3  17   25.88    1.57
   2   3  17   25.21    1.57
  -2   4  17   22.01    1.33
   1  -4 -17   11.53    0.68
   1  -4 -17   11.43    0.67
  -1   4  17   10.96    0.69
  -1   4  17   10.03    0.69
   0  -4 -17    1.39    0.20
   0  -4 -17    1.77    0.18
   0  -4 -17    1.60    0.23
   0   4  17    1.71    0.21
   0   4  17    1.61    0.20
  -1  -4 -17    0.14    0.11
  -1  -4 -17    0.20    0.13
   1   4  17   -0.08    0.13
   1   4  17   -0.06    0.10
   1   4  17    0.21    0.11
  -2  -4 -17    0.38    0.14
   2   4  17    0.37    0.13
   2   4  17    0.40    0.16
   2   4  17    0.38    0.11
   3   4  17    0.20    0.13
   3   4  17    0.01    0.12
   0  -5 -17    4.21    0.28
   0  -5 -17    4.13    0.27
   0   5  17    4.13    0.30
   0   5  17    3.78    0.31
  -1  -5 -17    3.52    0.30
  -1  -5 -17    3.97    0.29
  -1  -5 -17    3.58    0.28
   1   5  17    3.49    0.29
   1   5  17    3.55    0.26
  -2  -5 -17    0.27    0.15
  -2  -5 -17    0.14    0.12
   2   5  17    0.25    0.09
   2   5  17    0.19    0.13
   3   5  17    0.98    0.15
   2   4 -18    0.38    0.10
  -2  -4  18    0.23    0.10
   1   4 -18   45.21    2.64
  -1  -4  18   42.93    2.63
   0   4 -18    1.13    0.09
   0   4 -18    0.82    0.14
   0  -4  18    1.15    0.12
   0  -4  18    1.03    0.14
   3   3 -18    3.44    0.26
  -3  -3  18    3.61    0.23
   2   3 -18    0.58    0.12
  -2  -3  18    0.59    0.08
  -2  -3  18    0.64    0.14
   1   3 -18   -0.10    0.06
   1   3 -18    0.01    0.10
   1   3 -18    0.09    0.10
  -1  -3  18    0.05    0.06
   0   3 -18    0.00    0.08
   0   3 -18    0.05    0.07
   0  -3  18    0.01    0.07
   0  -3  18   -0.06    0.12
   0  -3  18    0.01    0.09
  -1   3 -18    2.82    0.19
  -1   3 -18    2.73    0.18
   1  -3  18    2.44    0.21
   1  -3  18    2.16    0.19
   1  -3  18    2.17    0.20
  -2   3 -18    3.69    0.25
  -2   3 -18    3.56    0.24
   2  -3  18    3.50    0.24
   3   2 -18    1.14    0.17
  -3  -2  18    1.17    0.11
   2   2 -18    5.14    0.40
  -2  -2  18    5.63    0.35
  -2  -2  18    4.85    0.33
   1   2 -18    4.08    0.28
   1   2 -18    3.97    0.28
  -1  -2  18    4.27    0.28
  -1  -2  18    4.14    0.28
  -1  -2  18    4.39    0.33
   0   2 -18    0.21    0.10
   0   2 -18    0.40    0.09
   0   2 -18    0.29    0.09
   0   2 -18    0.15    0.27
   0  -2  18    0.46    0.10
   0  -2  18    0.34    0.08
   0  -2  18    0.17    0.12
  -1   2 -18   20.07    1.21
  -1   2 -18   19.75    1.21
  -1   2 -18   20.34    1.21
  -2   2 -18    0.31    0.10
  -2   2 -18    0.39    0.13
  -2   2 -18    0.55    0.10
   2  -2  18    0.39    0.09
   2  -2  18    0.53    0.08
   3   1 -18    0.01    0.13
   3   1 -18    0.08    0.12
  -3  -1  18    0.08    0.07
   2   1 -18    5.18    0.35
   2   1 -18    5.48    0.34
  -2  -1  18    5.27    0.34
  -2  -1  18    5.19    0.40
   1   1 -18    4.24    0.30
   1   1 -18    4.42    0.30
   1   1 -18    4.56    0.30
   1   1 -18    4.16    0.34
  -1  -1  18    4.17    0.32
  -1  -1  18    4.55    0.29
  -1  -1  18    4.54    0.30
   0   1 -18    3.48    0.33
   0   1 -18    3.48    0.26
   0   1 -18    3.39    0.29
   0  -1  18    3.78    0.28
   0  -1  18    4.08    0.27
   0  -1  18    4.11    0.29
  -1   1 -18    2.75    0.21
  -1   1 -18    2.16    0.34
  -1   1 -18    2.88    0.23
   1  -1  18    2.85    0.24
   1  -1  18    2.87    0.22
   1  -1  18    2.41    0.21
  -2   1 -18    0.04    0.09
  -2   1 -18    0.06    0.11
  -3   1 -18    7.28    0.52
   3  -1  18    8.02    0.50
   3  -1  18    8.77    0.51
   3   0 -18    0.99    0.19
  -3   0  18    1.35    0.14
   2   0 -18    3.61    0.25
   2   0 -18    3.58    0.43
   2   0 -18    3.48    0.25
  -2   0  18    3.37    0.32
  -2   0  18    3.42    0.24
   1   0 -18    3.32    0.32
   1   0 -18    3.35    0.26
   1   0 -18    3.66    0.25
  -1   0  18    3.37    0.24
  -1   0  18    3.49    0.28
   0   0 -18    3.46    0.24
   0   0 -18    3.30    0.29
   0   0 -18    3.34    0.26
   0   0 -18    3.51    0.34
   0   0  18    3.42    0.28
   0   0  18    3.61    0.26
   0   0  18    3.56    0.26
   0   0  18    3.57    0.25
  -1   0 -18    0.12    0.15
  -1   0 -18    0.25    0.09
  -1   0 -18    0.44    0.18
  -1   0 -18    0.56    0.15
   1   0  18    0.15    0.09
   1   0  18    0.23    0.10
   1   0  18    0.45    0.11
  -2   0 -18    8.63    0.57
  -2   0 -18    8.40    0.71
  -2   0 -18    9.66    0.71
   2   0  18    9.66    0.57
   2   0  18    8.87    0.57
   2   0  18    9.40    0.58
  -3   0 -18   20.44    1.30
   3   0  18   20.94    1.29
   3   0  18   21.80    1.29
   3   0  18   22.41    1.29
   4   0  18    7.51    0.47
   3  -1 -18    0.07    0.10
  -3   1  18    0.12    0.12
  -3   1  18    0.13    0.10
   2  -1 -18   26.13    1.59
   2  -1 -18   27.29    1.59
  -2   1  18   26.01    1.59
   1  -1 -18    0.04    0.09
   1  -1 -18    0.09    0.11
   1  -1 -18    0.00    0.10
  -1   1  18    0.26    0.13
  -1   1  18    0.14    0.09
  -1   1  18    0.28    0.11
   0  -1 -18    0.73    0.13
   0  -1 -18    0.92    0.18
   0  -1 -18    0.65    0.12
   0  -1 -18    0.70    0.14
   0   1  18    0.75    0.12
   0   1  18    0.75    0.12
   0   1  18    1.02    0.14
  -1  -1 -18    7.26    0.47
  -1  -1 -18    6.92    0.55
  -1  -1 -18    8.50    0.53
  -1  -1 -18    8.25    0.52
   1   1  18    7.42    0.48
   1   1  18    7.32    0.48
   1   1  18    7.40    0.48
   1   1  18    7.17    0.49
  -2  -1 -18    0.51    0.22
   2   1  18    0.24    0.10
   2   1  18    0.26    0.12
   2   1  18    0.31    0.09
   3   1  18    3.15    0.26
   3   1  18    3.38    0.26
   3  -2 -18   16.95    1.04
  -3   2  18   17.24    1.04
   2  -2 -18    0.08    0.12
   2  -2 -18    0.07    0.08
  -2   2  18    0.02    0.11
  -2   2  18   -0.12    0.10
   1  -2 -18    3.73    0.28
   1  -2 -18    3.59    0.27
   1  -2 -18    3.52    0.28
  -1   2  18    3.87    0.30
  -1   2  18    3.82    0.27
  -1   2  18    3.82    0.29
  -1   2  18    3.51    0.31
   0  -2 -18    5.82    0.38
   0   2  18    5.76    0.40
   0   2  18    5.86    0.38
  -1  -2 -18    1.13    0.15
  -1  -2 -18    1.35    0.26
   1   2  18    1.19    0.19
   1   2  18    1.12    0.17
   1   2  18    0.99    0.17
   2   2  18    0.44    0.10
   2   2  18    0.31    0.12
   2   2  18    0.35    0.13
   2   2  18    0.69    0.14
   3   2  18   -0.06    0.10
   2  -3 -18    0.22    0.11
  -2   3  18    0.25    0.13
  -2   3  18    0.58    0.17
   1  -3 -18   21.22    1.26
   1  -3 -18   20.16    1.28
   1  -3 -18   21.75    1.27
   1  -3 -18   21.00    1.29
  -1   3  18   21.73    1.27
  -1   3  18   20.36    1.28
  -1   3  18   20.59    1.28
   0  -3 -18    0.22    0.10
   0  -3 -18    0.39    0.17
   0  -3 -18    0.24    0.11
   0   3  18    0.07    0.12
   0   3  18    0.20    0.10
   0   3  18    0.13    0.14
   0   3  18    0.25    0.11
  -1  -3 -18    0.29    0.16
  -1  -3 -18    0.29    0.10
  -1  -3 -18    0.36    0.19
   1   3  18    0.22    0.11
   1   3  18    0.27    0.11
   1   3  18    0.27    0.11
   2   3  18    0.78    0.13
   2   3  18    0.73    0.12
   2   3  18    0.77    0.14
   1  -4 -18    0.21    0.13
   1  -4 -18    0.00    0.06
  -1   4  18    0.13    0.12
  -1   4  18    0.10    0.12
   0  -4 -18   10.08    0.60
   0  -4 -18    9.89    0.60
   0   4  18    8.73    0.61
   0   4  18    9.40    0.61
   0   4  18    9.59    0.60
  -1  -4 -18    2.59    0.24
  -1  -4 -18    2.63    0.24
   1   4  18    2.32    0.26
   1   4  18    2.39    0.21
  -2  -4 -18    9.66    0.68
   2   4  18   10.43    0.65
   2   4  18    9.68    0.64
   2   4  18   10.78    0.64
   3   4  18    1.94    0.20
   0  -5 -18    0.13    0.07
   0  -5 -18    0.13    0.09
   0   5  18    0.17    0.11
   0   5  18    0.03    0.13
  -1  -5 -18    3.79    0.31
  -1  -5 -18    4.59    0.31
  -1  -5 -18    4.47    0.30
   1   5  18    4.02    0.28
   1   5  18    3.87    0.32
  -2  -5 -18   13.85    0.83
   2   5  18   12.58    0.80
   3   5  18   -0.12    0.08
   1   4 -19    0.18    0.10
  -1  -4  19    0.10    0.07
   3   3 -19    0.10    0.10
  -3  -3  19    0.04    0.05
   2   3 -19   11.35    0.71
  -2  -3  19   11.90    0.74
  -2  -3  19   11.21    0.69
   1   3 -19    2.06    0.19
   1   3 -19    1.94    0.15
  -1  -3  19    1.82    0.16
   0   3 -19    0.44    0.09
   0   3 -19    0.36    0.07
   0  -3  19    0.36    0.07
   0  -3  19    0.35    0.09
  -1   3 -19    4.85    0.28
   1  -3  19    4.08    0.30
   1  -3  19    4.37    0.29
   1  -3  19    4.26    0.31
   3   2 -19    0.03    0.10
  -3  -2  19    0.19    0.06
   2   2 -19    2.24    0.23
   2   2 -19    2.42    0.18
  -2  -2  19    2.56    0.22
  -2  -2  19    2.53    0.18
   1   2 -19    0.53    0.09
   1   2 -19    0.42    0.12
  -1  -2  19    0.33    0.15
  -1  -2  19    0.27    0.08
   0   2 -19    2.80    0.22
   0   2 -19    3.02    0.23
   0   2 -19    2.85    0.20
   0  -2  19    2.50    0.26
   0  -2  19    2.45    0.20
   0  -2  19    2.58    0.29
  -1   2 -19   26.85    1.54
  -1   2 -19   26.19    1.54
   1  -2  19   26.14    1.54
   1  -2  19   24.08    1.54
   1  -2  19   24.76    1.54
  -2   2 -19    3.73    0.29
  -2   2 -19    4.21    0.29
  -2   2 -19    4.02    0.33
   2  -2  19    4.11    0.27
   2  -2  19    4.00    0.27
   3   1 -19    0.29    0.13
   3   1 -19    0.12    0.13
  -3  -1  19    0.21    0.07
   2   1 -19    3.86    0.32
  -2  -1  19    4.25    0.31
   1   1 -19   20.15    1.28
   1   1 -19   21.48    1.28
   1   1 -19   19.70    1.31
   1   1 -19   22.04    1.28
  -1  -1  19   21.56    1.28
  -1  -1  19   21.45    1.29
  -1  -1  19   22.06    1.28
   0   1 -19   25.77    1.82
   0   1 -19   30.72    1.79
   0   1 -19   29.56    1.79
   0   1 -19   29.97    1.79
   0  -1  19   29.87    1.79
   0  -1  19   31.65    1.80
   0  -1  19   30.31    1.79
   0  -1  19   30.55    1.79
  -1   1 -19    6.53    0.53
  -1   1 -19    6.81    0.44
  -1   1 -19    6.97    0.44
   1  -1  19    6.71    0.44
   1  -1  19    6.42    0.43
   1  -1  19    7.20    0.45
  -2   1 -19    2.43    0.21
  -2   1 -19    1.76    0.21
   2  -1  19    2.42    0.19
   2  -1  19    2.42    0.19
  -3   1 -19    0.56    0.22
   3  -1  19    0.64    0.11
   3  -1  19    0.72    0.11
   3   0 -19    3.15    0.30
  -3   0  19    3.38    0.23
   2   0 -19   -0.08    0.09
   2   0 -19   -0.23    0.20
  -2   0  19   -0.31    0.18
  -2   0  19    0.12    0.13
   1   0 -19   14.05    0.81
   1   0 -19   12.91    0.81
   1   0 -19   13.47    0.81
   1   0 -19   12.64    0.85
  -1   0  19   12.79    0.81
  -1   0  19   13.08    0.82
  -1   0  19   13.56    0.81
   0   0 -19    3.21    0.29
   0   0 -19    3.76    0.27
   0   0 -19    3.48    0.25
   0   0  19    3.45    0.25
   0   0  19    3.39    0.26
   0   0  19    3.42    0.26
   0   0  19    3.27    0.28
  -1   0 -19    0.17    0.13
  -1   0 -19    0.00    0.09
   1   0  19   -0.04    0.09
   1   0  19   -0.08    0.09
  -2   0 -19    2.11    0.21
   2   0  19    2.71    0.20
   2   0  19    2.09    0.19
   2   0  19    2.04    0.22
  -3   0 -19    0.08    0.19
   3   0  19    0.43    0.09
   3   0  19    0.27    0.08
   3  -1 -19    1.75    0.16
  -3   1  19    1.33    0.18
   2  -1 -19   15.26    0.89
  -2   1  19   14.12    0.89
   1  -1 -19    5.14    0.35
   1  -1 -19    5.07    0.35
   1  -1 -19    5.27    0.34
  -1   1  19    4.82    0.36
  -1   1  19    5.17    0.37
  -1   1  19    5.37    0.34
   0  -1 -19    0.43    0.12
   0  -1 -19    0.13    0.16
   0  -1 -19    0.30    0.09
   0   1  19    0.48    0.11
   0   1  19    0.39    0.12
   0   1  19    0.49    0.09
  -1  -1 -19    1.47    0.33
  -1  -1 -19    0.68    0.18
  -1  -1 -19    1.12    0.14
  -1  -1 -19    1.24    0.19
   1   1  19    0.98    0.16
   1   1  19    1.05    0.16
   1   1  19    0.99    0.18
   1   1  19    1.04    0.15
  -2  -1 -19   16.45    1.01
   2   1  19   17.03    1.02
   2   1  19   15.88    1.01
   2   1  19   17.02    1.01
   3   1  19    4.06    0.28
   3   1  19    3.91    0.28
   2  -2 -19    7.42    0.47
   2  -2 -19    7.07    0.45
  -2   2  19    7.22    0.50
  -2   2  19    7.35    0.46
   1  -2 -19   14.67    0.87
   1  -2 -19   14.10    0.87
  -1   2  19   14.00    0.88
  -1   2  19   14.02    0.87
   0  -2 -19   14.19    0.91
   0  -2 -19   14.93    0.89
   0  -2 -19   14.52    0.89
   0   2  19   14.71    0.90
   0   2  19   14.23    0.89
   0   2  19   14.73    0.89
  -1  -2 -19    5.54    0.47
  -1  -2 -19    4.83    0.33
  -1  -2 -19    4.76    0.38
   1   2  19    4.75    0.34
   1   2  19    5.05    0.33
   1   2  19    4.37    0.33
   2   2  19    4.42    0.33
   2   2  19    5.00    0.36
   2   2  19    4.85    0.35
   2   2  19    4.67    0.33
   2  -3 -19    5.08    0.36
  -2   3  19    5.22    0.37
   1  -3 -19    2.53    0.25
   1  -3 -19    2.39    0.19
   1  -3 -19    2.53    0.19
  -1   3  19    2.42    0.24
  -1   3  19    2.20    0.21
  -1   3  19    2.02    0.29
   0  -3 -19   84.28    4.89
   0  -3 -19   81.64    4.89
   0  -3 -19   83.66    4.90
   0   3  19   79.61    4.89
   0   3  19   81.06    4.90
  -1  -3 -19    1.46    0.21
  -1  -3 -19    1.58    0.18
   1   3  19    1.11    0.18
   1   3  19    1.33    0.20
   1   3  19    1.44    0.16
  -2  -3 -19    2.97    0.28
   2   3  19    2.66    0.23
   2   3  19    2.91    0.28
   1  -4 -19    8.52    0.51
  -1   4  19    7.98    0.54
  -1   4  19    8.43    0.53
   0  -4 -19    2.54    0.20
   0  -4 -19    2.54    0.21
   0  -4 -19    2.33    0.23
   0   4  19    2.07    0.24
   0   4  19    2.49    0.20
   0   4  19    2.12    0.23
  -1  -4 -19   10.51    0.61
  -1  -4 -19    8.78    0.58
  -1  -4 -19    9.39    0.65
   1   4  19    8.35    0.57
   1   4  19    8.30    0.57
  -2  -4 -19   13.03    0.82
   2   4  19   12.63    0.80
   2   4  19   13.55    0.80
   3   4  19   13.28    0.81
  -1  -5 -19    2.33    0.27
  -1  -5 -19    2.92    0.25
  -1  -5 -19    2.70    0.21
   1   5  19    2.58    0.20
   1   5  19    2.47    0.26
  -2  -5 -19   13.94    0.88
   2   5  19   14.70    0.87
   2   3 -20    0.18    0.10
  -2  -3  20    0.13    0.06
  -2  -3  20    0.16    0.15
   1   3 -20   17.37    1.04
   1   3 -20   17.57    1.02
  -1  -3  20   16.20    1.03
   0   3 -20   13.95    0.82
   0   3 -20   13.78    0.82
   0  -3  20   13.61    0.83
   0  -3  20   13.02    0.83
  -1   3 -20    1.02    0.11
  -1   3 -20    0.90    0.14
   1  -3  20    0.64    0.18
   1  -3  20    1.06    0.12
  -3  -2  20   14.15    0.85
   2   2 -20   12.52    0.76
  -2  -2  20   12.03    0.74
   1   2 -20    9.16    0.55
   1   2 -20    8.53    0.57
   1   2 -20    8.95    0.55
  -1  -2  20    8.69    0.59
  -1  -2  20    8.77    0.55
  -1  -2  20    9.25    0.55
   0   2 -20    4.07    0.26
   0   2 -20    3.73    0.26
   0   2 -20    3.49    0.28
   0  -2  20    3.49    0.26
   0  -2  20    3.73    0.27
   0  -2  20    3.84    0.28
  -1   2 -20    9.18    0.53
  -1   2 -20    7.81    0.54
  -1   2 -20    8.82    0.53
   1  -2  20    8.26    0.53
   1  -2  20    8.41    0.54
   1  -2  20    8.91    0.54
  -2   2 -20   11.54    0.70
   2  -2  20   11.14    0.69
   2  -2  20   11.47    0.69
   3   1 -20   29.87    1.90
  -3  -1  20   33.28    1.89
   2   1 -20   27.96    1.68
   2   1 -20   26.98    1.70
  -2  -1  20   28.14    1.69
  -2  -1  20   29.71    1.72
   1   1 -20   11.37    0.72
   1   1 -20   12.28    0.70
   1   1 -20    9.82    0.74
  -1  -1  20   11.32    0.70
  -1  -1  20   12.04    0.72
   0   1 -20    2.03    0.18
   0   1 -20    2.03    0.23
   0   1 -20    1.83    0.18
   0  -1  20    1.80    0.23
   0  -1  20    1.85    0.17
  -1   1 -20    4.30    0.36
  -1   1 -20    4.67    0.31
  -1   1 -20    4.81    0.32
   1  -1  20    4.09    0.30
   1  -1  20    4.39    0.31
   1  -1  20    4.73    0.33
  -2   1 -20    6.54    0.53
  -2   1 -20    6.68    0.49
   2  -1  20    8.20    0.46
   2  -1  20    7.79    0.46
   3   0 -20    4.55    0.32
  -3   0  20    4.98    0.31
   2   0 -20   13.76    0.85
  -2   0  20   14.35    0.85
   1   0 -20   32.81    1.92
   1   0 -20   31.33    1.95
   1   0 -20   30.37    1.93
   1   0 -20   32.37    1.92
  -1   0  20   32.44    1.93
  -1   0  20   33.20    1.92
   0   0 -20    8.19    0.55
   0   0 -20    8.71    0.53
   0   0 -20    8.23    0.53
   0   0  20    8.46    0.54
   0   0  20    8.87    0.53
   0   0  20    8.55    0.54
   0   0  20    8.31    0.55
  -1   0 -20    3.81    0.26
  -1   0 -20    3.35    0.27
   1   0  20    3.30    0.28
   1   0  20    3.54    0.26
   1   0  20    3.31    0.25
  -2   0 -20   -0.14    0.12
  -2   0 -20   -0.08    0.20
   2   0  20    0.00    0.10
   2   0  20    0.07    0.08
   2   0  20    0.25    0.11
   3   0  20    5.58    0.36
   3   0  20    5.79    0.37
   3  -1 -20    0.96    0.14
  -3   1  20    1.39    0.20
   2  -1 -20    3.23    0.22
  -2   1  20    3.44    0.24
   1  -1 -20   13.48    0.85
   1  -1 -20   14.14    0.84
  -1   1  20   13.44    0.85
  -1   1  20   14.35    0.85
   0  -1 -20   -0.06    0.17
   0  -1 -20    0.18    0.09
   0  -1 -20    0.09    0.11
   0   1  20    0.13    0.09
   0   1  20    0.11    0.10
   0   1  20    0.09    0.09
  -1  -1 -20    4.32    0.32
  -1  -1 -20    4.08    0.29
   1   1  20    4.14    0.31
   1   1  20    4.36    0.30
   1   1  20    4.00    0.29
   1   1  20    4.17    0.30
  -2  -1 -20    9.88    0.68
   2   1  20   10.96    0.66
   2   1  20   10.16    0.65
   2   1  20   10.54    0.66
   3   1  20    4.51    0.31
   3   1  20    5.03    0.32
   2  -2 -20    4.89    0.33
  -2   2  20    4.96    0.33
   1  -2 -20    0.50    0.09
   1  -2 -20    0.43    0.09
  -1   2  20    0.51    0.10
  -1   2  20    0.62    0.14
   0  -2 -20    9.09    0.57
   0  -2 -20    9.13    0.60
   0  -2 -20    9.02    0.57
   0   2  20    9.02    0.57
   0   2  20    8.74    0.57
   0   2  20    9.25    0.58
  -1  -2 -20   11.13    0.69
  -1  -2 -20   11.45    0.71
   1   2  20   11.21    0.70
   1   2  20   11.24    0.69
   1   2  20   10.82    0.70
  -2  -2 -20    1.36    0.26
   2   2  20    1.74    0.19
   2   2  20    2.04    0.21
   2   2  20    1.76    0.22
   2   2  20    1.57    0.17
   1  -3 -20    0.50    0.08
   1  -3 -20    0.47    0.12
   1  -3 -20    0.45    0.09
  -1   3  20    0.51    0.18
  -1   3  20    0.28    0.09
   0  -3 -20    1.74    0.21
   0  -3 -20    1.92    0.18
   0   3  20    1.54    0.21
   0   3  20    1.95    0.19
  -1  -3 -20    7.95    0.52
  -1  -3 -20    8.42    0.52
   1   3  20    7.76    0.52
   1   3  20    7.94    0.51
   1   3  20    8.22    0.52
  -2  -3 -20   29.27    1.67
   2   3  20   25.24    1.67
   2   3  20   27.82    1.66
   2   3  20   28.17    1.66
   0  -4 -20    0.43    0.11
   0  -4 -20    0.50    0.09
   0   4  20    0.59    0.09
   0   4  20    0.52    0.15
  -1  -4 -20    5.06    0.32
  -1  -4 -20    4.80    0.37
  -1  -4 -20    4.38    0.32
   1   4  20    4.21    0.30
   1   4  20    3.89    0.31
  -2  -4 -20    6.22    0.44
   2   4  20    6.67    0.41
   2   4  20    6.39    0.42
   1   3 -21    0.04    0.10
  -1  -3  21    0.20    0.09
   0   3 -21    3.21    0.24
   0   3 -21    3.33    0.21
   0  -3  21    3.03    0.22
   0  -3  21    2.69    0.39
   2   2 -21    2.68    0.24
  -2  -2  21    2.34    0.30
  -2  -2  21    2.49    0.18
   1   2 -21    0.37    0.09
   1   2 -21    0.27    0.07
   1   2 -21    0.15    0.12
  -1  -2  21    0.26    0.08
  -1  -2  21    0.13    0.10
   0   2 -21    9.52    0.56
   0   2 -21    9.76    0.57
   0  -2  21    8.32    0.57
   0  -2  21    9.19    0.57
  -1   2 -21   10.07    0.61
   1  -2  21    9.44    0.62
   1  -2  21   10.39    0.62
   1  -2  21    9.83    0.61
   2   1 -21    1.22    0.21
  -2  -1  21    1.09    0.12
   1   1 -21   19.89    1.23
   1   1 -21   19.61    1.21
   1   1 -21   20.51    1.21
  -1  -1  21   19.32    1.22
  -1  -1  21   20.48    1.21
  -1  -1  21   20.61    1.22
   0   1 -21    0.28    0.10
   0   1 -21    0.36    0.10
   0  -1  21    0.26    0.09
   0  -1  21    0.41    0.10
  -1   1 -21    6.52    0.45
  -1   1 -21    6.97    0.44
  -1   1 -21    7.00    0.46
   1  -1  21    7.05    0.45
   1  -1  21    6.82    0.44
   1  -1  21    7.12    0.44
  -2   1 -21    4.21    0.33
   2  -1  21    4.76    0.31
   2  -1  21    5.06    0.31
   2   0 -21    2.76    0.20
  -2   0  21    3.02    0.21
   1   0 -21    0.92    0.13
   1   0 -21    0.80    0.13
  -1   0  21    0.70    0.13
  -1   0  21    0.82    0.13
  -1   0  21    1.00    0.14
   0   0 -21   17.24    1.02
   0   0 -21   16.48    1.05
   0   0 -21   17.11    1.01
   0   0 -21   16.66    1.02
   0   0  21   16.42    1.02
   0   0  21   15.94    1.04
   0   0  21   17.16    1.02
  -1   0 -21    1.97    0.20
  -1   0 -21    2.54    0.21
   1   0  21    2.12    0.18
   1   0  21    2.17    0.20
   1   0  21    1.96    0.22
  -2   0 -21    3.97    0.30
  -2   0 -21    3.95    0.42
   2   0  21    4.09    0.29
   2   0  21    4.24    0.29
   2   0  21    4.26    0.28
   3   0  21    0.15    0.07
   3   0  21    0.28    0.08
   2  -1 -21    1.10    0.14
   2  -1 -21    0.86    0.10
  -2   1  21    0.74    0.12
   1  -1 -21    8.19    0.60
   1  -1 -21    9.31    0.57
   1  -1 -21    9.67    0.57
  -1   1  21    9.19    0.59
  -1   1  21    9.55    0.58
  -1   1  21    9.76    0.59
   0  -1 -21   10.53    0.71
   0  -1 -21   11.31    0.70
   0  -1 -21   11.78    0.69
   0   1  21   11.27    0.70
  -1  -1 -21    6.37    0.41
  -1  -1 -21    6.38    0.42
   1   1  21    6.52    0.43
   1   1  21    6.16    0.43
   1   1  21    6.17    0.43
   1   1  21    5.90    0.40
  -2  -1 -21    2.52    0.27
   2   1  21    2.68    0.23
   2   1  21    2.60    0.21
   2   1  21    2.99    0.21
   3   1  21    4.37    0.29
   3   1  21    4.10    0.28
   2  -2 -21    2.08    0.18
  -2   2  21    2.17    0.19
   1  -2 -21   12.03    0.72
   1  -2 -21   11.96    0.72
  -1   2  21   11.09    0.74
  -1   2  21   12.15    0.72
   0  -2 -21    0.08    0.14
   0  -2 -21    0.16    0.10
   0  -2 -21    0.12    0.10
   0   2  21    0.15    0.10
   0   2  21    0.23    0.10
   0   2  21    0.18    0.09
  -1  -2 -21    6.82    0.44
  -1  -2 -21    6.49    0.44
   1   2  21    6.93    0.43
   1   2  21    6.06    0.43
   1   2  21    6.73    0.45
  -2  -2 -21    5.28    0.40
   2   2  21    6.15    0.37
   2   2  21    5.23    0.37
   1  -3 -21    1.10    0.14
   1  -3 -21    1.13    0.11
   1  -3 -21    0.98    0.18
  -1   3  21    1.13    0.14
   0  -3 -21    0.06    0.09
   0  -3 -21    0.16    0.11
   0  -3 -21    0.04    0.10
   0   3  21    0.07    0.11
   0   3  21   -0.11    0.08
  -1  -3 -21   14.59    0.90
  -1  -3 -21   14.96    0.90
   1   3  21   14.71    0.89
   1   3  21   15.19    0.89
   1   3  21   13.73    0.90
  -2  -3 -21    0.25    0.18
   2   3  21    0.35    0.09
   2   3  21    0.36    0.10
   2   3  21    0.39    0.09
   0  -4 -21    4.37    0.28
   0  -4 -21    4.21    0.29
   0   4  21    4.16    0.28
  -1  -4 -21    1.18    0.18
  -1  -4 -21    0.72    0.12
   1   4  21    0.75    0.12
   1   4  21    1.06    0.16
  -2  -4 -21    0.78    0.24
   2   4  21    0.75    0.11
   2   4  21    0.44    0.11
   1   2 -22    8.49    0.54
   1   2 -22    8.72    0.50
  -1  -2  22    7.59    0.52
   0   2 -22    0.06    0.11
   0   2 -22    0.15    0.07
   0   2 -22    0.12    0.09
   0  -2  22    0.02    0.10
   0  -2  22    0.19    0.09
  -2  -1  22    4.17    0.27
   1   1 -22    4.07    0.26
   1   1 -22    3.95    0.32
   1   1 -22    3.95    0.27
  -1  -1  22    3.49    0.33
  -1  -1  22    3.83    0.26
  -1  -1  22    3.87    0.28
   0   1 -22    0.39    0.14
   0   1 -22    0.41    0.09
   0   1 -22    0.14    0.15
   0   1 -22    0.32    0.10
   0  -1  22    0.21    0.09
   0  -1  22    0.38    0.10
  -1   1 -22    0.68    0.11
  -1   1 -22    0.59    0.12
  -1   1 -22    0.51    0.12
   1  -1  22    0.42    0.08
   1  -1  22    0.63    0.09
   1  -1  22    0.54    0.11
  -2   1 -22    2.73    0.22
   2  -1  22    2.77    0.20
   2  -1  22    2.74    0.20
  -2   0  22    3.70    0.25
   1   0 -22    5.03    0.32
   1   0 -22    4.84    0.32
  -1   0  22    5.02    0.34
  -1   0  22    4.44    0.35
  -1   0  22    4.97    0.32
   0   0 -22    1.43    0.18
   0   0 -22    1.10    0.16
   0   0 -22    1.34    0.18
   0   0  22    1.46    0.17
   0   0  22    1.24    0.15
   0   0  22    1.14    0.15
  -1   0 -22    6.40    0.43
  -1   0 -22    6.71    0.48
  -1   0 -22    6.76    0.43
   1   0  22    5.97    0.42
   1   0  22    6.64    0.43
   1   0  22    6.72    0.42
  -2   0 -22    0.32    0.13
  -2   0 -22    0.43    0.15
   2   0  22    0.40    0.08
   2   0  22    0.39    0.08
   2  -1 -22    4.62    0.32
  -2   1  22    4.81    0.31
   1  -1 -22   -0.02    0.08
   1  -1 -22    0.04    0.08
  -1   1  22    0.21    0.16
  -1   1  22    0.26    0.10
  -1   1  22    0.07    0.07
   0  -1 -22   14.16    0.84
   0  -1 -22   13.57    0.84
   0  -1 -22   13.54    0.84
   0   1  22   13.10    0.84
   0   1  22   13.87    0.84
   0   1  22   14.18    0.84
  -1  -1 -22    0.39    0.13
  -1  -1 -22    0.49    0.12
   1   1  22    0.49    0.10
   1   1  22    0.35    0.09
   1   1  22    0.52    0.10
  -2  -1 -22    0.27    0.14
   2   1  22    0.47    0.08
   2   1  22    0.55    0.11
   2   1  22    0.64    0.10
   1  -2 -22    0.21    0.11
   1  -2 -22    0.14    0.07
  -1   2  22    0.12    0.08
  -1   2  22    0.14    0.18
   0  -2 -22    2.85    0.22
   0  -2 -22    2.36    0.20
   0  -2 -22    2.28    0.22
   0   2  22    2.47    0.19
   0   2  22    2.43    0.21
   0   2  22    2.27    0.21
  -1  -2 -22   12.79    0.81
  -1  -2 -22   13.11    0.80
   1   2  22   13.34    0.80
   1   2  22   12.09    0.80
   1   2  22   13.76    0.80
  -2  -2 -22    3.36    0.32
   2   2  22    3.88    0.27
   2   2  22    3.85    0.26
   0  -3 -22    0.01    0.09
   0   3  22   -0.14    0.12
   0   3  22   -0.08    0.07
  -1  -3 -22    3.40    0.28
   1   3  22    3.59    0.26
   1   3  22    3.64    0.25
   1   3  22    3.72    0.25
   2   3  22    4.97    0.32
   2   3  22    4.45    0.33
   2   3  22    5.01    0.32
  -1  -4 -22    0.06    0.13
  -1  -4 -22    0.07    0.10
   1   4  22    0.11    0.11
   1   4  22    0.10    0.07
   1   1 -23    1.12    0.12
   1   1 -23    1.26    0.20
  -1  -1  23    1.17    0.15
  -1  -1  23    1.05    0.12
   0   1 -23    2.85    0.21
   0  -1  23    2.75    0.23
   0  -1  23    2.86    0.23
  -1   1 -23    3.97    0.27
  -1   1 -23    3.81    0.32
   1  -1  23    3.85    0.28
   1  -1  23    3.95    0.26
   1   0 -23    2.87    0.22
   1   0 -23    2.82    0.20
  -1   0  23    2.82    0.28
  -1   0  23    2.66    0.20
  -1   0  23    2.76    0.25
   0   0 -23   15.30    1.04
   0   0 -23   17.16    1.03
   0   0 -23   17.67    1.03
   0   0  23   17.77    1.03
   0   0  23   17.64    1.03
   0   0  23   16.18    1.03
  -1   0 -23    1.35    0.18
  -1   0 -23    1.44    0.18
  -1   0 -23    1.47    0.19
   1   0  23    1.31    0.16
   1   0  23    1.51    0.15
  -2   0 -23    2.63    0.29
   2   0  23    3.00    0.22
   2   0  23    3.17    0.21
   1  -1 -23   11.64    0.71
   1  -1 -23   12.00    0.71
  -1   1  23   10.62    0.73
  -1   1  23   12.26    0.71
   0  -1 -23    6.60    0.45
   0  -1 -23    6.88    0.45
   0  -1 -23    7.26    0.44
   0   1  23    7.17    0.44
   0   1  23    6.52    0.45
   0   1  23    7.10    0.44
   1   1  23   40.62    2.30
   1   1  23   36.07    2.30
  -2  -1 -23    1.86    0.28
   2   1  23    2.01    0.17
   1  -2 -23    0.19    0.09
   1  -2 -23    0.14    0.06
  -1   2  23    0.13    0.07
   0  -2 -23   -0.01    0.14
   0  -2 -23    0.02    0.16
   0  -2 -23   -0.10    0.17
   0   2  23   -0.15    0.12
   0   2  23    0.16    0.07
   0   2  23   -0.04    0.08
  -1  -2 -23   30.48    1.78
   1   2  23   27.42    1.78
   1   2  23   30.67    1.78
   1   2  23   29.82    1.77
   2   2  23    5.10    0.32
   2   2  23    4.38    0.35
   0  -3 -23   15.37    0.89
   0  -3 -23   15.31    0.89
   0   3  23   13.03    0.90
   0   3  23   14.89    0.89
  -1  -3 -23    0.93    0.13
  -1  -3 -23    1.05    0.18
   1   3  23    0.94    0.12
   1   3  23    0.95    0.14
   0   0 -24    2.97    0.22
   0   0 -24    2.93    0.22
   0   0  24    2.89    0.24
   0   0  24    2.60    0.22
   0   0  24    2.77    0.23
  -1   0 -24    2.80    0.24
  -1   0 -24    3.02    0.33
   1   0  24    3.35    0.22
   1   0  24    2.87    0.23
   0  -1 -24    0.18    0.10
   0  -1 -24    0.24    0.10
   0   1  24    0.35    0.11
   0   1  24    0.35    0.09
   0   1  24    0.35    0.08
  -1  -1 -24    2.93    0.25
  -1  -1 -24    2.90    0.30
   1   1  24    3.71    0.23
   1   1  24    2.88    0.24
   0  -2 -24   10.45    0.63
   0  -2 -24   10.61    0.64
   0   2  24    9.24    0.64
   0   2  24   10.62    0.63
  -1  -2 -24    2.81    0.34
  -1  -2 -24    3.11    0.25
   1   2  24    3.22    0.23
   1   2  24    2.97    0.23
   1   2  24    3.28    0.23
   0   0   0    0.00    0.00
;
_shelx_hkl_checksum              35934
loop_
_space_group_symop_operation_xyz
'x, y, z'
'-x, -y, -z'
loop_
_atom_site_label
_atom_site_type_symbol
_atom_site_fract_x
_atom_site_fract_y
_atom_site_fract_z
_atom_site_U_iso_or_equiv
_atom_site_adp_type
_atom_site_occupancy
_atom_site_site_symmetry_order
_atom_site_calc_flag
_atom_site_refinement_flags_posn
_atom_site_refinement_flags_adp
Cl1 Cl 0.13190(14) -0.36851(10) 0.39875(3) 0.0156(2) Uani 1 1 d . .
F1 F 0.3004(4) 0.4699(3) 0.26555(8) 0.0269(4) Uani 1 1 d . .
N1 N 0.6170(5) 0.0996(4) 0.33032(11) 0.0152(5) Uani 1 1 d . .
O1 O 0.3575(5) -0.1065(4) 0.30813(10) 0.0238(5) Uani 1 1 d . .
C1 C 0.4813(6) -0.0188(4) 0.53412(14) 0.0135(6) Uani 1 1 d . .
F2 F 0.2758(4) 0.2365(3) 0.19782(9) 0.0264(4) Uani 1 1 d . .
O2 O 0.8507(4) 0.3288(4) 0.35206(10) 0.0209(5) Uani 1 1 d . .
C2 C 0.3349(6) -0.1656(4) 0.55707(14) 0.0144(6) Uani 1 1 d . .
C3 C 0.2360(6) -0.2675(4) 0.51384(14) 0.0146(6) Uani 1 1 d . .
H3 H 0.1404 -0.3670 0.5299 0.017 Uiso 1 1 calc R U
F3 F 0.7080(4) 0.5559(3) 0.19591(9) 0.0261(4) Uani 1 1 d . .
C4 C 0.2728(6) -0.2281(4) 0.44618(14) 0.0146(6) Uani 1 1 d . .
F4 F 0.7297(4) 0.2977(3) 0.13125(8) 0.0255(4) Uani 1 1 d . .
C5 C 0.4146(6) -0.0854(4) 0.42098(14) 0.0145(6) Uani 1 1 d . .
F5 F 0.1616(4) 0.7754(3) 0.16205(10) 0.0346(5) Uani 1 1 d . .
C6 C 0.4546(6) -0.0364(5) 0.34935(14) 0.0160(6) Uani 1 1 d . .
F6 F 0.2135(4) 0.5278(4) 0.09169(9) 0.0348(5) Uani 1 1 d . .
C7 C 0.7194(6) 0.2081(5) 0.37217(14) 0.0156(6) Uani 1 1 d . .
F7 F 0.5707(5) 0.9002(3) 0.10166(10) 0.0405(6) Uani 1 1 d . .
C8 C 0.6795(6) 0.1299(5) 0.26061(14) 0.0180(6) Uani 1 1 d . .
H8A H 0.7096 -0.0139 0.2412 0.022 Uiso 1 1 calc R U
H8B H 0.8507 0.1656 0.2550 0.022 Uiso 1 1 calc R U
F8 F 0.6440(5) 0.6467(4) 0.03527(10) 0.0395(5) Uani 1 1 d . .
C9 C 0.4489(6) 0.3209(5) 0.22416(14) 0.0174(6) Uani 1 1 d . .
F9 F 0.2559(5) 0.9136(5) 0.03691(12) 0.0570(8) Uani 1 1 d . .
C10 C 0.5608(6) 0.4506(5) 0.16869(14) 0.0175(6) Uani 1 1 d . .
C11 C 0.3448(6) 0.6311(5) 0.12436(15) 0.0234(7) Uani 1 1 d . .
C12 C 0.4584(7) 0.7764(6) 0.07345(16) 0.0285(8) Uani 1 1 d . .
loop_
_atom_site_aniso_label
_atom_site_aniso_U_11
_atom_site_aniso_U_22
_atom_site_aniso_U_33
_atom_site_aniso_U_23
_atom_site_aniso_U_13
_atom_site_aniso_U_12
Cl1 0.0184(4) 0.0141(3) 0.0168(3) -0.0014(2) -0.0011(3) -0.0085(3)
F1 0.0303(10) 0.0231(9) 0.0172(9) -0.0008(7) 0.0058(8) 0.0028(8)
N1 0.0159(12) 0.0150(12) 0.0152(12) -0.0005(9) 0.0003(10) -0.0063(10)
O1 0.0354(13) 0.0262(12) 0.0171(10) -0.0016(9) -0.0006(10) -0.0198(10)
C1 0.0099(13) 0.0103(13) 0.0179(14) -0.0003(10) -0.0012(11) -0.0006(11)
F2 0.0273(10) 0.0285(10) 0.0286(10) 0.0075(8) -0.0089(8) -0.0182(8)
O2 0.0238(11) 0.0254(11) 0.0193(10) -0.0001(8) -0.0002(9) -0.0165(9)
C2 0.0129(14) 0.0111(13) 0.0177(14) 0.0003(10) -0.0021(11) -0.0025(11)
C3 0.0130(14) 0.0103(13) 0.0196(14) 0.0003(11) -0.0011(11) -0.0033(11)
F3 0.0280(10) 0.0231(9) 0.0323(10) 0.0024(7) -0.0067(8) -0.0158(8)
C4 0.0145(14) 0.0103(13) 0.0177(14) -0.0014(10) -0.0021(11) -0.0024(11)
F4 0.0280(10) 0.0276(10) 0.0192(9) -0.0027(7) 0.0066(8) -0.0082(8)
C5 0.0151(14) 0.0101(13) 0.0173(14) -0.0011(10) -0.0011(11) -0.0031(11)
F5 0.0287(11) 0.0296(10) 0.0340(11) 0.0091(8) 0.0047(9) 0.0003(9)
C6 0.0178(15) 0.0127(13) 0.0180(14) -0.0009(11) -0.0016(12) -0.0057(12)
F6 0.0360(11) 0.0484(12) 0.0273(10) 0.0117(9) -0.0139(9) -0.0265(10)
C7 0.0140(14) 0.0131(13) 0.0195(14) 0.0005(11) -0.0021(12) -0.0049(11)
F7 0.0634(15) 0.0299(11) 0.0360(11) 0.0038(9) 0.0022(11) -0.0285(11)
C8 0.0224(16) 0.0179(14) 0.0146(14) -0.0009(11) 0.0014(12) -0.0087(12)
F8 0.0556(14) 0.0415(12) 0.0242(10) 0.0011(9) 0.0121(10) -0.0232(11)
C9 0.0190(15) 0.0191(14) 0.0161(14) -0.0025(11) 0.0004(12) -0.0090(12)
F9 0.0419(14) 0.0649(16) 0.0544(15) 0.0418(13) -0.0144(11) -0.0179(12)
C10 0.0171(15) 0.0185(14) 0.0182(14) -0.0015(11) -0.0003(12) -0.0076(12)
C11 0.0196(16) 0.0283(17) 0.0226(16) 0.0033(13) -0.0031(13) -0.0098(14)
C12 0.0314(19) 0.0289(17) 0.0246(17) 0.0084(14) -0.0037(15) -0.0123(15)
loop_
_atom_type_symbol
_atom_type_description
_atom_type_scat_dispersion_real
_atom_type_scat_dispersion_imag
_atom_type_scat_source
C C 0.0181 0.0091 'International Tables Vol C Tables 4.2.6.8 and 6.1.1.4'
H H 0.0000 0.0000 'International Tables Vol C Tables 4.2.6.8 and 6.1.1.4'
N N 0.0311 0.0180 'International Tables Vol C Tables 4.2.6.8 and 6.1.1.4'
O O 0.0492 0.0322 'International Tables Vol C Tables 4.2.6.8 and 6.1.1.4'
F F 0.0727 0.0534 'International Tables Vol C Tables 4.2.6.8 and 6.1.1.4'
Cl Cl 0.3639 0.7018 'International Tables Vol C Tables 4.2.6.8 and 6.1.1.4'
loop_
_geom_angle_atom_site_label_1
_geom_angle_atom_site_label_2
_geom_angle_atom_site_label_3
_geom_angle
_geom_angle_site_symmetry_1
_geom_angle_site_symmetry_3
C7 N1 C6 125.3(2) . .
C7 N1 C8 117.6(2) . .
C6 N1 C8 117.1(2) . .
C1 C1 C2 118.0(3) 2_656 .
C1 C1 C5 121.9(3) 2_656 2_656
C2 C1 C5 120.1(3) . 2_656
C3 C2 C1 120.2(3) . .
C3 C2 C7 118.7(3) . 2_656
C1 C2 C7 121.1(3) . 2_656
C2 C3 C4 121.4(3) . .
C2 C3 H3 119.3 . .
C4 C3 H3 119.3 . .
C5 C4 C3 120.8(3) . .
C5 C4 Cl1 123.9(2) . .
C3 C4 Cl1 115.3(2) . .
C4 C5 C1 117.7(3) . 2_656
C4 C5 C6 122.5(3) . .
C1 C5 C6 119.8(2) 2_656 .
O1 C6 N1 119.5(3) . .
O1 C6 C5 123.8(3) . .
N1 C6 C5 116.8(2) . .
O2 C7 N1 121.7(3) . .
O2 C7 C2 121.7(3) . 2_656
N1 C7 C2 116.6(2) . 2_656
N1 C8 C9 112.2(2) . .
N1 C8 H8A 109.2 . .
C9 C8 H8A 109.2 . .
N1 C8 H8B 109.2 . .
C9 C8 H8B 109.2 . .
H8A C8 H8B 107.9 . .
F1 C9 F2 107.2(2) . .
F1 C9 C8 110.4(2) . .
F2 C9 C8 110.8(2) . .
F1 C9 C10 108.5(2) . .
F2 C9 C10 107.9(2) . .
C8 C9 C10 111.8(2) . .
F4 C10 F3 108.3(2) . .
F4 C10 C9 108.0(2) . .
F3 C10 C9 107.8(2) . .
F4 C10 C11 108.5(2) . .
F3 C10 C11 108.0(2) . .
C9 C10 C11 116.1(3) . .
F6 C11 F5 108.7(3) . .
F6 C11 C12 107.3(3) . .
F5 C11 C12 107.1(3) . .
F6 C11 C10 109.2(3) . .
F5 C11 C10 109.0(2) . .
C12 C11 C10 115.4(3) . .
F7 C12 F8 108.4(3) . .
F7 C12 F9 108.6(3) . .
F8 C12 F9 108.5(3) . .
F7 C12 C11 111.5(3) . .
F8 C12 C11 110.8(3) . .
F9 C12 C11 109.0(3) . .
loop_
_geom_bond_atom_site_label_1
_geom_bond_atom_site_label_2
_geom_bond_distance
_geom_bond_site_symmetry_2
Cl1 C4 1.728(3) .
F1 C9 1.347(3) .
N1 C7 1.387(4) .
N1 C6 1.412(4) .
N1 C8 1.464(4) .
O1 C6 1.205(4) .
C1 C1 1.416(6) 2_656
C1 C2 1.418(4) .
C1 C5 1.418(4) 2_656
F2 C9 1.355(4) .
O2 C7 1.215(3) .
C2 C3 1.368(4) .
C2 C7 1.485(4) 2_656
C3 C4 1.405(4) .
C3 H3 0.9500 .
F3 C10 1.349(4) .
C4 C5 1.392(4) .
F4 C10 1.344(3) .
C5 C1 1.418(4) 2_656
C5 C6 1.494(4) .
F5 C11 1.349(4) .
F6 C11 1.339(4) .
C7 C2 1.485(4) 2_656
F7 C12 1.317(4) .
C8 C9 1.537(4) .
C8 H8A 0.9900 .
C8 H8B 0.9900 .
F8 C12 1.319(4) .
C9 C10 1.539(4) .
F9 C12 1.321(4) .
C10 C11 1.549(4) .
C11 C12 1.546(4) .
