#------------------------------------------------------------------------------
#$Date: 2019-11-26 06:44:14 +0200 (Tue, 26 Nov 2019) $
#$Revision: 242850 $
#$URL: file:///home/coder/svn-repositories/cod/cif/4/13/29/4132998.cif $
#------------------------------------------------------------------------------
#
# This file is available in the Crystallography Open Database (COD),
# http://www.crystallography.net/
#
# All data on this site have been placed in the public domain by the
# contributors.
#
data_4132998
loop_
_publ_author_name
'Liu, Siyuan'
'L\'egar\'e, Marc-Andr\'e'
'Hofmann, Alexander'
'Braunschweig, Holger'
_publ_section_title
;
 A Boradiselenirane and a Boraditellurirane: Isolable Heavy Analogs of
 Dioxiranes and Dithiiranes.
;
_journal_issue                   36
_journal_name_full               'Journal of the American Chemical Society'
_journal_page_first              11223
_journal_page_last               11226
_journal_paper_doi               10.1021/jacs.8b07829
_journal_volume                  140
_journal_year                    2018
_chemical_formula_moiety         'C9 H17 B N2 Se2'
_chemical_formula_sum            'C9 H17 B N2 Se2'
_chemical_formula_weight         321.97
_space_group_crystal_system      triclinic
_space_group_IT_number           2
_space_group_name_Hall           '-P 1'
_space_group_name_H-M_alt        'P -1'
_atom_sites_solution_hydrogens   geom
_atom_sites_solution_primary     iterative
_atom_sites_solution_secondary   difmap
_audit_creation_method           SHELXL-2016/6
_cell_angle_alpha                76.48(3)
_cell_angle_beta                 77.86(3)
_cell_angle_gamma                74.261(19)
_cell_formula_units_Z            2
_cell_length_a                   6.587(2)
_cell_length_b                   9.123(3)
_cell_length_c                   11.052(4)
_cell_measurement_reflns_used    9947
_cell_measurement_temperature    100(2)
_cell_measurement_theta_max      27.49
_cell_measurement_theta_min      2.36
_cell_volume                     613.8(4)
_computing_cell_refinement       'Saint+ ver. V8.38A (Bruker AXS)'
_computing_data_collection       'APEX2 ver. 2014.9 (Bruker AXS)'
_computing_data_reduction        'Saint+ ver. V8.38A (Bruker AXS)'
_computing_molecular_graphics    'ShelXLe (Huebschle et all, 2011)'
_computing_publication_material  'SHELXL-2016/6 (Sheldrick, 2016)'
_computing_structure_refinement  'SHELXL-2016/6 (Sheldrick, 2016)'
_computing_structure_solution    'SHELXT (Sheldrick, 2014)'
_diffrn_ambient_temperature      100(2)
_diffrn_detector                 'CCD area detector (Apex2)'
_diffrn_detector_area_resol_mean 8.333
_diffrn_measured_fraction_theta_full 1.000
_diffrn_measured_fraction_theta_max 0.999
_diffrn_measurement_device_type  'Bruker X8-APEX II'
_diffrn_measurement_method       '\f and \w scans'
_diffrn_radiation_monochromator  'multi-layer mirror'
_diffrn_radiation_type           MoK\a
_diffrn_radiation_wavelength     0.71073
_diffrn_reflns_av_R_equivalents  0.0470
_diffrn_reflns_av_unetI/netI     0.0267
_diffrn_reflns_Laue_measured_fraction_full 1.000
_diffrn_reflns_Laue_measured_fraction_max 0.999
_diffrn_reflns_limit_h_max       7
_diffrn_reflns_limit_h_min       -8
_diffrn_reflns_limit_k_max       11
_diffrn_reflns_limit_k_min       -11
_diffrn_reflns_limit_l_max       12
_diffrn_reflns_limit_l_min       -13
_diffrn_reflns_number            14936
_diffrn_reflns_point_group_measured_fraction_full 1.000
_diffrn_reflns_point_group_measured_fraction_max 0.999
_diffrn_reflns_theta_full        26.000
_diffrn_reflns_theta_max         26.022
_diffrn_reflns_theta_min         1.919
_diffrn_source                   'rotating-anode (Nonius FR-591)'
_exptl_absorpt_coefficient_mu    5.989
_exptl_absorpt_correction_T_max  0.1035
_exptl_absorpt_correction_T_min  0.0503
_exptl_absorpt_correction_type   multi-scan
_exptl_absorpt_process_details   'SadAbs 2016/2 (Bruker AXS)'
_exptl_crystal_colour            purple
_exptl_crystal_density_diffrn    1.742
_exptl_crystal_description       block
_exptl_crystal_F_000             316
_exptl_crystal_size_max          0.758
_exptl_crystal_size_mid          0.653
_exptl_crystal_size_min          0.414
_refine_diff_density_max         0.513
_refine_diff_density_min         -0.482
_refine_diff_density_rms         0.086
_refine_ls_extinction_method     none
_refine_ls_goodness_of_fit_ref   1.057
_refine_ls_hydrogen_treatment    constr
_refine_ls_matrix_type           full
_refine_ls_number_parameters     132
_refine_ls_number_reflns         2422
_refine_ls_number_restraints     0
_refine_ls_restrained_S_all      1.057
_refine_ls_R_factor_all          0.0241
_refine_ls_R_factor_gt           0.0217
_refine_ls_shift/su_max          0.001
_refine_ls_shift/su_mean         0.000
_refine_ls_structure_factor_coef Fsqd
_refine_ls_weighting_details
'w=1/[\s^2^(Fo^2^)+(0.0266P)^2^+0.4822P] where P=(Fo^2^+2Fc^2^)/3'
_refine_ls_weighting_scheme      calc
_refine_ls_wR_factor_gt          0.0551
_refine_ls_wR_factor_ref         0.0563
_reflns_Friedel_coverage         0.000
_reflns_number_gt                2246
_reflns_number_total             2422
_reflns_threshold_expression     'I > 2\s(I)'
_cod_data_source_file            ja8b07829_si_004.cif
_cod_data_source_block           AlHo034_a
_cod_database_code               4132998
_shelx_shelxl_version_number     2016/6
_shelx_space_group_comment
;
The symmetry employed for this shelxl refinement is uniquely defined
by the following loop, which should always be used as a source of
symmetry information in preference to the above space-group names.
They are only intended as comments.
;
_shelx_estimated_absorpt_t_min   0.093
_shelx_estimated_absorpt_t_max   0.191
_shelx_res_file
;
TITL AlHo034_a.res in P-1
    AlHo034_a.res
    created by SHELXL-2016/6 at 13:59:39 on 06-Dec-2017
REM Old TITL AlHo034 in P-1
REM SHELXT solution in P-1
REM R1 0.054,  Rweak 0.003,  Alpha 0.062,  Orientation as input
REM Formula found by SHELXT:  C10 N2 Se2
CELL  0.71073   6.58673    9.12314   11.05199   76.4827   77.8646   74.2612
ZERR    2.000   0.00215    0.00328    0.00402    0.0284    0.0301    0.0187
LATT  1
SFAC C H B N SE
UNIT 18 34 2 4 4
TEMP -173.15
SIZE 0.414 0.653 0.758
L.S. 10
BOND $H
LIST 4
Acta 52
Shel 999. 0.81
Conf
FMAP 2
PLAN 20
WGHT    0.026600    0.482200
FVAR       0.68511
SE1   5    0.276294    0.414188    0.202056    11.00000    0.01453    0.01753 =
         0.01618   -0.00351   -0.00367   -0.00320
N1    4    0.711335    0.336345    0.444609    11.00000    0.01157    0.01498 =
         0.01367   -0.00426   -0.00154   -0.00297
C1    1    0.710828    0.152756    0.178116    11.00000    0.01707    0.01629 =
         0.01541   -0.00774   -0.00142   -0.00475
B1    3    0.555827    0.274649    0.262629    11.00000    0.01513    0.01202 =
         0.01412   -0.00178   -0.00175   -0.00543
C3    1    0.862448    0.028216    0.259800    11.00000    0.02321    0.01856 =
         0.02475   -0.00901   -0.00461    0.00050
AFIX 137
H3A   2    0.950787   -0.048780    0.209914    11.00000   -1.50000
H3AB  2    0.778099   -0.023002    0.333290    11.00000   -1.50000
H3AC  2    0.954627    0.077438    0.288006    11.00000   -1.50000
AFIX   0
SE2   5    0.290396    0.211216    0.378922    11.00000    0.01562    0.01627 =
         0.01627   -0.00418    0.00068   -0.00783
N2    4    0.698342    0.514187    0.278518    11.00000    0.01440    0.01284 =
         0.01566   -0.00398    0.00019   -0.00465
C2    1    0.849515    0.236086    0.068326    11.00000    0.02503    0.02341 =
         0.02051   -0.01101    0.00385   -0.00826
AFIX 137
H2A   2    0.943949    0.160753    0.018741    11.00000   -1.50000
H2AB  2    0.935696    0.284988    0.101755    11.00000   -1.50000
H2AC  2    0.757290    0.315628    0.014506    11.00000   -1.50000
AFIX   0
C4    1    0.587634    0.069656    0.123439    11.00000    0.02432    0.02193 =
         0.02508   -0.01278   -0.00306   -0.00643
AFIX 137
H4A   2    0.688145    0.002583    0.068940    11.00000   -1.50000
H4AB  2    0.485689    0.146638    0.074115    11.00000   -1.50000
H4AC  2    0.510353    0.006649    0.192328    11.00000   -1.50000
AFIX   0
C5    1    0.660485    0.371388    0.327028    11.00000    0.00974    0.01283 =
         0.01353   -0.00348    0.00154   -0.00155
C6    1    0.711758    0.190644    0.533911    11.00000    0.02101    0.01698 =
         0.01520    0.00089   -0.00345   -0.00436
AFIX 137
H6A   2    0.695617    0.208793    0.619759    11.00000   -1.50000
H6AB  2    0.846990    0.115820    0.515313    11.00000   -1.50000
H6AC  2    0.592950    0.149412    0.526670    11.00000   -1.50000
AFIX   0
C8    1    0.766390    0.567789    0.366014    11.00000    0.01463    0.01724 =
         0.02225   -0.00967   -0.00038   -0.00575
AFIX  43
H8    2    0.801599    0.664939    0.354710    11.00000   -1.20000
AFIX   0
C9    1    0.773649    0.457306    0.470050    11.00000    0.01361    0.02011 =
         0.01967   -0.01026   -0.00149   -0.00431
AFIX  43
H9    2    0.813944    0.461446    0.546604    11.00000   -1.20000
AFIX   0
C7    1    0.675626    0.604210    0.152202    11.00000    0.02827    0.01949 =
         0.01782    0.00138   -0.00402   -0.01095
AFIX 137
H7A   2    0.801965    0.646378    0.116654    11.00000   -1.50000
H7AB  2    0.548061    0.689557    0.156747    11.00000   -1.50000
H7AC  2    0.661603    0.537131    0.098405    11.00000   -1.50000
AFIX   0
HKLF 4




REM  AlHo034_a.res in P-1
REM R1 =  0.0217 for    2246 Fo > 4sig(Fo)  and  0.0241 for all    2422 data
REM    132 parameters refined using      0 restraints

END

WGHT      0.0267      0.4820

REM Highest difference peak  0.513,  deepest hole -0.482,  1-sigma level  0.086
Q1    1   0.1583  0.4992  0.2115  11.00000  0.05    0.51
Q2    1   0.7316  0.0460  0.3459  11.00000  0.05    0.48
Q3    1   0.1584  0.2952  0.3912  11.00000  0.05    0.46
Q4    1   0.7128  0.3234  0.0870  11.00000  0.05    0.45
Q5    1   0.3979  0.3240  0.2029  11.00000  0.05    0.42
Q6    1   0.1731  0.1641  0.3995  11.00000  0.05    0.40
Q7    1   0.4087  0.1250  0.3744  11.00000  0.05    0.40
Q8    1   0.6230  0.3122  0.2947  11.00000  0.05    0.36
Q9    1   0.6409  0.2023  0.2224  11.00000  0.05    0.36
Q10   1   0.4114  0.2601  0.3523  11.00000  0.05    0.34
Q11   1   0.2546  0.1551  0.4528  11.00000  0.05    0.33
Q12   1   0.3985  0.4647  0.1892  11.00000  0.05    0.31
Q13   1   0.7676  0.2163  0.1273  11.00000  0.05    0.29
Q14   1   0.1658  0.3532  0.2399  11.00000  0.05    0.28
Q15   1   0.6340  0.1191  0.1542  11.00000  0.05    0.27
Q16   1   0.7126  0.1172  0.4981  11.00000  0.05    0.27
Q17   1   1.0441  0.5952  0.1948  11.00000  0.05    0.26
Q18   1   0.7764  0.5577  0.1040  11.00000  0.05    0.26
Q19   1   0.5552  0.5902  0.1202  11.00000  0.05    0.26
Q20   1   0.5000  0.5000  0.5000  10.50000  0.05    0.25
;
_shelx_res_checksum              30693
_shelx_hkl_file
;
  -1   0   0 1140.29   70.29
  -1   0   0 1029.80   70.29
  -1   0   0 1205.98   68.99
  -1   0   0 1111.09   69.19
  -1   0   0 1135.19   68.89
  -1   0   0 1246.28   69.29
  -1   0   0 1133.09   69.49
   1   0   0 1313.67   70.09
   1   0   0 1067.69   70.09
   1   0   0 1182.68   69.19
   1   0   0 1179.78   68.99
   1   0   0 1238.28   69.29
   1   0   0 1122.09   69.29
   1   0   0 1125.09   69.29
  -2   0   0 9999.00  541.05
  -2   0   0 9238.38  540.85
  -2   0   0 8319.07  543.75
   2   0   0 8791.72  544.05
   2   0   0 9160.58  540.85
  -3   0   0 2497.85  128.79
  -3   0   0 2121.59  130.59
  -3   0   0 2162.38  128.99
  -3   0   0 2200.68  129.39
  -3   0   0 2213.08  129.59
   3   0   0 1994.60  131.39
   3   0   0 2175.68  130.09
   3   0   0 1966.10  128.69
  -4   0   0 1697.63   99.19
  -4   0   0 1781.02   99.19
  -4   0   0 1594.84  100.29
  -4   0   0 1572.94   99.19
  -4   0   0 1887.81   99.29
   4   0   0 1626.44   99.79
   4   0   0 1556.64  101.09
   4   0   0 1611.04   99.19
  -5   0   0 2066.99  122.49
  -5   0   0 2268.47  122.49
  -5   0   0 1969.60  122.39
  -5   0   0 1988.50  123.99
   5   0   0 1988.80  122.39
  -6   0   0  129.49   13.50
  -6   0   0  120.69    9.00
  -6   0   0  122.99    9.00
  -7   0   0 1248.18   75.99
  -7   0   0 1237.28   73.49
  -7   0   0 1189.88   73.49
  -8   0   0   28.60    4.90
  -8   0   0   26.70    4.80
  -8   0   0   26.10    8.30
  -7   1   0   38.30    4.80
  -7   1   0   43.50   10.10
  -7   1   0   41.50    4.90
   6  -1   0  137.39    9.60
  -6   1   0  140.59   12.80
  -6   1   0  142.19    9.90
  -6   1   0  138.09    9.80
   5  -1   0  571.34   34.60
   5  -1   0  586.34   34.60
  -5   1   0  543.45   36.70
  -5   1   0  601.34   34.70
  -5   1   0  549.74   34.60
  -5   1   0  571.84   34.60
   4  -1   0   35.80    3.00
   4  -1   0   34.30    3.30
  -4   1   0   42.70    3.60
  -4   1   0   34.50    3.30
  -4   1   0   38.90    3.50
  -4   1   0   32.30    3.20
  -4   1   0   34.00    5.00
   3  -1   0 2555.34  151.88
   3  -1   0 2634.54  152.28
  -3   1   0 2638.44  151.78
  -3   1   0 2179.68  151.88
  -3   1   0 2531.25  152.08
  -3   1   0 2488.65  152.18
  -3   1   0 2793.52  151.18
   2  -1   0  616.84   39.30
   2  -1   0  664.93   38.70
   2  -1   0  661.83   38.70
   2  -1   0  680.03   38.80
   2  -1   0  712.13   38.80
  -2   1   0  556.84   39.40
  -2   1   0  643.24   38.80
  -2   1   0  653.53   38.80
  -2   1   0  601.64   38.70
  -2   1   0  701.23   38.80
   1  -1   0 1986.00  104.79
   1  -1   0 1839.22  104.59
   1  -1   0 1801.42  104.59
   1  -1   0 1778.82  104.69
   1  -1   0 1605.94  106.39
  -1   1   0 1680.93  104.69
  -1   1   0 1526.45  105.89
  -1   1   0 1744.83  104.79
  -1   1   0 1705.93  104.79
  -1   1   0 1966.20  104.99
  -1   1   0 1671.53  105.09
   0  -1   0 1661.03  100.09
   0  -1   0 1670.63   98.69
   0  -1   0 1800.42   98.79
   0  -1   0 1647.84  100.49
   0  -1   0 1653.13   98.69
   0  -1   0 1531.75   99.09
   0   1   0 1693.93   99.29
   0   1   0 1613.84  100.59
   0   1   0 1671.73   98.69
   0   1   0 1635.74   98.59
   0   1   0 1737.63  100.09
   0   1   0 1557.64  101.59
   0   1   0 1653.43   98.69
  -1  -1   0  554.34   34.60
  -1  -1   0  604.24   34.40
  -1  -1   0  569.44   34.30
  -1  -1   0  548.25   34.30
  -1  -1   0  509.85   35.00
  -1  -1   0  622.44   34.30
  -1  -1   0  558.54   34.30
   1   1   0  539.65   34.30
   1   1   0  605.94   34.40
   1   1   0  587.04   34.30
   1   1   0  555.54   35.10
   1   1   0  553.14   34.30
   1   1   0  648.24   34.80
   1   1   0  569.34   34.30
   1   1   0  612.74   34.70
  -2  -1   0 3502.15  225.68
  -2  -1   0 3272.37  227.98
  -2  -1   0 3614.44  224.58
  -2  -1   0 3870.41  224.88
  -2  -1   0 4099.39  224.58
  -2  -1   0 3752.32  224.48
  -2  -1   0 3717.03  227.28
   2   1   0 3955.50  224.88
   2   1   0 3717.43  224.78
   2   1   0 3796.02  226.08
   2   1   0 3508.25  224.48
   2   1   0 4006.60  224.88
   2   1   0 3731.03  230.38
   2   1   0 4243.08  227.18
  -3  -1   0  449.76   26.70
  -3  -1   0  444.56   26.70
  -3  -1   0  415.46   27.40
  -3  -1   0  449.86   26.70
  -3  -1   0  425.86   27.10
  -3  -1   0  486.15   26.70
   3   1   0  447.96   26.70
   3   1   0  473.85   27.20
   3   1   0  439.96   26.60
   3   1   0  416.76   27.90
   3   1   0  445.16   26.70
   3   1   0  418.56   27.10
  -4  -1   0 2466.85  152.08
  -4  -1   0 2700.83  152.08
  -4  -1   0 2469.95  153.08
  -4  -1   0 2624.74  152.58
   4   1   0 2542.05  151.98
   4   1   0 2876.41  153.68
   4   1   0 2441.06  152.38
   4   1   0 2340.77  152.68
   4   1   0 2565.54  155.78
  -5  -1   0    6.80    4.00
  -5  -1   0   10.00    2.60
  -5  -1   0    5.90    2.90
  -5  -1   0    8.50    2.90
   5   1   0    4.80    2.50
   5   1   0    9.20    2.70
   5   1   0    7.00    3.50
  -6  -1   0  845.02   49.99
  -6  -1   0  841.52   49.99
  -6  -1   0  787.02   51.69
   6   1   0  839.42   49.90
  -7  -1   0    9.70    4.00
  -7  -1   0   10.40    6.30
  -7  -1   0    7.00    4.10
  -8  -1   0  292.87   19.00
  -8  -1   0  285.57   23.70
  -8  -1   0  270.27   18.60
  -7   2   0    2.40    3.50
  -7   2   0    2.60    8.50
  -7   2   0    0.90    3.90
  -7   2   0    2.40    6.70
  -6   2   0    4.60    7.70
  -6   2   0    5.90    3.40
  -6   2   0    9.50    3.20
   5  -2   0   -0.50    2.20
  -5   2   0    3.00    6.20
  -5   2   0    4.40    2.70
  -5   2   0   -0.10    2.50
   4  -2   0   30.90    2.80
   4  -2   0   24.80    2.90
  -4   2   0   34.70    3.10
  -4   2   0   25.60    3.00
  -4   2   0   25.70    5.80
  -4   2   0   30.10    3.00
  -4   2   0   27.10    3.10
   3  -2   0    7.20    1.60
   3  -2   0    6.60    1.70
  -3   2   0    6.30    1.80
  -3   2   0    3.50    3.70
  -3   2   0    6.50    1.70
  -3   2   0   12.10    1.90
  -3   2   0    6.40    1.70
   2  -2   0   68.79    4.40
   2  -2   0   63.79    5.70
   2  -2   0   71.19    4.40
   2  -2   0   67.19    4.40
  -2   2   0   62.49    4.40
  -2   2   0   62.49    5.10
  -2   2   0   67.69    4.60
  -2   2   0   56.29    5.30
  -2   2   0   59.29    4.30
  -2   2   0   63.49    6.30
  -2   2   0   63.59    4.40
   1  -2   0  442.36   26.10
   1  -2   0  443.46   25.30
   1  -2   0  428.66   25.30
   1  -2   0  438.46   25.20
   1  -2   0  432.36   25.30
   1  -2   0  416.76   25.80
  -1   2   0  398.26   26.10
  -1   2   0  419.96   25.30
  -1   2   0  451.95   25.70
  -1   2   0  439.26   25.30
  -1   2   0  403.16   25.80
  -1   2   0  391.66   26.10
  -1   2   0  405.76   25.30
  -1   2   0  406.66   25.30
   0  -2   0   73.79    5.00
   0  -2   0   66.79    5.50
   0  -2   0   69.29    4.60
   0  -2   0   77.09    4.60
   0  -2   0   76.09    4.60
   0  -2   0   82.09    5.40
   0   2   0   72.79    4.70
   0   2   0   67.89    6.10
   0   2   0   79.39    5.00
   0   2   0   67.09    5.60
   0   2   0   74.69    4.60
   0   2   0   66.59    4.60
   0   2   0   74.29    5.00
   0   2   0   71.29    4.60
   0   2   0   77.39    5.40
  -1  -2   0 1399.56   87.39
  -1  -2   0 1472.35   87.89
  -1  -2   0 1403.66   87.99
  -1  -2   0 1415.96   87.89
  -1  -2   0 1565.74   88.79
   1   2   0 1489.15   88.99
   1   2   0 1479.85   88.19
   1   2   0 1484.25   88.09
   1   2   0 1577.34   88.79
   1   2   0 1596.64   88.09
   1   2   0 1485.65   91.49
   1   2   0 1401.66   88.19
   1   2   0 1379.96   87.39
  -2  -2   0    1.90    2.30
  -2  -2   0    4.10    1.10
  -2  -2   0   13.40    1.80
  -2  -2   0    5.60    1.60
  -2  -2   0    7.80    2.40
  -2  -2   0    6.20    1.30
  -2  -2   0    5.70    1.20
  -2  -2   0    5.20    1.10
   2   2   0    4.20    2.00
   2   2   0    6.50    1.30
   2   2   0   11.50    2.50
   2   2   0    4.90    1.40
   2   2   0    9.60    3.40
   2   2   0    5.60    1.40
   2   2   0    7.90    2.30
   2   2   0    9.90    1.60
  -3  -2   0  626.94   42.10
  -3  -2   0  805.32   41.50
  -3  -2   0  652.13   41.30
  -3  -2   0  698.23   41.50
  -3  -2   0  709.03   41.40
  -3  -2   0  670.33   42.00
   3   2   0  699.83   41.50
   3   2   0  739.83   43.50
   3   2   0  655.03   41.40
   3   2   0  711.43   41.40
   3   2   0  639.04   41.90
  -4  -2   0    3.70    2.00
  -4  -2   0    3.80    1.90
  -4  -2   0    5.30    3.40
  -4  -2   0    4.80    3.60
  -4  -2   0    7.20    2.50
   4   2   0    4.00    3.30
   4   2   0    1.80    2.20
   4   2   0    4.40    2.00
   4   2   0    2.90    4.70
   4   2   0   -0.40    3.40
  -5  -2   0  706.33   40.50
  -5  -2   0  678.13   42.00
  -5  -2   0  678.53   40.60
  -5  -2   0  705.93   40.50
   5   2   0  589.34   41.20
   5   2   0  676.53   40.40
   5   2   0  656.73   40.50
  -6  -2   0  139.69   10.80
  -6  -2   0  160.68   10.40
  -6  -2   0  153.58   13.90
   6   2   0  149.39   10.50
  -7  -2   0  371.06   26.70
  -7  -2   0  370.76   23.60
  -7  -2   0  370.26   23.60
   7   2   0  375.96   23.40
  -8  -2   0  266.77   18.20
  -8  -2   0  281.07   21.10
  -8  -2   0  266.47   18.20
  -7   3   0  167.28   11.70
  -7   3   0  151.48   17.80
  -7   3   0  160.48   11.90
  -7   3   0  171.28   18.80
  -6   3   0   16.40    3.90
  -6   3   0   19.40    3.90
  -6   3   0   18.50    8.40
  -6   3   0    5.70    7.90
   5  -3   0  490.05   30.40
  -5   3   0  507.45   30.40
  -5   3   0  506.35   33.30
  -5   3   0  505.65   33.70
  -5   3   0  490.95   30.50
   4  -3   0  146.29    9.30
  -4   3   0  142.39    9.30
  -4   3   0  121.69    9.30
  -4   3   0  142.39    9.30
  -4   3   0  163.08    9.50
  -4   3   0  130.49   12.50
  -4   3   0  130.89   11.70
   3  -3   0  662.53   39.80
   3  -3   0  751.72   39.80
  -3   3   0  609.04   41.20
  -3   3   0  648.24   41.50
  -3   3   0  599.04   40.10
  -3   3   0  649.14   39.90
  -3   3   0  662.73   39.80
  -3   3   0  656.83   39.80
  -3   3   0  741.73   39.90
   2  -3   0  730.03   40.10
   2  -3   0  677.83   40.20
  -2   3   0  651.23   40.20
  -2   3   0  654.43   40.20
  -2   3   0  642.24   41.40
  -2   3   0  635.64   41.10
  -2   3   0  645.54   40.10
  -2   3   0  764.32   40.20
  -2   3   0  621.54   41.10
  -2   3   0  690.13   40.50
   1  -3   0  379.46   22.70
   1  -3   0  364.56   22.10
   1  -3   0  392.76   22.00
   1  -3   0  359.86   22.00
   1  -3   0  375.06   22.00
   1  -3   0  384.86   23.30
  -1   3   0  345.47   23.50
  -1   3   0  397.56   22.80
  -1   3   0  328.27   22.00
  -1   3   0  377.16   22.80
  -1   3   0  391.06   22.10
  -1   3   0  354.16   22.10
  -1   3   0  348.07   22.00
  -1   3   0  337.17   23.20
   0  -3   0  559.84   34.80
   0  -3   0  546.75   35.30
   0  -3   0  591.44   34.50
   0  -3   0  550.44   34.50
   0  -3   0  629.34   35.70
   0  -3   0  629.64   34.50
   0   3   0  548.35   34.80
   0   3   0  556.74   35.40
   0   3   0  566.94   34.50
   0   3   0  603.94   34.90
   0   3   0  522.85   34.50
   0   3   0  588.44   34.50
   0   3   0  574.64   36.20
   0   3   0  563.54   34.50
   0   3   0  623.04   35.20
  -1  -3   0  118.59    8.00
  -1  -3   0  109.99    8.00
  -1  -3   0  126.19    8.30
  -1  -3   0  123.99    8.00
  -1  -3   0  154.88    9.70
  -1  -3   0  148.39    8.10
  -1  -3   0  119.19    9.50
   1   3   0  121.99    9.60
   1   3   0  120.59    8.00
   1   3   0  133.39    8.00
   1   3   0  124.69    8.00
   1   3   0  144.39    9.30
   1   3   0  126.09   10.50
   1   3   0  118.89    8.40
   1   3   0  125.09    8.10
  -2  -3   0  598.84   41.70
  -2  -3   0  741.73   40.70
  -2  -3   0  644.44   40.70
  -2  -3   0  669.63   40.70
  -2  -3   0  651.13   40.60
  -2  -3   0  720.23   40.90
   2   3   0  692.03   42.90
   2   3   0  673.73   42.20
   2   3   0  693.73   41.10
   2   3   0  779.62   41.80
   2   3   0  615.84   40.70
   2   3   0  661.23   40.80
   2   3   0  705.63   40.70
   2   3   0  669.13   40.70
  -3  -3   0    6.30    3.70
  -3  -3   0    3.30    1.70
  -3  -3   0    5.40    2.30
  -3  -3   0    5.90    2.70
  -3  -3   0    4.90    2.10
   3   3   0   16.30    2.10
   3   3   0    6.80    3.10
   3   3   0    2.10    1.90
   3   3   0    4.80    1.80
   3   3   0    5.70    5.40
  -4  -3   0  242.18   15.80
  -4  -3   0  255.37   15.20
  -4  -3   0  220.18   16.60
  -4  -3   0  242.88   14.80
  -4  -3   0  230.08   15.00
   4   3   0  232.08   14.90
   4   3   0  220.88   16.00
   4   3   0  249.28   14.80
  -5  -3   0   19.50    3.70
  -5  -3   0   17.80    4.90
  -5  -3   0   28.50    3.30
  -5  -3   0   17.90    3.60
   5   3   0   20.70    3.10
   5   3   0   14.90    3.10
   5   3   0   11.90    4.10
   5   3   0   29.30    7.30
  -6  -3   0   39.50    5.00
  -6  -3   0   38.50    5.00
  -6  -3   0   41.20    7.20
   6   3   0   31.70    5.70
   6   3   0   40.50    4.80
  -7  -3   0   15.40    4.70
  -7  -3   0    9.80    4.60
  -7  -3   0   13.20    5.80
   7   3   0   17.10    4.30
  -8  -3   0    6.00    8.60
  -8  -3   0   -7.80    4.80
  -8  -3   0   -6.50    4.70
  -6   4   0  679.53   43.50
  -6   4   0  653.53   39.40
  -6   4   0  614.74   39.40
  -6   4   0  645.04   42.20
  -5   4   0  219.88   18.50
  -5   4   0  206.48   13.60
  -5   4   0  208.18   13.90
  -5   4   0  198.28   17.80
   4  -4   0  874.21   48.30
  -4   4   0  751.52   49.99
  -4   4   0  824.22   51.09
  -4   4   0  804.12   48.30
  -4   4   0  803.42   48.40
  -4   4   0  764.62   48.40
   3  -4   0  539.15   32.30
   3  -4   0  618.94   32.40
  -3   4   0  501.15   34.30
  -3   4   0  510.25   32.40
  -3   4   0  513.85   34.10
  -3   4   0  574.64   32.70
  -3   4   0  513.65   32.50
  -3   4   0  521.15   33.40
  -3   4   0  530.85   32.40
   2  -4   0  722.73   43.10
   2  -4   0  811.22   43.10
  -2   4   0  677.33   43.10
  -2   4   0  687.63   44.60
  -2   4   0  699.53   43.20
  -2   4   0  664.83   44.80
  -2   4   0  778.12   43.20
  -2   4   0  686.43   44.20
  -2   4   0  782.82   43.80
  -2   4   0  685.43   43.10
   1  -4   0 2459.95  148.19
   1  -4   0 2701.43  148.09
   1  -4   0 2423.46  148.09
  -1   4   0 2582.24  152.28
  -1   4   0 2672.03  147.99
  -1   4   0 2369.66  147.99
  -1   4   0 2853.61  148.39
  -1   4   0 2278.87  148.69
  -1   4   0 2362.46  149.69
  -1   4   0 2250.77  147.99
  -1   4   0 2350.16  147.49
   0  -4   0    6.20    2.30
   0  -4   0    7.20    3.60
   0  -4   0    7.10    1.60
   0   4   0    5.80    1.70
   0   4   0    4.60    2.80
   0   4   0   12.70    3.10
   0   4   0    8.30    1.90
   0   4   0    5.20    2.60
   0   4   0   11.40    4.40
   0   4   0    4.70    1.50
   0   4   0    2.70    2.40
   0   4   0    8.70    1.60
  -1  -4   0 3629.94  239.28
  -1  -4   0 3934.71  234.68
  -1  -4   0 4013.80  235.78
  -1  -4   0 3930.91  234.38
  -1  -4   0 4605.04  243.38
  -1  -4   0 3995.30  234.38
   1   4   0 3659.13  235.48
   1   4   0 3575.94  234.08
   1   4   0 3475.45  239.18
   1   4   0 4039.30  234.58
   1   4   0 3972.70  243.58
   1   4   0 3856.11  234.68
   1   4   0 4419.06  234.58
  -2  -4   0  570.94   36.10
  -2  -4   0  611.44   36.00
  -2  -4   0  601.04   36.10
  -2  -4   0  538.95   37.70
   2   4   0  553.94   37.90
   2   4   0  597.14   36.10
   2   4   0  670.63   39.20
   2   4   0  598.44   36.60
   2   4   0  612.94   36.20
   2   4   0  589.84   36.10
   2   4   0  651.83   36.20
  -3  -4   0 1852.91  105.49
  -3  -4   0 1675.13  106.79
  -3  -4   0 1764.62  105.39
  -3  -4   0 1769.42  105.29
  -3  -4   0 1759.92  106.29
   3   4   0 1747.53  105.39
   3   4   0 1772.22  105.39
   3   4   0 1800.62  105.49
   3   4   0 1739.63  107.29
   3   4   0 1808.82  105.99
  -4  -4   0  766.92   46.10
  -4  -4   0  789.72   46.00
  -4  -4   0  776.42   46.50
  -4  -4   0  726.33   47.50
  -4  -4   0  778.12   45.80
   4   4   0  743.93   46.00
   4   4   0  767.62   45.90
   4   4   0  746.03   46.80
  -5  -4   0  308.67   19.20
  -5  -4   0  322.37   20.20
  -5  -4   0  302.67   19.30
   5   4   0  305.47   18.80
   5   4   0  256.37   20.40
   5   4   0  303.47   18.90
  -6  -4   0  751.12   45.40
  -6  -4   0  804.82   46.90
  -6  -4   0  759.62   45.50
   6   4   0  755.82   45.50
   6   4   0  659.93   46.60
  -7  -4   0    4.30    4.70
  -7  -4   0   -2.20    4.50
  -7  -4   0    4.20    6.90
   7   4   0    4.10    4.10
   7   4   0   -5.70    7.20
  -8  -4   0  265.47   18.50
  -8  -4   0  240.78   18.30
  -8  -4   0  301.07   21.90
  -6   5   0  251.67   21.90
  -6   5   0  253.57   15.60
  -6   5   0  239.18   19.30
  -6   5   0  203.48   15.70
  -5   5   0  316.57   21.30
  -5   5   0  346.87   25.80
  -5   5   0  338.47   25.10
  -5   5   0  342.47   21.20
  -4   5   0 1597.14   94.19
  -4   5   0 1492.85   94.29
  -4   5   0 1641.14   97.19
  -4   5   0 1584.14   96.19
   3  -5   0    9.10    2.50
   3  -5   0   11.40    2.50
  -3   5   0    9.50    3.20
  -3   5   0    6.40    4.50
  -3   5   0    5.50    4.70
  -3   5   0   12.00    2.60
  -3   5   0    9.90    4.30
  -3   5   0    7.20    2.70
   2  -5   0 3807.82  206.88
   2  -5   0 3721.43  207.88
  -2   5   0 3222.38  207.88
  -2   5   0 3446.16  206.88
  -2   5   0 3232.18  207.28
  -2   5   0 3289.27  208.58
  -2   5   0 3301.17  207.78
  -2   5   0 3527.35  211.28
  -2   5   0 3794.62  206.88
   1  -5   0  308.57   19.10
   1  -5   0  327.77   19.10
  -1   5   0  315.87   21.90
  -1   5   0  302.97   19.10
  -1   5   0  289.17   19.20
  -1   5   0  291.47   20.90
  -1   5   0  320.07   19.40
  -1   5   0  355.26   19.20
  -1   5   0  299.97   20.20
   0  -5   0 3337.87  181.88
   0  -5   0 3087.09  181.48
   0  -5   0 2984.90  181.28
   0   5   0 2938.01  180.98
   0   5   0 2726.53  183.18
   0   5   0 3067.09  182.38
   0   5   0 2860.11  180.28
   0   5   0 2874.61  181.28
   0   5   0 3408.16  180.38
   0   5   0 2952.40  180.78
   0   5   0 3103.59  182.48
  -1  -5   0 1517.65   79.29
  -1  -5   0 1376.26   78.99
  -1  -5   0 1264.17   78.99
  -1  -5   0 1186.28   80.59
   1   5   0 1398.16   81.89
   1   5   0 1271.17   79.09
   1   5   0 1366.26   78.99
   1   5   0 1363.96   78.99
   1   5   0 1208.78   80.49
   1   5   0 1274.97   79.39
  -2  -5   0 1057.59   72.39
  -2  -5   0 1258.07   70.79
  -2  -5   0 1148.09   70.79
   2   5   0 1210.58   71.19
   2   5   0 1164.88   70.69
   2   5   0 1186.28   70.89
   2   5   0 1194.08   70.79
   2   5   0 1342.97   74.29
   2   5   0 1090.29   72.69
  -3  -5   0 3300.87  189.48
  -3  -5   0 3264.17  190.18
  -3  -5   0 2914.41  191.08
   3   5   0 3246.58  189.38
   3   5   0 3184.18  189.48
   3   5   0 2993.60  191.48
   3   5   0 3380.36  190.08
   3   5   0 3206.78  189.98
  -4  -5   0    4.40    3.00
  -4  -5   0    4.20    3.40
  -4  -5   0   -0.60    3.00
  -4  -5   0    2.80    4.60
   4   5   0    4.50    3.10
   4   5   0   -3.10    4.60
   4   5   0    2.60    3.40
   4   5   0    7.30    7.40
  -5  -5   0 2023.80  123.69
  -5  -5   0 2155.28  124.29
  -5  -5   0 2039.30  123.59
   5   5   0 2027.90  123.69
   5   5   0 2119.59  123.59
   5   5   0 2055.79  124.59
  -6  -5   0   86.09    7.70
  -6  -5   0   90.39    7.80
  -6  -5   0   93.19    9.90
   6   5   0   95.09    9.70
   6   5   0   81.49    7.80
  -7  -5   0  709.03   42.40
  -7  -5   0  749.73   44.00
  -7  -5   0  668.63   42.20
   7   5   0  646.74   42.20
   7   5   0  655.73   44.10
  -8  -5   0  117.19   10.40
  -8  -5   0  130.59   11.50
  -8  -5   0  131.89   14.70
   8   5   0  122.79   10.70
   8   5   0  110.39   13.40
  -5   6   0  197.38   20.00
  -5   6   0  206.38   14.40
  -5   6   0  213.28   19.00
  -5   6   0  208.18   14.00
  -4   6   0    7.00    3.80
  -4   6   0    0.70    7.80
  -4   6   0   -0.30    7.00
  -4   6   0    1.00    4.00
  -3   6   0  416.16   26.70
  -3   6   0  437.06   29.40
  -3   6   0  437.96   28.80
  -3   6   0  438.96   26.80
   2  -6   0   44.90    4.00
   2  -6   0   50.49    4.00
  -2   6   0   37.40    4.40
  -2   6   0   37.90    3.90
  -2   6   0   46.20    7.80
  -2   6   0   38.80    7.80
  -2   6   0   35.20    6.10
  -2   6   0   38.30    4.50
   1  -6   0  728.93   38.60
   1  -6   0  625.24   38.60
  -1   6   0  611.04   39.70
  -1   6   0  707.13   42.10
  -1   6   0  591.14   39.30
  -1   6   0  567.44   38.60
  -1   6   0  630.14   38.80
  -1   6   0  597.94   41.00
  -1   6   0  727.53   38.70
  -1   6   0  611.94   38.60
   0  -6   0  559.94   35.80
   0  -6   0  571.44   36.40
   0  -6   0  636.74   35.90
   0   6   0  563.64   35.80
   0   6   0  582.44   36.50
   0   6   0  694.13   36.00
   0   6   0  559.64   36.60
   0   6   0  651.13   39.50
   0   6   0  589.54   36.00
   0   6   0  554.84   38.20
   0   6   0  574.04   36.00
  -1  -6   0  350.66   21.60
  -1  -6   0  352.76   21.60
  -1  -6   0  395.36   22.00
   1   6   0  302.27   23.60
   1   6   0  359.26   21.70
   1   6   0  372.86   25.80
   1   6   0  336.27   22.10
   1   6   0  349.96   21.60
   1   6   0  337.67   21.80
  -2  -6   0 1074.09   60.19
  -2  -6   0  890.01   62.49
  -2  -6   0  994.90   60.19
   2   6   0 1026.90   60.19
   2   6   0 1141.89   63.99
   2   6   0  995.10   60.69
   2   6   0 1034.60   60.19
   2   6   0  904.91   62.19
   2   6   0  957.40   60.19
  -3  -6   0  200.88   13.80
  -3  -6   0  177.58   17.70
  -3  -6   0  237.78   13.80
   3   6   0  193.08   16.40
   3   6   0  199.58   14.00
   3   6   0  208.48   13.40
   3   6   0  213.48   14.90
   3   6   0  207.38   13.80
   3   6   0  256.27   19.70
  -4  -6   0 1061.79   63.09
  -4  -6   0 1099.39   63.19
  -4  -6   0 1074.89   62.99
  -4  -6   0  937.51   65.39
   4   6   0 1103.99   63.89
   4   6   0  975.00   65.89
   4   6   0 1100.99   63.09
   4   6   0 1014.20   62.99
  -5  -6   0   12.20    4.20
  -5  -6   0   19.20    4.80
  -5  -6   0   12.00    4.40
   5   6   0   20.00    6.80
   5   6   0   21.50    3.50
   5   6   0   12.60    3.70
  -6  -6   0  817.62   51.79
  -6  -6   0  915.71   52.59
  -6  -6   0  873.21   51.79
   6   6   0  815.12   53.29
   6   6   0  820.12   51.79
  -7  -6   0  229.38   17.40
  -7  -6   0  190.08   15.00
  -7  -6   0  203.68   14.90
   7   6   0  194.38   18.00
   7   6   0  190.58   14.60
  -5   7   0    3.20    4.40
  -5   7   0    9.40    4.60
  -5   7   0   -1.70    7.20
  -5   7   0    3.00    6.60
  -4   7   0    1.40    7.50
  -4   7   0    3.70    4.40
  -4   7   0    2.10    6.60
  -4   7   0    3.20    4.20
  -3   7   0    7.10    6.60
  -3   7   0    7.90    4.00
  -3   7   0    9.20    8.10
  -3   7   0    2.10    3.80
   2  -7   0   28.50    3.80
  -2   7   0   25.20    6.60
  -2   7   0   17.50    4.00
  -2   7   0   14.30    3.70
  -2   7   0   27.70    7.90
  -2   7   0   25.80    6.00
   1  -7   0  110.19    7.90
  -1   7   0   97.29    9.10
  -1   7   0  122.29   10.60
  -1   7   0  123.69   13.20
  -1   7   0   99.29    8.50
  -1   7   0   96.89    8.50
  -1   7   0  111.89   13.00
   0  -7   0   44.70    4.20
   0  -7   0   49.30    4.10
   0   7   0   34.10    5.30
   0   7   0   47.00    9.20
   0   7   0   36.70    5.90
   0   7   0   34.00    7.90
   0   7   0   41.20    4.60
   0   7   0   36.90    4.00
   0   7   0   40.40    4.60
  -1  -7   0  357.96   23.90
  -1  -7   0  446.16   24.20
   1   7   0  411.26   23.90
   1   7   0  370.36   24.80
   1   7   0  418.46   28.80
   1   7   0  350.96   24.10
   1   7   0  358.06   27.00
   1   7   0  368.96   24.00
  -2  -7   0    0.80    3.10
  -2  -7   0    1.00    2.80
  -2  -7   0    6.80    2.70
   2   7   0   12.10    4.60
   2   7   0    2.20    2.90
   2   7   0    7.40    3.50
   2   7   0    4.10    3.30
   2   7   0   -3.40    6.50
  -3  -7   0  728.03   40.70
  -3  -7   0  645.44   40.70
   3   7   0  664.43   40.70
   3   7   0  684.53   40.80
   3   7   0  685.73   41.50
   3   7   0  602.74   43.90
  -4  -7   0  154.48   12.20
  -4  -7   0  189.18   12.00
  -4  -7   0  169.38   12.00
   4   7   0  147.19   17.10
   4   7   0  166.98   11.90
   4   7   0  168.38   12.20
   4   7   0  188.78   13.00
  -5  -7   0  350.06   22.80
  -5  -7   0  331.97   22.90
  -5  -7   0  402.16   23.40
   5   7   0  326.67   23.00
   5   7   0  364.56   24.70
   5   7   0  358.56   22.90
  -6  -7   0  259.47   16.90
  -6  -7   0  241.38   17.00
   6   7   0  244.88   17.20
   6   7   0  242.08   19.50
  -7  -7   0  135.99   12.20
   7   7   0  145.79   14.60
   7   7   0  138.49   12.00
  -4   8   0  131.09   15.50
  -4   8   0  142.39   18.50
  -4   8   0  149.09   11.50
  -4   8   0  126.29   11.40
  -3   8   0   91.39    8.50
  -3   8   0  102.59    8.70
  -3   8   0  100.09   11.00
  -3   8   0   94.59   12.80
  -2   8   0  207.08   17.60
  -2   8   0  215.28   16.40
  -2   8   0  209.68   14.10
  -2   8   0  201.08   14.30
  -2   8   0  195.28   16.50
   1  -8   0   17.70    4.10
  -1   8   0   19.50    5.90
  -1   8   0   19.40    6.30
  -1   8   0   16.50    4.00
  -1   8   0   16.30    4.40
  -1   8   0   19.90    8.20
   0  -8   0  255.77   14.60
   0   8   0  198.88   15.10
   0   8   0  203.58   14.70
   0   8   0  207.68   17.50
   0   8   0  219.68   14.60
   0   8   0  221.78   15.30
  -1  -8   0    6.20    3.30
   1   8   0    5.10    5.00
   1   8   0    5.20    3.50
   1   8   0    1.70    7.40
   1   8   0    6.80    3.90
  -2  -8   0  148.59   10.10
   2   8   0  133.19   13.90
   2   8   0  141.39   11.90
   2   8   0  158.68   10.80
   2   8   0  150.08   10.90
  -3  -8   0    9.10    4.00
   3   8   0   11.60    5.30
   3   8   0    6.20    8.50
   3   8   0   13.10    4.10
  -4  -8   0   73.19    6.90
   4   8   0   79.29    7.10
   4   8   0   70.89    7.30
   4   8   0   79.99    8.80
   4   8   0   63.59   10.20
  -5  -8   0   12.40    4.70
   5   8   0    5.00    9.30
   5   8   0    9.60    7.10
   5   8   0    5.40    4.00
   5   8   0   16.40    5.00
  -6  -8   0   -1.50    5.10
   6   8   0    0.00    8.10
   6   8   0    7.90    5.60
  -7  -8   0   -1.10    5.70
   7   8   0   -5.70    9.00
   7   8   0    4.70    6.00
  -3   9   0  373.36   24.00
  -3   9   0  408.36   27.10
  -3   9   0  426.36   34.30
  -3   9   0  313.87   24.30
  -3   9   0  378.26   29.80
  -2   9   0   19.50    5.10
  -2   9   0   20.50   10.00
  -2   9   0   16.20    7.70
  -2   9   0   15.40    5.30
  -1   9   0  647.34   40.30
  -1   9   0  656.03   42.20
  -1   9   0  597.84   38.80
  -1   9   0  630.04   39.20
   0   9   0   79.19    7.50
   0   9   0   66.79   11.50
   0   9   0   72.79    8.70
   0   9   0   78.49    6.90
  -1  -9   0 1020.20   57.29
   1   9   0  977.40   57.39
   1   9   0  910.21   58.29
   1   9   0  887.41   60.89
   1   9   0  943.21   57.59
  -2  -9   0  442.76   27.20
   2   9   0  477.95   27.20
   2   9   0  434.26   28.40
   2   9   0  450.95   27.60
   2   9   0  372.66   30.30
  -3  -9   0  316.67   19.80
   3   9   0  306.07   21.10
   3   9   0  272.07   23.30
   3   9   0  324.17   19.50
   3   9   0  296.37   20.10
  -4  -9   0  629.64   38.00
   4   9   0  591.94   38.20
   4   9   0  565.24   41.40
   4   9   0  663.63   39.30
   4   9   0  626.74   37.80
  -5  -9   0    2.50    5.10
   5   9   0   -1.90    7.10
   5   9   0   -0.40    5.50
   5   9   0   -0.20    9.60
   5   9   0    1.50    5.10
  -6  -9   0  358.76   24.70
   6   9   0  392.46   25.90
   6   9   0  377.76   25.00
  -2  10   0  523.85   33.60
  -2  10   0  571.44   37.80
  -2  10   0  567.84   35.70
  -2  10   0  474.85   33.80
  -1  10   0  180.88   14.00
  -1  10   0  182.88   14.70
  -1  10   0  192.58   16.60
  -1  10   0  209.18   21.10
   0  10   0  273.87   24.00
   0  10   0  286.37   18.00
   0  10   0  257.67   19.80
   0  10   0  244.28   18.10
   1  10   0  654.03   45.90
   1  10   0  649.43   41.70
   1  10   0  676.83   42.70
   1  10   0  717.83   41.60
  -2 -10   0   28.60    5.10
   2  10   0   17.00   10.60
   2  10   0   19.10    7.00
   2  10   0   27.30    5.40
   2  10   0   27.20    5.70
  -3 -10   0 1018.00   57.29
   3  10   0  998.70   57.39
   3  10   0  872.11   61.49
   3  10   0  881.51   57.49
   3  10   0  939.91   58.29
  -4 -10   0   -3.90    4.70
   4  10   0    2.20   10.20
   4  10   0    5.00    5.30
   4  10   0   -1.10    5.50
   4  10   0    7.60    6.70
  -5 -10   0  978.60   58.19
   5  10   0 1038.70   59.59
   5  10   0  867.71   61.69
   5  10   0  930.21   58.39
   0  11   0  244.18   21.20
   0  11   0  234.88   17.40
   0  11   0  229.48   16.90
   0  11   0  224.58   16.60
   1  11   0   56.29    7.60
   1  11   0   59.69    7.20
   1  11   0   64.99   13.00
   1  11   0   66.99    9.30
   2  11   0  592.44   36.60
   2  11   0  581.34   37.50
   2  11   0  618.44   36.40
   2  11   0  533.85   40.00
   3  11   0    9.50    7.20
   3  11   0   16.40    5.70
   3  11   0   14.40    6.00
   3  11   0   10.30    8.50
  -4 -11   0  459.35   28.40
   4  11   0  444.16   29.90
   4  11   0  407.96   34.10
   4  11   0  462.55   28.60
   4  11   0  429.86   28.80
   3  11  -1   16.90    5.90
   3  11  -1   14.00    6.00
   3  11  -1   18.60    6.00
   3  11  -1   19.50   11.30
   2  11  -1   -4.50    5.50
   2  11  -1    5.10   10.50
   2  11  -1    5.00    5.50
   2  11  -1    8.10    5.40
   1  11  -1   43.00   12.20
   1  11  -1   34.10    6.10
   1  11  -1   30.10    6.50
   1  11  -1   24.90    8.20
   0  11  -1    1.80    5.80
   0  11  -1    1.00    6.10
   0  11  -1    0.80    5.20
   0  11  -1    7.40   10.70
   5  10  -1   -0.20   10.20
   5  10  -1   -3.90    5.90
   5  10  -1    3.20    7.90
  -5 -10   1    1.70    5.40
   4  10  -1  513.15   33.00
   4  10  -1  528.15   31.70
   4  10  -1  490.55   31.80
   4  10  -1  449.46   34.90
  -4 -10   1  512.55   31.40
   3  10  -1  132.39   11.90
   3  10  -1  113.99   15.80
   3  10  -1  139.79   13.60
   3  10  -1  155.98   11.80
  -3 -10   1  156.88   11.20
   2  10  -1  407.56   26.00
   2  10  -1  452.75   25.80
   2  10  -1  344.87   30.50
   2  10  -1  400.76   27.20
   1  10  -1  502.75   32.30
   1  10  -1  515.25   33.60
   1  10  -1  494.35   36.90
   1  10  -1  538.95   32.20
   0  10  -1   94.59   10.90
   0  10  -1   96.49   13.90
   0  10  -1  108.49    9.20
   0  10  -1  113.79    9.60
  -1  10  -1  338.77   22.30
  -1  10  -1  356.46   28.10
  -1  10  -1  325.77   22.40
  -1  10  -1  328.07   24.40
  -2  10  -1   39.10    7.70
  -2  10  -1   37.50    6.50
  -2  10  -1   28.10    6.20
  -2  10  -1   40.50   12.00
   6   9  -1   -3.30    6.10
   6   9  -1   -2.00    8.20
  -6  -9   1    0.80    5.70
   5   9  -1  573.24   36.20
   5   9  -1  636.94   36.20
   5   9  -1  593.94   37.60
   5   9  -1  521.75   40.20
  -5  -9   1  553.54   35.80
   4   9  -1  236.98   22.80
   4   9  -1  273.77   17.70
   4   9  -1  243.28   17.90
   4   9  -1  259.57   19.30
  -4  -9   1  266.97   17.40
   3   9  -1  524.95   39.00
   3   9  -1  589.54   34.90
   3   9  -1  571.24   35.50
   3   9  -1  553.24   35.00
  -3  -9   1  560.04   34.60
   2   9  -1  503.15   39.10
   2   9  -1  573.74   35.50
   2   9  -1  622.44   35.40
   2   9  -1  573.14   36.00
  -2  -9   1  579.04   35.10
   1   9  -1  250.47   17.60
   1   9  -1  276.97   17.40
   1   9  -1  245.68   19.00
   1   9  -1  236.98   22.30
  -1  -9   1  287.87   17.10
   0   9  -1  900.91   59.19
   0   9  -1  884.11   56.79
   0   9  -1  886.31   55.79
   0   9  -1  997.70   55.69
  -1   9  -1    0.90    4.40
  -1   9  -1    3.00    6.70
  -1   9  -1   -3.10    4.60
  -1   9  -1    5.80    5.20
  -2   9  -1  943.51   58.09
  -2   9  -1  847.22   53.79
  -2   9  -1  884.81   54.99
  -2   9  -1  862.61   53.69
  -3   9  -1  196.78   15.90
  -3   9  -1  200.38   18.60
  -3   9  -1  175.28   14.30
  -3   9  -1  179.18   14.20
   6   8  -1  338.67   22.50
   6   8  -1  348.47   24.90
  -6  -8   1  325.17   22.30
   5   8  -1  129.89   10.10
   5   8  -1  107.59   11.50
   5   8  -1   96.59   13.50
   5   8  -1  103.99    9.20
  -5  -8   1  115.99   10.00
   4   8  -1  173.88   18.50
   4   8  -1  201.48   13.50
   4   8  -1  178.08   13.60
   4   8  -1  192.78   15.30
  -4  -8   1  180.38   13.30
   3   8  -1  340.87   22.30
   3   8  -1  367.86   22.20
   3   8  -1  360.96   23.40
   3   8  -1  324.77   25.10
  -3  -8   1  339.47   22.00
   2   8  -1   11.60    4.30
   2   8  -1    7.80    7.90
   2   8  -1    8.70    3.90
   2   8  -1   14.30    4.10
  -2  -8   1   14.20    3.70
   1   8  -1  816.02   49.90
   1   8  -1  834.92   49.70
   1   8  -1  811.82   50.39
   1   8  -1  758.32   52.19
  -1  -8   1  884.11   49.70
   0   8  -1  162.18   15.30
   0   8  -1  182.98   12.40
   0   8  -1  182.28   12.80
   0   8  -1  169.28   14.20
   0  -8   1  196.18   12.20
  -1   8  -1  738.13   42.50
  -1   8  -1  674.83   42.50
  -1   8  -1  676.23   43.70
  -1   8  -1  673.93   45.70
  -1   8  -1  712.03   43.30
  -2   8  -1  457.65   29.60
  -2   8  -1  495.35   30.90
  -2   8  -1  474.75   32.70
  -2   8  -1  453.65   29.40
  -2   8  -1  483.75   30.70
  -3   8  -1  201.58   14.20
  -3   8  -1  198.98   14.50
  -3   8  -1  207.78   17.40
  -3   8  -1  199.18   17.60
  -3   8  -1  192.88   20.10
  -4   8  -1  569.24   37.00
  -4   8  -1  491.85   34.40
  -4   8  -1  578.64   34.40
  -4   8  -1  574.44   39.70
   7   7  -1   28.60    7.90
   7   7  -1   18.20    6.20
  -7  -7   1   30.10    5.30
   6   7  -1   22.80    5.50
   6   7  -1   11.50    8.30
  -6  -7   1   17.20    5.10
   5   7  -1  216.98   14.90
   5   7  -1  207.88   16.00
   5   7  -1  213.38   14.60
  -5  -7   1  216.78   14.40
   4   7  -1   73.09    7.60
   4   7  -1   59.39    9.40
   4   7  -1   82.49    6.90
   4   7  -1   64.09    6.90
  -4  -7   1   66.79    6.50
  -4  -7   1   79.39    6.50
   3   7  -1  106.89   10.80
   3   7  -1  118.49    9.30
   3   7  -1  104.19    9.40
   3   7  -1  100.79   12.00
  -3  -7   1  142.99    8.00
  -3  -7   1  105.09    9.10
  -3  -7   1  117.99    8.90
   2   7  -1  276.77   17.00
   2   7  -1  267.27   18.10
   2   7  -1  264.27   17.10
   2   7  -1  223.88   20.40
  -2  -7   1  255.97   16.80
  -2  -7   1  291.17   16.80
   1   7  -1    3.40    2.60
   1   7  -1    1.10    3.10
   1   7  -1   -0.50    6.20
   1   7  -1   -0.10    3.10
   1   7  -1    3.70    4.60
  -1  -7   1    1.20    2.40
  -1  -7   1    1.30    1.80
  -1  -7   1    2.10    2.70
   0   7  -1  122.39   10.20
   0   7  -1  148.69   15.60
   0   7  -1  133.39    9.40
   0   7  -1  119.99    9.70
   0   7  -1  136.59    9.70
   0   7  -1  130.09   13.80
   0   7  -1  117.29   10.40
   0  -7   1  137.39    9.40
   0  -7   1  162.58    9.90
   0  -7   1  166.58   10.30
  -1   7  -1   38.30    5.70
  -1   7  -1   58.89   10.50
  -1   7  -1   38.10    6.70
  -1   7  -1   40.10    4.70
  -1   7  -1   45.20    4.80
  -1   7  -1   37.70    8.20
   1  -7   1   43.30    4.30
  -2   7  -1   20.30    5.30
  -2   7  -1   20.40    4.00
  -2   7  -1   33.00    8.00
  -2   7  -1   29.30    4.40
  -2   7  -1   24.90    6.70
  -2   7  -1   28.50    6.40
  -3   7  -1  165.88   11.80
  -3   7  -1  149.09   12.00
  -3   7  -1  171.88   14.50
  -3   7  -1  172.18   17.30
  -4   7  -1    3.50    9.10
  -4   7  -1   11.00    7.50
  -4   7  -1    8.90    4.10
  -4   7  -1    1.20    4.30
  -5   7  -1  169.38   17.10
  -5   7  -1  154.88   11.90
  -5   7  -1  152.58   19.10
   7   6  -1   83.89    8.40
   7   6  -1   77.39   11.60
  -7  -6   1   85.29    8.40
   6   6  -1   58.89    7.20
   6   6  -1   57.09    9.80
  -6  -6   1   77.99    8.40
  -6  -6   1   64.99    7.20
  -6  -6   1   66.49    6.90
   5   6  -1  246.38   18.00
   5   6  -1  260.17   17.40
   5   6  -1  264.87   19.00
  -5  -6   1  265.17   17.90
  -5  -6   1  310.57   18.50
  -5  -6   1  265.27   17.40
   4   6  -1   49.20    6.10
   4   6  -1   45.50    5.10
   4   6  -1   49.60    8.80
   4   6  -1   36.20    5.30
  -4  -6   1   37.10    4.80
  -4  -6   1   48.80    5.70
  -4  -6   1   40.80    5.00
   3   6  -1  483.85   34.30
   3   6  -1  509.85   31.40
   3   6  -1  533.15   32.20
   3   6  -1  508.65   31.50
   3   6  -1  482.75   31.60
  -3  -6   1  472.15   31.50
  -3  -6   1  533.55   31.40
  -3  -6   1  571.04   31.20
   2   6  -1   55.89    5.60
   2   6  -1   82.79   12.20
   2   6  -1   56.39    8.50
   2   6  -1   64.59    5.60
   2   6  -1   64.19    6.70
   2   6  -1   76.09    5.90
  -2  -6   1   56.49    5.40
  -2  -6   1   73.99    5.50
   1   6  -1  163.88   11.10
   1   6  -1  160.88   12.20
   1   6  -1  193.18   11.00
   1   6  -1  157.08   11.20
   1   6  -1  182.78   16.30
   1   6  -1  139.79   13.00
   1   6  -1  168.48   10.90
  -1  -6   1  174.38   10.60
  -1  -6   1  161.58   10.90
   0   6  -1  115.09    8.80
   0   6  -1  110.69   11.70
   0   6  -1  112.39    9.00
   0   6  -1  110.39    8.20
   0   6  -1  121.69   13.40
   0   6  -1  143.09    8.10
   0   6  -1  106.99    8.30
   0   6  -1  111.49    8.00
   0  -6   1  107.29    7.90
   0  -6   1  131.49    8.10
   0  -6   1  121.19    8.40
  -1   6  -1  114.99    8.50
  -1   6  -1  116.59    8.50
  -1   6  -1  129.39   10.10
  -1   6  -1  106.99   12.10
  -1   6  -1  118.29    8.80
  -1   6  -1  112.49    9.50
  -1   6  -1  134.79    8.50
  -1   6  -1  140.49   14.30
   1  -6   1  118.79    8.40
   1  -6   1  136.29    8.30
  -2   6  -1  158.48   11.10
  -2   6  -1  180.48   14.80
  -2   6  -1  147.09   10.90
  -2   6  -1  154.18   10.50
  -2   6  -1  148.89   14.80
  -2   6  -1  168.08   12.70
   2  -6   1  172.98   10.60
  -3   6  -1   45.70    4.60
  -3   6  -1   43.10    7.00
  -3   6  -1   40.10    4.90
  -3   6  -1   45.80    8.90
  -4   6  -1  138.29   11.00
  -4   6  -1  153.78   10.90
  -4   6  -1  160.68   14.50
  -4   6  -1  149.39   14.50
  -5   6  -1    0.50    3.90
  -5   6  -1   -2.40    7.70
  -5   6  -1    0.60    4.00
  -5   6  -1   -0.30    8.60
   7   5  -1    5.00    5.00
   7   5  -1    2.10    6.30
  -7  -5   1   -1.40    5.10
  -7  -5   1    1.30    5.20
  -7  -5   1   15.30    7.10
   6   5  -1 1337.57   87.49
   6   5  -1 1387.06   86.49
  -6  -5   1 1477.25   86.39
  -6  -5   1 1563.84   87.49
  -6  -5   1 1419.76   86.49
   5   5  -1  438.76   27.50
   5   5  -1  435.86   27.10
   5   5  -1  424.76   29.00
  -5  -5   1  423.36   27.40
  -5  -5   1  468.35   28.00
  -5  -5   1  438.86   27.40
   4   5  -1  986.10   58.09
   4   5  -1  919.41   58.09
   4   5  -1 1009.30   59.19
  -4  -5   1  929.61   58.09
  -4  -5   1  995.80   58.29
  -4  -5   1  943.81   57.99
   3   5  -1 1702.43  103.39
   3   5  -1 1642.54  105.29
   3   5  -1 2018.90  107.59
   3   5  -1 1768.82  104.09
   3   5  -1 1668.33  103.59
   3   5  -1 1710.63  103.39
  -3  -5   1 1672.63  103.39
  -3  -5   1 1761.72  103.39
  -3  -5   1 1667.03  103.49
   2   5  -1  587.74   35.20
   2   5  -1  654.53   39.40
   2   5  -1  543.55   35.40
   2   5  -1  541.25   37.30
   2   5  -1  565.64   35.40
   2   5  -1  603.44   36.10
  -2  -5   1  615.14   35.30
  -2  -5   1  596.54   35.00
  -2  -5   1  552.84   35.30
   1   5  -1 2738.73  171.78
   1   5  -1 3082.19  174.48
   1   5  -1 2774.32  171.38
   1   5  -1 2906.31  172.28
   1   5  -1 2557.44  172.68
   1   5  -1 2876.01  171.28
   1   5  -1 3202.38  171.38
  -1  -5   1 2998.40  172.48
  -1  -5   1 2806.42  172.08
   0   5  -1   16.80    2.60
   0   5  -1   13.70    2.90
   0   5  -1   16.30    2.40
   0   5  -1   14.30    2.40
   0   5  -1   12.60    3.70
   0   5  -1   11.30    3.90
   0   5  -1   18.40    2.50
   0   5  -1   21.70    6.30
   0  -5   1   14.60    2.40
   0  -5   1   14.00    2.00
   0  -5   1   26.20    2.40
  -1   5  -1 2007.60  115.59
  -1   5  -1 1767.22  113.49
  -1   5  -1 1749.92  114.39
  -1   5  -1 1859.61  113.49
  -1   5  -1 1820.12  112.89
  -1   5  -1 2048.79  112.89
  -1   5  -1 1731.43  112.79
  -1   5  -1 1888.11  112.89
   1  -5   1 2098.39  112.79
   1  -5   1 1921.71  112.79
   1  -5   1 1964.70  113.49
  -2   5  -1  448.26   30.60
  -2   5  -1  500.15   28.00
  -2   5  -1  453.95   28.00
  -2   5  -1  448.16   29.20
  -2   5  -1  458.85   28.20
  -2   5  -1  494.05   31.10
  -2   5  -1  423.06   28.10
   2  -5   1  473.95   28.00
  -3   5  -1  389.86   26.00
  -3   5  -1  386.96   25.90
  -3   5  -1  430.16   26.10
  -3   5  -1  418.06   29.10
  -3   5  -1  456.55   28.40
  -3   5  -1  401.26   27.70
   3  -5   1  489.65   25.90
  -4   5  -1  424.16   26.00
  -4   5  -1  401.26   26.10
  -4   5  -1  425.76   28.60
  -4   5  -1  442.56   29.10
  -5   5  -1  195.88   12.90
  -5   5  -1  193.28   17.30
  -5   5  -1  193.88   18.50
  -5   5  -1  183.58   13.00
  -6   5  -1  339.67   20.50
  -6   5  -1  318.67   25.50
  -6   5  -1  329.77   26.20
  -6   5  -1  305.17   20.60
   8   4  -1   27.10    5.80
  -8  -4   1   46.60    9.80
  -8  -4   1   22.30    6.10
  -8  -4   1   21.80    6.10
   7   4  -1  661.63   41.20
   7   4  -1  636.94   43.30
  -7  -4   1  652.93   41.40
  -7  -4   1  699.83   41.40
  -7  -4   1  699.43   43.30
   6   4  -1  509.25   35.30
   6   4  -1  554.14   33.70
  -6  -4   1  547.15   35.00
  -6  -4   1  524.65   33.70
  -6  -4   1  584.44   33.70
   5   4  -1  821.82   50.59
   5   4  -1  844.92   50.49
   5   4  -1  815.12   51.79
  -5  -4   1  843.82   50.69
  -5  -4   1  858.31   50.59
  -5  -4   1  836.92   51.39
   4   4  -1 1783.02  106.29
   4   4  -1 1704.03  105.39
   4   4  -1 1758.12  105.49
  -4  -4   1 1773.12  105.39
  -4  -4   1 1732.73  105.79
  -4  -4   1 1848.02  105.49
   3   4  -1  540.35   31.90
   3   4  -1  523.15   31.10
   3   4  -1  506.35   31.30
   3   4  -1  514.35   33.20
   3   4  -1  499.85   31.20
  -3  -4   1  487.65   31.20
  -3  -4   1  525.55   31.30
  -3  -4   1  509.85   31.20
   2   4  -1 2234.98  143.09
   2   4  -1 2413.76  143.09
   2   4  -1 2376.36  143.59
   2   4  -1 2242.38  144.59
   2   4  -1 2649.43  143.19
   2   4  -1 2657.63  146.19
   2   4  -1 2385.06  143.19
  -2  -4   1 2266.47  143.09
  -2  -4   1 2388.96  144.69
  -2  -4   1 2467.15  143.89
   1   4  -1    3.20    1.80
   1   4  -1    2.10    2.10
   1   4  -1    2.20    1.90
   1   4  -1   10.80    1.80
   1   4  -1    2.80    2.80
   1   4  -1    5.40    1.70
   1   4  -1   12.20    5.10
  -1  -4   1    5.40    3.50
  -1  -4   1    0.20    1.70
  -1  -4   1    3.90    1.00
   0   4  -1 2144.99  132.89
   0   4  -1 2110.29  131.89
   0   4  -1 2150.68  132.39
   0   4  -1 2369.26  131.89
   0   4  -1 2249.38  132.29
   0   4  -1 2227.08  133.99
   0   4  -1 2217.48  132.09
   0  -4   1 2272.47  132.19
   0  -4   1 2239.68  133.19
   0  -4   1 2166.98  132.09
  -1   4  -1  516.15   32.20
  -1   4  -1  501.15   32.10
  -1   4  -1  623.24   33.40
  -1   4  -1  516.85   32.20
  -1   4  -1  537.85   32.80
  -1   4  -1  503.55   33.50
  -1   4  -1  555.44   32.20
   1  -4   1  532.15   32.70
   1  -4   1  512.15   32.10
   1  -4   1  566.34   32.10
  -2   4  -1 2143.89  134.39
  -2   4  -1 2234.58  134.29
  -2   4  -1 2163.18  135.69
  -2   4  -1 2496.75  133.99
  -2   4  -1 2137.19  134.29
  -2   4  -1 2153.58  134.89
   2  -4   1 2279.57  134.39
   2  -4   1 2428.96  134.49
  -3   4  -1 1193.88   76.09
  -3   4  -1 1237.68   76.99
  -3   4  -1 1201.68   74.69
  -3   4  -1 1269.07   76.29
  -3   4  -1 1169.98   74.69
  -3   4  -1 1426.96   75.39
  -3   4  -1 1208.88   74.79
   3  -4   1 1313.47   74.69
  -4   4  -1  558.74   38.10
  -4   4  -1  627.24   36.80
  -4   4  -1  557.24   36.10
  -4   4  -1  588.54   38.60
  -4   4  -1  579.34   36.70
  -4   4  -1  588.74   36.10
   4  -4   1  673.63   36.00
  -5   4  -1 1089.49   65.79
  -5   4  -1 1058.59   62.39
  -5   4  -1  977.40   62.39
  -5   4  -1 1044.40   64.89
  -6   4  -1    8.30    8.50
  -6   4  -1    4.80    3.50
  -6   4  -1    5.60    3.40
  -6   4  -1   -2.80    8.40
  -8  -3   1   46.30    6.80
  -8  -3   1   75.59   11.10
  -8  -3   1   53.19    6.80
   7   3  -1   53.69    5.80
   7   3  -1   41.20    7.40
  -7  -3   1   51.19    5.40
  -7  -3   1   56.09    9.10
  -7  -3   1   46.60    6.00
   6   3  -1  136.99    9.50
   6   3  -1  101.59   11.60
  -6  -3   1  144.19   11.50
  -6  -3   1  128.99   10.20
  -6  -3   1  146.79   10.30
   5   3  -1  279.57   17.50
   5   3  -1  236.68   18.50
   5   3  -1  267.67   17.70
  -5  -3   1  270.77   17.50
  -5  -3   1  301.47   17.90
  -5  -3   1  291.17   17.80
  -5  -3   1  297.67   19.10
   4   3  -1   72.49   10.40
   4   3  -1   43.30    3.90
   4   3  -1   42.60    4.30
   4   3  -1   32.20    5.60
  -4  -3   1   44.70    3.90
  -4  -3   1   40.00    5.00
  -4  -3   1   37.70    3.80
  -4  -3   1   44.20    4.00
   3   3  -1 1211.48   74.39
   3   3  -1 1227.28   74.49
   3   3  -1 1248.08   75.09
   3   3  -1 1317.87   74.39
  -3  -3   1 1221.88   74.39
  -3  -3   1 1255.67   74.29
  -3  -3   1 1257.37   74.69
  -3  -3   1 1228.18   74.39
   2   3  -1  312.77   18.30
   2   3  -1  302.97   18.40
   2   3  -1  297.27   18.50
   2   3  -1  296.67   18.90
   2   3  -1  304.97   20.00
   2   3  -1  328.87   18.40
   2   3  -1  331.77   21.00
  -2  -3   1  287.97   18.40
  -2  -3   1  292.57   18.30
  -2  -3   1  282.77   18.40
  -2  -3   1  283.87   18.40
   1   3  -1 3398.76  195.18
   1   3  -1 3283.17  195.08
   1   3  -1 2865.41  198.58
   1   3  -1 3032.80  196.18
   1   3  -1 3087.19  195.08
   1   3  -1 3070.79  195.08
  -1  -3   1 3640.04  195.18
  -1  -3   1 3742.43  200.58
  -1  -3   1 3260.17  194.88
  -1  -3   1 3368.26  195.38
  -1  -3   1 3356.66  195.88
  -1  -3   1 3135.29  194.98
   0   3  -1 1090.19   65.69
   0   3  -1 1062.29   65.69
   0   3  -1 1080.99   65.79
   0   3  -1 1026.00   66.59
   0   3  -1 1228.98   65.79
   0   3  -1 1049.20   66.09
   0   3  -1 1132.29   66.79
   0  -3   1 1045.90   66.59
   0  -3   1 1166.18   65.69
   0  -3   1 1139.69   65.69
   0  -3   1 1202.18   66.79
   0  -3   1 1038.60   65.69
   0  -3   1 1099.69   65.69
  -1   3  -1 1632.44  101.99
  -1   3  -1 1549.45  101.39
  -1   3  -1 1691.33  100.89
  -1   3  -1 1578.44  100.79
  -1   3  -1 1783.52  100.89
  -1   3  -1 1605.54  100.69
   1  -3   1 1673.63  100.79
   1  -3   1 1704.33  100.89
   1  -3   1 1674.93  100.79
   1  -3   1 1890.41  101.59
   1  -3   1 1800.62  100.89
  -2   3  -1 1534.05   83.29
  -2   3  -1 1257.07   83.49
  -2   3  -1 1401.26   84.19
  -2   3  -1 1405.36   83.29
  -2   3  -1 1398.46   83.49
  -2   3  -1 1345.07   84.69
   2  -3   1 1454.55   83.29
  -3   3  -1   56.89    7.40
  -3   3  -1   58.19    6.30
  -3   3  -1   60.59    4.70
  -3   3  -1   77.89    5.60
  -3   3  -1   55.79    4.80
  -3   3  -1   61.39    4.70
  -3   3  -1   67.19    4.70
  -3   3  -1   56.99    6.60
   3  -3   1   67.69    4.60
  -4   3  -1 1377.16   75.19
  -4   3  -1 1211.98   75.79
  -4   3  -1 1249.47   76.69
  -4   3  -1 1191.58   75.29
  -4   3  -1 1226.48   75.19
  -4   3  -1 1292.67   75.19
  -4   3  -1 1290.37   77.59
  -4   3  -1 1237.38   74.99
  -4   3  -1 1263.97   75.09
  -5   3  -1   72.39    5.90
  -5   3  -1   65.19    8.00
  -5   3  -1   58.89    8.30
  -5   3  -1   65.29    5.90
  -6   3  -1  744.83   47.20
  -6   3  -1  704.83   43.40
  -6   3  -1  675.73   43.30
  -6   3  -1  755.72   46.80
  -7   3  -1  169.78   11.60
  -7   3  -1  171.38   18.30
  -7   3  -1  146.29   15.50
  -8  -2   1    2.80    4.90
  -8  -2   1   14.10    5.00
  -8  -2   1   13.90    9.40
   7   2  -1   38.60    5.00
  -7  -2   1   29.80    5.30
  -7  -2   1   26.60    5.10
  -7  -2   1   46.60    9.00
   6   2  -1    9.30    2.80
   6   2  -1    1.40    4.50
  -6  -2   1    1.10    2.80
  -6  -2   1    6.80    3.40
  -6  -2   1    9.50    6.30
   5   2  -1   16.20    3.00
   5   2  -1    7.80    5.10
   5   2  -1   24.00    4.90
   5   2  -1   19.10    3.30
   5   2  -1   25.30    6.30
  -5  -2   1   14.10    4.20
  -5  -2   1   15.10    3.60
  -5  -2   1   13.30    3.50
  -5  -2   1   16.50    3.10
   4   2  -1   18.20    2.70
   4   2  -1   26.50    5.70
   4   2  -1   19.90    2.80
   4   2  -1   32.70    4.30
   4   2  -1   13.80    4.30
  -4  -2   1   15.10    2.50
  -4  -2   1   17.10    4.30
  -4  -2   1   18.30    3.20
  -4  -2   1   24.10    2.50
   3   2  -1   79.69    5.70
   3   2  -1   78.79    7.00
   3   2  -1   82.99    5.90
   3   2  -1   79.19    5.50
   3   2  -1  107.29    9.50
  -3  -2   1   78.79    5.90
  -3  -2   1   79.09    5.50
  -3  -2   1   84.79    5.90
  -3  -2   1   72.89    6.50
   2   2  -1  357.86   21.90
   2   2  -1  379.46   22.40
   2   2  -1  383.56   22.00
   2   2  -1  333.37   21.90
   2   2  -1  352.76   22.00
  -2  -2   1  391.86   21.90
  -2  -2   1  346.97   21.90
  -2  -2   1  398.46   22.20
  -2  -2   1  359.46   22.00
  -2  -2   1  341.67   22.20
  -2  -2   1  355.96   21.90
   1   2  -1    2.20    1.00
   1   2  -1    1.30    1.20
   1   2  -1    2.90    1.10
   1   2  -1    1.80    0.80
   1   2  -1    3.40    2.00
   1   2  -1    2.30    0.90
   1   2  -1    3.30    2.00
  -1  -2   1    2.60    1.00
  -1  -2   1    2.00    0.70
  -1  -2   1    1.20    1.10
  -1  -2   1    1.50    0.70
  -1  -2   1    3.60    0.90
  -1  -2   1    1.60    1.90
  -1  -2   1    1.50    1.00
   0   2  -1  320.37   19.80
   0   2  -1  307.67   19.80
   0   2  -1  317.67   19.80
   0   2  -1  336.97   19.80
   0   2  -1  311.27   20.40
   0   2  -1  303.37   20.10
   0   2  -1  341.77   19.80
   0  -2   1  346.97   19.80
   0  -2   1  319.37   19.70
   0  -2   1  332.37   20.00
   0  -2   1  327.47   19.80
   0  -2   1  363.56   20.50
   0  -2   1  326.27   19.80
   0  -2   1  371.26   19.80
  -1   2  -1  925.61   52.79
  -1   2  -1  909.31   52.89
  -1   2  -1  864.81   53.39
  -1   2  -1  816.52   52.89
  -1   2  -1  868.71   52.99
  -1   2  -1  830.82   52.69
   1  -2   1  938.11   52.79
   1  -2   1  861.31   52.59
   1  -2   1  876.51   52.49
   1  -2   1  887.91   52.99
   1  -2   1  952.20   52.89
  -2   2  -1   13.40    1.50
  -2   2  -1   16.00    3.10
  -2   2  -1   14.90    3.00
  -2   2  -1   15.00    1.60
  -2   2  -1   13.70    1.60
   2  -2   1   18.80    1.50
   2  -2   1   19.30    2.80
   2  -2   1   17.60    1.50
   2  -2   1   15.80    1.50
  -3   2  -1  633.44   41.80
  -3   2  -1  671.33   40.70
  -3   2  -1  678.73   40.70
  -3   2  -1  658.13   40.70
  -3   2  -1  649.24   41.30
  -3   2  -1  673.53   40.80
  -3   2  -1  719.53   40.70
   3  -2   1  699.63   40.70
   3  -2   1  744.43   40.70
  -4   2  -1   36.40    3.30
  -4   2  -1   39.20    3.40
  -4   2  -1   30.50    6.00
  -4   2  -1   40.00    3.40
  -4   2  -1   35.50    2.40
  -4   2  -1   40.20    3.50
   4  -2   1   40.80    3.30
   4  -2   1   35.50    3.20
  -5   2  -1  404.46   24.10
  -5   2  -1  387.66   24.10
  -5   2  -1  397.86   24.00
  -5   2  -1  386.16   26.10
   5  -2   1  386.16   23.90
  -6   2  -1  136.09   14.70
  -6   2  -1  129.09    9.40
  -6   2  -1  129.99    9.50
  -7   2  -1  101.59    7.80
  -7   2  -1   93.19    8.00
  -7   2  -1  101.59   11.40
  -7   2  -1   77.89   12.10
  -8  -1   1   49.99    9.20
  -8  -1   1   53.69    6.30
  -8  -1   1   49.99    6.10
  -7  -1   1  516.75   33.10
  -7  -1   1  533.25   33.10
  -7  -1   1  563.34   36.40
   6   1  -1   23.80    3.90
  -6  -1   1   21.70    4.10
  -6  -1   1   22.30    4.10
  -6  -1   1   18.00    7.10
   5   1  -1  572.64   35.70
   5   1  -1  702.93   37.00
   5   1  -1  532.45   35.70
  -5  -1   1  582.54   35.90
  -5  -1   1  603.44   35.80
  -5  -1   1  576.24   35.80
  -5  -1   1  547.25   37.40
   4   1  -1  349.87   21.00
   4   1  -1  392.46   22.70
   4   1  -1  328.07   20.90
   4   1  -1  291.77   21.80
  -4  -1   1  340.27   21.10
  -4  -1   1  341.37   21.00
  -4  -1   1  368.36   21.00
  -4  -1   1  313.27   21.90
   3   1  -1  371.36   21.70
   3   1  -1  319.87   20.10
   3   1  -1  339.47   20.00
   3   1  -1  315.67   19.90
   3   1  -1  291.47   20.60
  -3  -1   1  328.57   20.00
  -3  -1   1  377.96   20.10
  -3  -1   1  325.47   20.00
  -3  -1   1  325.47   20.10
  -3  -1   1  296.07   20.60
   2   1  -1 1213.48   73.99
   2   1  -1 1109.59   73.69
   2   1  -1 1204.78   73.99
   2   1  -1 1258.97   73.69
   2   1  -1 1159.18   73.69
   2   1  -1 1279.67   73.69
  -2  -1   1 1274.57   73.69
  -2  -1   1 1151.18   74.09
  -2  -1   1 1264.07   73.79
  -2  -1   1 1188.78   73.69
  -2  -1   1 1334.17   73.79
  -2  -1   1 1435.26   74.09
   1   1  -1  335.37   19.90
   1   1  -1  320.77   19.90
   1   1  -1  326.07   19.90
   1   1  -1  339.77   20.00
   1   1  -1  320.07   19.90
   1   1  -1  364.86   20.40
   1   1  -1  341.87   20.10
  -1  -1   1  319.17   19.90
  -1  -1   1  343.27   20.10
  -1  -1   1  328.27   19.90
  -1  -1   1  325.87   19.90
  -1  -1   1  336.17   19.90
  -1  -1   1  319.57   20.00
   0   1  -1 3820.42  246.98
   0  -1   1 4456.05  245.98
   0  -1   1 4125.09  245.78
   0  -1   1 4150.08  247.08
  -1   1  -1  165.58   10.40
  -1   1  -1  185.58   10.40
  -1   1  -1  169.18   10.40
  -1   1  -1  166.78   10.90
  -1   1  -1  170.98   10.40
   1  -1   1  182.68   10.40
   1  -1   1  183.48   10.40
   1  -1   1  172.28   10.80
   1  -1   1  168.08   10.40
  -2   1  -1  669.03   41.10
  -2   1  -1  671.33   40.60
  -2   1  -1  677.53   40.60
  -2   1  -1  636.84   41.10
  -2   1  -1  722.33   40.60
  -2   1  -1  678.63   40.80
  -2   1  -1  627.54   41.30
   2  -1   1  727.03   40.60
   2  -1   1  652.73   41.20
   2  -1   1  698.83   40.60
   2  -1   1  689.93   40.50
   2  -1   1  725.13   40.60
  -3   1  -1   84.69    6.20
  -3   1  -1  107.69    6.20
  -3   1  -1   98.19    6.10
  -3   1  -1   92.09    6.00
  -3   1  -1   89.39    7.40
  -3   1  -1   97.29    6.10
  -3   1  -1   83.99    6.70
   3  -1   1   99.69    6.10
   3  -1   1   98.19    6.00
  -4   1  -1  116.59    7.40
  -4   1  -1  106.09    7.70
  -4   1  -1  106.49    9.40
  -4   1  -1  121.49    7.70
  -4   1  -1  135.69    7.70
  -4   1  -1  116.79    7.70
  -4   1  -1  115.19    7.80
   4  -1   1  115.79    7.70
   4  -1   1  126.09    7.60
  -5   1  -1   12.90    2.80
  -5   1  -1   12.60    2.80
  -5   1  -1   12.10    2.50
  -5   1  -1   16.40    6.10
   5  -1   1   18.40    2.60
   5  -1   1   14.10    2.20
  -6   1  -1   59.89    9.30
  -6   1  -1   55.69    5.00
  -6   1  -1   56.69    5.00
  -7   1  -1    9.10    3.60
  -7   1  -1    4.10    8.60
  -7   1  -1    6.20    3.40
  -8   0   1  484.15   30.60
  -8   0   1  493.65   30.80
  -8   0   1  492.55   33.90
  -7   0   1  104.79   13.30
  -7   0   1  123.99    9.70
  -7   0   1  135.89   10.10
  -6   0   1  523.25   30.90
  -6   0   1  477.85   32.90
  -6   0   1  507.25   31.00
  -5   0   1  967.50   64.09
  -5   0   1 1055.09   62.39
  -5   0   1 1126.09   63.69
  -5   0   1 1029.80   62.39
   4   0  -1  231.38   13.30
   4   0  -1  201.98   13.60
   4   0  -1  213.48   13.70
  -4   0   1  224.98   13.70
  -4   0   1  220.98   13.60
  -4   0   1  198.28   15.40
  -4   0   1  213.48   13.70
   3   0  -1 2837.52  184.38
   3   0  -1 2838.72  186.18
   3   0  -1 3043.40  184.18
   3   0  -1 3212.88  184.78
   3   0  -1 3030.50  184.18
  -3   0   1 3581.04  184.58
  -3   0   1 3202.68  184.48
  -3   0   1 3278.57  183.58
  -3   0   1 2876.11  185.88
  -3   0   1 2959.10  183.68
   2   0  -1  396.16   23.20
   2   0  -1  390.56   23.70
   2   0  -1  391.76   23.20
   2   0  -1  362.96   23.20
   2   0  -1  400.86   23.20
   2   0  -1  381.36   23.50
  -2   0   1  335.97   23.70
  -2   0   1  452.55   23.30
  -2   0   1  380.96   23.20
  -2   0   1  373.86   23.20
  -2   0   1  378.36   23.20
   1   0  -1  825.62   48.90
   1   0  -1  840.52   48.90
   1   0  -1  820.42   48.80
   1   0  -1  867.21   49.60
   1   0  -1  791.32   48.90
   1   0  -1  809.22   48.90
  -1   0   1  840.12   48.90
  -1   0   1  788.32   48.90
  -1   0   1  743.73   48.70
  -1   0   1  781.72   49.10
  -1   0   1  785.52   48.80
  -1   0   1  956.10   49.40
   0   0  -1  988.90   62.69
   0   0  -1  993.30   64.79
   0   0  -1 1145.19   64.49
   0   0  -1 1079.99   63.09
   0   0   1 1006.00   64.69
   0   0   1 1025.10   62.99
   0   0   1 1034.70   62.69
   0   0   1 1042.00   62.69
   0   0   1 1163.28   63.89
  -1   0  -1  233.68   14.30
  -1   0  -1  230.98   14.80
  -1   0  -1  239.78   14.50
  -1   0  -1  232.28   14.30
  -1   0  -1  251.07   14.30
  -1   0  -1  244.08   14.30
   1   0   1  231.48   14.80
   1   0   1  248.68   14.30
   1   0   1  240.48   14.20
   1   0   1  244.38   14.50
   1   0   1  235.88   14.20
  -2   0  -1 1967.30  124.29
  -2   0  -1 1952.90  125.19
  -2   0  -1 1886.11  125.89
  -2   0  -1 2083.59  123.59
  -2   0  -1 2200.68  123.69
  -2   0  -1 2083.69  123.69
  -2   0  -1 2022.20  123.09
   2   0   1 2110.89  123.09
   2   0   1 2102.59  126.59
   2   0   1 2135.09  123.49
   2   0   1 2145.69  124.49
   2   0   1 2199.08  123.39
   2   0   1 2007.70  123.29
  -3   0  -1  634.64   41.10
  -3   0  -1  706.43   40.20
  -3   0  -1  632.24   40.40
  -3   0  -1  709.93   40.20
  -3   0  -1  669.03   40.20
  -3   0  -1  754.62   40.20
  -3   0  -1  575.04   40.80
   3   0   1  681.73   40.20
   3   0   1  703.13   40.30
   3   0   1  683.53   40.10
   3   0   1  651.73   40.70
  -4   0  -1 1630.74   97.69
  -4   0  -1 1381.56   97.49
  -4   0  -1 1855.71   96.49
  -4   0  -1 1642.04   96.39
  -4   0  -1 1498.05   96.49
  -4   0  -1 1730.43   96.39
  -4   0  -1 1671.43   96.39
   4   0   1 1564.64   96.39
   4   0   1 1616.94   98.49
  -5   0  -1   65.89    5.30
  -5   0  -1   62.59    5.30
  -5   0  -1   56.09    5.10
  -5   0  -1   51.49    7.60
  -5   0  -1   71.39    5.10
   5   0   1   56.79    5.00
   5   0   1   57.99    5.00
  -6   0  -1  500.85   31.80
  -6   0  -1  525.95   34.00
  -6   0  -1  542.15   31.90
  -7   0  -1    0.00    5.90
  -7   0  -1    8.10    3.70
  -7   0  -1    0.10    3.30
  -8   0  -1  206.28   14.10
  -8   0  -1  188.38   17.60
  -8   0  -1  194.58   13.50
  -7   1   1  365.06   23.30
  -7   1   1  378.86   27.80
  -7   1   1  359.26   23.20
   6  -1  -1  534.55   32.40
  -6   1   1  538.65   32.60
  -6   1   1  534.35   34.80
  -6   1   1  514.65   32.40
   5  -1  -1  417.46   25.50
  -5   1   1  414.46   25.60
  -5   1   1  413.26   25.60
  -5   1   1  421.66   27.50
   4  -1  -1 1002.20   62.09
  -4   1   1 1122.59   62.09
  -4   1   1 1023.90   61.99
  -4   1   1 1031.90   63.59
  -4   1   1 1009.70   62.09
   3  -1  -1  190.28   12.60
  -3   1   1  192.68   12.50
  -3   1   1  189.58   13.60
  -3   1   1  229.88   12.70
  -3   1   1  213.28   12.60
  -3   1   1  197.18   12.60
   2  -1  -1 1646.14   90.69
   2  -1  -1 1543.65   90.49
   2  -1  -1 1631.24   89.89
   2  -1  -1 1470.85   89.89
  -2   1   1 1380.46   90.49
  -2   1   1 1360.86   90.19
  -2   1   1 1528.45   89.89
  -2   1   1 1430.96   90.39
  -2   1   1 1611.14   89.89
   1  -1  -1  193.88   11.60
   1  -1  -1  196.68   11.60
   1  -1  -1  196.38   12.20
   1  -1  -1  204.48   11.60
   1  -1  -1  198.78   11.60
   1  -1  -1  186.48   11.90
   1  -1  -1  209.88   11.60
  -1   1   1  176.58   12.20
  -1   1   1  179.98   11.70
  -1   1   1  180.68   12.00
  -1   1   1  196.08   11.60
  -1   1   1  175.08   11.60
  -1   1   1  187.38   11.50
  -1   1   1  179.08   11.50
  -1   1   1  210.38   11.60
   0  -1  -1 4320.87  250.27
   0  -1  -1 3803.32  247.28
   0  -1  -1 4410.56  245.58
   0  -1  -1 3968.40  245.28
   0  -1  -1 4630.24  247.68
   0  -1  -1 3609.24  247.18
   0   1   1 3902.21  245.38
   0   1   1 3784.32  247.28
   0   1   1 4181.68  250.27
   0   1   1 4422.06  245.48
   0   1   1 4088.99  245.48
   0   1   1 4425.06  247.48
  -1  -1  -1 2413.86  136.39
  -1  -1  -1 2091.89  133.39
  -1  -1  -1 2023.40  133.19
  -1  -1  -1 2050.49  133.49
  -1  -1  -1 2208.18  133.39
  -1  -1  -1 2470.05  133.59
  -1  -1  -1 2233.38  137.99
  -1  -1  -1 2400.96  135.69
   1   1   1 2239.78  138.49
   1   1   1 2157.08  133.29
   1   1   1 2368.86  135.59
   1   1   1 2261.77  136.29
   1   1   1 2055.99  133.49
   1   1   1 2277.47  133.49
   1   1   1 2328.37  133.49
  -2  -1  -1 2704.43  161.78
  -2  -1  -1 2569.34  161.98
  -2  -1  -1 2595.94  161.98
  -2  -1  -1 2968.00  161.98
  -2  -1  -1 2729.73  164.18
  -2  -1  -1 2536.55  165.88
  -2  -1  -1 3088.59  163.48
   2   1   1 2683.03  163.88
   2   1   1 2459.65  165.78
   2   1   1 2700.73  162.08
   2   1   1 2505.65  162.68
   2   1   1 2964.90  162.28
   2   1   1 2806.72  162.08
  -3  -1  -1 2300.77  134.59
  -3  -1  -1 2603.64  132.89
  -3  -1  -1 2001.70  134.89
  -3  -1  -1 2201.98  132.19
  -3  -1  -1 2229.48  132.59
  -3  -1  -1 2334.37  132.69
  -3  -1  -1 2032.80  133.29
   3   1   1 2324.37  134.19
   3   1   1 2019.20  135.89
   3   1   1 2145.99  132.19
   3   1   1 2238.08  132.29
  -4  -1  -1  156.88    9.80
  -4  -1  -1  147.99   11.00
  -4  -1  -1  148.79    9.90
  -4  -1  -1  147.89   10.40
  -4  -1  -1  144.99   11.80
  -4  -1  -1  176.18    9.90
  -4  -1  -1  160.18    9.90
   4   1   1  157.58    9.80
   4   1   1  154.08   10.30
   4   1   1  135.39   11.10
   4   1   1  157.28    9.60
  -5  -1  -1 2379.26  146.89
  -5  -1  -1 2830.62  145.69
  -5  -1  -1 2558.84  145.49
  -5  -1  -1 2565.74  146.99
  -5  -1  -1 2327.87  145.49
  -5  -1  -1 2309.97  145.49
   5   1   1 2300.27  146.19
   5   1   1 2223.58  145.39
   5   1   1 2561.64  145.59
   5   1   1 2408.86  145.39
  -6  -1  -1  172.48   12.00
  -6  -1  -1  182.08   12.00
  -6  -1  -1  184.28   15.50
   6   1   1  171.68   11.60
  -7  -1  -1 1193.98   70.59
  -7  -1  -1 1191.68   73.29
  -7  -1  -1 1141.59   70.59
  -8  -1  -1  481.55   30.50
  -8  -1  -1  501.85   34.70
  -7   2   1  188.78   17.80
  -7   2   1  187.28   18.70
  -7   2   1  171.48   12.30
  -7   2   1  155.68   12.20
  -6   2   1   30.80    4.50
  -6   2   1   33.80    8.20
  -6   2   1   28.90    4.20
  -6   2   1   34.60    8.90
   5  -2  -1  544.35   33.30
  -5   2   1  539.35   33.30
  -5   2   1  556.64   35.90
  -5   2   1  549.74   33.30
   4  -2  -1    2.20    2.10
   4  -2  -1    1.80    1.80
  -4   2   1    2.60    3.90
  -4   2   1    5.80    2.30
  -4   2   1    2.30    2.30
  -4   2   1    3.00    2.20
  -4   2   1    0.10    2.10
   3  -2  -1 2299.87  129.79
   3  -2  -1 2162.08  129.79
  -3   2   1 2133.19  130.09
  -3   2   1 2116.39  129.89
  -3   2   1 2105.19  130.69
  -3   2   1 2163.88  129.39
  -3   2   1 1970.20  130.49
  -3   2   1 2460.35  129.49
   2  -2  -1  176.88   10.20
   2  -2  -1  168.68   10.20
  -2   2   1  147.69   10.20
  -2   2   1  165.68   11.20
  -2   2   1  169.78   10.20
  -2   2   1  169.28   10.20
  -2   2   1  167.48   10.20
  -2   2   1  158.58   10.00
  -2   2   1  154.48   11.50
   1  -2  -1 4328.67  266.77
   1  -2  -1 4466.55  269.77
   1  -2  -1 5000.10  267.67
   1  -2  -1 3863.11  268.77
   1  -2  -1 4654.23  271.37
   1  -2  -1 5125.89  267.57
  -1   2   1 3837.02  269.57
  -1   2   1 5168.68  267.57
  -1   2   1 4204.88  271.17
  -1   2   1 4600.04  268.97
  -1   2   1 4566.24  267.27
  -1   2   1 4256.67  267.07
  -1   2   1 4230.18  271.27
  -1   2   1 4531.25  267.07
   0  -2  -1 1122.89   77.39
   0  -2  -1 1189.78   76.89
   0  -2  -1 1346.47   76.79
   0  -2  -1 1452.25   78.19
   0  -2  -1 1310.37   76.99
   0  -2  -1 1377.56   77.89
   0  -2  -1 1286.77   76.79
   0  -2  -1 1286.97   76.79
   0   2   1 1315.17   77.99
   0   2   1 1233.18   78.49
   0   2   1 1299.47   76.79
   0   2   1 1211.78   76.69
   0   2   1 1292.17   77.89
   0   2   1 1359.66   76.69
   0   2   1 1384.26   77.49
   0   2   1 1123.79   76.29
  -1  -2  -1 1230.58   71.79
  -1  -2  -1 1202.58   71.79
  -1  -2  -1 1199.68   71.49
  -1  -2  -1 1168.58   71.99
  -1  -2  -1 1079.49   71.29
  -1  -2  -1 1119.19   72.79
  -1  -2  -1 1335.07   71.59
   1   2   1 1076.09   71.19
   1   2   1 1227.48   71.59
   1   2   1 1244.48   72.19
   1   2   1 1198.18   72.09
   1   2   1 1289.17   71.49
   1   2   1 1176.28   71.49
   1   2   1 1164.98   72.59
   1   2   1 1287.47   71.89
  -2  -2  -1 3571.54  201.38
  -2  -2  -1 3392.26  200.78
  -2  -2  -1 3202.88  202.38
  -2  -2  -1 3262.47  200.58
  -2  -2  -1 3036.30  206.18
  -2  -2  -1 3379.46  200.58
  -2  -2  -1 3723.03  200.68
   2   2   1 3293.07  201.38
   2   2   1 3294.67  200.48
   2   2   1 3210.58  206.18
   2   2   1 3512.55  205.78
   2   2   1 3538.05  203.08
   2   2   1 3139.89  200.28
   2   2   1 3674.03  200.68
   2   2   1 3178.98  200.48
  -3  -2  -1  135.69    9.00
  -3  -2  -1  113.39   11.90
  -3  -2  -1  145.69    9.20
  -3  -2  -1  146.29    9.20
  -3  -2  -1  170.08    9.50
  -3  -2  -1  127.09   10.50
  -3  -2  -1  140.69   10.00
  -3  -2  -1  163.18    9.20
   3   2   1  142.99    8.90
   3   2   1  141.89    9.10
   3   2   1  159.68   10.20
   3   2   1  128.49    9.40
   3   2   1  135.79   11.50
   3   2   1  143.39    9.00
  -4  -2  -1 2457.15  142.69
  -4  -2  -1 2166.98  143.39
  -4  -2  -1 2483.25  142.39
  -4  -2  -1 2508.15  141.69
  -4  -2  -1 2410.56  141.79
  -4  -2  -1 2275.47  142.39
   4   2   1 2231.28  142.19
   4   2   1 2549.65  145.59
   4   2   1 2274.77  141.69
   4   2   1 2485.85  141.69
  -5  -2  -1  680.03   42.30
  -5  -2  -1  658.93   43.00
  -5  -2  -1  746.53   42.40
  -5  -2  -1  697.93   43.50
  -5  -2  -1  740.23   42.20
   5   2   1  613.24   42.80
   5   2   1  694.63   42.20
   5   2   1  769.62   44.30
  -6  -2  -1  738.93   46.70
  -6  -2  -1  725.13   48.50
  -6  -2  -1  778.32   46.70
   6   2   1  720.63   46.50
   6   2   1  884.31   48.40
  -7  -2  -1  648.04   39.70
  -7  -2  -1  648.44   39.80
  -7  -2  -1  664.53   42.50
   7   2   1  642.34   39.80
  -8  -2  -1   84.79    8.00
  -8  -2  -1   88.49    7.70
  -8  -2  -1   82.09   12.10
  -7   3   1    5.50    3.80
  -7   3   1    2.50    4.20
  -7   3   1    9.10    9.80
  -7   3   1   -2.70    8.20
  -6   3   1    7.30    3.60
  -6   3   1    0.30    3.30
  -6   3   1    4.40    8.20
  -6   3   1    2.50    7.60
   5  -3  -1    0.30    2.80
  -5   3   1    5.70    3.30
  -5   3   1    4.10    2.90
  -5   3   1    5.00    7.10
  -5   3   1    0.30    6.30
   4  -3  -1   65.09    5.20
   4  -3  -1   62.49    5.20
  -4   3   1   65.29    8.00
  -4   3   1   56.89    8.10
  -4   3   1   67.09    5.60
  -4   3   1   60.59    5.40
  -4   3   1   61.79    5.40
  -4   3   1   69.09    5.70
   3  -3  -1  160.38   10.10
   3  -3  -1  157.48   10.20
  -3   3   1  179.68   10.30
  -3   3   1  153.18   10.10
  -3   3   1  150.98   11.90
  -3   3   1  143.09   12.50
  -3   3   1  155.08   10.20
   2  -3  -1   15.20    2.10
   2  -3  -1   17.00    2.00
  -2   3   1   21.30    2.20
  -2   3   1   14.70    3.20
  -2   3   1   16.40    2.30
  -2   3   1   14.00    4.00
  -2   3   1   15.40    4.10
  -2   3   1   13.90    2.20
  -2   3   1   14.80    2.20
  -2   3   1   17.70    2.10
   1  -3  -1  189.98   12.20
   1  -3  -1  192.88   11.00
   1  -3  -1  184.08   11.80
   1  -3  -1  161.38   11.80
   1  -3  -1  180.18   10.90
   1  -3  -1  178.58   10.80
  -1   3   1  167.88   11.00
  -1   3   1  172.88   12.10
  -1   3   1  163.18   12.40
  -1   3   1  170.58   10.90
  -1   3   1  186.18   11.60
  -1   3   1  164.58   10.90
  -1   3   1  193.28   11.00
  -1   3   1  171.88   12.30
   0  -3  -1   64.99    8.10
   0  -3  -1   83.19    5.60
   0  -3  -1   92.19    6.50
   0  -3  -1   90.69    6.60
   0  -3  -1   71.29    6.90
   0  -3  -1   88.39    5.40
   0  -3  -1   90.69    5.60
   0  -3  -1   84.79    5.50
   0   3   1   78.49    5.50
   0   3   1   83.79    5.60
   0   3   1   79.29    7.60
   0   3   1   89.39    6.60
   0   3   1   84.09    6.70
   0   3   1   99.49    5.60
   0   3   1   83.99    5.50
   0   3   1   90.19    6.50
  -1  -3  -1  460.65   33.70
  -1  -3  -1  510.45   31.70
  -1  -3  -1  474.65   32.70
  -1  -3  -1  580.04   31.80
  -1  -3  -1  531.25   31.70
  -1  -3  -1  547.05   31.80
  -1  -3  -1  508.45   31.70
   1   3   1  580.24   32.60
   1   3   1  536.35   31.90
   1   3   1  500.45   32.90
   1   3   1  517.85   33.50
   1   3   1  551.94   31.80
   1   3   1  510.25   31.70
   1   3   1  578.84   31.80
   1   3   1  546.65   31.70
  -2  -3  -1   20.40    2.20
  -2  -3  -1   20.00    5.70
  -2  -3  -1   25.70    3.90
  -2  -3  -1   26.00    2.60
  -2  -3  -1   32.10    2.50
  -2  -3  -1   37.80    4.90
  -2  -3  -1   24.30    2.60
  -2  -3  -1   22.50    2.10
   2   3   1   27.90    3.90
   2   3   1   25.60    4.00
   2   3   1   20.80    2.30
   2   3   1   23.90    2.30
   2   3   1   24.00    2.40
   2   3   1   21.50    2.30
   2   3   1   22.80    5.10
   2   3   1   24.30    2.90
  -3  -3  -1  573.14   33.80
  -3  -3  -1  473.05   36.40
  -3  -3  -1  623.34   34.00
  -3  -3  -1  502.05   35.00
  -3  -3  -1  553.74   33.70
  -3  -3  -1  652.23   33.90
  -3  -3  -1  553.94   33.80
   3   3   1  612.44   36.60
   3   3   1  531.35   33.80
   3   3   1  552.94   34.10
   3   3   1  547.45   33.70
   3   3   1  553.94   33.70
  -4  -3  -1  143.99    9.20
  -4  -3  -1  141.29    8.90
  -4  -3  -1  119.79   11.30
  -4  -3  -1  139.99   10.40
  -4  -3  -1  140.09    9.30
  -4  -3  -1  105.99   13.40
   4   3   1  136.39    8.70
   4   3   1  164.18   13.80
   4   3   1  135.89    9.10
   4   3   1  121.59   10.00
  -5  -3  -1   70.99    8.30
  -5  -3  -1   61.99    7.50
  -5  -3  -1   68.49    5.90
  -5  -3  -1   63.79    5.60
  -5  -3  -1   74.39    5.70
   5   3   1   61.79    7.00
   5   3   1   68.89    5.70
   5   3   1   72.69    5.40
   5   3   1   86.59   10.80
  -6  -3  -1  218.48   16.70
  -6  -3  -1  218.98   14.20
  -6  -3  -1  222.18   14.30
  -6  -3  -1  213.88   15.80
   6   3   1  213.18   14.10
   6   3   1  182.28   15.70
  -7  -3  -1   -5.40    4.10
  -7  -3  -1   -0.30    7.00
  -7  -3  -1    1.60    4.20
   7   3   1   -0.70    3.60
  -8  -3  -1  248.18   20.90
  -8  -3  -1  244.48   16.70
  -8  -3  -1  236.48   16.80
  -6   4   1   36.00    4.90
  -6   4   1   33.80    4.50
  -6   4   1   37.70    8.10
  -6   4   1   25.10    9.20
  -5   4   1  269.27   18.00
  -5   4   1  288.87   22.10
  -5   4   1  274.37   22.00
  -5   4   1  295.77   18.00
   4  -4  -1  517.15   32.20
  -4   4   1  539.75   32.40
  -4   4   1  550.24   32.40
  -4   4   1  541.25   34.60
  -4   4   1  507.65   34.70
   3  -4  -1   25.40    3.00
   3  -4  -1   25.10    3.00
  -3   4   1   27.40    4.50
  -3   4   1   24.90    3.30
  -3   4   1   30.10    6.20
  -3   4   1   30.00    3.40
  -3   4   1   24.60    3.20
  -3   4   1   29.00    3.20
  -3   4   1   23.60    4.90
   2  -4  -1  814.32   48.70
  -2   4   1  792.52   48.80
  -2   4   1  861.51   49.20
  -2   4   1  782.82   50.39
  -2   4   1  801.72   49.99
  -2   4   1  762.82   49.90
  -2   4   1  798.32   48.70
  -2   4   1  924.01   48.80
  -2   4   1  785.42   48.70
   1  -4  -1   25.40    2.50
   1  -4  -1   20.30    4.10
   1  -4  -1   18.90    4.10
  -1   4   1   23.20    4.50
  -1   4   1   26.80    2.50
  -1   4   1   27.40    3.40
  -1   4   1   21.50    4.50
  -1   4   1   22.80    2.70
  -1   4   1   19.90    3.50
  -1   4   1   20.90    2.50
  -1   4   1   22.10    2.40
   0  -4  -1  234.28   14.50
   0  -4  -1  237.28   13.50
   0  -4  -1  191.38   14.70
   0  -4  -1  226.08   13.60
   0  -4  -1  183.38   16.50
   0  -4  -1  207.98   13.50
   0   4   1  225.58   13.70
   0   4   1  214.68   14.00
   0   4   1  217.38   16.00
   0   4   1  238.18   14.70
   0   4   1  209.08   13.50
   0   4   1  211.38   15.00
   0   4   1  225.98   13.60
   0   4   1  247.88   13.60
   0   4   1  224.58   14.60
  -1  -4  -1    6.80    4.20
  -1  -4  -1    6.80    5.60
  -1  -4  -1   13.10    1.90
  -1  -4  -1   18.60    3.00
  -1  -4  -1   11.30    1.90
  -1  -4  -1   12.00    2.20
  -1  -4  -1   10.60    2.10
   1   4   1   15.30    2.20
   1   4   1    9.60    2.00
   1   4   1    7.60    4.10
   1   4   1   14.30    1.70
   1   4   1   10.90    4.00
   1   4   1   10.30    2.40
   1   4   1   14.40    3.30
   1   4   1   10.90    1.60
  -2  -4  -1  104.09    6.70
  -2  -4  -1   91.29   10.60
  -2  -4  -1   85.49    8.80
  -2  -4  -1  106.49    6.80
  -2  -4  -1   97.49    6.80
  -2  -4  -1  105.19    7.10
   2   4   1   98.39    6.80
   2   4   1   98.89    6.60
   2   4   1   86.69    9.80
   2   4   1  115.59    9.90
   2   4   1  103.59    6.90
   2   4   1  110.89    7.50
  -3  -4  -1  265.07   16.90
  -3  -4  -1  265.57   16.80
  -3  -4  -1  280.27   16.60
  -3  -4  -1  249.28   19.00
  -3  -4  -1  224.08   20.90
   3   4   1  270.57   16.90
   3   4   1  281.37   16.70
   3   4   1  268.67   19.00
   3   4   1  323.67   20.80
   3   4   1  267.47   17.40
   3   4   1  263.97   16.60
  -4  -4  -1   15.00    5.50
  -4  -4  -1   24.20    4.10
  -4  -4  -1   22.20    3.40
  -4  -4  -1   23.00    3.00
  -4  -4  -1   21.80    3.50
   4   4   1   31.00    7.40
   4   4   1   23.90    3.50
   4   4   1   17.50    4.40
   4   4   1   20.70    3.10
  -5  -4  -1   71.09    5.50
  -5  -4  -1   60.59    5.70
  -5  -4  -1   56.09    6.60
  -5  -4  -1   45.90    7.30
  -5  -4  -1   56.69    5.50
   5   4   1   89.99   11.70
   5   4   1   45.70    6.70
   5   4   1   64.99    5.60
   5   4   1   56.19    5.10
  -6  -4  -1    7.10    4.00
  -6  -4  -1    6.30    3.10
  -6  -4  -1    3.80    5.30
  -6  -4  -1    7.50    5.60
   6   4   1    0.60    4.20
   6   4   1   10.80    3.50
   6   4   1   16.00    8.10
  -7  -4  -1    6.60    4.50
  -7  -4  -1    7.00    7.10
  -7  -4  -1    6.30    4.60
   7   4   1   -1.10    6.80
   7   4   1    7.20    4.00
  -8  -4  -1   -4.80    5.00
  -8  -4  -1    0.00    8.10
  -8  -4  -1    0.10    4.50
  -6   5   1  148.89   15.20
  -6   5   1  146.19   11.50
  -6   5   1  151.98   11.60
  -6   5   1  154.38   17.90
  -5   5   1  852.51   48.40
  -5   5   1  831.82   51.99
  -5   5   1  776.22   51.29
  -5   5   1  738.03   48.40
   4  -5  -1   71.49    5.90
  -4   5   1   72.29    6.50
  -4   5   1   75.69    6.70
  -4   5   1   65.49    8.80
  -4   5   1   72.49    9.60
   3  -5  -1 1252.97   71.09
  -3   5   1 1179.58   72.09
  -3   5   1 1147.99   71.19
  -3   5   1 1208.78   71.19
  -3   5   1 1156.98   72.79
  -3   5   1 1185.68   73.49
  -3   5   1 1186.08   71.19
   2  -5  -1    4.90    2.40
   2  -5  -1    9.50    2.20
  -2   5   1    1.50    5.10
  -2   5   1    5.10    4.80
  -2   5   1    5.40    2.20
  -2   5   1   10.60    4.90
  -2   5   1    8.50    2.50
  -2   5   1    7.30    3.20
  -2   5   1    9.20    2.40
  -2   5   1    6.70    2.90
   1  -5  -1 1421.16   82.89
   1  -5  -1 1419.96   84.29
  -1   5   1 1331.37   82.89
  -1   5   1 1401.76   83.99
  -1   5   1 1429.46   84.99
  -1   5   1 1373.96   82.99
  -1   5   1 1399.86   82.89
  -1   5   1 1341.27   84.59
   0  -5  -1  802.72   48.30
   0  -5  -1  689.23   49.70
   0  -5  -1  826.72   48.40
   0  -5  -1  867.21   49.10
   0   5   1  793.52   49.00
   0   5   1  838.22   50.89
   0   5   1  796.22   49.99
   0   5   1  781.22   48.30
   0   5   1  764.52   48.20
   0   5   1  806.12   48.40
   0   5   1  920.11   48.40
   0   5   1  778.52   48.70
  -1  -5  -1  691.23   40.10
  -1  -5  -1  684.53   40.10
  -1  -5  -1  590.44   41.70
   1   5   1  679.23   40.20
   1   5   1  713.83   43.20
   1   5   1  679.03   40.30
   1   5   1  680.73   40.50
   1   5   1  626.54   42.10
   1   5   1  656.03   40.10
  -2  -5  -1 1081.99   70.09
  -2  -5  -1 1139.49   68.19
  -2  -5  -1 1180.58   68.09
   2   5   1 1085.09   68.09
   2   5   1 1178.48   68.09
   2   5   1 1157.68   68.49
   2   5   1 1221.38   71.39
   2   5   1 1048.90   70.19
   2   5   1 1153.58   68.09
  -3  -5  -1  401.76   29.90
  -3  -5  -1  478.95   27.30
  -3  -5  -1  412.26   27.40
  -3  -5  -1  458.05   27.40
   3   5   1  422.46   27.40
   3   5   1  521.15   31.10
   3   5   1  414.56   30.20
   3   5   1  472.85   28.00
   3   5   1  446.56   27.30
   3   5   1  438.16   27.30
  -4  -5  -1 1130.19   65.59
  -4  -5  -1 1121.59   65.69
  -4  -5  -1 1098.99   65.79
  -4  -5  -1 1058.99   67.89
   4   5   1 1065.49   65.69
   4   5   1 1140.89   65.69
   4   5   1 1047.70   68.19
   4   5   1 1093.69   66.49
  -5  -5  -1   36.00    7.80
  -5  -5  -1   42.80    5.00
  -5  -5  -1   47.50    4.80
  -5  -5  -1   44.40    6.30
   5   5   1   46.50    4.80
   5   5   1   72.19   10.70
   5   5   1   48.00    5.20
   5   5   1   30.20    6.50
  -6  -5  -1  837.32   49.40
  -6  -5  -1  783.52   50.39
  -6  -5  -1  839.52   48.20
  -6  -5  -1  782.12   48.10
   6   5   1  711.03   48.90
   6   5   1  796.12   48.10
  -7  -5  -1  158.18   13.20
  -7  -5  -1  197.68   13.30
  -7  -5  -1  203.88   15.60
   7   5   1  153.58   15.50
   7   5   1  172.28   12.90
  -8  -5  -1  157.08   12.50
  -8  -5  -1  151.48   12.70
  -8  -5  -1  162.48   16.00
  -5   6   1    3.30    6.60
  -5   6   1    9.90    4.20
  -5   6   1   20.80    9.00
  -5   6   1   12.60    4.20
  -4   6   1  691.53   45.00
  -4   6   1  662.33   41.60
  -4   6   1  687.43   41.60
  -4   6   1  689.33   44.20
   3  -6  -1  237.58   14.70
  -3   6   1  214.78   18.80
  -3   6   1  221.48   15.10
  -3   6   1  222.58   17.80
  -3   6   1  228.78   14.80
   2  -6  -1 1432.36   75.99
   2  -6  -1 1315.97   75.89
  -2   6   1 1196.38   77.99
  -2   6   1 1320.07   78.19
  -2   6   1 1238.38   75.89
  -2   6   1 1211.08   77.39
  -2   6   1 1200.18   76.09
  -2   6   1 1238.48   75.99
   1  -6  -1 1253.97   74.79
   1  -6  -1 1384.56   74.79
  -1   6   1 1352.16   77.59
  -1   6   1 1168.78   74.79
  -1   6   1 1145.69   74.79
  -1   6   1 1184.78   74.69
  -1   6   1 1439.66   74.89
  -1   6   1 1170.58   75.79
  -1   6   1 1156.98   76.59
   0  -6  -1 1086.09   75.99
   0  -6  -1 1275.27   74.29
   0   6   1 1266.97   74.39
   0   6   1 1299.37   75.19
   0   6   1 1211.28   76.19
   0   6   1 1245.98   74.29
   0   6   1 1351.36   77.39
   0   6   1 1220.78   74.29
   0   6   1 1223.78   74.79
  -1  -6  -1 2601.84  149.19
  -1  -6  -1 2434.36  149.19
  -1  -6  -1 2273.67  151.18
   1   6   1 2668.73  152.38
   1   6   1 2511.65  149.29
   1   6   1 2616.14  149.29
   1   6   1 2705.93  149.29
   1   6   1 2432.36  149.59
   1   6   1 2322.07  151.08
  -2  -6  -1  198.28   18.60
  -2  -6  -1  231.88   14.90
  -2  -6  -1  261.37   14.90
   2   6   1  249.58   15.00
   2   6   1  235.78   14.80
   2   6   1  261.07   19.80
   2   6   1  217.88   15.00
   2   6   1  212.28   17.40
   2   6   1  221.88   15.50
  -3  -6  -1 2973.90  177.68
  -3  -6  -1 3199.58  177.68
  -3  -6  -1 2709.03  179.88
   3   6   1 3004.30  177.68
   3   6   1 3042.10  177.68
   3   6   1 3215.38  178.28
   3   6   1 2739.83  179.98
   3   6   1 2998.60  177.78
  -4  -6  -1  345.07   26.80
  -4  -6  -1  378.76   23.20
  -4  -6  -1  371.56   23.40
   4   6   1  401.46   24.40
   4   6   1  369.06   23.20
   4   6   1  362.96   27.30
   4   6   1  369.96   23.40
  -5  -6  -1 1482.15   85.29
  -5  -6  -1 1456.05   85.79
  -5  -6  -1 1287.77   87.49
  -5  -6  -1 1348.47   85.29
   5   6   1 1439.76   85.29
   5   6   1 1532.75   85.29
   5   6   1 1397.06   86.19
  -6  -6  -1  888.61   48.10
  -6  -6  -1  715.23   50.39
  -6  -6  -1  769.12   48.10
  -6  -6  -1  840.32   49.00
   6   6   1  752.62   48.00
   6   6   1  753.52   49.30
  -7  -6  -1  485.85   29.70
  -7  -6  -1  447.46   29.70
   7   6   1  457.25   31.60
   7   6   1  481.85   29.60
  -8  -6  -1  663.63   39.40
  -8  -6  -1  604.54   39.30
   8   6   1  623.44   39.10
   8   6   1  628.94   41.50
  -5   7   1  285.27   24.70
  -5   7   1  279.87   18.80
  -5   7   1  281.07   23.40
  -5   7   1  279.87   18.60
  -4   7   1  186.38   19.10
  -4   7   1  204.48   13.50
  -4   7   1  179.68   13.70
  -4   7   1  189.28   17.70
  -3   7   1  290.87   19.80
  -3   7   1  300.57   22.40
  -3   7   1  311.07   22.90
  -3   7   1  327.07   20.00
   2  -7  -1  531.55   31.70
  -2   7   1  576.04   35.10
  -2   7   1  527.35   31.80
  -2   7   1  484.95   31.90
  -2   7   1  497.05   33.60
  -2   7   1  485.45   35.00
   1  -7  -1   72.49    6.00
  -1   7   1   61.79    6.20
  -1   7   1   65.49    7.70
  -1   7   1   73.39    7.50
  -1   7   1   75.39   11.00
  -1   7   1   74.79    6.50
  -1   7   1   60.39    9.60
   0  -7  -1  888.31   64.69
   0  -7  -1 1072.19   62.69
   0   7   1 1076.59   62.69
   0   7   1 1192.38   66.49
   0   7   1 1054.49   63.59
   0   7   1 1015.10   62.79
   0   7   1 1002.30   64.89
   0   7   1 1076.79   62.69
   0   7   1 1012.60   63.19
  -1  -7  -1   69.39   10.60
  -1  -7  -1   95.59    7.10
  -1  -7  -1   86.29    7.10
  -1  -7  -1  119.19    8.30
   1   7   1   87.09    7.40
   1   7   1  100.89   13.00
   1   7   1   68.89   10.30
   1   7   1   88.29    7.40
   1   7   1   89.19    8.40
   1   7   1   98.49    7.10
  -2  -7  -1 1276.47   77.69
  -2  -7  -1 1152.58   80.49
  -2  -7  -1 1364.16   77.69
   2   7   1 1241.88   77.79
   2   7   1 1162.68   80.29
   2   7   1 1294.07   78.19
   2   7   1 1339.27   77.69
   2   7   1 1467.25   81.89
   2   7   1 1369.06   77.69
  -3  -7  -1  540.55   38.10
  -3  -7  -1  566.04   35.00
  -3  -7  -1  596.14   34.90
   3   7   1  556.94   35.10
   3   7   1  582.54   35.70
   3   7   1  577.24   35.00
   3   7   1  629.54   34.90
   3   7   1  512.45   38.40
  -4  -7  -1  745.13   46.60
  -4  -7  -1  812.62   46.60
  -4  -7  -1  681.13   50.09
   4   7   1  712.83   49.60
   4   7   1  854.61   47.40
   4   7   1  732.53   46.70
   4   7   1  816.12   46.60
  -5  -7  -1  824.92   47.90
  -5  -7  -1  708.73   50.79
  -5  -7  -1  732.43   47.50
  -5  -7  -1  797.52   47.40
   5   7   1  803.32   48.70
   5   7   1  820.82   47.40
   5   7   1  749.03   47.50
  -6  -7  -1  135.49   11.60
  -6  -7  -1  113.89   10.40
  -6  -7  -1  118.79   10.20
   6   7   1   97.39   11.60
   6   7   1  121.69   10.50
  -7  -7  -1  749.92   44.40
  -7  -7  -1  686.53   44.40
   7   7   1  703.63   44.20
   7   7   1  733.23   46.20
  -4   8   1   12.20    4.60
  -4   8   1    0.70    9.90
  -4   8   1   13.90    8.40
  -4   8   1    9.00    4.80
  -3   8   1   14.80    5.10
  -3   8   1   10.30    9.00
  -3   8   1    7.30    4.20
  -3   8   1   18.70    7.80
  -2   8   1    0.80    4.20
  -2   8   1   -0.70    6.20
  -2   8   1    4.10    4.80
  -2   8   1   -0.50    8.20
  -2   8   1    2.90    3.80
   1  -8  -1    0.40    3.30
  -1   8   1    2.30    4.10
  -1   8   1    0.20    5.10
  -1   8   1   -1.30    7.30
  -1   8   1   -0.30    3.60
  -1   8   1    5.30    5.50
  -1   8   1    3.90    7.90
   0  -8  -1   -2.70    3.10
   0   8   1   -4.60    4.80
   0   8   1   -1.60    3.30
   0   8   1    0.80    4.80
   0   8   1    3.70    3.90
   0   8   1    4.80    7.40
  -1  -8  -1    0.60    3.30
  -1  -8  -1   -9.90    5.80
   1   8   1    3.20    4.60
   1   8   1    0.40    3.70
   1   8   1    0.80    7.30
   1   8   1    0.10    3.60
  -2  -8  -1    9.90    2.90
  -2  -8  -1   -2.30    6.70
  -2  -8  -1    9.80    3.40
   2   8   1    8.40    4.10
   2   8   1    6.90    6.10
   2   8   1    8.90    4.90
   2   8   1    9.40    3.80
  -3  -8  -1   11.60   10.00
  -3  -8  -1   18.70    4.30
  -3  -8  -1   27.50    4.10
   3   8   1   19.70    3.60
   3   8   1   21.50    5.60
   3   8   1   22.20    4.70
   3   8   1   14.40    9.00
  -4  -8  -1    6.10    3.80
  -4  -8  -1    2.40    4.30
  -4  -8  -1   -5.50    7.40
   4   8   1    4.20    4.20
   4   8   1    4.90    4.50
   4   8   1    1.60    5.50
   4   8   1   -4.60    8.60
  -5  -8  -1   12.00   10.50
  -5  -8  -1   28.70    4.90
  -5  -8  -1   21.80    4.40
   5   8   1   15.90   10.20
   5   8   1   25.20    5.10
   5   8   1   15.70    6.90
   5   8   1   29.30    4.60
  -6  -8  -1   94.89    8.80
   6   8   1   88.59    8.90
   6   8   1  105.29   11.20
  -7  -8  -1    1.20    5.80
   7   8   1    0.50    5.10
   7   8   1   -4.30    8.40
  -3   9   1    5.70    4.70
  -3   9   1    0.20    8.70
  -3   9   1    5.70   10.30
  -3   9   1   11.50    5.10
  -3   9   1    9.80    8.10
  -2   9   1  199.68   16.90
  -2   9   1  205.58   14.70
  -2   9   1  223.78   17.00
  -2   9   1  187.48   14.50
  -2   9   1  194.18   20.30
  -1   9   1   79.79    9.50
  -1   9   1   83.39    9.40
  -1   9   1   81.89    8.00
  -1   9   1   81.69    7.40
  -1   9   1   93.19   12.30
   0   9   1   11.70    5.40
   0   9   1   16.50    4.50
   0   9   1   22.30    9.30
   0   9   1   18.00    4.90
   0   9   1   18.30    5.10
  -1  -9  -1  203.88   13.50
   1   9   1  205.08   14.00
   1   9   1  202.48   13.70
   1   9   1  183.28   19.10
   1   9   1  181.88   14.80
  -2  -9  -1   46.60    5.30
   2   9   1   41.70    5.60
   2   9   1   28.70    8.30
   2   9   1   40.90    5.40
   2   9   1   48.90    6.70
  -3  -9  -1   64.59    6.40
   3   9   1   51.19   11.60
   3   9   1   62.59    7.60
   3   9   1   63.69    6.90
   3   9   1   69.99    6.10
  -4  -9  -1   12.20    4.80
   4   9   1    8.40    6.10
   4   9   1   11.30    4.10
   4   9   1    0.20    9.80
   4   9   1    9.70    3.70
  -5  -9  -1   50.49    6.70
   5   9   1   54.69    8.50
   5   9   1   33.60   11.80
   5   9   1   52.69    6.90
  -6  -9  -1   14.80    5.80
   6   9   1   21.30    6.00
   6   9   1    6.90    8.10
  -2  10   1  186.78   20.80
  -2  10   1  179.08   13.40
  -2  10   1  193.78   16.60
  -2  10   1  147.29   14.20
  -1  10   1  155.48   12.70
  -1  10   1  185.98   19.90
  -1  10   1  147.59   13.20
  -1  10   1  190.98   15.20
   0  10   1  409.86   27.50
   0  10   1  399.66   26.10
   0  10   1  433.36   31.50
   0  10   1  396.56   26.50
  -1 -10  -1  136.49   10.00
   1  10   1   93.89   14.30
   1  10   1  109.99   11.70
   1  10   1  109.99    9.60
   1  10   1  124.69   10.10
  -2 -10  -1  756.32   44.00
   2  10   1  665.93   48.40
   2  10   1  742.23   44.10
   2  10   1  714.63   44.30
   2  10   1  709.03   44.90
  -3 -10  -1   18.00    5.00
   3  10   1    2.30   10.40
   3  10   1   11.60    5.00
   3  10   1   21.00    4.60
   3  10   1   20.70    6.50
  -4 -10  -1  354.76   23.40
   4  10   1  319.17   29.10
   4  10   1  351.16   23.80
   4  10   1  366.56   24.70
   4  10   1  405.96   23.60
  -5 -10  -1  211.78   15.20
   5  10   1  233.28   17.20
   5  10   1  192.08   15.50
   5  10   1  168.48   22.00
  -6 -10  -1  110.49   10.70
   6  10   1  142.69   14.50
   6  10   1  128.39   11.20
   0  11   1   22.00    9.10
   0  11   1   20.40    5.50
   0  11   1   22.30    6.10
   0  11   1   12.20    6.00
   1  11   1  367.76   30.10
   1  11   1  350.66   24.40
   1  11   1  368.46   24.10
   1  11   1  389.96   25.60
   2  11   1   51.29   12.70
   2  11   1   46.20    6.70
   2  11   1   48.10    7.00
   2  11   1   45.80    8.10
  -3 -11  -1  323.67   19.80
   3  11   1  286.57   21.00
   3  11   1  298.87   19.90
   3  11   1  258.47   26.40
   3  11   1  290.97   20.30
  -4 -11  -1  259.17   17.30
   4  11   1  205.18   24.10
   4  11   1  234.98   17.90
   4  11   1  257.07   19.00
   4  11   1  263.07   17.60
   2  11  -2    1.60    5.30
   2  11  -2   -2.20   10.10
   2  11  -2   -5.30    5.50
   2  11  -2    7.00    7.90
   4  10  -2  106.29    9.90
   4  10  -2  105.89   11.70
   4  10  -2  111.49    9.80
   4  10  -2   99.49   14.30
  -4 -10   2  132.59   13.00
   3  10  -2   45.30    8.70
   3  10  -2   43.10    6.50
   3  10  -2   50.09    6.70
   3  10  -2   33.60   10.70
   2  10  -2   84.09   10.20
   2  10  -2   86.49    8.20
   2  10  -2   89.49    8.00
   2  10  -2   69.09   12.70
   1  10  -2    6.40    4.70
   1  10  -2   17.70    5.60
   1  10  -2   11.10    7.40
   1  10  -2    6.30    7.50
   0  10  -2   83.39    9.10
   0  10  -2   88.69    8.10
   0  10  -2   72.29    8.10
   0  10  -2   81.79   13.00
  -1  10  -2   -3.50    7.30
  -1  10  -2   -3.20    5.20
  -1  10  -2   -4.90    5.00
  -1  10  -2   -3.40    7.70
   5   9  -2  311.77   19.90
   5   9  -2  284.07   24.60
   5   9  -2  253.87   19.90
   5   9  -2  296.77   22.00
  -5  -9   2  286.07   19.40
   4   9  -2  271.97   23.90
   4   9  -2  263.07   19.20
   4   9  -2  304.17   18.70
   4   9  -2  285.87   21.00
  -4  -9   2  281.27   18.80
   3   9  -2  518.25   31.20
   3   9  -2  466.75   35.10
   3   9  -2  463.05   31.20
   3   9  -2  509.45   32.60
  -3  -9   2  521.45   30.90
   2   9  -2   12.10    5.00
   2   9  -2   27.30    5.70
   2   9  -2   32.70    5.00
   2   9  -2   15.50    8.90
  -2  -9   2   16.90    4.40
   1   9  -2  618.34   40.70
   1   9  -2  627.04   39.50
   1   9  -2  706.93   39.50
   1   9  -2  613.24   43.10
   0   9  -2   57.49    6.20
   0   9  -2   62.69    6.10
   0   9  -2   49.00   10.70
   0   9  -2   55.89    8.50
  -1   9  -2  375.66   28.70
  -1   9  -2  356.46   25.90
  -1   9  -2  410.56   24.00
  -1   9  -2  348.67   24.00
  -2   9  -2   87.89    8.40
  -2   9  -2  106.29   14.10
  -2   9  -2  112.69    9.70
  -2   9  -2   99.29   11.70
  -3   9  -2   78.29    8.10
  -3   9  -2  109.69   14.70
  -3   9  -2  101.29    8.60
  -3   9  -2   86.99   12.00
   6   8  -2  250.27   17.80
   6   8  -2  265.27   19.70
  -6  -8   2  266.87   18.20
   5   8  -2  260.67   20.90
   5   8  -2  256.87   19.00
   5   8  -2  290.07   18.20
  -5  -8   2  281.37   18.60
   4   8  -2 1015.70   67.99
   4   8  -2 1088.39   65.79
   4   8  -2 1084.19   65.09
   4   8  -2 1096.99   64.89
  -4  -8   2 1075.99   64.79
   3   8  -2   40.50    6.00
   3   8  -2   36.60    5.60
   3   8  -2   37.70    4.70
   3   8  -2   40.50    9.50
  -3  -8   2   38.90    5.10
   2   8  -2 1280.77   85.09
   2   8  -2 1356.36   82.49
   2   8  -2 1392.76   82.39
   2   8  -2 1368.66   83.09
  -2  -8   2 1458.65   82.29
   1   8  -2   36.70    5.00
   1   8  -2   34.20    9.00
   1   8  -2   31.00    5.10
   1   8  -2   31.80    6.70
  -1  -8   2   37.70    4.30
   0   8  -2  695.23   39.10
   0   8  -2  634.44   40.40
   0   8  -2  613.24   39.10
   0   8  -2  618.44   42.40
  -1   8  -2  174.78   10.80
  -1   8  -2  128.19   12.00
  -1   8  -2  140.49   11.00
  -1   8  -2  149.29   16.40
  -2   8  -2  166.58   15.70
  -2   8  -2  198.98   18.70
  -2   8  -2  196.58   12.80
  -2   8  -2  170.88   13.10
  -3   8  -2  356.76   28.10
  -3   8  -2  342.27   25.50
  -3   8  -2  354.96   22.60
  -3   8  -2  314.17   22.60
  -3   8  -2  436.86   30.90
  -4   8  -2   31.90   10.00
  -4   8  -2   26.90    5.30
  -4   8  -2   32.80    8.50
  -4   8  -2   33.70   11.50
  -4   8  -2   29.50    5.30
   7   7  -2  258.57   22.30
   7   7  -2  266.57   18.60
  -7  -7   2  254.07   18.40
   6   7  -2    1.70    8.60
   6   7  -2    7.90    4.40
  -6  -7   2    4.10    4.80
   5   7  -2  717.03   40.40
   5   7  -2  635.34   41.40
   5   7  -2  630.24   40.40
  -5  -7   2  631.74   40.20
   4   7  -2   16.70    7.80
   4   7  -2   19.30    4.00
   4   7  -2    7.60    6.40
   4   7  -2   21.10    4.80
  -4  -7   2   15.80    4.40
   3   7  -2  499.05   30.90
   3   7  -2  523.75   31.60
   3   7  -2  496.75   30.80
   3   7  -2  462.75   33.80
  -3  -7   2  507.25   30.70
   2   7  -2   75.59    6.30
   2   7  -2   61.29    9.50
   2   7  -2   70.59    7.80
   2   7  -2   72.79    6.40
  -2  -7   2   68.89    6.30
   1   7  -2  630.54   39.20
   1   7  -2  610.34   41.70
   1   7  -2  666.83   39.10
   1   7  -2  654.93   39.90
  -1  -7   2  651.83   38.90
   0   7  -2  540.55   37.50
   0   7  -2  612.34   35.40
   0   7  -2  575.04   36.20
   0   7  -2  579.34   35.40
   0   7  -2  577.04   35.50
   0  -7   2  591.74   35.20
  -1   7  -2  319.57   23.60
  -1   7  -2  315.67   22.00
  -1   7  -2  331.97   22.80
  -1   7  -2  337.47   25.50
  -1   7  -2  426.16   28.40
  -1   7  -2  354.06   22.10
   1  -7   2  394.36   22.40
  -2   7  -2  844.62   48.60
  -2   7  -2  760.22   48.70
  -2   7  -2  744.43   47.50
  -2   7  -2  795.92   47.50
  -2   7  -2  778.42   50.29
  -3   7  -2   47.50   10.30
  -3   7  -2   54.59    7.70
  -3   7  -2   49.70    9.00
  -3   7  -2   51.39    5.50
  -3   7  -2   52.19    5.60
  -4   7  -2  466.55   30.80
  -4   7  -2  454.05   33.30
  -4   7  -2  440.26   28.20
  -5   7  -2    6.80   10.50
  -5   7  -2   12.10    4.50
  -5   7  -2   20.80    8.70
   7   6  -2    5.00    9.50
   7   6  -2   -0.60    5.50
  -7  -6   2   -4.40    5.10
   6   6  -2   94.79   11.80
   6   6  -2   97.89    8.80
  -6  -6   2   94.19    8.70
   5   6  -2   15.70    5.00
   5   6  -2   20.80    5.90
   5   6  -2   14.10    4.50
  -5  -6   2   18.10    4.90
  -5  -6   2   15.80    4.80
  -5  -6   2   13.50    4.40
   4   6  -2    2.50    6.20
   4   6  -2    0.40    4.00
   4   6  -2    4.70    4.40
   4   6  -2   -2.20    2.70
  -4  -6   2    2.80    3.30
  -4  -6   2   -3.30    3.30
  -4  -6   2   -1.60    3.80
   3   6  -2    8.40    3.70
   3   6  -2    8.50    6.20
   3   6  -2    9.60    5.20
   3   6  -2    6.70    2.70
  -3  -6   2    9.70    2.40
  -3  -6   2    7.00    3.40
   2   6  -2   23.40    7.20
   2   6  -2   17.70    6.20
   2   6  -2   21.20    3.20
   2   6  -2   24.90    5.00
   2   6  -2   20.50    3.60
   2   6  -2   17.90    3.50
  -2  -6   2   23.20    3.10
  -2  -6   2   23.60    3.40
   1   6  -2   86.89    6.00
   1   6  -2   72.29    6.90
   1   6  -2   73.49    5.90
   1   6  -2   90.49   12.70
   1   6  -2   66.49    6.10
   1   6  -2   58.09    8.40
   1   6  -2   74.29    6.20
  -1  -6   2   69.59    5.80
  -1  -6   2   85.19    5.70
   0   6  -2   46.50    5.20
   0   6  -2   50.29    4.20
   0   6  -2   42.80    4.20
   0   6  -2   46.40    9.20
   0   6  -2   44.70    3.90
   0   6  -2   32.40    6.90
   0   6  -2   41.00    4.10
   0   6  -2   44.70    4.60
   0  -6   2   41.40    3.80
   0  -6   2   45.90    4.10
  -1   6  -2  107.29    8.00
  -1   6  -2  102.59    9.20
  -1   6  -2  115.29    9.20
  -1   6  -2  103.49    8.20
  -1   6  -2  151.88   14.10
  -1   6  -2  100.99   11.80
  -1   6  -2  125.09    7.90
  -1   6  -2  115.19    8.30
   1  -6   2  113.59    7.80
  -2   6  -2   16.40    3.30
  -2   6  -2   22.80    3.10
  -2   6  -2   19.10    3.50
  -2   6  -2   35.80    8.00
  -2   6  -2   28.60    4.90
  -2   6  -2   22.60    5.00
  -2   6  -2   24.40    7.30
   2  -6   2   24.50    3.00
  -3   6  -2  275.77   18.30
  -3   6  -2  287.97   20.70
  -3   6  -2  289.77   22.60
  -3   6  -2  307.37   18.40
  -4   6  -2   71.99    6.60
  -4   6  -2   70.89    6.40
  -4   6  -2   91.99   11.60
  -4   6  -2   87.29    9.90
  -5   6  -2   92.09    7.80
  -5   6  -2   86.89   11.10
  -5   6  -2   82.99    7.20
  -5   6  -2   79.39   11.20
   7   5  -2  312.07   25.20
   7   5  -2  311.07   22.00
  -7  -5   2  407.36   25.10
  -7  -5   2  301.57   22.10
   6   5  -2  238.88   16.80
   6   5  -2  249.97   20.30
  -6  -5   2  236.38   17.30
  -6  -5   2  292.97   19.30
  -6  -5   2  254.47   17.20
   5   5  -2  304.87   22.90
   5   5  -2  300.27   20.70
   5   5  -2  351.86   20.90
  -5  -5   2  299.87   20.60
  -5  -5   2  371.76   22.00
  -5  -5   2  319.87   20.50
   4   5  -2  537.45   33.90
   4   5  -2  516.05   32.30
   4   5  -2  508.05   32.60
  -4  -5   2  591.84   32.90
  -4  -5   2  502.15   32.40
  -4  -5   2  515.45   32.40
   3   5  -2  107.19    8.50
   3   5  -2  117.59    7.90
   3   5  -2  110.59   10.20
   3   5  -2  104.19   11.40
   3   5  -2  156.48   15.00
   3   5  -2  110.79    8.70
  -3  -5   2  112.49    7.90
  -3  -5   2  118.99    8.00
  -3  -5   2  106.69    8.40
   2   5  -2  520.15   31.70
   2   5  -2  601.04   36.40
   2   5  -2  507.85   33.80
   2   5  -2  484.05   31.90
   2   5  -2  500.05   31.80
   2   5  -2  522.65   32.60
  -2  -5   2  548.45   31.70
  -2  -5   2  514.55   31.80
   1   5  -2   11.50    4.00
   1   5  -2   12.80    2.70
   1   5  -2   16.70    2.40
   1   5  -2   12.10    2.30
   1   5  -2    9.50    2.40
   1   5  -2    8.60    4.70
  -1  -5   2   10.40    2.20
  -1  -5   2   11.80    2.30
   0   5  -2  175.58   10.10
   0   5  -2  158.08   10.30
   0   5  -2  154.88   11.50
   0   5  -2  161.78   12.70
   0   5  -2  162.48   10.30
   0   5  -2  149.59   10.20
   0   5  -2  144.19   10.20
   0  -5   2  155.48   10.10
  -1   5  -2    2.90    1.90
  -1   5  -2    2.90    2.20
  -1   5  -2    7.80    2.30
  -1   5  -2    4.00    1.80
  -1   5  -2    5.80    3.70
  -1   5  -2    3.90    3.00
  -1   5  -2    3.90    4.10
   1  -5   2    6.20    1.50
   1  -5   2    6.50    1.70
  -2   5  -2  107.09    8.80
  -2   5  -2  113.19    7.00
  -2   5  -2   92.89    7.00
  -2   5  -2  101.69   11.20
  -2   5  -2   94.29    7.20
  -2   5  -2  103.19    7.40
   2  -5   2  104.89    6.90
  -3   5  -2   14.10    5.10
  -3   5  -2   11.40    6.70
  -3   5  -2   11.50    2.50
  -3   5  -2    7.80    2.90
  -3   5  -2   13.50    2.70
  -4   5  -2    9.20    3.30
  -4   5  -2   13.30    3.20
  -4   5  -2   12.70    6.40
  -4   5  -2   15.40    6.20
  -5   5  -2   20.00    3.60
  -5   5  -2   13.90    3.80
  -5   5  -2   21.80    9.00
  -5   5  -2   20.10    7.60
  -6   5  -2    9.20    3.70
  -6   5  -2    8.70    7.30
  -6   5  -2    6.40    3.70
  -6   5  -2    8.70    6.70
   7   4  -2  142.89   14.60
   7   4  -2  159.78   12.10
  -7  -4   2  161.58   11.30
  -7  -4   2  131.39   12.20
  -7  -4   2  170.28   15.10
   6   4  -2  570.74   38.00
   6   4  -2  570.74   36.50
  -6  -4   2  561.04   36.80
  -6  -4   2  664.43   38.40
  -6  -4   2  609.74   36.80
   5   4  -2  757.02   46.90
   5   4  -2  732.93   47.90
   5   4  -2  767.62   46.80
  -5  -4   2  801.32   46.90
  -5  -4   2  746.43   46.80
  -5  -4   2  822.02   47.80
   4   4  -2  295.27   19.20
   4   4  -2  278.27   18.20
   4   4  -2  287.17   18.10
  -4  -4   2  281.47   18.00
  -4  -4   2  299.97   18.90
  -4  -4   2  280.07   17.90
   3   4  -2 2243.98  136.09
   3   4  -2 2169.68  134.59
   3   4  -2 2231.78  134.49
   3   4  -2 2322.77  135.29
   3   4  -2 2221.18  134.59
  -3  -4   2 2276.37  134.59
  -3  -4   2 2259.57  135.69
  -3  -4   2 2353.46  134.59
   2   4  -2   19.60    2.60
   2   4  -2   24.10    4.80
   2   4  -2   15.90    2.80
   2   4  -2   17.50    3.30
   2   4  -2   16.40    2.90
   2   4  -2   18.90    2.20
  -2  -4   2   27.90    2.70
  -2  -4   2   14.70    2.70
  -2  -4   2   19.40    2.30
   1   4  -2 3181.18  194.68
   1   4  -2 3003.20  196.98
   1   4  -2 3265.87  194.28
   1   4  -2 3047.70  193.68
   1   4  -2 3120.19  195.18
   1   4  -2 3487.95  193.88
  -1  -4   2 3668.83  196.98
  -1  -4   2 3260.77  194.48
   0   4  -2  277.97   15.60
   0   4  -2  246.68   15.70
   0   4  -2  241.88   17.20
   0   4  -2  269.27   15.60
   0   4  -2  252.97   15.60
   0   4  -2  252.67   15.60
   0   4  -2  248.28   16.50
   0  -4   2  247.58   15.50
   0  -4   2  245.88   15.40
  -1   4  -2 1805.32  105.69
  -1   4  -2 1596.64  104.99
  -1   4  -2 1747.33  105.49
  -1   4  -2 1709.43  105.39
  -1   4  -2 1688.93  106.39
  -1   4  -2 1946.81  105.29
  -1   4  -2 1785.72  105.79
   1  -4   2 1739.03  105.19
   1  -4   2 1891.81  105.39
  -2   4  -2  669.03   40.30
  -2   4  -2  744.63   40.20
  -2   4  -2  670.73   42.00
  -2   4  -2  669.53   41.20
  -2   4  -2  621.54   40.20
  -2   4  -2  655.33   40.20
  -3   4  -2  220.38   15.50
  -3   4  -2  235.88   17.60
  -3   4  -2  222.98   14.00
  -3   4  -2  216.18   14.20
  -3   4  -2  224.68   14.10
   3  -4   2  248.88   14.60
  -4   4  -2  500.35   32.20
  -4   4  -2  525.45   34.30
  -4   4  -2  546.05   35.50
  -4   4  -2  554.34   33.80
  -4   4  -2  533.15   32.20
  -5   4  -2   31.60    3.60
  -5   4  -2   30.90    7.10
  -5   4  -2   27.00    7.80
  -5   4  -2   20.90    3.60
  -6   4  -2  347.07   21.00
  -6   4  -2  350.26   24.90
  -6   4  -2  298.27   20.90
  -6   4  -2  355.46   25.50
   8   3  -2  217.98   15.80
  -8  -3   2  217.58   15.50
  -8  -3   2  229.58   19.80
  -8  -3   2  188.68   15.40
   7   3  -2  322.27   26.00
   7   3  -2  363.86   23.40
  -7  -3   2  363.56   23.60
  -7  -3   2  375.26   23.50
  -7  -3   2  391.26   26.30
   6   3  -2 1544.25   92.49
   6   3  -2 1427.76   93.49
  -6  -3   2 1529.25   93.79
  -6  -3   2 1582.04   92.49
  -6  -3   2 1622.64   92.49
   5   3  -2    6.30    4.50
   5   3  -2    8.40    3.70
   5   3  -2   10.00    3.40
   5   3  -2   23.50    7.30
  -5  -3   2    6.90    3.70
  -5  -3   2    9.80    5.00
  -5  -3   2   10.20    3.90
   4   3  -2 3120.79  183.98
   4   3  -2 3013.90  184.88
   4   3  -2 3156.28  184.08
  -4  -3   2 3246.48  184.08
  -4  -3   2 3056.89  184.08
  -4  -3   2 2965.70  186.48
   3   3  -2  184.08   12.50
   3   3  -2  203.38   12.50
   3   3  -2  242.38   16.60
   3   3  -2  199.98   13.30
   3   3  -2  186.78   12.70
  -3  -3   2  194.88   12.40
  -3  -3   2  182.28   13.00
  -3  -3   2  188.78   12.60
  -3  -3   2  190.38   12.30
   2   3  -2 3941.71  243.88
   2   3  -2 3830.02  243.88
   2   3  -2 4228.18  249.38
   2   3  -2 4083.59  244.88
   2   3  -2 4222.58  244.58
   2   3  -2 4447.35  243.98
  -2  -3   2 4136.89  244.58
  -2  -3   2 3949.90  244.88
  -2  -3   2 4095.89  243.98
  -2  -3   2 3954.30  243.58
   1   3  -2 1718.93  112.99
   1   3  -2 1881.21  112.89
   1   3  -2 1804.42  112.49
   1   3  -2 1900.51  112.39
   1   3  -2 1907.21  112.09
   1   3  -2 1790.02  112.69
  -1  -3   2 2101.09  113.29
  -1  -3   2 2047.30  112.39
  -1  -3   2 1864.61  112.49
  -1  -3   2 1847.32  112.09
   0   3  -2 1179.28   71.99
   0   3  -2 1160.78   71.39
   0   3  -2 1128.09   71.79
   0   3  -2 1127.99   71.39
   0   3  -2 1235.38   71.39
   0   3  -2 1118.69   72.29
   0   3  -2 1152.78   71.29
   0  -3   2 1284.47   71.39
   0  -3   2 1238.08   71.29
   0  -3   2 1188.28   71.39
   0  -3   2 1277.37   71.89
   0  -3   2 1344.07   72.49
   0  -3   2 1161.28   71.49
  -1   3  -2 4668.13  280.07
  -1   3  -2 4835.62  282.47
  -1   3  -2 4689.23  279.87
  -1   3  -2 4580.74  281.77
  -1   3  -2 4477.55  279.67
  -1   3  -2 4386.66  279.67
  -1   3  -2 4056.09  283.47
   1  -3   2 4878.21  280.27
   1  -3   2 4907.81  279.37
   1  -3   2 5128.89  285.87
   1  -3   2 5109.59  279.77
  -2   3  -2  114.69    8.00
  -2   3  -2  123.59    9.90
  -2   3  -2  120.99    9.40
  -2   3  -2  131.89    8.10
  -2   3  -2  140.49    8.00
  -2   3  -2  124.29    8.00
   2  -3   2  141.49    7.90
  -3   3  -2 3057.59  193.58
  -3   3  -2 3077.69  193.68
  -3   3  -2 3269.47  199.88
  -3   3  -2 3643.54  193.88
  -3   3  -2 3164.98  193.48
  -3   3  -2 3432.36  198.28
  -3   3  -2 3083.79  194.78
  -4   3  -2    6.20    5.30
  -4   3  -2    7.10    2.10
  -4   3  -2    7.10    2.10
  -4   3  -2    7.40    3.80
  -4   3  -2    9.40    4.60
  -4   3  -2   11.70    2.30
  -4   3  -2    7.50    2.60
  -4   3  -2    8.00    2.00
   4  -3   2    9.60    1.80
  -5   3  -2 1400.96   84.29
  -5   3  -2 1414.86   86.29
  -5   3  -2 1350.66   84.29
  -5   3  -2 1497.15   87.39
  -6   3  -2  177.78   12.40
  -6   3  -2  185.28   16.20
  -6   3  -2  190.58   12.40
  -6   3  -2  198.98   17.60
  -7   3  -2  346.67   26.40
  -7   3  -2  322.57   24.30
  -7   3  -2  349.77   20.70
  -7   3  -2  299.57   20.50
  -8  -2   2    0.30    4.90
  -8  -2   2   -4.50    4.80
  -8  -2   2    9.70    9.20
   7   2  -2  232.88   16.10
  -7  -2   2  234.38   15.70
  -7  -2   2  267.67   20.10
  -7  -2   2  225.48   16.20
   6   2  -2   -8.80    4.50
   6   2  -2   -0.20    3.60
  -6  -2   2    1.30    4.70
  -6  -2   2    0.80    4.00
  -6  -2   2   -4.80    3.60
   5   2  -2  621.14   38.80
   5   2  -2  581.14   40.00
   5   2  -2  679.73   38.70
  -5  -2   2  667.23   38.80
  -5  -2   2  636.74   40.20
  -5  -2   2  640.94   38.90
   4   2  -2  212.08   13.50
   4   2  -2  209.08   13.60
   4   2  -2  191.78   14.90
  -4  -2   2  217.08   13.40
  -4  -2   2  207.08   14.80
  -4  -2   2  209.38   13.70
  -4  -2   2  227.08   13.30
   3   2  -2  584.54   36.20
   3   2  -2  608.64   36.30
   3   2  -2  613.64   36.20
   3   2  -2  649.83   36.70
   3   2  -2  570.64   37.00
  -3  -2   2  577.84   36.80
  -3  -2   2  609.64   36.30
  -3  -2   2  598.34   36.20
  -3  -2   2  601.34   36.20
   2   2  -2 1809.72  108.79
   2   2  -2 1665.73  107.79
   2   2  -2 1767.52  107.49
   2   2  -2 1705.53  107.39
   2   2  -2 1964.70  107.49
   2   2  -2 1859.51  107.39
  -2  -2   2 1741.73  107.39
  -2  -2   2 1727.23  107.39
  -2  -2   2 2083.19  108.29
  -2  -2   2 1689.93  107.69
  -2  -2   2 1701.73  107.29
  -2  -2   2 1960.40  107.59
   1   2  -2   87.59    5.30
   1   2  -2   65.29    5.70
   1   2  -2   90.29    5.40
   1   2  -2   81.79    5.30
   1   2  -2   67.79    6.30
   1   2  -2   89.49    5.40
   1   2  -2   81.89    5.50
  -1  -2   2   81.29    5.50
  -1  -2   2   86.99    5.40
  -1  -2   2   81.99    6.40
  -1  -2   2   83.49    5.80
  -1  -2   2   81.09    5.30
  -1  -2   2   80.19    5.40
  -1  -2   2   98.09    5.60
   0   2  -2 2234.98  125.79
   0   2  -2 1937.31  127.89
   0   2  -2 1982.90  125.69
   0   2  -2 2175.28  125.89
   0   2  -2 1921.81  126.69
   0   2  -2 2044.50  125.89
   0  -2   2 2177.08  128.99
   0  -2   2 2139.19  125.79
   0  -2   2 2128.59  126.59
   0  -2   2 2121.99  125.79
   0  -2   2 2322.07  125.89
   0  -2   2 2120.59  125.69
  -1   2  -2  488.75   31.60
  -1   2  -2  530.95   30.70
  -1   2  -2  496.15   30.70
  -1   2  -2  535.55   31.20
  -1   2  -2  517.55   30.70
  -1   2  -2  508.25   30.70
   1  -2   2  528.05   30.60
  -2   2  -2 2036.60  123.39
  -2   2  -2 2019.70  122.29
  -2   2  -2 1955.20  122.29
  -2   2  -2 1977.70  122.29
  -2   2  -2 1988.90  125.49
   2  -2   2 2326.17  122.29
  -3   2  -2  126.19    8.10
  -3   2  -2  126.39    9.80
  -3   2  -2  137.89    8.00
  -3   2  -2  118.99    8.00
  -3   2  -2  124.19   10.00
  -3   2  -2  130.69    8.00
  -3   2  -2  129.39    8.80
  -4   2  -2 1006.90   63.19
  -4   2  -2 1013.20   62.89
  -4   2  -2 1159.68   62.99
  -4   2  -2  965.90   63.69
  -4   2  -2 1102.09   62.99
  -4   2  -2 1081.09   62.89
  -4   2  -2 1017.20   64.49
   4  -2   2 1099.69   62.89
  -5   2  -2  788.22   48.10
  -5   2  -2  806.62   50.49
  -5   2  -2  757.52   48.10
  -5   2  -2  840.42   48.20
   5  -2   2  827.12   48.70
  -6   2  -2  187.38   17.70
  -6   2  -2  199.98   13.20
  -6   2  -2  212.58   13.20
  -7   2  -2  623.34   42.20
  -7   2  -2  658.33   42.80
  -7   2  -2  640.24   38.90
  -7  -1   2   -2.70    4.20
  -7  -1   2    4.20    4.30
  -7  -1   2    2.00    8.00
   6   1  -2   13.40    3.80
  -6  -1   2   11.80    4.00
  -6  -1   2   13.60    7.00
  -6  -1   2   13.10    4.00
   5   1  -2   17.50    5.10
   5   1  -2   -1.10    5.00
   5   1  -2   10.70    3.20
   5   1  -2   15.70    2.90
  -5  -1   2   11.10    3.50
  -5  -1   2   10.40    3.30
  -5  -1   2    9.60    5.70
   4   1  -2    8.90    3.30
   4   1  -2    4.00    3.10
   4   1  -2    4.60    2.50
   4   1  -2   11.50    4.70
   4   1  -2   10.70    2.40
  -4  -1   2    5.40    2.70
  -4  -1   2    5.10    4.30
  -4  -1   2   -0.50    2.30
  -4  -1   2    4.20    2.50
   3   1  -2    5.50    2.50
   3   1  -2    9.70    1.90
   3   1  -2   12.60    3.00
   3   1  -2    4.30    1.90
   3   1  -2   16.90    2.10
  -3  -1   2   10.30    2.00
  -3  -1   2    9.00    2.30
  -3  -1   2    5.90    3.30
  -3  -1   2    9.30    2.10
   2   1  -2  148.09    9.50
   2   1  -2  142.89    9.50
   2   1  -2  157.98   10.00
   2   1  -2  150.98   10.20
   2   1  -2  154.78    9.60
   2   1  -2  153.78    9.60
  -2  -1   2  151.18    9.50
  -2  -1   2  152.98    9.50
  -2  -1   2  168.18    9.90
  -2  -1   2  158.88    9.60
  -2  -1   2  152.68    9.50
  -2  -1   2  139.39   10.20
   1   1  -2  406.46   26.80
   1   1  -2  431.96   26.90
   1   1  -2  478.75   27.10
   1   1  -2  445.96   26.90
   1   1  -2  438.56   26.80
   1   1  -2  451.15   27.20
  -1  -1   2  470.45   27.10
  -1  -1   2  473.45   26.90
  -1  -1   2  434.86   26.80
  -1  -1   2  425.26   26.80
  -1  -1   2  428.76   27.20
  -1  -1   2  444.26   26.80
  -1  -1   2  500.35   27.20
   0   1  -2   20.60    1.60
   0   1  -2   21.40    2.00
   0   1  -2   21.60    1.60
   0   1  -2   20.20    2.00
   0   1  -2   21.10    1.60
   0   1  -2   22.10    1.60
   0  -1   2   22.50    1.60
   0  -1   2   19.80    1.80
   0  -1   2   19.60    1.50
   0  -1   2   20.60    1.50
   0  -1   2   24.10    1.60
   0  -1   2   21.40    1.90
  -2   1  -2  444.16   26.30
  -2   1  -2  418.46   27.10
  -2   1  -2  434.36   26.30
  -2   1  -2  429.26   27.50
  -2   1  -2  461.75   26.30
  -2   1  -2  434.46   26.30
   2  -1   2  460.25   26.20
  -3   1  -2   59.29    5.00
  -3   1  -2   62.69    4.40
  -3   1  -2   69.49    4.40
  -3   1  -2   65.19    4.40
  -3   1  -2   59.09    5.80
  -3   1  -2   58.09    6.10
  -3   1  -2   65.09    4.40
   3  -1   2   70.59    4.20
   3  -1   2   64.39    4.30
   3  -1   2   73.49    4.30
  -4   1  -2  127.39   10.40
  -4   1  -2  143.19    9.20
  -4   1  -2  149.59    9.30
  -4   1  -2  150.38    9.30
  -4   1  -2  143.29   11.00
  -4   1  -2  135.19    9.60
  -4   1  -2  161.38    9.30
   4  -1   2  157.88    9.20
  -5   1  -2   68.19    5.20
  -5   1  -2   67.09    5.00
  -5   1  -2   56.49    6.00
  -5   1  -2   68.49    7.90
  -5   1  -2   61.49    5.10
  -5   1  -2   63.19    5.30
   5  -1   2   70.59    4.90
  -6   1  -2  210.38   17.50
  -6   1  -2  205.98   13.20
  -6   1  -2  202.58   13.20
  -7   1  -2    5.20    3.40
  -7   1  -2   11.50    3.20
  -7   1  -2    0.30    8.40
  -8   1  -2   69.39   12.30
  -8   1  -2   63.69    6.40
   7   0  -2  344.57   23.30
  -7   0   2  336.37   21.40
  -7   0   2  338.27   25.70
  -7   0   2  320.27   21.40
  -6   0   2  299.67   19.50
  -6   0   2  329.37   19.60
  -6   0   2  286.37   22.90
   5   0  -2  339.97   20.90
  -5   0   2  321.97   23.80
  -5   0   2  361.06   21.60
  -5   0   2  358.36   21.40
   4   0  -2  676.73   36.90
   4   0  -2  540.55   36.20
  -4   0   2  544.15   37.60
  -4   0   2  589.64   36.30
  -4   0   2  575.34   36.20
  -4   0   2  660.13   36.30
   3   0  -2  229.78   14.50
   3   0  -2  218.78   15.00
   3   0  -2  229.18   14.40
  -3   0   2  218.08   15.80
  -3   0   2  255.87   14.50
  -3   0   2  242.18   14.50
  -3   0   2  239.28   14.50
   2   0  -2 1156.48   65.19
   2   0  -2 1023.10   64.89
   2   0  -2 1050.99   64.59
   2   0  -2  997.10   64.49
   2   0  -2 1160.28   64.59
   2   0  -2 1102.79   64.59
  -2   0   2  963.40   65.09
  -2   0   2 1078.49   64.59
  -2   0   2 1042.90   64.59
  -2   0   2 1091.59   64.59
  -2   0   2 1257.77   64.69
   1   0  -2   48.30    3.30
   1   0  -2   46.10    3.60
   1   0  -2   52.99    4.00
   1   0  -2   42.90    3.20
   1   0  -2   44.40    3.30
   1   0  -2   45.70    3.30
  -1   0   2   49.90    3.50
  -1   0   2   48.00    3.20
  -1   0   2   53.09    3.30
  -1   0   2   45.00    3.20
  -1   0   2   44.90    4.20
  -1   0   2   47.50    3.20
   0   0  -2 1736.93   92.49
   0   0  -2 1535.35   90.59
   0   0  -2 1390.56   90.49
   0   0  -2 1521.85   90.59
   0   0  -2 1493.75   90.59
   0   0  -2 1414.76   90.49
   0   0  -2 1409.56   93.79
   0   0   2 1610.94   92.39
   0   0   2 1564.84   90.49
   0   0   2 1518.25   90.89
   0   0   2 1476.05   90.39
   0   0   2 1531.65   90.59
   0   0   2 1549.14   94.89
  -1   0  -2  877.31   57.39
  -1   0  -2 1054.79   56.89
  -1   0  -2  978.60   56.79
  -1   0  -2  948.71   56.79
  -1   0  -2  916.61   56.99
  -1   0  -2  910.71   56.69
   1   0   2  946.21   59.19
   1   0   2  993.70   56.69
  -2   0  -2   25.90    4.00
  -2   0  -2   25.10    2.00
  -2   0  -2   28.00    2.00
  -2   0  -2   23.90    3.00
  -2   0  -2   22.90    2.00
  -2   0  -2   25.60    2.00
   2   0   2   25.40    1.80
   2   0   2   33.40    2.90
   2   0   2   31.00    3.80
   2   0   2   30.90    2.00
  -3   0  -2  151.48   12.00
  -3   0  -2  168.68   10.50
  -3   0  -2  193.58   10.60
  -3   0  -2  169.78   10.50
  -3   0  -2  165.98   11.60
  -3   0  -2  177.08   10.50
  -3   0  -2  158.18   11.10
   3   0   2  180.48   10.50
   3   0   2  161.88   11.60
   3   0   2  184.68   10.90
   3   0   2  169.08   10.40
   3   0   2  170.18   10.40
  -4   0  -2    1.40    1.70
  -4   0  -2    0.40    1.50
  -4   0  -2   -0.60    3.20
  -4   0  -2    0.20    2.90
  -4   0  -2    2.20    1.70
  -4   0  -2    2.30    1.80
  -4   0  -2   -2.50    2.20
   4   0   2    4.20    2.60
   4   0   2    1.10    1.40
  -5   0  -2  110.49    9.80
  -5   0  -2  111.59    8.70
  -5   0  -2  121.09    8.20
  -5   0  -2  117.99   10.30
  -5   0  -2  125.09    8.30
  -5   0  -2  140.19    8.30
  -5   0  -2  125.39    8.20
   5   0   2  120.69    7.80
   5   0   2  121.19    8.00
   5   0   2  118.79    9.00
  -6   0  -2   25.10    3.50
  -6   0  -2   28.10    7.50
  -6   0  -2   24.40    3.60
  -7   0  -2   33.90    7.50
  -7   0  -2   28.10    4.00
  -7   0  -2   36.80    4.30
  -8   0  -2   52.69    9.20
  -8   0  -2   37.10    5.40
  -8   0  -2   42.00    5.10
  -7   1   2  527.85   33.50
  -7   1   2  572.64   33.30
  -7   1   2  512.35   37.20
   6  -1  -2  244.98   16.50
  -6   1   2  254.57   16.70
  -6   1   2  260.37   16.60
  -6   1   2  266.47   20.80
   5  -1  -2 1996.50  119.79
  -5   1   2 2026.40  119.79
  -5   1   2 1959.70  121.39
  -5   1   2 2048.99  119.69
   4  -1  -2    6.70    2.50
   4  -1  -2    3.30    2.10
  -4   1   2    5.10    1.90
  -4   1   2   -1.40    4.90
  -4   1   2    8.30    2.60
  -4   1   2    3.30    1.90
   3  -1  -2 5531.65  330.37
   3  -1  -2 5461.35  330.67
  -3   1   2 4972.80  333.57
  -3   1   2 5576.84  330.67
  -3   1   2 6075.89  330.97
  -3   1   2 5621.14  330.07
   2  -1  -2  695.73   39.30
   2  -1  -2  720.53   40.20
   2  -1  -2  590.94   39.90
   2  -1  -2  613.54   39.40
   2  -1  -2  674.63   39.20
   2  -1  -2  666.43   39.30
   2  -1  -2  629.74   39.20
  -2   1   2  762.62   39.30
  -2   1   2  662.13   39.30
  -2   1   2  617.24   39.20
  -2   1   2  635.74   39.20
  -2   1   2  608.44   40.10
   1  -1  -2 8954.80  495.45
   1  -1  -2 8629.14  499.35
   1  -1  -2 8826.32  495.65
   1  -1  -2 8872.71  495.55
   1  -1  -2 7779.82  494.95
  -1   1   2 7613.44  494.95
  -1   1   2 7651.23  498.55
  -1   1   2 8339.07  495.45
   0  -1  -2 2158.68  149.09
   0  -1  -2 2637.34  147.79
   0  -1  -2 2574.34  147.79
   0  -1  -2 2466.85  147.69
   0  -1  -2 2439.76  149.49
   0  -1  -2 2744.13  150.28
   0  -1  -2 2472.95  147.69
   0  -1  -2 2338.57  151.58
   0   1   2 2386.96  152.28
   0   1   2 2279.67  147.59
   0   1   2 2649.93  147.79
   0   1   2 2448.85  149.59
   0   1   2 2425.16  147.59
   0   1   2 2569.84  147.69
   0   1   2 2563.84  149.49
  -1  -1  -2 2157.88  132.29
  -1  -1  -2 2101.59  133.49
  -1  -1  -2 1998.80  134.79
  -1  -1  -2 2335.57  132.39
  -1  -1  -2 2088.09  132.19
  -1  -1  -2 2472.35  135.99
  -1  -1  -2 2163.58  132.19
   1   1   2 2193.38  132.09
   1   1   2 2187.68  132.29
   1   1   2 2381.16  134.49
   1   1   2 2278.37  132.19
   1   1   2 2165.68  136.99
   1   1   2 2319.47  135.59
  -2  -1  -2 3722.03  223.68
  -2  -1  -2 3602.94  220.78
  -2  -1  -2 3505.65  220.58
  -2  -1  -2 4104.69  220.98
  -2  -1  -2 3557.84  227.48
  -2  -1  -2 3489.75  220.68
   2   1   2 3721.43  220.28
   2   1   2 4014.10  223.98
   2   1   2 3741.33  227.98
   2   1   2 3831.92  220.58
   2   1   2 3408.16  220.28
   2   1   2 3763.82  220.78
  -3  -1  -2    3.40    1.30
  -3  -1  -2   13.40    2.60
  -3  -1  -2    7.30    1.50
  -3  -1  -2   12.00    3.60
  -3  -1  -2    9.60    1.80
  -3  -1  -2    4.30    1.50
  -3  -1  -2    3.80    1.50
   3   1   2    6.10    3.30
   3   1   2   10.00    1.50
   3   1   2    6.20    1.50
   3   1   2    9.70    1.30
   3   1   2    4.60    2.20
  -4  -1  -2 2020.40  117.59
  -4  -1  -2 1942.21  118.19
  -4  -1  -2 1797.62  117.69
  -4  -1  -2 1999.70  117.59
  -4  -1  -2 1734.93  118.49
  -4  -1  -2 2038.70  117.09
   4   1   2 1922.91  119.39
   4   1   2 2066.99  117.19
   4   1   2 2033.60  117.09
   4   1   2 2141.39  117.59
  -5  -1  -2  178.68   15.60
  -5  -1  -2  260.47   13.80
  -5  -1  -2  218.38   16.20
  -5  -1  -2  193.58   14.40
  -5  -1  -2  229.98   13.70
  -5  -1  -2  212.78   13.60
  -5  -1  -2  216.18   13.60
   5   1   2  203.58   13.40
   5   1   2  229.88   14.00
   5   1   2  213.68   15.00
   5   1   2  224.78   13.40
  -6  -1  -2  438.96   28.10
  -6  -1  -2  458.95   28.10
  -6  -1  -2  481.15   30.80
   6   1   2  457.95   27.90
  -7  -1  -2  150.98   10.90
  -7  -1  -2  157.08   15.90
  -7  -1  -2  145.79   10.70
  -8  -1  -2   83.29    7.50
  -8  -1  -2   88.19   12.50
  -8  -1  -2   89.39    7.50
  -7   2   2   12.20    4.20
  -7   2   2   11.70    8.30
  -7   2   2   16.80    9.90
  -7   2   2   17.00    4.50
   6  -2  -2 1267.87   76.49
  -6   2   2 1266.37   78.89
  -6   2   2 1259.07   76.59
  -6   2   2 1336.37   79.19
  -6   2   2 1255.57   76.59
   5  -2  -2  384.16   24.40
  -5   2   2  398.86   27.50
  -5   2   2  409.16   24.50
  -5   2   2  370.06   24.50
  -5   2   2  416.06   27.20
   4  -2  -2 2026.50  124.49
  -4   2   2 2099.09  125.99
  -4   2   2 1953.50  125.89
  -4   2   2 2137.69  124.49
  -4   2   2 2029.60  124.49
  -4   2   2 2292.27  124.49
   3  -2  -2 2809.92  172.38
   3  -2  -2 2889.81  171.98
  -3   2   2 2900.51  172.48
  -3   2   2 3172.98  172.08
  -3   2   2 2847.92  172.38
  -3   2   2 2674.63  172.68
  -3   2   2 2923.91  175.58
   2  -2  -2  450.65   24.10
   2  -2  -2  419.26   24.10
   2  -2  -2  351.76   24.50
   2  -2  -2  420.66   24.20
   2  -2  -2  377.46   24.10
  -2   2   2  392.16   24.10
  -2   2   2  413.16   24.40
  -2   2   2  388.26   25.10
  -2   2   2  383.56   25.20
  -2   2   2  403.06   24.20
   1  -2  -2 6810.92  425.76
   1  -2  -2 7947.90  422.36
   1  -2  -2 7112.79  423.96
   1  -2  -2 7700.33  421.96
   1  -2  -2 7615.04  422.46
   1  -2  -2 7239.88  421.96
   1  -2  -2 6869.21  427.66
   1  -2  -2 7169.48  426.46
  -1   2   2 6584.24  426.66
  -1   2   2 6276.27  421.46
  -1   2   2 7210.88  423.46
  -1   2   2 6289.17  425.76
  -1   2   2 8243.48  422.36
  -1   2   2 6913.01  421.56
  -1   2   2 6550.84  425.56
  -1   2   2 6944.81  422.06
   0  -2  -2  405.76   23.60
   0  -2  -2  387.76   24.20
   0  -2  -2  374.76   24.20
   0  -2  -2  422.06   23.60
   0  -2  -2  368.96   24.90
   0  -2  -2  388.16   23.60
   0  -2  -2  423.06   23.60
   0   2   2  377.86   24.90
   0   2   2  392.46   24.40
   0   2   2  391.06   23.60
   0   2   2  362.96   24.20
   0   2   2  404.86   23.60
   0   2   2  399.56   23.60
   0   2   2  420.46   24.20
   0   2   2  381.56   23.60
  -1  -2  -2 7215.78  463.75
  -1  -2  -2 8464.35  469.25
  -1  -2  -2 7639.24  464.15
  -1  -2  -2 8127.89  475.25
  -1  -2  -2 8505.65  464.35
  -1  -2  -2 7730.73  469.55
  -1  -2  -2 8061.19  464.05
   1   2   2 6815.42  469.05
   1   2   2 7687.83  464.25
   1   2   2 7710.33  464.05
   1   2   2 8405.26  468.75
   1   2   2 7353.46  463.95
   1   2   2 7778.32  463.95
   1   2   2 7820.52  474.55
  -2  -2  -2  289.97   18.30
  -2  -2  -2  278.57   18.30
  -2  -2  -2  296.37   18.30
  -2  -2  -2  358.36   18.40
  -2  -2  -2  292.87   20.50
  -2  -2  -2  283.17   18.30
  -2  -2  -2  306.27   19.40
   2   2   2  294.67   18.30
   2   2   2  310.37   18.30
   2   2   2  298.77   20.60
   2   2   2  303.17   18.30
   2   2   2  351.96   19.50
   2   2   2  284.97   18.40
  -3  -2  -2 3977.60  212.48
  -3  -2  -2 3282.17  217.68
  -3  -2  -2 3575.64  212.78
  -3  -2  -2 4033.80  213.48
  -3  -2  -2 3414.76  214.58
  -3  -2  -2 3669.23  213.18
  -3  -2  -2 3552.64  212.48
   3   2   2 3649.83  214.98
   3   2   2 3502.65  212.58
   3   2   2 3355.76  219.58
   3   2   2 3138.69  213.08
  -4  -2  -2  752.32   43.70
  -4  -2  -2  702.53   44.70
  -4  -2  -2  674.13   46.00
  -4  -2  -2  764.82   43.80
  -4  -2  -2  773.62   45.00
  -4  -2  -2  751.12   43.80
   4   2   2  760.22   43.70
   4   2   2  668.33   44.30
   4   2   2  672.33   43.70
   4   2   2  705.63   45.80
   4   2   2  793.32   44.70
  -5  -2  -2  674.13   37.10
  -5  -2  -2  599.04   38.70
  -5  -2  -2  565.14   39.40
  -5  -2  -2  610.24   37.10
  -5  -2  -2  633.94   37.10
  -5  -2  -2  590.94   38.00
   5   2   2  617.94   37.00
   5   2   2  631.44   36.90
   5   2   2  600.94   38.90
  -6  -2  -2  908.81   56.29
  -6  -2  -2  866.31   54.49
  -6  -2  -2  914.11   55.39
  -6  -2  -2  895.91   54.59
   6   2   2  957.10   56.19
   6   2   2  891.21   54.39
  -7  -2  -2   33.30    4.80
  -7  -2  -2   39.00    4.80
  -7  -2  -2   31.50    6.90
  -8  -2  -2  646.54   40.30
  -8  -2  -2  667.93   43.90
  -7   3   2   65.69    9.60
  -7   3   2   68.49    6.70
  -7   3   2   61.99   10.30
  -7   3   2   55.09    6.20
  -6   3   2   55.49    5.50
  -6   3   2   52.89    9.50
  -6   3   2   45.10   10.30
  -6   3   2   47.70    5.30
   5  -3  -2   16.00    3.30
  -5   3   2   17.70    3.70
  -5   3   2   14.70    5.40
  -5   3   2   13.70    3.50
  -5   3   2   13.60    7.60
   4  -3  -2  166.08   11.50
  -4   3   2  157.48   13.70
  -4   3   2  187.38   11.70
  -4   3   2  186.38   14.70
  -4   3   2  179.78   11.60
   3  -3  -2   44.40    3.90
  -3   3   2   41.70    4.00
  -3   3   2   52.59    4.30
  -3   3   2   42.30    3.90
  -3   3   2   44.20    6.60
  -3   3   2   38.30    5.30
   2  -3  -2 1003.10   55.39
   2  -3  -2  840.92   56.19
   2  -3  -2  912.41   55.59
   2  -3  -2  996.40   55.39
  -2   3   2  854.71   55.89
  -2   3   2  871.71   56.39
  -2   3   2  922.31   56.49
  -2   3   2  964.10   55.39
  -2   3   2  920.31   55.39
  -2   3   2  945.51   55.39
  -2   3   2  962.90   55.39
   1  -3  -2  160.98    8.80
   1  -3  -2  153.98   10.00
   1  -3  -2  137.79    8.70
   1  -3  -2  113.09    9.60
   1  -3  -2  143.79    9.70
   1  -3  -2  143.39    8.80
  -1   3   2  145.39    8.80
  -1   3   2  133.29   10.50
  -1   3   2  148.39    9.50
  -1   3   2  126.29    8.70
  -1   3   2  134.49    8.70
  -1   3   2  124.79    8.80
  -1   3   2  125.59   10.10
  -1   3   2  139.49   10.50
   0  -3  -2 2686.23  170.08
   0  -3  -2 3158.78  171.08
   0  -3  -2 2873.51  168.58
   0  -3  -2 2975.80  168.88
   0  -3  -2 2861.11  171.78
   0  -3  -2 2889.91  168.48
   0  -3  -2 2598.04  173.88
   0   3   2 2724.33  168.58
   0   3   2 2895.61  168.38
   0   3   2 2860.21  170.98
   0   3   2 3186.98  171.08
   0   3   2 2488.15  169.08
   0   3   2 2593.24  168.18
   0   3   2 2769.62  168.38
   0   3   2 2782.52  174.88
  -1  -3  -2  108.99    7.20
  -1  -3  -2  132.19    8.70
  -1  -3  -2  103.59   10.60
  -1  -3  -2  108.99    7.30
  -1  -3  -2  114.99    7.30
  -1  -3  -2  123.49    7.40
  -1  -3  -2  102.29    9.10
  -1  -3  -2  105.49    7.40
   1   3   2  116.09    7.50
   1   3   2  109.29    7.30
   1   3   2  124.39    8.50
   1   3   2  121.79    7.40
   1   3   2  129.19    7.40
   1   3   2  110.89    8.80
   1   3   2  115.79   10.30
   1   3   2  113.39    7.40
  -2  -3  -2 1134.39   69.69
  -2  -3  -2 1063.19   69.69
  -2  -3  -2 1131.29   69.79
  -2  -3  -2 1096.99   72.29
  -2  -3  -2 1139.59   69.69
  -2  -3  -2 1166.78   70.99
  -2  -3  -2 1365.36   69.79
   2   3   2 1166.18   72.19
   2   3   2 1230.88   69.69
   2   3   2 1314.37   70.99
   2   3   2 1161.68   69.69
   2   3   2 1117.69   69.79
   2   3   2 1090.79   69.69
   2   3   2 1211.28   71.39
   2   3   2 1169.78   69.69
  -3  -3  -2  333.77   20.20
  -3  -3  -2  370.56   20.40
  -3  -3  -2  305.97   23.60
  -3  -3  -2  316.47   21.90
  -3  -3  -2  329.37   20.30
  -3  -3  -2  337.87   20.30
   3   3   2  311.07   20.50
   3   3   2  334.97   20.20
   3   3   2  330.77   20.30
   3   3   2  343.87   23.50
  -4  -3  -2  986.80   65.09
  -4  -3  -2 1127.49   63.79
  -4  -3  -2 1077.89   63.89
  -4  -3  -2  966.30   66.69
  -4  -3  -2 1096.89   63.89
   4   3   2 1143.49   63.79
   4   3   2 1074.19   63.79
   4   3   2 1163.08   66.99
   4   3   2  966.70   64.19
  -5  -3  -2 1150.38   66.89
  -5  -3  -2 1022.40   67.89
  -5  -3  -2 1000.40   69.39
  -5  -3  -2 1143.89   66.89
  -5  -3  -2 1154.88   67.99
  -5  -3  -2 1135.79   66.69
   5   3   2 1296.97   69.89
   5   3   2 1132.09   66.79
   5   3   2 1000.80   67.29
  -6  -3  -2  293.97   21.00
  -6  -3  -2  294.07   18.60
  -6  -3  -2  294.37   18.50
  -6  -3  -2  271.67   20.10
   6   3   2  297.47   18.30
  -7  -3  -2  834.72   51.69
  -7  -3  -2  842.92   51.79
  -7  -3  -2  869.01   54.09
   7   3   2  866.21   51.59
  -8  -3  -2   -2.20    4.50
  -8  -3  -2    4.80    4.50
  -8  -3  -2    0.20    8.60
  -6   4   2   16.10    4.50
  -6   4   2   20.60    9.70
  -6   4   2   12.40    4.10
  -6   4   2   12.20    8.20
   5  -4  -2    8.10    3.50
  -5   4   2    8.60    7.10
  -5   4   2   10.30    8.20
  -5   4   2   11.50    4.00
  -5   4   2    6.60    3.40
   4  -4  -2   10.50    2.90
  -4   4   2   15.00    3.50
  -4   4   2   15.80    7.10
  -4   4   2   12.80    6.30
  -4   4   2    7.50    3.30
   3  -4  -2    0.80    2.00
   3  -4  -2    1.90    2.30
  -3   4   2   -0.20    1.50
  -3   4   2    4.60    2.60
  -3   4   2    0.50    2.40
  -3   4   2    2.50    2.70
  -3   4   2    0.20    2.30
  -3   4   2   -0.90    5.50
  -3   4   2    3.00    5.10
   2  -4  -2   79.29    7.50
   2  -4  -2   87.89    6.30
  -2   4   2   89.69    9.10
  -2   4   2   79.29    6.30
  -2   4   2   92.69    6.60
  -2   4   2   90.19    6.40
  -2   4   2   83.79    8.10
  -2   4   2   82.89    9.20
  -2   4   2   90.09    6.90
  -2   4   2  104.19    6.50
   1  -4  -2   33.70    3.20
   1  -4  -2   25.30    5.50
   1  -4  -2   27.00    4.30
   1  -4  -2   38.20    3.10
  -1   4   2   34.90    3.40
  -1   4   2   43.00    3.30
  -1   4   2   38.40    4.20
  -1   4   2   36.60    4.70
  -1   4   2   33.20    5.20
  -1   4   2   34.70    5.60
  -1   4   2   33.00    3.20
  -1   4   2   35.30    3.00
   0  -4  -2   27.50    6.70
   0  -4  -2   51.39    3.50
   0  -4  -2   71.59    5.90
   0  -4  -2   33.50    5.40
   0  -4  -2   53.29    3.90
   0  -4  -2   42.70    3.80
   0   4   2   43.80    5.00
   0   4   2   45.20    4.00
   0   4   2   38.20    5.40
   0   4   2   54.89    3.90
   0   4   2   45.90    6.80
   0   4   2   49.20    4.00
   0   4   2   46.30    3.50
   0   4   2   51.89    4.80
  -1  -4  -2   37.90    3.10
  -1  -4  -2   30.90    5.70
  -1  -4  -2   47.50    3.70
  -1  -4  -2   27.00    7.10
  -1  -4  -2   42.00    3.40
  -1  -4  -2   36.80    3.30
   1   4   2   37.80    3.50
   1   4   2   39.00    3.50
   1   4   2   38.00    6.20
   1   4   2   39.50    3.40
   1   4   2   30.20    5.50
   1   4   2   40.10    3.50
   1   4   2   37.90    3.40
  -2  -4  -2  478.95   30.20
  -2  -4  -2  447.66   33.90
  -2  -4  -2  527.05   30.20
  -2  -4  -2  539.55   30.30
  -2  -4  -2  476.05   32.20
  -2  -4  -2  478.55   30.30
   2   4   2  481.25   32.10
   2   4   2  519.15   33.40
   2   4   2  525.75   30.50
   2   4   2  510.65   30.20
   2   4   2  507.45   30.30
   2   4   2  504.85   30.20
  -3  -4  -2   14.50    2.70
  -3  -4  -2   13.00    2.60
  -3  -4  -2   16.50    2.60
  -3  -4  -2    9.40    5.30
  -3  -4  -2    5.30    7.00
  -3  -4  -2   14.40    2.30
   3   4   2   11.20    4.50
   3   4   2   12.20    3.00
   3   4   2   12.70    2.70
   3   4   2   17.10    2.40
   3   4   2   28.80    6.90
  -4  -4  -2  489.75   28.30
  -4  -4  -2  444.76   30.40
  -4  -4  -2  434.46   32.60
  -4  -4  -2  473.85   28.50
  -4  -4  -2  471.05   28.30
   4   4   2  478.45   28.30
   4   4   2  455.95   28.90
   4   4   2  465.05   28.40
  -5  -4  -2    8.60    8.50
  -5  -4  -2    6.40    6.20
  -5  -4  -2   11.60    4.90
  -5  -4  -2    5.00    3.30
  -5  -4  -2   12.20    2.90
  -5  -4  -2   12.40    3.50
   5   4   2   16.40    7.20
   5   4   2   15.10    3.10
   5   4   2   16.10    2.90
   5   4   2    5.50    4.30
  -6  -4  -2  166.18   13.40
  -6  -4  -2  170.38   10.90
  -6  -4  -2  145.59   10.90
  -6  -4  -2  124.19   13.80
   6   4   2  158.88   10.60
   6   4   2  120.99   12.10
  -7  -4  -2    6.60    4.60
  -7  -4  -2    5.60    4.40
  -7  -4  -2    4.10    6.90
  -7  -4  -2   10.50    6.70
   7   4   2    6.80    4.00
  -8  -4  -2  180.88   13.80
  -8  -4  -2  162.88   13.00
  -8  -4  -2  180.88   17.30
  -6   5   2  221.68   21.20
  -6   5   2  224.28   20.60
  -6   5   2  220.28   15.10
  -6   5   2  221.88   15.50
  -5   5   2   13.80    4.40
  -5   5   2    5.00    6.00
  -5   5   2   10.80    4.30
  -5   5   2    9.20    6.60
   4  -5  -2  533.15   31.70
  -4   5   2  502.65   34.70
  -4   5   2  536.05   31.80
  -4   5   2  495.85   32.00
  -4   5   2  521.35   34.90
   3  -5  -2  174.58   10.90
  -3   5   2  164.58   14.60
  -3   5   2  167.38   11.00
  -3   5   2  160.28   11.20
  -3   5   2  157.98   11.90
  -3   5   2  149.88   14.40
   2  -5  -2  737.03   44.70
   2  -5  -2  770.12   45.70
  -2   5   2  745.83   44.80
  -2   5   2  748.33   46.50
  -2   5   2  741.03   44.80
  -2   5   2  695.63   46.70
  -2   5   2  716.03   44.90
  -2   5   2  706.63   46.40
  -2   5   2  824.02   45.40
   1  -5  -2  580.54   35.50
   1  -5  -2  504.95   36.60
   1  -5  -2  625.94   35.50
  -1   5   2  562.44   37.50
  -1   5   2  584.64   35.50
  -1   5   2  605.64   38.00
  -1   5   2  577.54   35.60
  -1   5   2  575.94   35.60
  -1   5   2  692.03   35.70
  -1   5   2  581.04   37.00
   0  -5  -2  431.86   32.70
   0  -5  -2  546.75   31.10
   0  -5  -2  539.55   31.10
   0  -5  -2  421.36   34.30
   0   5   2  557.54   34.00
   0   5   2  489.55   31.10
   0   5   2  589.94   31.20
   0   5   2  526.75   32.20
   0   5   2  514.95   31.10
   0   5   2  515.05   31.50
   0   5   2  516.45   33.20
   0   5   2  513.25   31.20
  -1  -5  -2  938.41   54.19
  -1  -5  -2  801.72   57.59
  -1  -5  -2  823.72   55.79
  -1  -5  -2  919.61   54.09
   1   5   2  893.81   54.09
   1   5   2  985.30   57.29
   1   5   2  858.31   55.99
   1   5   2  949.51   54.19
   1   5   2  908.11   54.29
   1   5   2  905.01   54.39
   1   5   2  957.90   54.99
  -2  -5  -2   42.70    4.00
  -2  -5  -2   38.30    4.10
  -2  -5  -2   48.20    3.80
  -2  -5  -2   38.90    9.60
  -2  -5  -2   33.90    7.20
   2   5   2   42.80    4.20
   2   5   2   47.40    3.90
   2   5   2   48.30    3.90
   2   5   2   40.10    6.50
   2   5   2   49.80    4.80
   2   5   2   51.69    7.90
  -3  -5  -2  682.03   43.80
  -3  -5  -2  662.83   46.30
  -3  -5  -2  688.03   41.10
  -3  -5  -2  654.53   41.20
  -3  -5  -2  720.63   41.10
   3   5   2  721.73   41.60
   3   5   2  674.03   41.00
   3   5   2  659.93   44.00
   3   5   2  666.63   41.20
  -4  -5  -2  175.48   11.60
  -4  -5  -2  171.88   11.70
  -4  -5  -2  155.38   18.40
  -4  -5  -2  196.18   11.60
  -4  -5  -2  159.58   15.40
   4   5   2  178.38   11.60
   4   5   2  176.08   12.50
   4   5   2  169.28   11.80
   4   5   2  183.48   15.00
  -5  -5  -2   34.50    4.70
  -5  -5  -2   41.40    6.00
  -5  -5  -2   37.00    7.80
  -5  -5  -2   27.60   10.10
  -5  -5  -2   37.60    4.60
   5   5   2   23.20    5.50
   5   5   2   31.60    4.50
   5   5   2   53.29    9.90
   5   5   2   39.50    4.20
  -6  -5  -2   53.19    6.00
  -6  -5  -2   64.99    8.00
  -6  -5  -2   55.19    6.10
  -6  -5  -2   52.79    9.50
   6   5   2  103.79   15.50
   6   5   2   65.29    5.80
   6   5   2   49.70    7.60
  -7  -5  -2    0.40    4.10
  -7  -5  -2   -0.30    7.30
  -7  -5  -2   -0.90    4.50
  -7  -5  -2    2.30    6.40
   7   5   2   -3.90    6.30
   7   5   2    2.50    3.80
  -8  -5  -2    8.70    7.90
  -8  -5  -2   -3.80    5.10
  -8  -5  -2   -1.20    5.20
  -5   6   2 1031.60   59.09
  -5   6   2  965.90   61.59
  -5   6   2  976.50   62.69
  -5   6   2  936.71   59.19
  -4   6   2  248.58   21.30
  -4   6   2  296.57   17.80
  -4   6   2  263.27   17.80
  -4   6   2  257.87   21.80
   3  -6  -2 1249.47   72.99
  -3   6   2 1195.88   75.09
  -3   6   2 1236.78   73.19
  -3   6   2 1202.08   73.19
  -3   6   2 1207.08   75.39
   2  -6  -2 1241.48   64.69
   2  -6  -2 1088.29   64.59
  -2   6   2 1009.60   66.29
  -2   6   2 1009.70   66.89
  -2   6   2 1036.80   64.69
  -2   6   2 1042.30   64.59
  -2   6   2 1108.89   66.69
   1  -6  -2  333.07   20.00
   1  -6  -2  280.87   21.80
  -1   6   2  312.97   22.90
  -1   6   2  359.86   23.60
  -1   6   2  315.77   20.10
  -1   6   2  307.47   21.90
  -1   6   2  349.57   20.00
  -1   6   2  312.87   20.20
   0  -6  -2 2252.87  132.59
   0  -6  -2 1990.90  134.19
   0  -6  -2 2375.76  132.69
   0   6   2 2480.95  135.69
   0   6   2 2221.38  132.69
   0   6   2 2220.48  132.69
   0   6   2 2220.48  134.69
   0   6   2 2255.97  132.59
   0   6   2 2135.29  132.99
   0   6   2 2119.19  133.59
  -1  -6  -2   53.39    4.40
  -1  -6  -2   47.60    4.50
  -1  -6  -2   40.30    8.90
  -1  -6  -2   44.40    6.90
   1   6   2   41.20    7.60
   1   6   2   40.40    5.40
   1   6   2   56.69    4.70
   1   6   2   46.10    4.20
   1   6   2   50.39    4.30
   1   6   2   49.10    4.60
   1   6   2   49.99    8.50
  -2  -6  -2 2337.07  133.79
  -2  -6  -2 2203.68  133.79
  -2  -6  -2 2222.28  136.29
  -2  -6  -2 2199.88  138.79
   2   6   2 2096.79  136.19
   2   6   2 2411.96  133.79
   2   6   2 2056.39  133.79
   2   6   2 2144.59  133.79
   2   6   2 2291.97  134.09
   2   6   2 2495.45  137.49
  -3  -6  -2  432.36   33.70
  -3  -6  -2  433.86   26.80
  -3  -6  -2  424.96   30.50
  -3  -6  -2  436.96   26.80
   3   6   2  433.36   26.80
   3   6   2  490.15   31.70
   3   6   2  430.26   26.80
   3   6   2  382.26   29.50
   3   6   2  457.85   27.40
  -4  -6  -2 1191.28   78.79
  -4  -6  -2 1239.88   73.09
  -4  -6  -2 1216.98   75.99
  -4  -6  -2 1222.98   73.09
   4   6   2 1147.09   75.89
   4   6   2 1184.38   73.09
   4   6   2 1298.17   73.69
   4   6   2 1236.28   72.99
  -5  -6  -2  449.76   29.10
  -5  -6  -2  462.15   31.60
  -5  -6  -2  500.15   29.90
  -5  -6  -2  483.95   29.00
   5   6   2  481.95   28.90
   5   6   2  431.26   29.90
   5   6   2  457.45   29.00
  -6  -6  -2  242.28   16.10
  -6  -6  -2  221.38   20.70
  -6  -6  -2  247.38   17.20
  -6  -6  -2  243.08   15.40
   6   6   2  223.58   15.70
   6   6   2  211.48   17.30
  -7  -6  -2  372.16   25.40
  -7  -6  -2  419.76   25.50
  -7  -6  -2  383.76   28.20
  -7  -6  -2  430.16   27.30
   7   6   2  389.16   25.20
   7   6   2  374.16   27.00
  -8  -6  -2   -1.70    5.40
  -8  -6  -2    3.50    5.40
  -8  -6  -2   -5.30    7.40
   8   6   2   -0.70    8.00
  -5   7   2  194.58   18.40
  -5   7   2  218.58   15.10
  -5   7   2  201.28   20.10
  -5   7   2  213.18   14.70
  -4   7   2  120.59    9.30
  -4   7   2   92.89   12.60
  -4   7   2  101.39    8.80
  -4   7   2  102.49   12.40
  -3   7   2  558.64   39.00
  -3   7   2  607.64   36.60
  -3   7   2  585.84   40.10
  -3   7   2  624.94   36.60
   2  -7  -2    8.90    3.30
  -2   7   2   10.90    4.20
  -2   7   2   11.00    6.50
  -2   7   2   11.60    6.50
  -2   7   2   13.00    6.10
   1  -7  -2 1383.96   89.39
   1  -7  -2 1535.05   87.69
  -1   7   2 1469.15   90.09
  -1   7   2 1510.25   87.79
  -1   7   2 1465.45   89.09
  -1   7   2 1431.76   87.79
   0  -7  -2  104.69    7.70
   0  -7  -2   99.89    7.50
   0  -7  -2   70.59   10.30
   0   7   2   97.79   12.50
   0   7   2   97.49    8.10
   0   7   2  100.39    8.80
   0   7   2  132.09   13.10
   0   7   2   98.59    7.80
   0   7   2  105.69    7.60
   0   7   2   90.89    9.50
  -1  -7  -2 1075.59   75.09
  -1  -7  -2 1308.27   72.69
  -1  -7  -2 1218.48   72.69
   1   7   2 1277.67   72.69
   1   7   2 1249.18   72.59
   1   7   2 1342.97   76.59
   1   7   2 1135.29   72.69
   1   7   2 1163.18   72.99
   1   7   2 1132.79   75.19
  -2  -7  -2  281.47   24.50
  -2  -7  -2  326.67   20.30
  -2  -7  -2  322.37   20.20
   2   7   2  300.57   20.10
   2   7   2  319.57   20.70
   2   7   2  365.86   25.50
   2   7   2  329.27   20.20
   2   7   2  334.37   20.30
   2   7   2  303.37   24.20
  -3  -7  -2  629.94   35.80
  -3  -7  -2  570.54   35.60
  -3  -7  -2  545.65   39.80
   3   7   2  602.84   35.60
   3   7   2  622.34   36.30
   3   7   2  571.34   35.90
   3   7   2  537.35   39.40
  -4  -7  -2  704.93   42.70
  -4  -7  -2  672.33   46.80
  -4  -7  -2  736.43   43.00
   4   7   2  715.43   42.80
   4   7   2  760.82   43.70
   4   7   2  636.54   46.00
   4   7   2  697.73   43.00
  -5  -7  -2  100.09    8.80
  -5  -7  -2   96.09    8.50
  -5  -7  -2   96.89   13.30
   5   7   2   96.19    9.80
   5   7   2  112.59    7.90
   5   7   2  101.99    9.00
  -6  -7  -2  932.11   57.29
  -6  -7  -2 1033.20   57.19
  -6  -7  -2  986.00   57.99
  -6  -7  -2  834.32   59.99
   6   7   2  950.80   58.29
   6   7   2  902.61   57.09
  -7  -7  -2   -0.70    6.10
  -7  -7  -2    4.70    5.30
  -7  -7  -2   -3.40    4.90
  -7  -7  -2   -7.10    8.20
   7   7   2    2.60    5.10
   7   7   2    0.30    7.30
  -4   8   2  251.47   23.70
  -4   8   2  293.87   18.70
  -4   8   2  263.37   22.60
  -4   8   2  267.37   18.20
  -3   8   2   21.20    4.80
  -3   8   2   18.00    5.40
  -3   8   2   14.00    8.10
  -3   8   2   16.40    9.50
  -2   8   2  443.96   29.10
  -2   8   2  459.35   32.00
  -2   8   2  456.95   31.20
  -2   8   2  499.55   29.10
   1  -8  -2    1.90    3.50
  -1   8   2   -3.00    5.70
  -1   8   2    7.60    4.40
  -1   8   2    7.50    7.30
  -1   8   2    2.60    5.90
  -1   8   2    3.60    3.80
  -1   8   2    7.50    4.10
   0  -8  -2  832.02   47.80
   0  -8  -2  695.23   50.29
   0   8   2  783.52   47.80
   0   8   2  784.42   49.10
   0   8   2  769.82   47.90
   0   8   2  832.32   48.50
   0   8   2  816.42   51.19
  -1  -8  -2  139.49   17.60
  -1  -8  -2  212.08   13.40
  -1  -8  -2  194.78   12.80
   1   8   2  197.68   13.00
   1   8   2  183.58   13.10
   1   8   2  187.28   13.60
   1   8   2  184.28   16.10
  -2  -8  -2  929.61   49.99
  -2  -8  -2  779.12   53.19
  -2  -8  -2  825.82   49.99
   2   8   2  838.02   50.49
   2   8   2  801.22   50.09
   2   8   2  850.01   49.90
   2   8   2  747.93   52.79
  -3  -8  -2 1103.79   73.09
  -3  -8  -2 1198.98   68.99
  -3  -8  -2 1117.59   68.99
   3   8   2 1188.08   68.99
   3   8   2 1149.08   69.19
   3   8   2 1044.30   72.49
   3   8   2 1211.18   69.59
  -4  -8  -2  173.78   18.40
  -4  -8  -2  209.98   13.60
  -4  -8  -2  192.58   13.20
   4   8   2  166.98   19.60
   4   8   2  205.18   14.80
   4   8   2  201.58   13.30
   4   8   2  197.98   13.50
  -5  -8  -2  999.70   62.19
  -5  -8  -2 1099.79   62.09
  -5  -8  -2  963.40   65.39
   5   8   2  954.20   61.99
   5   8   2 1142.39   62.09
   5   8   2  903.41   66.19
   5   8   2 1108.79   63.19
  -6  -8  -2    8.00    5.40
  -6  -8  -2    7.40    5.00
  -6  -8  -2   13.90    5.10
  -6  -8  -2    1.40   10.00
   6   8   2    5.70    5.10
   6   8   2    3.10    7.10
  -7  -8  -2  609.54   38.60
   7   8   2  660.53   40.50
   7   8   2  588.44   38.60
  -3   9   2    0.30    5.40
  -3   9   2   -2.00    9.80
  -3   9   2   13.60    8.20
  -3   9   2    9.10    5.40
  -2   9   2   27.50   10.40
  -2   9   2   29.20    7.60
  -2   9   2   31.30    5.30
  -2   9   2   32.80    6.10
  -2   9   2   27.40    8.00
  -1   9   2    1.70    6.90
  -1   9   2   -3.00    4.60
  -1   9   2   -3.10    4.10
  -1   9   2    3.10    4.50
  -1   9   2    8.40    9.10
   0  -9  -2  136.39    9.50
   0   9   2  120.39   15.80
   0   9   2  121.09   12.20
   0   9   2  121.59   11.10
   0   9   2  105.99    9.50
   0   9   2  103.99    9.60
  -1  -9  -2   33.40    4.70
  -1  -9  -2    9.10    9.50
   1   9   2   31.90    4.90
   1   9   2   20.30    9.50
   1   9   2   35.40    6.10
   1   9   2   29.80    5.00
  -2  -9  -2   25.70    9.10
  -2  -9  -2   40.50    5.30
   2   9   2   33.60    5.30
   2   9   2   42.80    5.80
   2   9   2   41.30    6.20
   2   9   2   38.60    8.70
  -3  -9  -2    0.30    4.30
  -3  -9  -2  -13.30   10.70
   3   9   2    6.00    4.80
   3   9   2    1.10    5.00
   3   9   2    2.00    3.20
   3   9   2   -1.90    9.30
  -4  -9  -2   76.59    7.10
  -4  -9  -2   47.30   13.70
   4   9   2   72.29    8.30
   4   9   2   81.19    7.00
   4   9   2   61.69    6.60
   4   9   2   51.69   12.30
  -5  -9  -2   -0.30   11.80
  -5  -9  -2   14.70    5.40
   5   9   2    7.20    5.40
   5   9   2    6.50    6.50
   5   9   2    1.80   10.60
  -6  -9  -2   51.19   13.70
  -6  -9  -2   76.29    7.40
   6   9   2   74.29    8.00
   6   9   2   83.29   10.10
  -2  10   2  210.18   14.90
  -2  10   2  197.88   21.70
  -2  10   2  193.18   15.60
  -2  10   2  213.08   17.50
  -1  10   2  248.98   20.60
  -1  10   2  208.08   17.10
  -1  10   2  241.38   16.50
  -1  10   2  243.08   17.20
   0  10   2   36.60    8.90
   0  10   2   40.40    7.30
   0  10   2   29.00    5.60
   0  10   2   29.70    6.00
  -1 -10  -2  247.78   15.20
   1  10   2  214.88   16.40
   1  10   2  214.28   15.20
   1  10   2  203.58   21.50
   1  10   2  206.68   15.60
  -2 -10  -2   -2.40    8.70
  -2 -10  -2   15.50    4.80
   2  10   2   12.00    5.70
   2  10   2    7.00   10.20
   2  10   2   14.10    5.30
   2  10   2   12.40    4.90
  -3 -10  -2   94.89    8.10
  -3 -10  -2   65.29   15.40
   3  10   2   88.69    8.40
   3  10   2   96.09    8.20
   3  10   2   69.39   13.70
   3  10   2   87.59    9.00
  -4 -10  -2   50.39    6.60
  -4 -10  -2   27.20   14.30
   4  10   2   44.70    7.60
   4  10   2   47.00    6.80
   4  10   2   57.09    6.50
   4  10   2   47.40   10.40
  -5 -10  -2    5.30   10.40
  -5 -10  -2   19.90    6.00
   5  10   2   19.50    7.30
   5  10   2   14.00   11.80
   5  10   2   18.30    6.10
  -6 -10  -2   72.29    8.40
   6  10   2   74.99    8.40
   0  11   2  651.93   44.50
   0  11   2  770.32   45.10
   0  11   2  698.03   44.30
   0  11   2  751.22   48.40
   1  11   2   84.79    8.60
   1  11   2   84.89    8.40
   1  11   2   99.19    9.80
   1  11   2   83.09   14.20
  -2 -11  -2  692.03   41.30
   2  11   2  698.63   42.10
   2  11   2  615.74   41.60
   2  11   2  686.53   41.40
   2  11   2  645.34   46.60
  -3 -11  -2  252.67   17.20
   3  11   2  226.68   24.50
   3  11   2  239.18   17.60
   3  11   2  242.88   18.30
   3  11   2  256.77   16.60
  -4 -11  -2  216.58   15.10
   4  11   2  201.38   15.70
   4  11   2  180.48   22.80
   4  11   2  214.08   16.50
  -5 -11  -2  243.38   17.50
   5  11   2  263.87   19.10
   5  11   2  224.78   25.20
   4  10  -3   13.70    8.30
   4  10  -3   10.40    6.00
   4  10  -3   15.40    9.90
   4  10  -3    7.20    6.00
   3  10  -3    6.60    5.50
   3  10  -3    7.10    5.40
   3  10  -3    8.00    7.90
   3  10  -3    9.80    9.60
   2  10  -3   -0.30    4.90
   2  10  -3   -2.40    8.80
   2  10  -3    4.00    5.20
   2  10  -3   -5.90    7.20
   1  10  -3   21.90   10.20
   1  10  -3   17.60    5.20
   1  10  -3   20.40    5.80
   1  10  -3   24.10    8.10
   0  10  -3   -4.00    7.40
   0  10  -3   -3.70    5.00
   0  10  -3    1.90    4.80
   0  10  -3    4.90    9.80
  -1  10  -3   48.50    9.90
  -1  10  -3   47.90    6.50
  -1  10  -3   66.39    7.10
  -1  10  -3   66.39   12.70
   5   9  -3  170.88   13.50
   5   9  -3  140.79   13.60
   5   9  -3  168.18   14.40
  -5  -9   3  165.78   12.90
   4   9  -3  254.77   18.80
   4   9  -3  266.07   23.20
   4   9  -3  266.37   20.70
   4   9  -3  279.67   18.70
  -4  -9   3  280.97   18.20
   3   9  -3   67.99    6.40
   3   9  -3   63.19    9.40
   3   9  -3   63.29   12.10
   3   9  -3   61.49    7.20
   2   9  -3  371.76   23.20
   2   9  -3  364.76   24.20
   2   9  -3  349.17   27.50
   2   9  -3  351.96   23.30
   1   9  -3   -2.90    4.40
   1   9  -3    6.80    4.30
   1   9  -3    0.30    8.50
   1   9  -3    3.40    5.00
   0   9  -3  163.38   13.00
   0   9  -3  184.38   18.70
   0   9  -3  196.28   13.50
   0   9  -3  199.68   16.00
  -1   9  -3    0.90    5.50
  -1   9  -3    2.40    9.10
  -1   9  -3    1.60    4.30
  -1   9  -3    1.70    4.20
  -2   9  -3   85.29    9.80
  -2   9  -3   95.29   13.70
  -2   9  -3   81.79    7.80
   6   8  -3  125.29   10.70
   6   8  -3  120.69   13.30
  -6  -8   3  112.29   10.30
   5   8  -3 1009.30   57.79
   5   8  -3  910.81   58.09
   5   8  -3  943.01   59.09
  -5  -8   3  936.81   57.79
   4   8  -3    2.80    7.90
   4   8  -3    0.10    7.00
   4   8  -3   -5.10    4.90
   4   8  -3   -5.30    5.00
  -4  -8   3   -2.60    4.40
   3   8  -3  819.02   52.29
   3   8  -3  815.92   55.19
   3   8  -3  901.71   52.29
   3   8  -3  873.11   53.09
  -3  -8   3  883.41   52.09
   2   8  -3   73.69   11.10
   2   8  -3   81.79    9.50
   2   8  -3   88.39    7.70
   2   8  -3   83.09    7.40
  -2  -8   3   97.39    7.40
   1   8  -3  923.01   52.39
   1   8  -3  806.52   55.19
   1   8  -3  855.11   52.39
   1   8  -3  872.11   53.59
   0   8  -3  607.84   37.60
   0   8  -3  557.74   36.00
   0   8  -3  612.94   35.90
   0   8  -3  569.04   39.30
  -1   8  -3  410.36   28.90
  -1   8  -3  412.26   24.60
  -1   8  -3  360.56   24.50
  -1   8  -3  386.86   26.60
  -2   8  -3  607.34   42.60
  -2   8  -3  670.73   45.00
  -2   8  -3  714.23   40.70
  -3   8  -3   56.29    8.50
  -3   8  -3   53.49    5.60
  -3   8  -3   66.39   10.40
  -3   8  -3   52.09    5.90
  -4   8  -3  310.87   26.20
  -4   8  -3  369.36   29.00
   6   7  -3  449.56   28.90
   6   7  -3  454.55   31.50
  -6  -7   3  441.96   28.60
   5   7  -3   -6.90    4.70
   5   7  -3    0.90    7.60
   5   7  -3   -0.90    5.10
  -5  -7   3   -7.40    4.60
   4   7  -3 1147.09   77.09
   4   7  -3 1290.47   74.49
   4   7  -3 1258.47   74.59
   4   7  -3 1267.77   75.69
  -4  -7   3 1215.28   74.29
   3   7  -3  667.33   42.20
   3   7  -3  641.44   44.60
   3   7  -3  720.13   42.20
   3   7  -3  704.53   43.30
  -3  -7   3  712.13   42.00
   2   7  -3 1007.40   67.39
   2   7  -3 1117.29   65.09
   2   7  -3 1093.49   66.09
   2   7  -3 1043.10   65.09
  -2  -7   3 1142.69   64.89
   1   7  -3 1637.24  101.79
   1   7  -3 1602.94  103.99
   1   7  -3 1807.52  101.79
   1   7  -3 1717.03  102.79
  -1  -7   3 1750.02  101.59
   0   7  -3  243.28   17.00
   0   7  -3  253.07   20.40
   0   7  -3  264.67   18.80
   0   7  -3  274.77   17.10
   0  -7   3  285.27   16.70
  -1   7  -3 1502.45   91.99
  -1   7  -3 1579.64   90.79
  -1   7  -3 1531.35   93.49
  -1   7  -3 1460.05   90.69
  -2   7  -3   13.20    7.80
  -2   7  -3   10.10    3.40
  -2   7  -3    0.10    3.10
  -2   7  -3    8.40    5.00
  -2   7  -3    4.00    5.00
  -3   7  -3 1317.07   78.89
  -3   7  -3 1157.38   76.59
  -3   7  -3 1186.28   74.99
  -3   7  -3 1346.97   76.69
  -4   7  -3  405.86   29.80
  -4   7  -3  355.26   24.10
  -4   7  -3  418.36   26.80
  -4   7  -3  348.57   27.70
   7   6  -3  142.29   12.30
   7   6  -3  128.49   14.80
  -7  -6   3  138.09   12.20
   6   6  -3   -2.70    8.40
   6   6  -3    3.50    5.20
  -6  -6   3   -5.30    4.90
   5   6  -3  312.67   22.10
   5   6  -3  325.97   20.90
   5   6  -3  325.57   21.10
  -5  -6   3  311.27   20.80
   4   6  -3  144.99   10.60
   4   6  -3  134.19   10.20
   4   6  -3  122.69   12.60
  -4  -6   3  120.29    9.90
   3   6  -3  167.68   12.70
   3   6  -3  172.68   12.10
   3   6  -3  176.48   12.00
   3   6  -3  158.88   14.80
  -3  -6   3  170.38   11.70
  -3  -6   3  176.58   11.50
   2   6  -3  354.86   23.20
   2   6  -3  342.17   25.50
   2   6  -3  393.46   23.30
   2   6  -3  381.76   24.40
   2   6  -3  382.16   23.20
  -2  -6   3  380.26   23.00
   1   6  -3    3.70    2.40
   1   6  -3   -2.90    3.00
   1   6  -3    1.00    4.70
   1   6  -3    1.60    5.20
   1   6  -3   -1.20    2.80
   1   6  -3    1.80    2.30
  -1  -6   3   -1.70    1.90
  -1  -6   3    3.50    2.60
   0   6  -3  764.42   50.69
   0   6  -3  801.72   48.60
   0   6  -3  834.52   48.30
   0   6  -3  805.92   49.50
   0   6  -3  756.02   48.60
   0   6  -3  850.61   48.50
   0  -6   3  834.52   48.40
  -1   6  -3  308.97   20.90
  -1   6  -3  323.07   19.80
  -1   6  -3  315.87   22.80
  -1   6  -3  341.27   20.50
  -1   6  -3  288.97   19.70
  -1   6  -3  328.77   19.70
   1  -6   3  322.37   19.50
  -2   6  -3  473.55   28.50
  -2   6  -3  420.26   28.30
  -2   6  -3  463.55   29.80
  -2   6  -3  498.85   29.70
  -2   6  -3  452.85   28.30
  -2   6  -3  494.75   31.90
  -3   6  -3  319.17   22.50
  -3   6  -3  306.37   19.00
  -3   6  -3  329.67   21.00
  -3   6  -3  276.07   20.90
  -3   6  -3  287.97   19.00
  -3   6  -3  299.87   18.70
  -4   6  -3  143.79   14.70
  -4   6  -3  153.28   14.80
  -4   6  -3  144.89   10.60
  -5   6  -3  162.58   11.80
  -5   6  -3  173.48   16.10
  -5   6  -3  160.58   16.40
   7   5  -3   -1.90    5.50
   7   5  -3    6.40    7.20
  -7  -5   3   -6.20    4.90
   6   5  -3    7.90    5.10
   6   5  -3   -4.10    8.20
  -6  -5   3    0.90    5.00
  -6  -5   3   29.10    7.40
   5   5  -3    0.60    4.10
   5   5  -3   -4.30    5.00
   5   5  -3   11.90    4.40
  -5  -5   3   -4.80    4.00
  -5  -5   3   -1.30    5.40
  -5  -5   3   -5.00    3.80
   4   5  -3   -0.20    5.80
   4   5  -3   -0.80    3.60
   4   5  -3    1.80    3.90
  -4  -5   3    4.30    3.90
  -4  -5   3   -3.20    3.60
  -4  -5   3   -2.20    3.20
   3   5  -3    9.90    5.30
   3   5  -3    7.80    4.00
   3   5  -3    9.90    3.50
   3   5  -3    9.20    2.30
   3   5  -3   11.20    6.50
   3   5  -3   11.30    3.70
  -3  -5   3   11.00    2.30
  -3  -5   3    5.70    3.00
  -3  -5   3   11.40    2.90
   2   5  -3    2.40    4.50
   2   5  -3    6.20    2.30
   2   5  -3    5.10    2.90
   2   5  -3   -1.60    2.70
   2   5  -3    0.00    4.10
  -2  -5   3    0.60    2.50
  -2  -5   3    2.60    2.50
   1   5  -3   21.90    3.10
   1   5  -3   28.20    3.00
   1   5  -3   24.30    3.20
   1   5  -3   23.80    2.80
   1   5  -3   25.50    3.90
   1   5  -3   23.80    5.10
  -1  -5   3   19.80    2.80
  -1  -5   3   24.30    2.60
   0   5  -3   12.70    4.90
   0   5  -3   18.10    4.50
   0   5  -3   18.00    2.10
   0   5  -3   24.40    2.50
   0   5  -3   17.20    2.70
   0   5  -3   16.40    2.50
   0   5  -3   14.00    2.70
   0  -5   3   20.60    2.40
   0  -5   3   14.80    2.10
  -1   5  -3   16.50    2.50
  -1   5  -3   16.10    5.30
  -1   5  -3   22.40    2.50
  -1   5  -3   16.00    3.10
  -1   5  -3   19.80    2.30
  -1   5  -3   15.20    3.80
  -2   5  -3   41.20    6.60
  -2   5  -3   46.50    5.70
  -2   5  -3   46.10    7.40
  -2   5  -3   49.10    3.70
  -2   5  -3   42.00    3.60
  -2   5  -3   41.50    3.70
  -2   5  -3   39.00    3.70
  -3   5  -3    9.90    6.70
  -3   5  -3   12.40    5.00
  -3   5  -3   16.70    2.40
  -3   5  -3    8.90    2.50
  -3   5  -3    3.70    2.50
  -4   5  -3  226.38   17.30
  -4   5  -3  216.28   14.40
  -4   5  -3  239.48   18.20
  -4   5  -3  220.78   14.40
  -5   5  -3   20.30    3.60
  -5   5  -3   18.70    3.60
  -5   5  -3   21.40    9.30
  -5   5  -3   25.80    7.90
  -6   5  -3  190.68   17.70
  -6   5  -3  178.08   12.70
  -6   5  -3  201.58   18.30
   7   4  -3  310.07   21.50
   7   4  -3  315.67   24.90
  -7  -4   3  294.77   21.50
  -7  -4   3  379.46   24.40
   6   4  -3  717.13   45.00
   6   4  -3  681.63   46.80
  -6  -4   3  755.22   44.70
  -6  -4   3  694.03   45.00
  -6  -4   3  813.22   46.60
   5   4  -3   34.50    7.70
   5   4  -3   26.60    4.90
   5   4  -3   28.50    4.00
   5   4  -3   56.59   11.70
  -5  -4   3   26.90    3.90
  -5  -4   3   26.20    6.20
  -5  -4   3   31.30    4.30
   4   4  -3 1166.68   71.09
   4   4  -3 1160.58   70.19
   4   4  -3 1115.19   70.19
  -4  -4   3 1138.09   70.19
  -4  -4   3 1145.29   69.99
  -4  -4   3 1280.67   70.89
   3   4  -3   21.00    3.00
   3   4  -3   22.00    5.20
   3   4  -3   27.50    3.20
   3   4  -3   24.40    3.80
  -3  -4   3   22.20    3.40
  -3  -4   3   20.40    3.50
  -3  -4   3   25.80    3.30
   2   4  -3 1576.04   93.69
   2   4  -3 1558.54   94.89
   2   4  -3 1567.54   94.19
   2   4  -3 1580.44   93.69
   2   4  -3 1534.35   93.59
  -2  -4   3 1581.04   93.59
  -2  -4   3 1590.84   93.59
   1   4  -3  515.45   30.50
   1   4  -3  472.05   31.80
   1   4  -3  530.55   30.40
   1   4  -3  500.65   31.20
   1   4  -3  478.95   30.40
   1   4  -3  481.55   30.30
  -1  -4   3  553.44   31.80
  -1  -4   3  509.15   30.40
  -1  -4   3  492.45   30.30
   0   4  -3  833.62   49.60
   0   4  -3  845.32   49.70
   0   4  -3  781.72   50.29
   0   4  -3  867.41   49.70
   0   4  -3  787.22   49.70
   0   4  -3  836.92   49.60
   0   4  -3  777.92   50.89
   0  -4   3  843.42   49.60
   0  -4   3  896.91   49.50
  -1   4  -3 1115.59   69.89
  -1   4  -3 1258.07   68.29
  -1   4  -3 1174.18   68.79
  -1   4  -3 1128.09   68.29
  -1   4  -3 1141.29   68.29
  -1   4  -3 1111.69   68.29
  -1   4  -3 1141.29   69.09
   1  -4   3 1104.49   68.29
  -2   4  -3  137.79    9.30
  -2   4  -3  148.49    9.50
  -2   4  -3  150.48   12.50
  -2   4  -3  150.88   11.00
  -2   4  -3  145.29    9.40
  -2   4  -3  159.38    9.30
   2  -4   3  152.98    9.30
  -3   4  -3  707.13   44.40
  -3   4  -3  750.62   45.80
  -3   4  -3  695.43   42.90
  -3   4  -3  717.83   42.90
  -3   4  -3  694.13   45.60
  -3   4  -3  679.53   42.90
   3  -4   3  776.82   42.70
  -4   4  -3    6.00    2.30
  -4   4  -3    2.20    2.40
  -4   4  -3    0.30    6.60
  -4   4  -3    3.90    5.20
  -4   4  -3    4.00    5.50
  -5   4  -3  287.27   21.50
  -5   4  -3  283.37   17.80
  -5   4  -3  304.47   21.30
  -5   4  -3  268.67   17.80
  -6   4  -3    7.80    3.10
  -6   4  -3    0.90    6.50
  -6   4  -3    7.50    3.20
  -6   4  -3   15.00    8.30
   7   3  -3  661.23   40.90
   7   3  -3  631.54   43.10
  -7  -3   3  630.44   40.80
  -7  -3   3  725.13   43.90
   6   3  -3   11.50    7.60
   6   3  -3   14.30    3.80
  -6  -3   3   12.40    4.70
  -6  -3   3   17.30    6.80
  -6  -3   3   20.40    4.70
   5   3  -3 1231.38   72.99
   5   3  -3 1163.48   74.29
   5   3  -3 1193.98   73.09
  -5  -3   3 1233.18   74.19
  -5  -3   3 1213.28   73.09
  -5  -3   3 1255.27   72.99
   4   3  -3  160.48   11.10
   4   3  -3  169.68   12.30
   4   3  -3  162.88   10.90
  -4  -3   3  163.78   10.90
  -4  -3   3  157.78   12.10
  -4  -3   3  166.18   10.80
   3   3  -3 1110.29   63.29
   3   3  -3 1041.70   63.99
   3   3  -3 1029.80   63.19
   3   3  -3 1049.30   63.09
   3   3  -3 1019.80   63.19
  -3  -3   3 1070.29   63.09
  -3  -3   3 1067.69   63.69
  -3  -3   3 1039.80   63.19
   2   3  -3 1900.71  105.99
   2   3  -3 1678.43  105.89
   2   3  -3 1797.52  106.59
   2   3  -3 1743.53  106.69
   2   3  -3 1857.61  106.99
   2   3  -3 1722.83  105.99
   2   3  -3 1706.13  105.99
  -2  -3   3 1769.62  106.49
  -2  -3   3 1834.62  105.99
  -2  -3   3 1786.42  105.89
   1   3  -3  218.28   13.50
   1   3  -3  203.18   14.60
   1   3  -3  215.48   13.60
   1   3  -3  229.28   13.60
   1   3  -3  212.98   13.10
   1   3  -3  206.58   14.30
   1   3  -3  220.28   13.70
  -1  -3   3  236.08   14.60
  -1  -3   3  239.58   13.70
  -1  -3   3  220.58   13.60
   0   3  -3 2266.67  144.89
   0   3  -3 2603.84  145.49
   0   3  -3 2219.78  147.69
   0   3  -3 2215.38  145.19
   0   3  -3 2344.87  145.49
   0   3  -3 2314.77  145.19
   0   3  -3 2457.85  145.39
   0  -3   3 2555.54  145.09
   0  -3   3 2423.96  145.19
   0  -3   3 2654.43  148.29
   0  -3   3 2707.23  145.09
  -1   3  -3   87.09    7.60
  -1   3  -3   78.89    5.60
  -1   3  -3   84.99    6.40
  -1   3  -3   84.59    5.60
  -1   3  -3   93.59    5.60
  -1   3  -3   89.29    6.70
  -1   3  -3   82.59    5.60
   1  -3   3   97.29    5.50
  -2   3  -3 1700.03  101.39
  -2   3  -3 1708.93  102.19
  -2   3  -3 1652.83  101.09
  -2   3  -3 1622.04  101.19
  -2   3  -3 1828.92  100.99
  -2   3  -3 1611.54  100.59
   2  -3   3 1721.53  100.69
  -3   3  -3  164.38    9.80
  -3   3  -3  153.38   11.90
  -3   3  -3  146.19    9.90
  -3   3  -3  159.28   13.30
  -3   3  -3  159.88    9.90
  -3   3  -3  135.99   12.80
  -3   3  -3  150.78    9.80
   3  -3   3  163.58    9.70
   3  -3   3  185.48    9.70
  -4   3  -3  825.42   51.79
  -4   3  -3  859.21   50.79
  -4   3  -3  812.02   49.99
  -4   3  -3  826.82   49.99
  -4   3  -3  856.21   52.59
  -4   3  -3  785.42   49.99
  -4   3  -3  870.71   49.90
  -4   3  -3  859.71   51.99
  -5   3  -3  505.45   34.10
  -5   3  -3  506.45   32.50
  -5   3  -3  501.15   30.30
  -5   3  -3  491.55   30.20
  -6   3  -3  132.89   10.50
  -6   3  -3  169.98   10.60
  -6   3  -3  174.78   15.10
  -6   3  -3  162.48   14.10
  -7   3  -3  249.28   15.50
  -7   3  -3  284.17   21.80
  -7   3  -3  249.68   22.00
  -7   3  -3  209.68   15.40
   7   2  -3   -6.20    4.40
  -7  -2   3   -4.80    4.60
  -7  -2   3   -0.40    4.40
  -7  -2   3    1.70    7.70
   6   2  -3  837.22   51.39
   6   2  -3  798.82   52.89
  -6  -2   3  850.81   51.29
  -6  -2   3  862.61   53.39
  -6  -2   3  879.21   51.39
   5   2  -3  389.96   25.00
   5   2  -3  406.76   24.70
   5   2  -3  365.86   26.00
  -5  -2   3  431.76   24.80
  -5  -2   3  419.06   24.90
  -5  -2   3  390.86   26.70
   4   2  -3 1269.17   76.29
   4   2  -3 1205.48   76.89
   4   2  -3 1326.07   76.19
  -4  -2   3 1279.27   76.19
  -4  -2   3 1254.17   77.19
  -4  -2   3 1301.47   76.19
   3   2  -3 1739.43  102.59
   3   2  -3 1692.73  102.59
   3   2  -3 1812.22  102.99
   3   2  -3 1695.03  102.59
   3   2  -3 1679.33  103.19
  -3  -2   3 1676.93  102.59
  -3  -2   3 1802.02  102.69
  -3  -2   3 1783.52  102.69
  -3  -2   3 1614.04  103.19
   2   2  -3 2218.08  129.59
   2   2  -3 2295.77  131.69
   2   2  -3 2303.57  130.29
   2   2  -3 2341.97  129.69
   2   2  -3 2186.58  130.19
   2   2  -3 2054.49  129.59
  -2  -2   3 2131.89  129.59
  -2  -2   3 1898.81  129.99
  -2  -2   3 2173.18  129.99
  -2  -2   3 2216.58  130.49
   1   2  -3 5208.08  307.57
   1   2  -3 5049.09  307.27
   1   2  -3 5013.60  308.47
   1   2  -3 5068.49  306.97
   1   2  -3 5375.66  307.67
   1   2  -3 4986.40  310.47
   1   2  -3 5080.59  307.07
  -1  -2   3 5097.19  309.67
  -1  -2   3 4952.70  306.57
  -1  -2   3 5371.26  307.07
  -1  -2   3 5595.74  307.57
  -1  -2   3 5009.00  307.37
   0   2  -3    3.00    1.90
   0   2  -3    0.70    2.00
   0   2  -3    3.40    1.00
   0   2  -3    3.00    1.00
   0   2  -3   10.70    1.20
   0   2  -3    3.30    1.00
   0  -2   3    3.90    1.50
   0  -2   3    2.60    1.90
   0  -2   3    3.50    0.90
   0  -2   3    3.00    0.80
   0  -2   3    5.80    1.00
  -1   2  -3 3771.02  248.18
  -1   2  -3 3995.00  245.38
  -1   2  -3 3994.90  247.98
  -1   2  -3 4421.86  245.38
  -1   2  -3 4185.38  245.38
  -1   2  -3 4383.66  245.38
  -2   2  -3 1763.72  106.29
  -2   2  -3 1658.03  106.19
  -2   2  -3 1766.72  107.29
  -2   2  -3 1770.32  106.09
  -2   2  -3 1869.01  106.79
  -2   2  -3 1726.93  107.79
  -2   2  -3 1936.01  106.09
  -3   2  -3 1696.53  100.29
  -3   2  -3 1552.84  100.09
  -3   2  -3 1643.14  100.89
  -3   2  -3 1714.03  100.29
  -3   2  -3 1636.24  101.49
  -3   2  -3 1651.23  100.49
  -3   2  -3 1646.84  100.29
   3  -2   3 1748.23   99.89
   3  -2   3 1823.72  100.09
  -4   2  -3 1333.57   73.59
  -4   2  -3 1174.98   73.59
  -4   2  -3 1238.68   73.59
  -4   2  -3 1226.38   74.29
  -4   2  -3 1267.27   73.59
  -4   2  -3 1194.78   75.19
  -4   2  -3 1217.58   75.09
  -5   2  -3  465.35   29.70
  -5   2  -3  476.15   32.30
  -5   2  -3  487.35   30.20
  -5   2  -3  539.45   29.80
  -5   2  -3  467.45   31.20
  -5   2  -3  517.85   29.80
  -6   2  -3  965.60   58.19
  -6   2  -3  847.22   55.09
  -6   2  -3  957.50   55.19
  -7   2  -3    2.90    3.20
  -7   2  -3    7.40    3.00
  -7   2  -3    3.70    8.70
  -7  -1   3  126.29   10.20
  -7  -1   3  132.39   15.60
  -7  -1   3  113.79   10.30
  -6  -1   3   32.40    8.10
  -6  -1   3   22.50    4.50
  -6  -1   3   30.30    4.70
   5   1  -3  304.87   18.10
   5   1  -3  233.98   19.70
   5   1  -3  286.17   18.30
  -5  -1   3  285.87   18.20
  -5  -1   3  323.77   20.70
  -5  -1   3  277.77   18.00
   4   1  -3  415.06   25.20
   4   1  -3  363.06   25.90
   4   1  -3  388.06   25.20
  -4  -1   3  425.06   26.80
  -4  -1   3  473.35   25.30
  -4  -1   3  409.66   25.30
  -4  -1   3  401.96   25.20
   3   1  -3   62.99    5.00
   3   1  -3   59.99    5.70
   3   1  -3   62.99    5.00
   3   1  -3   55.99    5.20
  -3  -1   3   74.09    5.00
  -3  -1   3   57.79    5.10
  -3  -1   3   61.49    6.80
  -3  -1   3   61.99    5.00
   2   1  -3 1038.50   64.49
   2   1  -3 1037.00   63.99
   2   1  -3 1075.59   63.99
   2   1  -3  996.30   63.89
   2   1  -3 1155.28   63.99
  -2  -1   3 1090.29   63.99
  -2  -1   3 1043.00   63.99
  -2  -1   3 1103.79   63.89
  -2  -1   3 1113.89   64.79
   1   1  -3  414.36   25.10
   1   1  -3  397.06   25.40
   1   1  -3  406.36   25.00
   1   1  -3  401.66   25.10
   1   1  -3  386.76   25.00
  -1  -1   3  452.35   25.40
  -1  -1   3  409.06   25.00
  -1  -1   3  438.56   25.20
  -1  -1   3  464.45   25.80
  -1  -1   3  425.76   25.00
  -1  -1   3  402.76   25.00
  -1  -1   3  404.96   25.00
   0   1  -3 1637.74  102.69
   0   1  -3 1755.22  101.79
   0   1  -3 1701.13  101.79
   0   1  -3 1613.54  101.29
   0   1  -3 1654.83  102.19
   0   1  -3 1666.03  101.39
   0  -1   3 1886.31  102.19
   0  -1   3 1693.43  101.79
   0  -1   3 1794.12  101.79
   0  -1   3 1701.63  101.69
   0  -1   3 1646.84  101.59
  -1   1  -3  314.47   18.80
  -1   1  -3  307.87   18.80
  -1   1  -3  318.37   18.80
  -1   1  -3  308.97   20.70
  -1   1  -3  316.87   19.30
   1  -1   3  332.77   18.80
   1  -1   3  313.07   18.80
  -2   1  -3 1886.11  109.49
  -2   1  -3 1773.62  113.69
  -2   1  -3 1891.01  109.59
  -2   1  -3 1826.72  109.49
  -2   1  -3 1838.72  109.59
  -3   1  -3  900.71   54.49
  -3   1  -3  902.91   54.29
  -3   1  -3  990.40   54.49
  -3   1  -3  861.91   54.99
  -3   1  -3  876.31   55.99
  -3   1  -3  887.81   55.59
  -3   1  -3  849.72   54.39
   3  -1   3  989.90   54.49
   3  -1   3  960.10   54.39
  -4   1  -3  187.38   14.20
  -4   1  -3  205.98   12.50
  -4   1  -3  185.98   13.20
  -4   1  -3  222.38   12.40
  -4   1  -3  199.28   14.20
  -4   1  -3  205.48   12.40
  -4   1  -3  205.98   12.40
  -5   1  -3  932.41   52.59
  -5   1  -3  821.62   52.89
  -5   1  -3  818.22   53.79
  -5   1  -3  907.11   52.49
  -5   1  -3  910.61   54.49
  -5   1  -3  888.41   52.49
  -6   1  -3    8.50    7.20
  -6   1  -3    5.40    2.50
  -6   1  -3    5.90    2.70
  -7   1  -3  458.55   29.40
  -7   1  -3  483.45   29.50
  -7   1  -3  515.75   33.70
   7   0  -3   16.40    4.70
  -7   0   3   17.60    7.20
  -7   0   3   10.90    4.70
  -7   0   3   17.00    4.70
   6   0  -3   -2.60    3.70
  -6   0   3    2.50    7.40
  -6   0   3   -1.00    3.70
  -6   0   3    1.80    3.70
   5   0  -3   24.50    4.20
   5   0  -3   14.30    3.00
  -5   0   3   14.70    3.70
  -5   0   3   14.20    6.50
  -5   0   3   12.80    3.50
   4   0  -3   -6.20    4.10
   4   0  -3   -0.30    2.70
   4   0  -3    4.80    3.00
  -4   0   3   -0.50    1.90
  -4   0   3    1.30    2.70
  -4   0   3    1.90    2.00
  -4   0   3   -2.20    3.60
   3   0  -3    6.60    3.00
   3   0  -3    4.80    1.80
   3   0  -3    9.60    2.20
   3   0  -3    7.30    3.50
  -3   0   3    4.40    1.60
  -3   0   3    8.40    2.40
  -3   0   3    4.90    4.10
  -3   0   3    4.40    2.20
   2   0  -3    7.20    1.90
   2   0  -3    4.10    1.70
   2   0  -3    6.00    2.80
   2   0  -3    5.90    2.70
   2   0  -3    6.40    2.60
   2   0  -3    5.60    1.80
   2   0  -3    7.30    1.40
  -2   0   3    4.40    1.80
  -2   0   3    4.50    3.20
  -2   0   3    8.30    1.40
  -2   0   3    5.90    1.70
  -2   0   3    8.10    1.90
   1   0  -3   35.00    3.00
   1   0  -3   40.30    3.00
   1   0  -3   41.60    2.90
   1   0  -3   38.30    3.10
   1   0  -3   37.40    5.00
   1   0  -3   41.20    3.60
  -1   0   3   44.70    4.70
  -1   0   3   38.00    2.90
  -1   0   3   33.30    2.90
  -1   0   3   40.40    3.00
  -1   0   3   34.00    3.00
  -1   0   3   38.80    3.30
   0   0  -3  345.07   18.70
   0   0  -3  298.77   18.00
   0   0  -3  281.57   17.90
   0   0  -3  279.37   18.10
   0   0  -3  274.87   19.30
   0   0  -3  293.57   18.00
   0   0  -3  298.27   18.00
   0   0   3  316.87   18.00
   0   0   3  288.77   17.90
   0   0   3  340.87   18.70
   0   0   3  285.47   18.00
   0   0   3  311.87   18.10
   0   0   3  285.07   17.90
  -1   0  -3   40.30    4.40
  -1   0  -3   39.30    3.60
  -1   0  -3   45.10    2.70
  -1   0  -3   40.70    3.00
  -1   0  -3   38.10    2.70
  -1   0  -3   37.50    2.60
  -1   0  -3   38.80    2.60
   1   0   3   43.10    2.50
   1   0   3   45.30    2.60
   1   0   3   39.10    4.70
   1   0   3   39.70    2.50
  -2   0  -3  383.66   22.80
  -2   0  -3  383.66   24.70
  -2   0  -3  346.77   22.80
  -2   0  -3  388.76   23.70
  -2   0  -3  400.26   22.80
  -2   0  -3  392.16   22.80
   2   0   3  392.86   22.80
   2   0   3  374.26   24.30
  -3   0  -3   38.00    4.90
  -3   0  -3   48.50    3.40
  -3   0  -3   41.30    6.20
  -3   0  -3   50.39    3.40
  -3   0  -3   49.10    3.30
  -3   0  -3   45.70    3.40
   3   0   3   47.70    5.70
   3   0   3   49.10    3.30
  -4   0  -3  429.96   26.70
  -4   0  -3  411.46   25.10
  -4   0  -3  458.45   25.20
  -4   0  -3  423.16   25.10
  -4   0  -3  441.26   25.10
  -4   0  -3  376.96   25.80
  -4   0  -3  373.16   26.80
   4   0   3  415.76   25.00
   4   0   3  426.56   26.60
  -5   0  -3   61.19    5.00
  -5   0  -3   62.79    4.90
  -5   0  -3   66.69    4.90
  -5   0  -3   51.99    6.20
  -5   0  -3   54.59    7.90
  -5   0  -3   68.39    5.00
  -5   0  -3   53.19    7.70
   5   0   3   63.59    4.60
   5   0   3   67.39    6.80
  -6   0  -3  324.87   23.50
  -6   0  -3  320.97   20.20
  -6   0  -3  333.27   20.30
  -7   0  -3  193.98   13.20
  -7   0  -3  201.08   13.10
  -7   0  -3  207.58   16.70
  -8   0  -3   27.80    4.10
  -8   0  -3   28.10   10.40
  -8   0  -3   26.30    4.20
  -7   1   3   -6.90    3.90
  -7   1   3    1.50    4.40
  -7   1   3   -3.00    7.50
  -7   1   3    3.40    6.90
   6  -1  -3  639.24   40.30
  -6   1   3  656.83   40.30
  -6   1   3  647.24   42.60
  -6   1   3  699.73   40.30
   5  -1  -3   79.59    6.50
  -5   1   3   71.49    9.90
  -5   1   3   92.09    6.50
  -5   1   3   88.29    7.10
   4  -1  -3 1008.90   57.89
   4  -1  -3  975.40   58.09
   4  -1  -3  935.11   58.19
   4  -1  -3  935.41   58.49
  -4   1   3 1101.39   58.29
  -4   1   3  894.81   59.49
  -4   1   3  933.91   58.19
  -4   1   3  966.80   58.09
   3  -1  -3  953.60   53.79
   3  -1  -3  888.31   53.69
   3  -1  -3  897.61   53.59
   3  -1  -3  855.31   54.69
  -3   1   3  883.21   53.59
  -3   1   3  998.80   53.79
  -3   1   3  800.12   54.79
  -3   1   3  898.11   53.69
   2  -1  -3  282.37   18.80
   2  -1  -3  287.67   18.20
   2  -1  -3  303.37   18.10
   2  -1  -3  313.57   18.10
   2  -1  -3  290.77   18.20
   2  -1  -3  286.37   18.50
  -2   1   3  287.67   18.10
  -2   1   3  294.97   18.10
  -2   1   3  336.97   18.20
  -2   1   3  270.27   19.20
  -2   1   3  310.27   18.80
   1  -1  -3 2301.07  138.19
   1  -1  -3 2247.68  142.59
   1  -1  -3 2273.17  137.79
   1  -1  -3 2533.65  138.09
   1  -1  -3 2527.15  138.19
   1  -1  -3 2180.98  137.79
   1  -1  -3 2250.87  137.99
   1  -1  -3 2258.27  139.69
  -1   1   3 2409.76  137.39
  -1   1   3 2305.87  138.29
  -1   1   3 2232.98  138.09
  -1   1   3 2191.68  137.99
  -1   1   3 2403.86  143.29
  -1   1   3 2214.78  139.89
   0  -1  -3   59.59    3.90
   0  -1  -3   71.39    4.90
   0  -1  -3   58.69    3.90
   0  -1  -3   55.19    4.60
   0  -1  -3   57.39    3.90
   0  -1  -3   54.99    3.90
   0  -1  -3   63.09    4.30
   0  -1  -3   56.69    5.60
   0  -1  -3   56.59    3.90
   0   1   3   55.59    3.80
   0   1   3   57.59    3.90
   0   1   3   61.99    3.90
   0   1   3   62.49    3.90
   0   1   3   58.69    4.90
   0   1   3   53.79    3.80
   0   1   3   52.99    4.30
   0   1   3   61.39    4.40
   0   1   3   56.39    5.40
  -1  -1  -3 2753.82  164.28
  -1  -1  -3 3045.80  168.18
  -1  -1  -3 2760.32  163.98
  -1  -1  -3 2588.24  166.18
  -1  -1  -3 3054.89  164.48
  -1  -1  -3 2517.65  169.48
  -1  -1  -3 2691.93  164.28
   1   1   3 2629.24  163.98
   1   1   3 2743.03  164.08
   1   1   3 2735.63  164.08
   1   1   3 2649.53  169.68
   1   1   3 2882.91  166.98
   1   1   3 2776.82  164.08
  -2  -1  -3   37.80    4.30
  -2  -1  -3   38.80    3.00
  -2  -1  -3   53.89    3.30
  -2  -1  -3   41.60    3.00
  -2  -1  -3   35.60    2.90
  -2  -1  -3   42.70    3.00
  -2  -1  -3   36.80    5.40
   2   1   3   39.90    5.30
   2   1   3   40.60    2.90
   2   1   3   46.40    4.20
   2   1   3   42.40    2.90
   2   1   3   41.30    2.80
   2   1   3   40.80    2.80
  -3  -1  -3 1156.58   68.89
  -3  -1  -3 1038.30   70.59
  -3  -1  -3 1165.98   68.99
  -3  -1  -3 1093.69   69.69
  -3  -1  -3 1329.37   68.99
  -3  -1  -3 1106.89   68.89
   3   1   3 1236.38   69.69
   3   1   3 1105.39   70.49
   3   1   3 1153.78   68.79
   3   1   3 1076.99   68.89
   3   1   3 1279.47   68.89
  -4  -1  -3   36.80    4.90
  -4  -1  -3   40.00    3.40
  -4  -1  -3   30.40    4.10
  -4  -1  -3   35.60    3.20
  -4  -1  -3   29.60    5.70
  -4  -1  -3   46.20    3.30
  -4  -1  -3   32.30    3.10
   4   1   3   35.50    4.00
   4   1   3   36.00    6.00
   4   1   3   36.20    3.20
  -5  -1  -3  275.17   16.70
  -5  -1  -3  259.17   18.40
  -5  -1  -3  264.17   16.60
  -5  -1  -3  272.47   16.60
  -5  -1  -3  316.17   16.80
  -5  -1  -3  231.38   17.50
  -5  -1  -3  224.58   18.80
   5   1   3  304.17   17.30
   5   1   3  261.37   18.40
   5   1   3  270.37   16.40
  -6  -1  -3   86.29    6.70
  -6  -1  -3   68.99   10.10
  -6  -1  -3   76.89    8.10
  -6  -1  -3   82.99    6.80
  -6  -1  -3   79.59    9.80
   6   1   3   85.49    6.10
   6   1   3  107.79   12.20
  -7  -1  -3   30.60    4.10
  -7  -1  -3   31.90    4.30
  -7  -1  -3   38.40    9.00
  -8  -1  -3   49.80    9.20
  -8  -1  -3   47.10    5.40
  -8  -1  -3   47.50    5.70
  -7   2   3  318.27   24.70
  -7   2   3  330.77   21.30
  -7   2   3  354.96   25.40
  -7   2   3  314.47   21.30
   6  -2  -3   27.00    4.30
  -6   2   3   24.20    4.60
  -6   2   3   25.50    4.40
  -6   2   3   26.90    7.80
  -6   2   3   41.00    7.90
   5  -2  -3  237.28   16.30
  -5   2   3  277.27   18.50
  -5   2   3  257.17   16.60
  -5   2   3  248.58   18.90
  -5   2   3  257.17   16.50
   4  -2  -3  277.97   17.60
   4  -2  -3  277.77   17.50
  -4   2   3  318.97   17.70
  -4   2   3  254.37   19.40
  -4   2   3  262.57   17.60
  -4   2   3  285.57   19.60
  -4   2   3  280.27   17.60
   3  -2  -3  458.05   29.50
   3  -2  -3  467.35   29.40
   3  -2  -3  487.35   29.30
   3  -2  -3  486.35   29.10
  -3   2   3  528.25   29.30
  -3   2   3  489.15   29.40
  -3   2   3  484.45   29.30
  -3   2   3  494.15   30.60
  -3   2   3  457.85   30.70
   2  -2  -3 1351.06   86.39
   2  -2  -3 1475.05   85.99
   2  -2  -3 1328.67   86.49
   2  -2  -3 1527.65   85.99
   2  -2  -3 1494.25   85.89
  -2   2   3 1513.35   85.99
  -2   2   3 1468.05   86.79
  -2   2   3 1336.67   86.99
  -2   2   3 1448.66   85.89
  -2   2   3 1487.55   89.49
   1  -2  -3  922.01   61.89
   1  -2  -3 1177.68   62.19
   1  -2  -3 1043.30   60.99
   1  -2  -3  980.70   61.49
   1  -2  -3  967.40   61.29
   1  -2  -3 1096.49   60.99
   1  -2  -3 1046.00   60.99
   1  -2  -3  982.70   60.89
  -1   2   3  976.20   60.89
  -1   2   3 1029.60   60.99
  -1   2   3  994.60   60.99
  -1   2   3  945.31   61.89
  -1   2   3 1024.80   61.19
  -1   2   3 1013.00   62.09
  -1   2   3 1146.39   60.99
  -1   2   3 1030.50   61.59
   0  -2  -3 3879.71  248.28
   0  -2  -3 4704.73  249.28
   0  -2  -3 4201.48  249.08
   0  -2  -3 3811.92  251.57
   0  -2  -3 4414.46  249.08
   0  -2  -3 3744.63  252.27
   0  -2  -3 4095.89  250.67
   0  -2  -3 4737.73  253.37
   0   2   3 4110.09  249.28
   0   2   3 4394.76  252.27
   0   2   3 4402.26  248.98
   0   2   3 3814.62  248.18
   0   2   3 3984.30  256.27
   0   2   3 4409.96  249.18
   0   2   3 3996.50  251.77
  -1  -2  -3   10.90    2.70
  -1  -2  -3   11.90    3.60
  -1  -2  -3    7.90    1.20
  -1  -2  -3    7.70    1.90
  -1  -2  -3    5.20    1.20
  -1  -2  -3    7.00    1.30
  -1  -2  -3    5.50    1.30
  -1  -2  -3    9.80    2.50
   1   2   3    6.40    1.20
   1   2   3    4.60    3.40
   1   2   3    4.00    2.00
   1   2   3    7.50    2.00
   1   2   3    7.00    1.10
   1   2   3    6.20    1.30
   1   2   3    5.80    1.10
   1   2   3    6.40    0.70
  -2  -2  -3 2009.00  132.29
  -2  -2  -3 2168.18  129.29
  -2  -2  -3 2301.77  129.19
  -2  -2  -3 2198.28  129.59
  -2  -2  -3 2072.99  130.39
  -2  -2  -3 1936.01  129.49
  -2  -2  -3 2049.89  129.39
   2   2   3 2147.99  129.59
   2   2   3 2372.36  130.09
   2   2   3 2280.67  129.39
   2   2   3 2137.89  129.19
   2   2   3 2345.77  129.59
   2   2   3 2117.29  132.89
  -3  -2  -3  663.23   34.60
  -3  -2  -3  553.64   34.50
  -3  -2  -3  537.25   35.50
  -3  -2  -3  532.05   36.70
  -3  -2  -3  566.44   34.50
  -3  -2  -3  569.04   34.50
   3   2   3  606.94   35.60
   3   2   3  558.54   36.80
   3   2   3  568.74   34.50
   3   2   3  591.74   34.40
  -4  -2  -3 1606.34   82.89
  -4  -2  -3 1399.96   82.79
  -4  -2  -3 1389.26   82.79
  -4  -2  -3 1263.97   84.99
  -4  -2  -3 1274.97   83.69
  -4  -2  -3 1361.16   82.79
   4   2   3 1485.95   82.69
   4   2   3 1340.17   82.69
   4   2   3 1378.06   84.89
  -5  -2  -3 1057.09   69.39
  -5  -2  -3 1172.98   68.49
  -5  -2  -3  970.80   70.59
  -5  -2  -3 1221.48   68.49
  -5  -2  -3 1143.89   68.49
  -5  -2  -3 1164.18   69.89
   5   2   3 1138.99   68.39
   5   2   3 1148.49   70.49
   5   2   3 1286.67   68.29
  -6  -2  -3  266.07   22.50
  -6  -2  -3  340.47   19.80
  -6  -2  -3  287.57   20.90
  -6  -2  -3  345.17   22.80
  -6  -2  -3  307.07   19.80
   6   2   3  351.96   22.20
   6   2   3  316.27   19.50
  -7  -2  -3  633.34   38.70
  -7  -2  -3  627.14   40.80
  -7  -2  -3  635.24   38.50
  -8  -2  -3    8.20    4.30
  -8  -2  -3    3.40    9.10
  -8  -2  -3    8.90    4.50
  -6   3   3  646.84   43.60
  -6   3   3  605.44   40.00
  -6   3   3  678.03   43.10
  -6   3   3  688.53   40.00
   5  -3  -3  517.25   32.40
  -5   3   3  528.75   32.50
  -5   3   3  488.45   34.60
  -5   3   3  551.24   35.10
  -5   3   3  552.54   32.40
   4  -3  -3  948.41   58.09
   4  -3  -3  992.50   57.99
  -4   3   3  953.20   58.09
  -4   3   3  971.40   59.89
  -4   3   3  978.80   58.09
  -4   3   3  954.00   60.19
   3  -3  -3 2067.99  124.49
   3  -3  -3 2166.18  124.49
  -3   3   3 1891.41  125.89
  -3   3   3 2102.99  124.49
  -3   3   3 2209.88  124.49
  -3   3   3 2111.99  125.89
  -3   3   3 2080.19  124.49
   2  -3  -3   29.90    3.30
   2  -3  -3   29.40    3.60
   2  -3  -3   31.80    3.10
   2  -3  -3   27.80    4.50
  -2   3   3   36.80    3.20
  -2   3   3   30.80    4.80
  -2   3   3   35.40    3.60
  -2   3   3   31.90    3.40
  -2   3   3   31.10    3.20
  -2   3   3   36.10    5.00
  -2   3   3   31.90    4.60
   1  -3  -3 3102.89  176.38
   1  -3  -3 2808.42  181.68
   1  -3  -3 3112.99  176.48
   1  -3  -3 2923.71  178.28
   1  -3  -3 2982.20  175.68
   1  -3  -3 3022.00  178.58
  -1   3   3 3058.99  178.18
  -1   3   3 2783.12  180.68
  -1   3   3 2727.73  175.88
  -1   3   3 2920.21  176.08
  -1   3   3 3345.17  176.28
  -1   3   3 2823.82  176.38
  -1   3   3 2830.92  179.18
  -1   3   3 2870.61  177.88
   0  -3  -3 1048.20   62.89
   0  -3  -3 1097.59   62.09
   0  -3  -3 1019.80   62.89
   0  -3  -3 1026.00   62.09
   0  -3  -3 1028.20   62.09
   0  -3  -3 1009.30   63.99
   0  -3  -3 1193.08   62.19
   0   3   3 1120.29   62.99
   0   3   3 1077.79   62.09
   0   3   3  997.90   62.09
   0   3   3 1025.00   63.99
   0   3   3  973.00   63.09
   0   3   3  953.20   61.99
   0   3   3 1007.60   61.99
   0   3   3 1041.20   63.09
  -1  -3  -3 5584.54  323.17
  -1  -3  -3 5328.37  317.97
  -1  -3  -3 5465.25  317.37
  -1  -3  -3 5308.97  328.57
  -1  -3  -3 5228.28  317.77
  -1  -3  -3 5678.23  322.87
  -1  -3  -3 5842.02  318.27
   1   3   3 4818.32  317.27
   1   3   3 5540.85  330.07
   1   3   3 5610.24  317.87
   1   3   3 5023.80  317.67
   1   3   3 5926.71  323.17
   1   3   3 4486.95  322.07
   1   3   3 5037.10  317.47
   1   3   3 5129.89  317.87
  -2  -3  -3 5733.83  340.97
  -2  -3  -3 5153.28  337.27
  -2  -3  -3 6442.36  338.37
  -2  -3  -3 5645.04  337.87
  -2  -3  -3 5750.12  338.07
  -2  -3  -3 5470.45  345.17
  -2  -3  -3 5868.71  337.97
   2   3   3 5216.68  337.47
   2   3   3 5636.54  337.97
   2   3   3 5238.78  337.37
   2   3   3 5476.95  337.47
   2   3   3 6206.08  338.97
   2   3   3 5520.45  343.67
   2   3   3 6132.59  338.97
   2   3   3 5558.04  345.07
  -3  -3  -3 1823.72  109.89
  -3  -3  -3 1712.93  111.19
  -3  -3  -3 1862.01  108.59
  -3  -3  -3 1881.51  108.59
  -3  -3  -3 1873.21  108.69
  -3  -3  -3 1854.91  108.59
   3   3   3 1795.02  111.39
   3   3   3 1922.11  108.59
   3   3   3 1829.02  108.69
   3   3   3 1687.43  109.09
  -4  -3  -3 4092.99  259.27
  -4  -3  -3 4378.86  256.27
  -4  -3  -3 4478.05  255.77
  -4  -3  -3 4273.17  261.77
  -4  -3  -3 4280.17  254.97
   4   3   3 4249.08  263.37
   4   3   3 3997.20  256.97
   4   3   3 4544.65  255.97
  -5  -3  -3    7.70    3.00
  -5  -3  -3    4.40    4.60
  -5  -3  -3    6.30    3.90
  -5  -3  -3    6.10    2.80
  -5  -3  -3    4.60    6.20
  -5  -3  -3    6.80    2.50
   5   3   3    5.00    2.20
   5   3   3    6.10    2.50
   5   3   3    9.20    5.50
  -6  -3  -3 1743.13  112.59
  -6  -3  -3 1777.02  109.89
  -6  -3  -3 1750.82  110.89
  -6  -3  -3 1823.02  109.89
  -6  -3  -3 1891.41  111.49
   6   3   3 2064.89  112.49
   6   3   3 1831.92  109.79
  -7  -3  -3  158.28   15.60
  -7  -3  -3  143.69   11.60
  -7  -3  -3  159.68   11.20
  -8  -3  -3  879.41   55.49
  -8  -3  -3  918.41   55.59
  -8  -3  -3  957.80   58.79
  -6   4   3  135.29   10.20
  -6   4   3  122.79   15.20
  -6   4   3  129.99   10.30
  -6   4   3  126.79   14.80
   5  -4  -3   39.80    4.90
  -5   4   3   44.10    9.70
  -5   4   3   44.40    5.30
  -5   4   3   47.30    8.80
  -5   4   3   43.00    5.00
   4  -4  -3  357.46   22.20
  -4   4   3  350.36   22.20
  -4   4   3  333.07   24.40
  -4   4   3  357.96   22.30
  -4   4   3  376.46   24.40
   3  -4  -3    4.00    2.30
   3  -4  -3   -2.60    2.60
  -3   4   3    1.90    5.10
  -3   4   3    4.00    2.80
  -3   4   3    5.70    4.50
  -3   4   3    4.60    3.00
  -3   4   3    3.70    2.50
   2  -4  -3 1131.49   63.99
   2  -4  -3 1066.29   63.99
   2  -4  -3  934.91   65.29
   2  -4  -3 1017.60   64.49
  -2   4   3 1117.09   64.09
  -2   4   3 1044.00   64.99
  -2   4   3 1137.89   64.29
  -2   4   3 1103.79   63.99
  -2   4   3 1082.29   65.69
  -2   4   3 1077.49   65.49
  -2   4   3 1062.49   63.99
   1  -4  -3  294.97   23.30
   1  -4  -3  370.76   21.10
   1  -4  -3  304.77   22.10
   1  -4  -3  363.46   21.10
  -1   4   3  343.77   21.10
  -1   4   3  347.47   23.00
  -1   4   3  345.97   23.00
  -1   4   3  346.97   22.50
  -1   4   3  351.36   21.10
  -1   4   3  341.87   21.10
  -1   4   3  381.16   21.90
   0  -4  -3  970.80   57.19
   0  -4  -3  928.01   57.19
   0  -4  -3 1003.50   57.19
   0  -4  -3  880.71   58.29
   0  -4  -3  846.82   59.59
   0   4   3  950.70   58.69
   0   4   3  935.11   58.29
   0   4   3  973.00   59.69
   0   4   3 1081.29   58.39
   0   4   3 1096.49   57.29
   0   4   3  905.11   57.19
   0   4   3  923.81   57.19
   0   4   3  947.41   57.19
  -1  -4  -3  913.91   55.59
  -1  -4  -3  954.70   55.59
  -1  -4  -3  944.91   55.59
  -1  -4  -3  905.71   58.69
  -1  -4  -3  929.71   57.09
   1   4   3  873.31   55.49
   1   4   3  958.50   55.69
   1   4   3  953.40   55.59
   1   4   3  845.32   57.19
   1   4   3  988.20   58.69
   1   4   3  959.70   55.59
  -2  -4  -3   85.49    5.80
  -2  -4  -3   70.69   11.20
  -2  -4  -3   71.29    5.70
  -2  -4  -3   69.09    9.00
  -2  -4  -3   77.49    5.60
  -2  -4  -3   73.39    5.80
  -2  -4  -3   72.99    5.40
   2   4   3   82.09    5.80
   2   4   3   77.79    5.60
   2   4   3   81.39    5.40
   2   4   3   89.19    5.50
   2   4   3   63.99    9.00
   2   4   3   83.39    9.30
  -3  -4  -3  855.91   54.09
  -3  -4  -3  885.11   54.09
  -3  -4  -3  973.80   54.09
  -3  -4  -3  895.31   55.89
  -3  -4  -3  862.51   57.79
  -3  -4  -3  912.91   54.09
   3   4   3  977.50   57.89
   3   4   3  861.91   54.09
   3   4   3  883.61   54.19
   3   4   3  908.61   56.49
   3   4   3  909.31   53.99
  -4  -4  -3   35.60    4.00
  -4  -4  -3   35.60    8.80
  -4  -4  -3   38.30    3.70
  -4  -4  -3   36.00    3.90
  -4  -4  -3   27.70    6.40
   4   4   3   37.10    3.50
   4   4   3   33.70    3.50
   4   4   3   58.49    5.50
   4   4   3   37.10    8.30
  -5  -4  -3 1219.58   79.29
  -5  -4  -3 1321.97   77.79
  -5  -4  -3 1189.68   81.19
  -5  -4  -3 1351.66   77.69
  -5  -4  -3 1387.96   77.79
   5   4   3 1405.16   77.59
   5   4   3 1350.36   77.69
   5   4   3 1157.58   78.19
  -6  -4  -3  434.86   25.50
  -6  -4  -3  425.66   25.50
  -6  -4  -3  438.76   27.60
  -6  -4  -3  379.26   30.40
  -6  -4  -3  382.46   27.60
   6   4   3  374.36   26.20
   6   4   3  419.26   25.30
  -7  -4  -3  552.04   35.70
  -7  -4  -3  562.84   35.70
  -7  -4  -3  613.64   38.30
   7   4   3  592.04   35.50
  -8  -4  -3  482.35   30.80
  -8  -4  -3  483.55   30.80
  -8  -4  -3  507.35   34.10
  -6   5   3   21.00    8.10
  -6   5   3   25.00    4.90
  -6   5   3   19.10    4.80
  -6   5   3   11.80    9.10
  -5   5   3   14.90    6.40
  -5   5   3   17.00    7.10
  -5   5   3   20.90    4.30
  -5   5   3   19.10    4.60
   4  -5  -3   -2.80    3.10
  -4   5   3    1.10    3.90
  -4   5   3    1.80    3.50
  -4   5   3   -0.30    7.50
  -4   5   3    2.60    6.70
   3  -5  -3    0.70    2.90
  -3   5   3    2.00    6.70
  -3   5   3    3.10    3.10
  -3   5   3    1.90    3.40
  -3   5   3   -0.50    3.50
  -3   5   3   -1.50    5.80
   2  -5  -3    0.90    2.40
   2  -5  -3   -1.60    2.50
   2  -5  -3   -3.40    3.70
  -2   5   3    2.00    2.50
  -2   5   3   -0.40    5.20
  -2   5   3   -2.30    4.10
  -2   5   3   -0.10    4.20
  -2   5   3   -3.30    2.90
  -2   5   3    0.20    2.70
  -2   5   3    0.60    2.70
   1  -5  -3    5.80    2.30
   1  -5  -3    7.30    2.50
   1  -5  -3   -1.80    4.40
   1  -5  -3    3.50    6.30
  -1   5   3    6.80    2.60
  -1   5   3   15.60    5.30
  -1   5   3    7.40    2.70
  -1   5   3   10.50    5.50
  -1   5   3   13.00    2.50
  -1   5   3    7.00    4.10
   0  -5  -3   11.80    2.60
   0  -5  -3    4.10    4.60
   0  -5  -3    9.70    2.30
   0  -5  -3    0.80    5.90
   0   5   3    4.30    5.00
   0   5   3    8.70    1.80
   0   5   3    8.10    5.30
   0   5   3    9.40    4.50
   0   5   3    8.00    2.10
   0   5   3    8.20    2.50
  -1  -5  -3    8.70    1.90
  -1  -5  -3    3.80    5.40
  -1  -5  -3    3.10    7.00
  -1  -5  -3    8.40    2.50
  -1  -5  -3   10.10    2.30
   1   5   3    3.70    3.80
   1   5   3   13.20    2.70
   1   5   3   11.60    2.50
   1   5   3   10.30    4.30
   1   5   3   10.60    1.80
   1   5   3   12.50    2.60
   1   5   3   11.90    5.00
  -2  -5  -3  106.29    7.30
  -2  -5  -3  100.19    7.50
  -2  -5  -3   98.39   11.60
  -2  -5  -3   91.29   13.90
  -2  -5  -3  116.49    7.20
  -2  -5  -3  108.29    7.30
   2   5   3  108.59    7.50
   2   5   3  103.39    7.30
   2   5   3   84.79   11.30
   2   5   3  104.49    7.70
   2   5   3  118.19   12.70
   2   5   3  115.29    7.60
  -3  -5  -3   37.80    3.90
  -3  -5  -3   33.40    4.00
  -3  -5  -3   37.20    3.90
  -3  -5  -3   38.30    3.40
  -3  -5  -3   33.70    6.30
  -3  -5  -3   34.20    8.40
   3   5   3   32.20    3.60
   3   5   3   36.10    8.70
   3   5   3   42.20    4.00
   3   5   3   37.00    4.10
   3   5   3   30.50    6.50
  -4  -5  -3   45.40    4.80
  -4  -5  -3   37.40   10.50
  -4  -5  -3   54.59    4.50
  -4  -5  -3   36.80    7.90
  -4  -5  -3   45.20    4.60
   4   5   3   41.30    7.60
   4   5   3   41.30    4.20
   4   5   3   40.10    5.00
   4   5   3   59.09   10.00
   4   5   3   47.00    4.20
  -5  -5  -3   76.39    6.40
  -5  -5  -3   72.99    6.40
  -5  -5  -3   55.79    9.10
  -5  -5  -3   63.19   12.10
   5   5   3   60.49    6.90
   5   5   3   70.19    6.10
   5   5   3   74.39    6.20
   5   5   3  105.19   13.60
  -6  -5  -3   -4.00    3.70
  -6  -5  -3    2.30    5.80
  -6  -5  -3    2.30    4.00
  -6  -5  -3   -6.90    8.50
  -6  -5  -3   -1.70    6.40
   6   5   3    2.00    3.50
   6   5   3   -1.60    4.80
  -7  -5  -3   71.39    9.50
  -7  -5  -3   56.69    8.90
  -7  -5  -3   48.40    6.40
  -7  -5  -3   54.89    6.40
   7   5   3   64.49    6.10
  -8  -5  -3   -3.00    5.10
  -8  -5  -3    5.20    8.20
  -8  -5  -3   -4.20    5.10
  -5   6   3   60.29   11.40
  -5   6   3   55.59   10.80
  -5   6   3   60.69    6.40
  -5   6   3   61.29    6.80
  -4   6   3  123.29   15.10
  -4   6   3  124.59   13.20
  -4   6   3  139.69   10.40
  -4   6   3  138.09   10.30
   3  -6  -3  219.98   14.50
  -3   6   3  242.88   14.90
  -3   6   3  220.28   15.00
  -3   6   3  208.88   17.20
  -3   6   3  220.38   18.50
   2  -6  -3   88.49    6.80
   2  -6  -3   71.19    9.20
  -2   6   3   81.99    7.50
  -2   6   3   86.09   11.50
  -2   6   3   89.19   10.00
  -2   6   3   87.29    7.20
  -2   6   3   89.79    9.90
   1  -6  -3  552.64   40.80
   1  -6  -3  696.83   39.30
   1  -6  -3  539.05   42.50
  -1   6   3  672.63   39.30
  -1   6   3  680.73   39.30
  -1   6   3  724.03   42.20
  -1   6   3  655.83   41.80
  -1   6   3  652.63   41.20
  -1   6   3  663.13   39.40
   0  -6  -3   -5.80    6.90
   0  -6  -3    8.70    2.80
   0  -6  -3    0.40    1.80
   0  -6  -3   -9.50    5.20
   0   6   3    6.70    2.50
   0   6   3   -0.10    2.60
   0   6   3    3.20    3.20
   0   6   3   -2.90    4.50
   0   6   3   -1.70    2.90
   0   6   3   -2.30    5.60
   0   6   3    0.30    6.50
  -1  -6  -3  451.65   34.80
  -1  -6  -3  531.45   30.60
  -1  -6  -3  454.95   32.60
  -1  -6  -3  506.15   30.60
   1   6   3  513.25   30.60
   1   6   3  507.55   33.50
   1   6   3  496.05   30.70
   1   6   3  506.65   30.60
   1   6   3  519.35   30.40
   1   6   3  469.55   31.70
   1   6   3  558.14   34.70
  -2  -6  -3   55.39    9.30
  -2  -6  -3   62.79    5.70
  -2  -6  -3   57.99    5.50
  -2  -6  -3   64.39   12.40
   2   6   3   65.49    5.70
   2   6   3   56.79    8.30
   2   6   3   65.09    5.90
   2   6   3   64.09    5.50
   2   6   3   84.59   12.10
   2   6   3   69.39    6.10
  -3  -6  -3  255.57   17.30
  -3  -6  -3  246.88   17.40
  -3  -6  -3  269.17   23.30
  -3  -6  -3  272.17   20.50
  -3  -6  -3  299.87   17.30
   3   6   3  305.97   17.80
   3   6   3  233.58   21.40
   3   6   3  245.48   17.40
   3   6   3  271.07   17.30
   3   6   3  322.27   22.00
  -4  -6  -3  225.98   18.30
  -4  -6  -3  225.68   21.30
  -4  -6  -3  221.88   15.30
  -4  -6  -3  225.38   15.20
  -4  -6  -3  257.07   15.10
   4   6   3  214.48   20.10
   4   6   3  227.18   15.20
   4   6   3  244.08   15.80
   4   6   3  240.18   15.00
  -5  -6  -3   39.80    9.30
  -5  -6  -3   42.70    5.30
  -5  -6  -3   48.20   12.40
  -5  -6  -3   53.09    5.60
   5   6   3   53.19    5.40
   5   6   3   42.10    6.60
   5   6   3   50.59    4.60
  -6  -6  -3  242.08   21.10
  -6  -6  -3  276.77   17.60
  -6  -6  -3  276.37   19.20
  -6  -6  -3  266.57   17.40
  -6  -6  -3  259.77   24.70
   6   6   3  242.58   18.90
   6   6   3  261.27   17.30
  -7  -6  -3   -4.50    4.80
  -7  -6  -3    6.40    6.80
  -7  -6  -3   -1.90    7.50
  -7  -6  -3   -1.60    4.80
   7   6   3   -5.90    6.00
   7   6   3   -1.30    4.40
  -8  -6  -3  111.99   10.20
  -8  -6  -3  114.79   10.30
  -8  -6  -3  139.39   14.80
  -5   7   3  286.27   25.70
  -5   7   3  334.57   20.70
  -5   7   3  321.77   20.80
  -5   7   3  306.17   25.70
  -4   7   3  685.23   47.70
  -4   7   3  729.13   48.40
  -4   7   3  727.03   44.90
  -4   7   3  783.12   44.80
   3  -7  -3  186.98   12.90
  -3   7   3  207.18   13.50
  -3   7   3  183.28   17.40
  -3   7   3  178.68   17.90
  -3   7   3  192.38   13.50
   2  -7  -3 1267.37   74.39
  -2   7   3 1191.48   76.39
  -2   7   3 1183.08   77.09
  -2   7   3 1316.47   74.59
  -2   7   3 1242.38   74.59
   1  -7  -3   21.30    6.40
   1  -7  -3   36.80    4.60
   1  -7  -3   31.90    4.20
  -1   7   3   36.30    7.60
  -1   7   3   32.60    4.30
  -1   7   3   25.80    6.50
  -1   7   3   22.20    6.60
  -1   7   3   34.70    4.60
   0  -7  -3 1568.24   96.49
   0  -7  -3 1438.16   98.29
   0  -7  -3 1745.53   96.49
   0  -7  -3 1386.86  100.39
   0   7   3 1881.01  100.29
   0   7   3 1790.52   96.59
   0   7   3 1598.34   98.79
   0   7   3 1527.45   96.49
   0   7   3 1637.44   96.49
   0   7   3 1654.43   96.89
   0   7   3 1529.15   97.69
  -1  -7  -3  339.07   20.50
  -1  -7  -3  345.07   20.50
  -1  -7  -3  288.47   26.90
  -1  -7  -3  297.67   24.10
   1   7   3  319.67   24.30
   1   7   3  314.77   20.70
   1   7   3  330.47   20.80
   1   7   3  398.86   25.60
   1   7   3  324.17   20.40
   1   7   3  324.57   20.30
   1   7   3  302.17   21.80
  -2  -7  -3 1346.87   89.19
  -2  -7  -3 1457.65   83.09
  -2  -7  -3 1375.16   83.09
  -2  -7  -3 1345.17   86.09
   2   7   3 1454.25   82.99
   2   7   3 1538.75   87.49
   2   7   3 1403.66   82.99
   2   7   3 1369.16   83.19
   2   7   3 1381.56   83.19
   2   7   3 1191.68   85.39
  -3  -7  -3 1945.51  108.29
  -3  -7  -3 1853.91  111.59
  -3  -7  -3 1753.92  108.29
  -3  -7  -3 1873.81  114.99
   3   7   3 1723.43  108.29
   3   7   3 1828.52  108.19
   3   7   3 1847.22  108.59
   3   7   3 1673.13  111.39
  -4  -7  -3  193.28   13.90
  -4  -7  -3  201.68   13.70
  -4  -7  -3  232.68   20.20
  -4  -7  -3  225.28   24.30
   4   7   3  213.08   13.80
   4   7   3  187.58   17.80
   4   7   3  217.88   14.70
   4   7   3  191.78   14.00
  -5  -7  -3 1387.16   91.09
  -5  -7  -3 1340.07   84.49
  -5  -7  -3 1429.96   87.79
  -5  -7  -3 1465.55   84.39
   5   7   3 1415.66   85.09
   5   7   3 1467.65   84.69
   5   7   3 1335.77   84.39
  -6  -7  -3    0.80    8.70
  -6  -7  -3    6.70    3.50
  -6  -7  -3   -1.50    4.90
  -6  -7  -3    2.10    5.50
   6   7   3    3.50    3.50
   6   7   3   -4.30    5.70
  -7  -7  -3  563.54   39.80
  -7  -7  -3  567.94   36.60
  -7  -7  -3  636.94   36.60
  -7  -7  -3  605.64   38.00
   7   7   3  550.64   36.20
  -8  -7  -3  159.48   12.80
  -8  -7  -3  146.59   15.40
  -4   8   3   19.50    5.60
  -4   8   3   15.80    9.60
  -4   8   3   19.70    5.70
  -4   8   3    4.10    7.40
  -3   8   3  664.33   45.30
  -3   8   3  694.73   47.20
  -3   8   3  750.02   43.40
  -3   8   3  722.03   43.50
   2  -8  -3  252.47   16.40
  -2   8   3  273.27   16.70
  -2   8   3  242.18   21.60
  -2   8   3  252.67   16.90
  -2   8   3  223.58   19.80
   1  -8  -3  886.51   63.59
   1  -8  -3 1052.39   61.79
  -1   8   3 1013.80   61.99
  -1   8   3 1177.48   65.49
  -1   8   3  942.41   63.39
  -1   8   3 1089.39   62.59
  -1   8   3 1009.40   64.99
  -1   8   3 1024.70   61.89
   0  -8  -3 1534.45   87.49
   0  -8  -3 1326.37   89.69
   0   8   3 1556.64   87.99
   0   8   3 1402.96   87.59
   0   8   3 1484.65   87.49
   0   8   3 1384.86   88.69
   0   8   3 1528.15   90.39
  -1  -8  -3  275.77   25.10
  -1  -8  -3  385.66   21.20
  -1  -8  -3  334.17   21.10
   1   8   3  326.97   25.60
   1   8   3  339.87   21.20
   1   8   3  324.97   21.60
   1   8   3  334.67   21.30
  -2  -8  -3 1727.43   95.89
  -2  -8  -3 1579.24  102.19
  -2  -8  -3 1612.44   95.89
  -2  -8  -3 1560.84   98.89
   2   8   3 1633.04   96.19
   2   8   3 1505.05   99.09
   2   8   3 1633.64   95.79
   2   8   3 1556.34   95.99
  -3  -8  -3    8.10   10.30
  -3  -8  -3    8.40   13.40
  -3  -8  -3   21.40    4.50
  -3  -8  -3   23.60    3.60
   3   8   3   27.50    5.10
   3   8   3   15.10    9.50
   3   8   3   26.60    4.80
   3   8   3   31.00    3.80
  -4  -8  -3 1330.77   84.59
  -4  -8  -3 1418.46   88.69
  -4  -8  -3 1501.85   84.59
   4   8   3 1282.47   88.29
   4   8   3 1563.34   85.19
   4   8   3 1322.37   84.59
   4   8   3 1428.06   84.49
  -5  -8  -3  193.78   21.70
  -5  -8  -3  243.08   14.90
  -5  -8  -3  213.48   15.00
   5   8   3  228.08   16.10
   5   8   3  184.48   21.60
   5   8   3  195.58   14.30
  -6  -8  -3  879.51   50.89
  -6  -8  -3  858.91   49.80
  -6  -8  -3  781.52   49.90
  -6  -8  -3  737.93   53.69
   6   8   3  767.22   49.60
   6   8   3  838.52   50.79
  -7  -8  -3  648.14   38.40
  -7  -8  -3  582.14   42.60
  -7  -8  -3  688.73   40.00
  -7  -8  -3  630.04   38.90
   7   8   3  608.24   40.00
   7   8   3  556.44   38.40
  -3   9   3   65.99    6.80
  -3   9   3   48.40   11.90
  -3   9   3   41.10    9.90
  -3   9   3   58.69    6.90
  -2   9   3   52.39    6.40
  -2   9   3   53.59    7.20
  -2   9   3   57.09    9.60
  -2   9   3   55.69    7.10
  -2   9   3   53.79   11.50
   1  -9  -3   75.79    6.90
  -1   9   3   70.09   10.50
  -1   9   3   75.49    7.50
  -1   9   3   71.69    9.60
  -1   9   3   81.09    7.30
  -1   9   3   76.49    7.70
   0  -9  -3   24.50    9.30
   0  -9  -3   48.60    5.70
   0   9   3   54.09    6.90
   0   9   3   48.40    6.20
   0   9   3   54.99    5.80
   0   9   3   53.19    7.70
   0   9   3   48.00    9.00
  -1  -9  -3  250.47   16.40
  -1  -9  -3  201.68   21.60
   1   9   3  263.07   20.40
   1   9   3  260.07   17.10
   1   9   3  229.68   16.40
   1   9   3  249.38   16.70
  -2  -9  -3    0.30    3.80
  -2  -9  -3    0.70   10.20
   2   9   3    5.00    3.20
   2   9   3    0.60    4.60
   2   9   3   -4.30    9.00
   2   9   3    0.20    4.30
  -3  -9  -3  496.15   36.20
  -3  -9  -3  516.85   31.70
   3   9   3  556.64   31.70
   3   9   3  457.45   35.30
   3   9   3  522.35   32.10
   3   9   3  496.95   31.80
  -4  -9  -3  158.08   11.60
  -4  -9  -3  154.68   18.60
   4   9   3  136.39   17.50
   4   9   3  168.18   12.10
   4   9   3  167.28   11.80
   4   9   3  182.38   13.30
  -5  -9  -3  310.87   20.30
  -5  -9  -3  288.27   25.10
   5   9   3  258.47   26.50
   5   9   3  302.27   20.30
   5   9   3  337.07   21.40
  -6  -9  -3  165.98   13.10
  -6  -9  -3  146.29   18.00
   6   9   3  153.28   12.90
   6   9   3  169.18   14.70
  -7  -9  -3  154.48   13.70
  -7  -9  -3  141.99   17.60
   7   9   3  200.88   16.20
   7   9   3  164.98   13.30
  -2  10   3   24.50    8.70
  -2  10   3   36.00    6.30
  -2  10   3   31.20    5.90
  -2  10   3   32.20    8.20
  -2  10   3   30.10    9.20
  -1  10   3   31.20    8.00
  -1  10   3   26.10    5.90
  -1  10   3   33.30   11.10
  -1  10   3   23.90    7.00
  -1  10   3   26.30    5.50
   0 -10  -3    4.30    4.60
   0  10   3    1.50    9.60
   0  10   3   -3.40    5.00
   0  10   3   -3.50    6.90
   0  10   3   -0.60    5.80
   0  10   3   -0.30    4.60
  -1 -10  -3   11.80    4.70
  -1 -10  -3  -10.50    9.90
   1  10   3    8.40    4.70
   1  10   3    8.20    5.10
   1  10   3   15.60   10.40
   1  10   3   13.50    5.60
  -2 -10  -3   -7.70   11.10
  -2 -10  -3    4.60    4.50
   2  10   3    9.30    5.30
   2  10   3    3.90    4.60
   2  10   3   -0.40   10.10
   2  10   3    7.10    5.20
  -3 -10  -3    5.30    4.80
  -3 -10  -3   -6.80    9.00
   3  10   3    3.90    4.80
   3  10   3    0.60    5.30
   3  10   3   -6.70   10.40
   3  10   3    5.70    5.10
  -4 -10  -3   25.80    5.80
  -4 -10  -3   28.70   11.00
   4  10   3   27.00    6.00
   4  10   3   26.50    6.60
   4  10   3   34.30    6.30
   4  10   3   17.10    9.10
  -5 -10  -3   16.00   14.00
  -5 -10  -3   29.60    6.20
   5  10   3   28.60    6.20
   5  10   3   27.30    7.30
   5  10   3   14.90   12.00
  -6 -10  -3    1.20    5.50
  -6 -10  -3  -12.20   12.60
   6  10   3   -2.70    7.30
   6  10   3    5.60    5.80
   0  11   3   12.30   11.20
   0  11   3    9.80    6.70
   0  11   3   12.20    6.00
   0  11   3   15.90    5.60
  -1 -11  -3  125.79   12.40
   1  11   3  110.49   15.60
   1  11   3   90.19    9.20
   1  11   3  117.69   11.30
   1  11   3   98.69    9.20
  -2 -11  -3  124.19   10.10
  -2 -11  -3   73.89   15.50
   2  11   3   98.89   13.50
   2  11   3  116.89    9.30
   2  11   3   97.29    9.40
   2  11   3  107.29   10.90
  -3 -11  -3   24.40    5.80
  -3 -11  -3    6.60   10.60
   3  11   3   23.40   12.20
   3  11   3   20.90    6.40
   3  11   3   27.30    5.80
   3  11   3   21.50    6.30
  -4 -11  -3  184.08   21.80
  -4 -11  -3  221.88   14.70
   4  11   3  153.98   22.40
   4  11   3  198.08   14.90
   4  11   3  188.98   15.50
  -5 -11  -3  -20.70   13.90
  -5 -11  -3    0.80    5.70
   5  11   3   -2.80   12.20
   5  11   3   -5.90    6.80
   5  11   3   -1.60    4.60
   3  10  -4   53.59   12.60
   3  10  -4   38.30    9.30
   3  10  -4   47.80    6.90
   3  10  -4   39.90    7.00
   2  10  -4  249.78   24.10
   2  10  -4  266.87   17.50
   2  10  -4  222.48   17.30
   2  10  -4  255.27   20.20
   1  10  -4   -3.00    5.00
   1  10  -4    1.60    7.80
   1  10  -4    7.80    9.60
   1  10  -4    2.20    5.40
   0  10  -4  215.98   16.80
   0  10  -4  248.68   17.20
   0  10  -4  247.38   20.10
   0  10  -4  271.17   23.20
   4   9  -4   70.99    8.00
   4   9  -4   71.69    8.00
   4   9  -4   73.49   10.50
   4   9  -4   70.39   11.40
   3   9  -4    2.10    8.20
   3   9  -4   -1.20    5.20
   3   9  -4    1.10    7.50
   3   9  -4   -2.10    5.10
   2   9  -4   12.00    7.50
   2   9  -4    6.80    8.40
   2   9  -4   16.30    5.00
   2   9  -4   11.70    4.90
   1   9  -4   10.90    8.70
   1   9  -4   -1.30    4.20
   1   9  -4    0.60    4.10
   1   9  -4    3.60    7.10
   0   9  -4   -1.30    3.90
   0   9  -4    1.00    8.00
   0   9  -4    0.00    3.90
   0   9  -4   -1.10    7.40
  -1   9  -4   12.30    4.30
  -1   9  -4    9.80    4.00
  -1   9  -4   10.70    9.30
  -1   9  -4   12.50    7.90
  -2   9  -4    4.50    4.60
  -2   9  -4    7.20    3.50
  -2   9  -4    1.60    8.50
  -2   9  -4    9.30    9.90
   5   8  -4    9.30    8.40
   5   8  -4    1.90    4.30
   5   8  -4    5.00    6.00
  -5  -8   4   -1.20    4.90
   4   8  -4  314.37   23.20
   4   8  -4  306.87   20.60
   4   8  -4  324.97   25.40
   4   8  -4  312.77   21.30
  -4  -8   4  330.97   20.80
   3   8  -4  105.79   11.00
   3   8  -4   97.39    8.70
   3   8  -4  111.09   15.30
   3   8  -4  104.69    9.00
  -3  -8   4  109.59    8.80
   2   8  -4  196.58   13.40
   2   8  -4  200.28   15.90
   2   8  -4  185.08   17.50
   2   8  -4  174.48   13.40
   1   8  -4  201.18   13.30
   1   8  -4  176.78   13.20
   1   8  -4  204.98   14.70
   1   8  -4  185.18   17.60
   0   8  -4   26.40    8.50
   0   8  -4   32.70    4.80
   0   8  -4   22.90    4.50
   0   8  -4   32.10    6.00
  -1   8  -4  104.99    8.50
  -1   8  -4   97.29    8.10
  -1   8  -4  105.19   11.10
  -1   8  -4  104.29   14.50
  -2   8  -4    8.50    3.30
  -2   8  -4   10.60    7.10
  -2   8  -4    8.90    3.80
  -2   8  -4    1.50    7.50
  -3   8  -4  121.29   13.60
  -3   8  -4  122.49   10.30
  -3   8  -4  153.88   18.30
   6   7  -4   52.49   10.60
   6   7  -4   38.80    7.30
  -6  -7   4   48.60    6.70
   5   7  -4  649.43   43.20
   5   7  -4  642.24   41.60
   5   7  -4  700.73   41.20
  -5  -7   4  677.13   41.00
   4   7  -4  247.98   17.60
   4   7  -4  259.37   20.50
   4   7  -4  272.67   17.10
   4   7  -4  263.77   19.70
  -4  -7   4  248.88   17.20
   3   7  -4  344.97   21.30
   3   7  -4  340.37   23.00
   3   7  -4  305.17   24.60
   3   7  -4  319.17   21.30
  -3  -7   4  334.07   20.90
   2   7  -4  370.06   23.90
   2   7  -4  374.06   25.40
   2   7  -4  382.36   23.90
   2   7  -4  367.36   27.20
  -2  -7   4  396.96   23.60
   1   7  -4   63.49    7.10
   1   7  -4   58.99    5.70
   1   7  -4   58.39    8.90
   1   7  -4   59.69    6.00
  -1  -7   4   67.59    5.40
   0   7  -4  734.53   44.70
   0   7  -4  720.83   44.70
   0   7  -4  778.12   46.30
   0   7  -4  725.93   47.40
  -1   7  -4   38.40    4.30
  -1   7  -4   43.80    7.50
  -1   7  -4   45.10    8.80
  -1   7  -4   38.60    4.40
  -2   7  -4  493.35   32.00
  -2   7  -4  467.55   27.50
  -2   7  -4  407.56   27.30
  -2   7  -4  433.06   29.90
  -3   7  -4   66.89    5.60
  -3   7  -4   79.69   10.40
  -3   7  -4   59.49    5.80
  -3   7  -4   61.19    8.50
  -4   7  -4  199.38   19.60
  -4   7  -4  146.09   15.10
  -4   7  -4  165.08   19.40
   6   6  -4  612.94   38.60
   6   6  -4  624.54   41.20
  -6  -6   4  627.54   38.70
   5   6  -4  181.38   13.70
   5   6  -4  184.68   13.40
   5   6  -4  178.88   16.30
  -5  -6   4  168.28   12.40
   4   6  -4  554.34   36.30
   4   6  -4  585.14   34.90
   4   6  -4  547.55   34.90
  -4  -6   4  562.14   34.60
   3   6  -4  878.91   55.09
   3   6  -4  921.81   54.39
   3   6  -4  867.01   56.39
   3   6  -4  941.71   54.39
  -3  -6   4  879.01   54.09
   2   6  -4  236.48   15.10
   2   6  -4  215.58   18.10
   2   6  -4  240.58   16.80
   2   6  -4  220.28   15.10
  -2  -6   4  231.58   14.70
   1   6  -4 1789.02  100.29
   1   6  -4 1661.63  100.09
   1   6  -4 1631.84  100.19
   1   6  -4 1601.54  101.99
   1   6  -4 1663.73  100.99
  -1  -6   4 1719.93   99.99
   0   6  -4   24.10    3.30
   0   6  -4   24.60    4.80
   0   6  -4   23.00    7.00
   0   6  -4   21.30    3.20
   0   6  -4   37.70    3.60
   0  -6   4   21.40    2.80
  -1   6  -4 1500.25   84.69
  -1   6  -4 1406.76   87.09
  -1   6  -4 1325.67   84.69
  -1   6  -4 1337.57   84.69
  -1   6  -4 1444.36   86.09
  -1   6  -4 1503.85   85.09
  -2   6  -4  125.59   13.50
  -2   6  -4  107.99    8.10
  -2   6  -4  113.29    8.50
  -2   6  -4  146.59   10.40
  -2   6  -4  108.19   11.00
  -2   6  -4  124.99    8.20
  -3   6  -4  695.33   42.10
  -3   6  -4  656.53   42.00
  -3   6  -4  682.23   44.60
  -3   6  -4  762.22   46.30
  -3   6  -4  718.83   42.30
  -4   6  -4  842.92   52.99
  -4   6  -4  769.52   48.40
  -4   6  -4  848.22   50.49
  -4   6  -4  753.42   50.59
  -5   6  -4   75.09    9.80
  -5   6  -4   69.49   12.60
  -5   6  -4   55.89    5.70
   7   5  -4   13.40    7.70
   7   5  -4    4.80    5.50
  -7  -5   4   -0.20    5.70
   6   5  -4   72.09   11.00
   6   5  -4   77.19    7.90
  -6  -5   4   61.79    7.40
   5   5  -4   86.09    7.60
   5   5  -4   85.89    7.90
   5   5  -4   74.69    9.00
  -5  -5   4   78.99    7.60
   4   5  -4  529.15   34.10
   4   5  -4  566.04   35.60
   4   5  -4  559.04   34.00
  -4  -5   4  553.94   33.90
   3   5  -4   29.30    6.60
   3   5  -4   34.10    4.60
   3   5  -4   34.50    4.50
   3   5  -4   36.80    6.50
  -3  -5   4   31.40    4.20
  -3  -5   4   32.70    3.90
   2   5  -4  915.61   54.79
   2   5  -4  882.81   56.59
   2   5  -4  892.61   55.69
   2   5  -4  933.61   54.99
   2   5  -4  915.21   54.99
  -2  -5   4  939.21   54.89
   1   5  -4   53.39    4.70
   1   5  -4   48.40    5.50
   1   5  -4   46.90    4.50
   1   5  -4   61.19    4.70
   1   5  -4   58.19    4.80
   1   5  -4   38.40    6.20
  -1  -5   4   53.09    4.40
  -1  -5   4   52.29    4.40
   0   5  -4  730.73   42.90
   0   5  -4  797.92   43.20
   0   5  -4  709.63   44.10
   0   5  -4  681.33   43.20
   0   5  -4  668.93   44.90
   0   5  -4  676.93   43.20
   0   5  -4  723.53   43.20
   0  -5   4  710.63   43.10
   0  -5   4  765.62   43.00
  -1   5  -4  655.13   40.20
  -1   5  -4  672.13   41.60
  -1   5  -4  658.93   42.40
  -1   5  -4  640.54   40.20
  -1   5  -4  687.23   40.70
  -1   5  -4  772.82   40.30
  -1   5  -4  633.44   40.30
   1  -5   4  646.94   40.50
  -2   5  -4  188.38   12.90
  -2   5  -4  205.78   14.70
  -2   5  -4  213.18   13.10
  -2   5  -4  196.48   12.90
  -2   5  -4  236.68   13.00
  -2   5  -4  211.68   14.20
  -2   5  -4  208.98   16.60
  -3   5  -4  807.72   51.09
  -3   5  -4  882.61   50.59
  -3   5  -4  743.73   48.80
  -3   5  -4  845.32   52.29
  -3   5  -4  807.82   48.90
  -3   5  -4  835.72   49.00
  -4   5  -4    0.80    1.90
  -4   5  -4    6.40    8.10
  -4   5  -4    1.50    2.70
  -4   5  -4   -1.90    5.40
  -5   5  -4  351.16   23.00
  -5   5  -4  376.16   26.20
  -5   5  -4  398.26   28.70
  -6   5  -4   63.89   10.70
  -6   5  -4   76.19   10.90
  -6   5  -4   66.19    5.90
   7   4  -4   42.60    8.70
   7   4  -4   34.60    6.50
  -7  -4   4   77.49   15.40
  -7  -4   4   30.50    6.50
   6   4  -4    2.80    5.00
   6   4  -4    3.60    8.30
  -6  -4   4    5.30    6.60
  -6  -4   4    1.50    4.70
   5   4  -4   18.30    4.50
   5   4  -4    3.70    7.30
   5   4  -4   18.20    4.00
  -5  -4   4   14.80    4.30
  -5  -4   4   14.70    4.40
  -5  -4   4   15.40    6.50
   4   4  -4   16.80    5.00
   4   4  -4   23.40    4.10
   4   4  -4   20.80    4.30
  -4  -4   4   15.70    5.20
  -4  -4   4   16.10    3.00
  -4  -4   4   20.70    4.00
   3   4  -4    8.90    2.80
   3   4  -4    9.90    3.30
   3   4  -4   14.60    3.60
   3   4  -4    8.90    3.90
  -3  -4   4   13.90    3.40
  -3  -4   4   11.90    3.20
  -3  -4   4   10.70    2.90
   2   4  -4    9.30    4.10
   2   4  -4    6.90    2.20
   2   4  -4    7.40    3.30
   2   4  -4    8.10    2.70
   2   4  -4   15.10    2.90
  -2  -4   4    6.50    2.50
  -2  -4   4    6.70    3.90
   1   4  -4  231.38   16.10
   1   4  -4  235.58   15.30
   1   4  -4  263.07   15.50
   1   4  -4  228.58   16.70
   1   4  -4  253.37   15.30
   1   4  -4  251.27   15.60
  -1  -4   4  236.48   15.30
  -1  -4   4  258.97   16.80
  -1  -4   4  270.37   15.30
   0   4  -4  146.19    9.50
   0   4  -4  144.49    9.60
   0   4  -4  149.29    9.30
   0   4  -4  142.39    9.60
   0   4  -4  142.99   11.30
   0   4  -4  164.78    9.50
   0   4  -4  140.19   10.90
   0  -4   4  160.48    9.30
   0  -4   4  143.69    9.40
  -1   4  -4   78.99    6.20
  -1   4  -4   92.19    6.10
  -1   4  -4   98.09    6.00
  -1   4  -4   91.19    6.10
  -1   4  -4   95.49    8.70
  -1   4  -4   96.29    7.00
  -1   4  -4   86.09    8.30
  -2   4  -4  120.39    8.10
  -2   4  -4  132.19   10.00
  -2   4  -4  136.19    8.10
  -2   4  -4  117.19   11.50
  -2   4  -4  117.39    8.20
  -2   4  -4  118.99    8.30
  -2   4  -4  123.19   10.80
   2  -4   4  137.89    7.90
   2  -4   4  151.28    7.90
  -3   4  -4    9.90    1.70
  -3   4  -4    5.30    1.90
  -3   4  -4    3.60    6.20
  -3   4  -4   10.20    4.20
  -3   4  -4    6.70    1.20
  -3   4  -4    6.50    5.90
  -4   4  -4   78.29    5.50
  -4   4  -4   75.49    6.00
  -4   4  -4   89.49    9.80
  -4   4  -4   89.49   10.30
  -4   4  -4   81.39    5.70
  -4   4  -4   77.59   11.30
  -5   4  -4    2.80    8.00
  -5   4  -4    4.30    2.40
  -5   4  -4    8.10    2.40
  -5   4  -4    7.30    6.50
  -5   4  -4   11.20    2.60
  -6   4  -4   51.99    9.60
  -6   4  -4   43.80    4.30
  -6   4  -4   36.50   10.30
   7   3  -4    6.90    9.20
   7   3  -4    2.80    5.20
  -7  -3   4   -1.60    5.10
  -7  -3   4    7.50    8.20
   6   3  -4  567.64   36.80
   6   3  -4  558.94   38.20
  -6  -3   4  585.24   36.80
  -6  -3   4  653.23   39.00
  -6  -3   4  609.34   36.70
   5   3  -4  116.69    9.10
   5   3  -4  117.59   12.30
   5   3  -4  116.29    9.50
  -5  -3   4  108.19    9.00
  -5  -3   4  108.59    9.30
  -5  -3   4  113.99   12.50
   4   3  -4  619.84   38.10
   4   3  -4  624.84   39.00
   4   3  -4  625.04   38.00
  -4  -3   4  636.24   38.00
  -4  -3   4  606.64   38.00
  -4  -3   4  633.24   39.00
   3   3  -4  232.38   15.10
   3   3  -4  232.48   15.00
   3   3  -4  246.68   15.00
   3   3  -4  229.98   15.80
   3   3  -4  234.88   14.80
  -3  -3   4  229.78   14.80
  -3  -3   4  237.78   15.80
  -3  -3   4  223.78   14.90
   2   3  -4  980.30   59.09
   2   3  -4  989.60   59.99
   2   3  -4  964.10   59.19
   2   3  -4  954.30   59.19
   2   3  -4  926.11   59.09
   2   3  -4  954.10   59.89
  -2  -3   4 1107.19   59.49
  -2  -3   4 1129.69   60.09
  -2  -3   4  931.81   59.09
  -2  -3   4  937.71   59.09
   1   3  -4  531.75   33.80
   1   3  -4  525.15   33.70
   1   3  -4  561.34   33.80
   1   3  -4  534.95   34.60
   1   3  -4  607.24   33.60
   1   3  -4  553.24   33.70
   1   3  -4  557.94   34.50
  -1  -3   4  589.44   34.50
  -1  -3   4  583.84   33.70
  -1  -3   4  558.44   33.70
   0   3  -4  212.58   12.70
   0   3  -4  203.08   12.60
   0   3  -4  195.48   12.70
   0   3  -4  189.88   12.50
   0   3  -4  194.48   13.60
   0   3  -4  187.68   13.80
   0   3  -4  230.98   13.00
   0  -3   4  217.78   13.60
   0  -3   4  213.38   12.40
   0  -3   4  198.38   12.50
  -1   3  -4  534.45   31.00
  -1   3  -4  502.55   31.60
  -1   3  -4  493.15   31.00
  -1   3  -4  475.95   32.30
  -1   3  -4  509.85   32.00
  -1   3  -4  529.15   31.00
  -1   3  -4  484.65   31.10
   1  -3   4  575.94   31.00
   1  -3   4  566.94   31.20
  -2   3  -4   15.50    1.20
  -2   3  -4   11.40    1.40
  -2   3  -4   10.30    3.10
  -2   3  -4   12.80    1.10
  -2   3  -4   16.00    3.30
  -2   3  -4    9.70    4.40
  -2   3  -4    9.50    1.40
  -3   3  -4  142.69    8.60
  -3   3  -4  133.89    8.90
  -3   3  -4  153.68   12.80
  -3   3  -4  138.89   13.30
  -3   3  -4  146.69    8.60
  -3   3  -4  151.68   11.10
  -4   3  -4    3.50    1.60
  -4   3  -4   -0.50    3.60
  -4   3  -4    0.80    5.10
  -4   3  -4   -0.10    6.10
  -4   3  -4    2.50    4.90
  -4   3  -4    7.20    1.70
  -4   3  -4    1.00    1.50
  -4   3  -4    2.30    1.00
  -5   3  -4   96.69    7.10
  -5   3  -4  117.39   12.10
  -5   3  -4  100.69   11.50
  -5   3  -4  105.39    7.20
  -5   3  -4  104.19    7.10
  -6   3  -4   25.10    7.40
  -6   3  -4   16.00    3.00
  -6   3  -4   25.00    8.20
  -6   3  -4   29.30    3.20
  -7   3  -4   17.00    3.30
  -7   3  -4   -2.30    9.40
  -7   3  -4   13.90    9.10
  -7  -2   4  790.32   50.19
  -7  -2   4  834.42   50.19
  -7  -2   4  842.12   52.79
   6   2  -4  296.97   18.60
   6   2  -4  268.77   21.40
  -6  -2   4  287.67   21.90
  -6  -2   4  301.37   18.80
  -6  -2   4  274.57   19.00
   5   2  -4 1114.29   66.99
   5   2  -4 1152.48   66.99
   5   2  -4 1015.30   68.19
  -5  -2   4 1088.69   66.99
  -5  -2   4 1171.08   66.99
  -5  -2   4 1132.89   68.59
   4   2  -4 1483.55   84.59
   4   2  -4 1315.27   85.49
   4   2  -4 1376.96   84.59
  -4  -2   4 1349.56   85.69
  -4  -2   4 1434.06   84.59
  -4  -2   4 1519.05   84.59
   3   2  -4  397.66   22.60
   3   2  -4  359.86   22.70
   3   2  -4  360.66   22.90
   3   2  -4  369.36   23.80
  -3  -2   4  337.07   23.70
  -3  -2   4  369.16   22.80
  -3  -2   4  392.16   22.70
   2   2  -4 2773.22  162.58
   2   2  -4 2849.11  162.88
   2   2  -4 2521.15  162.98
   2   2  -4 2565.74  163.08
   2   2  -4 2735.03  163.18
   2   2  -4 3052.39  162.88
  -2  -2   4 2599.14  164.68
  -2  -2   4 2820.02  163.38
  -2  -2   4 2691.13  163.18
   1   2  -4   19.20    3.00
   1   2  -4   20.60    2.30
   1   2  -4   20.90    2.40
   1   2  -4   24.30    2.60
   1   2  -4   29.10    3.20
   1   2  -4   23.70    3.00
   1   2  -4   22.50    2.30
  -1  -2   4   21.50    2.70
  -1  -2   4   28.10    3.30
  -1  -2   4   24.10    2.40
   0   2  -4 3705.63  227.48
   0   2  -4 3431.56  227.38
   0   2  -4 4423.36  230.88
   0   2  -4 3505.15  228.68
   0   2  -4 3595.54  230.38
   0   2  -4 3702.13  227.98
   0   2  -4 3708.03  227.88
   0  -2   4 4109.39  227.68
   0  -2   4 3732.93  227.68
   0  -2   4 4198.88  228.98
   0  -2   4 3959.10  227.58
  -1   2  -4   53.19    3.40
  -1   2  -4   48.40    3.40
  -1   2  -4   50.99    3.40
  -1   2  -4   46.50    5.00
  -1   2  -4   50.49    3.40
  -1   2  -4   53.89    5.00
   1  -2   4   51.89    3.30
   1  -2   4   55.59    3.30
  -2   2  -4 2756.22  169.38
  -2   2  -4 2829.42  165.68
  -2   2  -4 2689.53  164.38
  -2   2  -4 2693.93  163.18
  -2   2  -4 2775.22  163.18
  -3   2  -4  642.84   38.80
  -3   2  -4  651.63   40.30
  -3   2  -4  665.33   38.80
  -3   2  -4  660.33   40.20
  -3   2  -4  643.14   41.50
  -4   2  -4  511.05   30.20
  -4   2  -4  511.25   32.90
  -4   2  -4  487.85   30.20
  -4   2  -4  492.45   31.90
  -4   2  -4  508.35   30.20
  -4   2  -4  498.85   31.50
  -4   2  -4  524.15   30.20
  -5   2  -4  833.22   50.29
  -5   2  -4  767.42   49.30
  -5   2  -4  844.32   49.30
  -5   2  -4  845.12   51.79
  -5   2  -4  808.22   51.49
  -5   2  -4  858.61   49.40
  -6   2  -4   11.00    5.90
  -6   2  -4   14.90    2.50
  -6   2  -4   13.90    2.70
  -7   2  -4  455.25   31.20
   7   1  -4  219.48   15.00
  -7  -1   4  206.48   14.90
  -7  -1   4  211.88   14.90
  -7  -1   4  197.38   19.40
  -6  -1   4  222.08   14.50
  -6  -1   4  219.58   18.40
  -6  -1   4  197.18   14.50
   5   1  -4 1162.88   65.49
   5   1  -4 1107.09   63.99
   5   1  -4 1046.70   63.99
   5   1  -4  973.70   65.19
  -5  -1   4 1070.89   63.99
  -5  -1   4 1031.30   65.79
  -5  -1   4 1042.80   64.09
   4   1  -4    8.80    5.00
   4   1  -4   15.10    3.60
   4   1  -4   11.00    3.10
  -4  -1   4   16.40    3.20
  -4  -1   4   18.20    5.70
  -4  -1   4   15.60    3.40
   3   1  -4 2938.61  172.08
   3   1  -4 2831.62  172.68
   3   1  -4 2881.31  172.18
   3   1  -4 3069.79  172.08
  -3  -1   4 2879.51  171.98
  -3  -1   4 3048.50  172.08
  -3  -1   4 2610.14  172.98
   2   1  -4  111.29    7.10
   2   1  -4  114.19    7.90
   2   1  -4  106.89    7.60
   2   1  -4  102.69    6.80
   2   1  -4   95.39    7.20
  -2  -1   4  101.99    6.90
  -2  -1   4  103.29    6.80
  -2  -1   4   90.89    8.50
   1   1  -4 5442.16  306.27
   1   1  -4 5829.52  309.27
   1   1  -4 4853.61  307.77
   1   1  -4 4632.14  305.17
   1   1  -4 4940.11  305.97
   1   1  -4 4582.94  305.47
  -1  -1   4 5065.39  305.77
  -1  -1   4 5403.86  307.67
  -1  -1   4 5049.09  306.07
  -1  -1   4 5574.64  310.27
   0   1  -4  995.60   59.69
   0   1  -4  950.70   59.99
   0   1  -4  971.00   60.79
   0   1  -4  912.91   59.69
   0   1  -4  996.70   59.69
   0   1  -4 1019.40   59.69
   0  -1   4 1016.90   59.59
   0  -1   4  984.40   59.59
   0  -1   4 1064.79   59.69
   0  -1   4 1136.29   60.09
   0  -1   4  987.90   59.69
  -1   1  -4 1934.01  116.99
  -1   1  -4 1936.01  117.49
  -1   1  -4 1955.80  120.79
  -1   1  -4 1841.22  117.09
  -1   1  -4 1993.50  116.89
  -1   1  -4 1988.90  116.99
   1  -1   4 2039.70  117.49
   1  -1   4 2030.00  116.99
  -2   1  -4 3697.33  226.28
  -2   1  -4 3653.73  222.78
  -3   1  -4  210.48   14.90
  -3   1  -4  221.08   13.00
  -3   1  -4  217.48   16.10
  -3   1  -4  207.88   13.00
  -3   1  -4  214.98   12.90
  -3   1  -4  221.58   14.60
  -3   1  -4  217.38   12.90
  -4   1  -4 3025.10  182.48
  -4   1  -4 3005.30  182.08
  -4   1  -4 3061.79  183.18
  -4   1  -4 2940.11  183.58
  -4   1  -4 2961.40  182.48
  -4   1  -4 3077.09  182.58
  -4   1  -4 3075.39  182.68
   4  -1   4 3348.76  182.08
  -5   1  -4    7.90    1.80
  -5   1  -4   12.20    6.00
  -5   1  -4    4.90    2.00
  -5   1  -4    2.20    4.80
  -5   1  -4    3.10    3.50
  -5   1  -4    6.30    1.90
  -6   1  -4 1540.45   94.69
  -6   1  -4 1593.44   94.79
  -6   1  -4 1645.44   97.39
  -7   1  -4  307.27   18.70
  -7   1  -4  278.77   18.50
  -7   1  -4  312.07   22.20
   7   0  -4    2.20    4.60
  -7   0   4   15.40    9.60
  -7   0   4    8.50    4.80
  -7   0   4    4.90    4.80
   6   0  -4  141.39   11.10
  -6   0   4  153.38   11.00
  -6   0   4  149.99   13.80
  -6   0   4  141.89   11.00
   5   0  -4    3.30    3.60
   5   0  -4   -0.20    3.00
  -5   0   4    8.90    3.70
  -5   0   4    3.40    3.40
  -5   0   4    6.40    5.10
   4   0  -4  317.97   20.40
   4   0  -4  274.07   20.50
  -4   0   4  337.57   19.40
  -4   0   4  297.87   21.60
  -4   0   4  305.07   19.20
   3   0  -4    4.90    3.50
   3   0  -4    2.60    3.60
  -3   0   4    5.60    4.70
  -3   0   4    8.90    2.70
  -3   0   4    5.20    1.80
  -3   0   4    8.70    2.40
   2   0  -4  582.04   34.00
   2   0  -4  544.45   34.00
   2   0  -4  573.24   35.50
   2   0  -4  523.25   34.40
  -2   0   4  630.24   34.00
  -2   0   4  550.24   35.30
  -2   0   4  557.34   33.90
  -2   0   4  552.04   34.00
   1   0  -4  765.22   49.30
   1   0  -4  896.41   49.40
   1   0  -4  729.33   49.60
   1   0  -4  776.22   49.40
   1   0  -4  784.32   50.89
  -1   0   4  934.21   50.59
  -1   0   4  811.62   49.60
  -1   0   4  939.71   49.60
  -1   0   4  804.82   49.30
  -1   0   4  828.02   49.60
  -1   0   4  865.41   49.30
  -1   0   4  800.92   49.40
   0   0  -4  407.16   27.70
   0   0  -4  409.56   26.10
   0   0  -4  416.76   26.00
   0   0  -4  464.05   26.00
   0   0  -4  422.96   25.90
   0   0  -4  406.76   25.90
   0   0   4  427.96   25.90
   0   0   4  399.16   25.90
   0   0   4  453.75   25.90
   0   0   4  477.55   26.00
   0   0   4  480.25   26.20
  -1   0  -4 2836.22  175.98
  -1   0  -4 2875.81  172.28
  -1   0  -4 2761.42  169.08
  -1   0  -4 2685.43  168.98
  -1   0  -4 2942.51  169.28
  -1   0  -4 2741.53  169.78
  -1   0  -4 2872.41  169.38
   1   0   4 3048.29  168.98
   1   0   4 2850.21  168.88
   1   0   4 2890.61  175.28
   1   0   4 2730.13  169.48
  -2   0  -4   64.69    7.70
  -2   0  -4   66.89    4.70
  -2   0  -4   71.19    6.40
  -2   0  -4   76.69    4.60
  -2   0  -4   65.69    4.60
  -2   0  -4   78.19    4.70
   2   0   4   74.99    4.50
   2   0   4   83.39    4.60
   2   0   4   74.49    7.30
  -3   0  -4 1400.86   89.79
  -3   0  -4 1456.25   89.39
  -3   0  -4 1480.35   89.39
  -3   0  -4 1449.46   89.29
  -3   0  -4 1383.76   90.79
  -3   0  -4 1529.75   89.19
   3   0   4 1732.43   90.09
   3   0   4 1568.74   89.29
   3   0   4 1492.65   90.69
  -4   0  -4  124.69    7.90
  -4   0  -4  131.29    7.90
  -4   0  -4  110.49   11.10
  -4   0  -4  120.29   10.80
  -4   0  -4  128.39    7.80
  -4   0  -4  106.59    9.50
  -4   0  -4  130.89    7.90
   4   0   4  127.79   10.30
  -5   0  -4  397.76   26.70
  -5   0  -4  432.56   25.60
  -5   0  -4  420.56   25.60
  -5   0  -4  468.35   25.70
  -5   0  -4  390.56   28.10
  -5   0  -4  414.76   27.60
   5   0   4  435.76   27.40
  -6   0  -4  367.76   22.60
  -6   0  -4  386.26   26.10
  -6   0  -4  359.96   22.70
  -7   0  -4   94.29    7.40
  -7   0  -4   84.19   11.50
  -8   0  -4  291.77   18.90
  -8   0  -4  298.77   22.80
  -7   1   4   49.40   10.10
  -7   1   4   45.50    6.10
  -7   1   4   53.69    5.90
  -7   1   4   44.50   11.10
   6  -1  -4   -0.20    3.90
  -6   1   4    1.70    4.00
  -6   1   4    3.00    3.10
  -6   1   4    2.20    8.40
  -6   1   4    0.40    6.20
   5  -1  -4    8.80    3.70
  -5   1   4    0.20    7.00
  -5   1   4    3.70    3.40
  -5   1   4    1.40    3.30
  -5   1   4    3.20    5.00
   4  -1  -4    8.30    3.20
   4  -1  -4    3.50    2.40
   4  -1  -4    3.90    2.10
   4  -1  -4    1.00    2.10
   4  -1  -4    3.50    2.80
  -4   1   4    1.30    2.20
  -4   1   4   -0.90    3.00
  -4   1   4    2.50    2.90
  -4   1   4    2.10    4.50
   3  -1  -4    2.90    2.20
   3  -1  -4    3.00    2.60
   3  -1  -4    4.90    3.10
   3  -1  -4    0.30    2.30
  -3   1   4    2.50    4.90
  -3   1   4    4.00    3.40
  -3   1   4    0.60    2.50
  -3   1   4    1.30    1.80
  -3   1   4    2.70    2.30
   2  -1  -4    9.30    2.20
   2  -1  -4   10.40    3.40
   2  -1  -4   13.30    1.80
   2  -1  -4    7.80    2.30
   2  -1  -4   14.10    2.60
   2  -1  -4   12.30    2.30
  -2   1   4    9.30    4.60
  -2   1   4   15.40    1.90
  -2   1   4   11.90    2.20
  -2   1   4   13.80    2.50
  -2   1   4   14.50    2.50
   1  -1  -4    3.90    1.60
   1  -1  -4    3.20    2.10
   1  -1  -4    1.40    1.30
   1  -1  -4    8.00    2.60
   1  -1  -4    3.70    1.90
   1  -1  -4    2.30    1.60
   1  -1  -4    1.90    1.10
   1  -1  -4    1.80    2.90
  -1   1   4    1.80    1.60
  -1   1   4    1.20    3.80
  -1   1   4    2.20    1.70
  -1   1   4    2.20    1.30
  -1   1   4    4.00    1.50
  -1   1   4    4.50    2.80
  -1   1   4    2.10    1.40
  -1   1   4    2.60    1.60
   0  -1  -4   13.30    3.70
   0  -1  -4   24.90    3.10
   0  -1  -4   15.10    1.70
   0  -1  -4   18.90    2.20
   0  -1  -4   13.50    2.70
   0  -1  -4   17.10    1.80
   0  -1  -4   14.50    1.80
   0  -1  -4   24.30    2.00
   0  -1  -4   15.60    1.70
   0   1   4   13.70    2.10
   0   1   4   16.60    3.10
   0   1   4   21.90    1.80
   0   1   4   15.50    1.80
  -1  -1  -4  294.17   19.70
  -1  -1  -4  290.07   18.70
  -1  -1  -4  333.77   18.90
  -1  -1  -4  293.67   20.80
  -1  -1  -4  311.67   18.80
  -1  -1  -4  300.07   18.80
  -1  -1  -4  308.47   18.90
   1   1   4  295.97   18.80
   1   1   4  352.56   19.80
   1   1   4  311.97   20.80
   1   1   4  328.77   18.80
   1   1   4  330.47   18.80
   1   1   4  320.77   18.80
  -2  -1  -4   94.09    8.60
  -2  -1  -4  101.19    6.50
  -2  -1  -4  109.39    6.60
  -2  -1  -4   99.59    7.60
  -2  -1  -4   94.99    6.50
  -2  -1  -4   97.69    6.60
   2   1   4  106.59    9.20
   2   1   4  115.29    7.90
   2   1   4  107.99    6.40
   2   1   4  106.09    6.40
   2   1   4  105.99    6.50
   2   1   4  104.39    6.50
  -3  -1  -4   -0.60    3.80
  -3  -1  -4    0.30    2.00
  -3  -1  -4    0.80    1.40
  -3  -1  -4    0.80    1.30
  -3  -1  -4    9.10    1.50
  -3  -1  -4    0.60    2.90
  -3  -1  -4    1.90    1.40
   3   1   4    2.30    1.10
   3   1   4    2.30    0.80
   3   1   4    1.60    2.50
   3   1   4    0.00    1.10
   3   1   4   -0.10    3.30
  -4  -1  -4   55.19    6.30
  -4  -1  -4   53.79    8.00
  -4  -1  -4   60.09    4.60
  -4  -1  -4   57.19    4.60
  -4  -1  -4   62.79    4.70
  -4  -1  -4   70.89    4.60
   4   1   4   56.69    4.20
   4   1   4   59.79    7.70
   4   1   4   64.19    4.10
  -5  -1  -4   51.09    7.40
  -5  -1  -4   54.59    4.50
  -5  -1  -4   41.10    5.60
  -5  -1  -4   55.59    4.50
  -5  -1  -4   54.69    4.70
  -5  -1  -4   54.99    4.50
  -5  -1  -4   39.70    7.30
   5   1   4   50.79    7.40
   5   1   4   55.59    4.10
  -6  -1  -4   34.90    7.70
  -6  -1  -4   24.00    5.10
  -6  -1  -4   35.60    3.70
  -6  -1  -4   24.00    6.70
  -6  -1  -4   31.00    3.70
   6   1   4   33.70    6.40
  -7  -1  -4   83.39    7.80
  -7  -1  -4   94.19    7.40
  -7  -1  -4   88.39   11.50
  -8  -1  -4    4.30    9.40
  -8  -1  -4    0.60    4.00
  -8  -1  -4    5.50    3.50
  -7   2   4   13.70    4.70
  -7   2   4   11.20    8.10
  -7   2   4    9.40    7.90
  -7   2   4   11.90    4.70
   6  -2  -4  680.63   42.50
  -6   2   4  673.53   46.10
  -6   2   4  709.63   42.60
  -6   2   4  748.13   45.20
  -6   2   4  672.63   42.60
   5  -2  -4  332.17   21.70
  -5   2   4  345.37   21.70
  -5   2   4  328.47   25.20
  -5   2   4  356.66   24.00
  -5   2   4  353.16   21.80
   4  -2  -4  846.52   48.70
   4  -2  -4  737.63   48.70
   4  -2  -4  892.51   48.50
  -4   2   4  824.82   48.80
  -4   2   4  735.83   50.39
  -4   2   4  812.62   50.09
  -4   2   4  781.52   48.60
   3  -2  -4 1290.47   73.49
   3  -2  -4 1231.18   73.39
   3  -2  -4 1194.38   73.49
   3  -2  -4 1159.88   73.89
  -3   2   4 1252.27   73.39
  -3   2   4 1342.07   73.49
  -3   2   4 1253.97   74.49
  -3   2   4 1110.69   74.99
  -3   2   4 1219.98   73.49
   2  -2  -4   42.90    4.10
   2  -2  -4   31.90    3.50
   2  -2  -4   39.90    5.10
   2  -2  -4   30.90    3.20
   2  -2  -4   34.90    3.10
  -2   2   4   31.20    3.20
  -2   2   4   34.20    3.40
  -2   2   4   29.90    3.40
  -2   2   4   30.30    4.10
  -2   2   4   27.30    6.00
   1  -2  -4  907.41   53.89
   1  -2  -4  842.92   54.29
   1  -2  -4  927.91   53.99
   1  -2  -4  929.61   54.39
   1  -2  -4  956.10   53.99
   1  -2  -4  822.12   55.09
  -1   2   4  878.81   53.89
  -1   2   4  892.11   55.19
  -1   2   4  924.51   54.59
  -1   2   4  863.71   53.89
  -1   2   4  988.60   54.39
  -1   2   4  944.01   53.99
  -1   2   4  853.31   55.19
   0  -2  -4   68.69    7.30
   0  -2  -4   71.09    6.20
   0  -2  -4   77.79    5.20
   0  -2  -4   74.99    5.00
   0  -2  -4   82.39    5.10
   0  -2  -4   95.49    6.60
   0  -2  -4   71.79    5.80
   0  -2  -4   68.99    5.20
   0   2   4   90.09    5.20
   0   2   4   77.09    5.00
   0   2   4   72.99    7.30
   0   2   4   62.99    6.40
   0   2   4   73.19    5.10
   0   2   4   76.49    6.10
   0   2   4   71.89    5.10
   0   2   4   73.79    7.60
   0   2   4   68.59    4.90
  -1  -2  -4 1113.39   66.39
  -1  -2  -4 1195.78   66.49
  -1  -2  -4 1097.99   66.39
  -1  -2  -4  980.20   67.99
  -1  -2  -4 1094.09   66.39
  -1  -2  -4 1024.90   67.09
  -1  -2  -4 1215.78   67.29
   1   2   4 1135.09   66.39
   1   2   4 1185.08   67.29
   1   2   4 1133.39   66.39
   1   2   4 1097.39   67.29
   1   2   4 1076.19   68.29
   1   2   4 1144.29   66.39
  -2  -2  -4  609.24   40.60
  -2  -2  -4  628.44   38.50
  -2  -2  -4  646.64   38.40
  -2  -2  -4  610.84   39.50
  -2  -2  -4  604.34   38.50
  -2  -2  -4  624.94   38.50
  -2  -2  -4  677.53   38.50
   2   2   4  711.83   39.70
   2   2   4  642.44   38.40
   2   2   4  633.14   40.90
   2   2   4  703.73   38.50
   2   2   4  624.14   38.40
  -3  -2  -4  296.77   16.10
  -3  -2  -4  238.68   18.80
  -3  -2  -4  269.07   16.10
  -3  -2  -4  247.08   17.40
  -3  -2  -4  252.67   16.10
  -3  -2  -4  229.68   16.00
   3   2   4  286.57   16.00
   3   2   4  273.07   15.90
   3   2   4  266.27   19.00
  -4  -2  -4  535.35   30.40
  -4  -2  -4  492.75   30.40
  -4  -2  -4  474.65   33.00
  -4  -2  -4  533.95   30.30
  -4  -2  -4  462.95   31.50
   4   2   4  513.55   33.00
   4   2   4  503.15   30.30
  -5  -2  -4   -2.30    5.40
  -5  -2  -4   -1.50    5.80
  -5  -2  -4    0.90    2.30
  -5  -2  -4    6.20    2.50
  -5  -2  -4    2.50    4.40
  -5  -2  -4    3.00    2.70
  -5  -2  -4    2.40    2.10
   5   2   4    1.10    4.40
   5   2   4    0.20    1.70
   5   2   4    0.60    2.10
  -6  -2  -4   92.29   12.70
  -6  -2  -4  120.79   12.50
  -6  -2  -4   89.99   10.20
  -6  -2  -4  120.69    8.30
  -6  -2  -4  109.39    8.10
   6   2   4  115.79    7.60
   6   2   4  115.39   11.30
  -7  -2  -4    1.20    5.70
  -7  -2  -4   -1.90    3.10
  -7  -2  -4   -0.30    3.20
  -8  -2  -4   83.99    7.20
  -8  -2  -4   78.29   10.50
  -8  -2  -4   83.29    7.50
  -6   3   4  749.73   48.80
  -6   3   4  824.32   48.80
  -6   3   4  858.31   51.59
  -6   3   4  773.72   52.29
   5  -3  -4  115.59    8.90
  -5   3   4  108.79   12.80
  -5   3   4  120.29   12.70
  -5   3   4  114.99    9.10
  -5   3   4  113.69    9.20
   4  -3  -4 1631.94   99.69
  -4   3   4 1552.84  101.49
  -4   3   4 1732.33   99.69
  -4   3   4 1770.32  101.49
  -4   3   4 1653.63   99.69
   3  -3  -4   29.00    3.10
   3  -3  -4   28.80    4.40
   3  -3  -4   32.10    3.50
   3  -3  -4   29.60    3.80
  -3   3   4   27.10    7.00
  -3   3   4   36.30    3.80
  -3   3   4   29.70    3.50
  -3   3   4   30.70    5.50
  -3   3   4   35.60    3.90
   2  -3  -4 3243.48  201.68
   2  -3  -4 3671.33  199.48
   2  -3  -4 3399.46  199.58
   2  -3  -4 3080.49  204.78
  -2   3   4 3379.26  203.08
  -2   3   4 3424.56  199.48
  -2   3   4 3231.08  199.58
  -2   3   4 3251.07  200.08
  -2   3   4 3409.46  205.68
   1  -3  -4  698.53   41.80
   1  -3  -4  720.93   42.70
   1  -3  -4  657.23   43.40
   1  -3  -4  735.93   41.80
   1  -3  -4  725.13   41.90
   1  -3  -4  661.03   42.40
  -1   3   4  709.43   41.90
  -1   3   4  714.43   43.00
  -1   3   4  667.43   41.90
  -1   3   4  678.83   43.30
  -1   3   4  699.43   41.80
  -1   3   4  676.13   43.40
  -1   3   4  716.73   42.40
   0  -3  -4 2823.92  150.18
   0  -3  -4 2570.44  149.69
   0  -3  -4 2688.33  150.38
   0  -3  -4 2566.54  150.48
   0  -3  -4 2509.65  152.88
   0  -3  -4 2383.36  150.38
   0  -3  -4 2329.87  151.38
   0   3   4 2460.65  155.28
   0   3   4 2363.16  150.28
   0   3   4 2396.06  152.18
   0   3   4 2762.02  150.58
   0   3   4 2407.66  150.88
   0   3   4 2504.05  150.08
   0   3   4 2509.85  149.99
  -1  -3  -4 1556.74   89.19
  -1  -3  -4 1508.95   89.19
  -1  -3  -4 1739.23   89.29
  -1  -3  -4 1379.76   91.29
  -1  -3  -4 1413.46   89.19
  -1  -3  -4 1403.46   90.09
  -1  -3  -4 1657.03   90.49
   1   3   4 1424.76   89.49
   1   3   4 1328.77   90.39
   1   3   4 1407.16   89.19
   1   3   4 1681.03   90.99
   1   3   4 1480.95   91.69
   1   3   4 1520.65   89.19
   1   3   4 1487.65   89.19
  -2  -3  -4  334.27   19.40
  -2  -3  -4  303.07   19.30
  -2  -3  -4  306.67   19.40
  -2  -3  -4  310.27   19.00
  -2  -3  -4  306.37   22.40
  -2  -3  -4  318.97   19.30
  -2  -3  -4  302.17   20.50
   2   3   4  324.07   22.40
   2   3   4  328.77   21.30
   2   3   4  309.37   19.30
   2   3   4  318.47   19.00
   2   3   4  344.17   19.40
  -3  -3  -4 1074.19   67.29
  -3  -3  -4 1155.78   67.29
  -3  -3  -4 1054.69   69.99
  -3  -3  -4 1060.09   67.19
  -3  -3  -4 1234.68   67.29
  -3  -3  -4 1087.49   68.49
  -3  -3  -4 1184.68   67.09
   3   3   4 1123.79   70.39
   3   3   4 1212.28   67.29
   3   3   4 1068.89   67.19
  -4  -3  -4    9.80    4.70
  -4  -3  -4    8.40    2.20
  -4  -3  -4    9.00    6.20
  -4  -3  -4    7.20    2.50
  -4  -3  -4   13.10    2.50
  -4  -3  -4   10.10    2.60
  -4  -3  -4   10.00    2.30
   4   3   4    5.40    5.70
   4   3   4    7.80    2.20
   4   3   4    5.90    1.80
  -5  -3  -4 1477.75   97.39
  -5  -3  -4 1595.44   94.39
  -5  -3  -4 1497.35   95.69
  -5  -3  -4 1623.24   94.39
  -5  -3  -4 1575.54   94.39
   5   3   4 1649.63   94.29
   5   3   4 1650.43   97.49
  -6  -3  -4  211.48   16.10
  -6  -3  -4  172.18   15.00
  -6  -3  -4  186.78   12.60
  -6  -3  -4  186.78   12.70
  -6  -3  -4  166.08   17.70
   6   3   4  198.88   12.30
  -7  -3  -4  644.64   41.00
  -7  -3  -4  602.14   38.00
  -7  -3  -4  622.34   38.00
  -8  -3  -4  324.67   21.00
  -8  -3  -4  331.37   25.40
  -8  -3  -4  316.27   21.00
  -6   4   4   12.50    4.50
  -6   4   4   20.90   10.50
  -6   4   4   16.80    4.90
  -6   4   4   17.70    8.40
   5  -4  -4  595.94   37.60
  -5   4   4  613.24   41.30
  -5   4   4  618.14   37.70
  -5   4   4  593.14   37.80
  -5   4   4  660.03   40.70
   4  -4  -4   89.19    7.40
  -4   4   4   97.09   11.30
  -4   4   4   94.19    7.90
  -4   4   4   74.49    9.50
  -4   4   4   95.09    7.60
   3  -4  -4 1172.58   69.89
   3  -4  -4 1356.66   71.09
   3  -4  -4 1100.29   69.89
  -3   4   4 1141.49   71.59
  -3   4   4 1156.68   70.39
  -3   4   4 1104.09   71.99
  -3   4   4 1109.39   69.89
  -3   4   4 1174.18   69.89
   2  -4  -4  353.56   22.00
   2  -4  -4  331.47   21.30
   2  -4  -4  377.66   21.30
   2  -4  -4  330.57   23.10
  -2   4   4  325.07   22.60
  -2   4   4  349.77   21.60
  -2   4   4  340.87   23.20
  -2   4   4  357.86   21.40
  -2   4   4  353.76   21.30
  -2   4   4  344.27   21.30
  -2   4   4  332.37   23.10
   1  -4  -4  782.52   48.30
   1  -4  -4  816.32   47.50
   1  -4  -4  756.62   49.60
   1  -4  -4  837.32   47.40
  -1   4   4  781.22   47.40
  -1   4   4  757.52   47.40
  -1   4   4  781.92   48.90
  -1   4   4  777.12   49.30
  -1   4   4  854.31   48.20
  -1   4   4  768.32   47.50
  -1   4   4  776.92   49.00
   0  -4  -4 1297.17   73.69
   0  -4  -4 1206.88   74.69
   0  -4  -4 1257.37   73.69
   0  -4  -4 1248.68   73.69
   0  -4  -4 1180.78   76.09
   0   4   4 1208.68   75.19
   0   4   4 1324.37   76.39
   0   4   4 1243.08   73.69
   0   4   4 1159.28   73.69
   0   4   4 1247.88   73.69
   0   4   4 1206.78   75.09
  -1  -4  -4  465.35   31.00
  -1  -4  -4  436.46   27.70
  -1  -4  -4  473.75   27.70
  -1  -4  -4  473.55   29.30
  -1  -4  -4  482.15   27.70
   1   4   4  439.56   27.50
   1   4   4  449.16   27.60
   1   4   4  444.46   27.50
   1   4   4  419.56   29.60
   1   4   4  456.15   27.60
   1   4   4  488.55   31.30
  -2  -4  -4 2934.11  180.68
  -2  -4  -4 2866.41  182.48
  -2  -4  -4 3333.77  179.78
  -2  -4  -4 3067.89  179.68
  -2  -4  -4 2890.61  179.68
  -2  -4  -4 3117.29  181.08
   2   4   4 2978.00  180.18
   2   4   4 3014.50  180.28
   2   4   4 2789.52  181.38
   2   4   4 3251.87  183.28
   2   4   4 3010.00  181.18
  -3  -4  -4    2.80    1.90
  -3  -4  -4    2.60    1.50
  -3  -4  -4    1.90    6.50
  -3  -4  -4    1.10    2.30
  -3  -4  -4    1.90    4.90
  -3  -4  -4    1.10    2.30
  -3  -4  -4    2.80    2.10
   3   4   4    4.10    2.00
   3   4   4    5.30    2.20
   3   4   4    3.50    6.40
   3   4   4   -0.30    1.90
  -4  -4  -4 2205.78  124.29
  -4  -4  -4 2140.09  124.29
  -4  -4  -4 2029.90  127.79
  -4  -4  -4 2031.20  125.79
  -4  -4  -4 2166.38  124.29
   4   4   4 2204.58  128.09
   4   4   4 2031.30  124.19
   4   4   4 1883.61  124.29
  -5  -4  -4  160.78   14.20
  -5  -4  -4  149.59   16.90
  -5  -4  -4  183.28   11.40
  -5  -4  -4  170.98   11.50
  -5  -4  -4  171.98   11.20
   5   4   4  185.98   17.30
   5   4   4  141.79   11.70
   5   4   4  177.78   11.20
  -6  -4  -4  502.25   36.90
  -6  -4  -4  522.65   34.20
  -6  -4  -4  511.75   32.00
  -6  -4  -4  515.25   32.00
  -6  -4  -4  497.15   34.10
   6   4   4  589.04   36.00
   6   4   4  497.95   31.70
  -7  -4  -4  361.86   24.80
  -7  -4  -4  338.37   23.90
  -7  -4  -4  303.97   21.40
  -7  -4  -4  338.67   21.50
  -8  -4  -4   83.29   11.70
  -8  -4  -4   74.99    7.20
  -8  -4  -4   61.79    7.50
  -6   5   4   43.70   11.70
  -6   5   4   41.50   10.20
  -5   5   4    5.30    4.20
  -5   5   4    1.70    7.20
  -5   5   4    2.40    3.90
  -5   5   4   -3.70    6.60
   4  -5  -4  124.99    9.60
  -4   5   4  131.29   10.20
  -4   5   4  126.79   12.20
  -4   5   4  127.79   15.40
  -4   5   4  139.69   10.00
   3  -5  -4  221.38   15.20
   3  -5  -4  265.17   15.90
  -3   5   4  222.78   15.30
  -3   5   4  223.28   15.40
  -3   5   4  231.78   18.20
  -3   5   4  224.38   19.00
   2  -5  -4  157.68   11.80
   2  -5  -4  174.98   10.50
   2  -5  -4  149.29   10.50
   2  -5  -4  132.39   13.20
  -2   5   4  155.38   13.50
  -2   5   4  160.38   10.20
  -2   5   4  147.39   12.50
  -2   5   4  161.58   11.30
  -2   5   4  146.89   12.90
  -2   5   4  150.18   10.50
  -2   5   4  156.58   10.70
   1  -5  -4  884.41   60.99
   1  -5  -4 1059.59   58.49
   1  -5  -4  981.80   58.49
   1  -5  -4  926.71   59.59
  -1   5   4  977.40   58.49
  -1   5   4  953.30   58.39
  -1   5   4  980.80   60.39
  -1   5   4 1043.30   60.99
  -1   5   4  971.20   58.59
  -1   5   4  975.70   60.19
   0  -5  -4  171.98   11.10
   0  -5  -4  161.48   13.30
   0  -5  -4  178.28   11.20
   0  -5  -4  152.08   15.10
   0   5   4  171.28   13.30
   0   5   4  188.78   15.00
   0   5   4  168.28   11.00
   0   5   4  175.68   10.90
   0   5   4  166.48   11.00
   0   5   4  165.88   13.60
  -1  -5  -4 1804.42  102.49
  -1  -5  -4 1764.12  102.59
  -1  -5  -4 1691.63  102.49
  -1  -5  -4 1722.33  104.19
  -1  -5  -4 1678.63  105.99
   1   5   4 1599.94  103.69
   1   5   4 1760.02  102.59
   1   5   4 1749.03  102.49
   1   5   4 1623.84  104.59
   1   5   4 1681.93  102.49
   1   5   4 1628.34  102.49
   1   5   4 1940.41  106.19
  -2  -5  -4   15.50    2.40
  -2  -5  -4    2.10    5.50
  -2  -5  -4    8.20    7.40
  -2  -5  -4   11.40    2.20
   2   5   4   15.40    7.40
   2   5   4   14.20    2.90
   2   5   4    0.50    5.90
   2   5   4   10.10    2.10
   2   5   4   12.40    2.50
  -3  -5  -4 1514.65   97.89
  -3  -5  -4 1656.23   93.59
  -3  -5  -4 1540.45   93.69
  -3  -5  -4 1590.74   93.69
  -3  -5  -4 1555.94   95.79
  -3  -5  -4 1466.25   93.69
   3   5   4 1552.44   93.69
   3   5   4 1513.65   96.39
   3   5   4 1545.95   93.69
   3   5   4 1785.02   98.39
   3   5   4 1547.65   93.59
  -4  -5  -4  226.48   21.50
  -4  -5  -4  245.28   15.30
  -4  -5  -4  225.08   15.30
  -4  -5  -4  245.98   15.20
  -4  -5  -4  245.98   18.70
   4   5   4  220.18   15.40
   4   5   4  245.88   15.00
   4   5   4  241.98   15.20
  -5  -5  -4  662.13   43.20
  -5  -5  -4  678.53   40.80
  -5  -5  -4  632.54   45.70
  -5  -5  -4  681.73   40.80
   5   5   4  680.53   40.70
   5   5   4  622.64   41.00
   5   5   4  730.53   40.60
  -6  -5  -4  703.83   41.40
  -6  -5  -4  701.23   41.40
  -6  -5  -4  739.43   43.00
  -6  -5  -4  646.34   46.20
  -6  -5  -4  627.64   43.40
   6   5   4  693.63   41.20
   6   5   4  627.14   41.80
  -7  -5  -4  174.68   15.60
  -7  -5  -4  154.28   16.40
  -7  -5  -4  165.68   12.00
  -7  -5  -4  157.48   20.40
  -7  -5  -4  151.18   12.40
   7   5   4  162.98   12.10
  -8  -5  -4  476.15   31.50
  -8  -5  -4  524.35   34.80
  -8  -5  -4  507.65   31.80
  -5   6   4  109.79    9.20
  -5   6   4   80.19   13.00
  -5   6   4   92.59   12.70
  -5   6   4  102.99    8.60
   4  -6  -4   82.59    7.70
  -4   6   4   92.09    7.90
  -4   6   4   94.09   10.90
  -4   6   4   81.39   11.30
  -4   6   4   90.69    7.50
   3  -6  -4   14.10    3.80
  -3   6   4   21.30    6.70
  -3   6   4   17.20    4.20
  -3   6   4   19.50    4.50
  -3   6   4   17.90    6.00
   2  -6  -4   47.70    5.20
   2  -6  -4   43.60    4.80
   2  -6  -4   32.20    6.10
   2  -6  -4   33.20    8.20
  -2   6   4   46.50    4.90
  -2   6   4   43.90    8.60
  -2   6   4   42.70    8.20
  -2   6   4   41.40    5.10
  -2   6   4   61.29    9.00
   1  -6  -4    5.30    2.80
   1  -6  -4   -0.90    5.60
   1  -6  -4   -5.10    6.90
   1  -6  -4    4.40    3.10
  -1   6   4    6.60    6.30
  -1   6   4    9.00    2.90
  -1   6   4    7.00    5.40
  -1   6   4    1.10    4.50
  -1   6   4    3.90    3.50
  -1   6   4    7.50    3.20
   0  -6  -4    1.80    7.00
   0  -6  -4    8.90    2.30
   0  -6  -4    2.90    2.70
   0  -6  -4    0.70    5.40
   0   6   4    4.40    2.70
   0   6   4    8.30    6.30
   0   6   4    9.30    3.20
   0   6   4    1.00    6.10
   0   6   4    4.10    2.90
   0   6   4    4.90    5.30
  -1  -6  -4    5.30    8.00
  -1  -6  -4   15.50    3.30
  -1  -6  -4    4.70    6.20
  -1  -6  -4   13.70    2.40
   1   6   4   15.10    2.80
   1   6   4    9.30    6.60
   1   6   4   11.70    5.10
   1   6   4   12.30    3.30
   1   6   4   14.40    7.30
   1   6   4   14.50    2.80
   1   6   4   13.70    2.60
  -2  -6  -4   -2.80    6.20
  -2  -6  -4   -2.70    4.80
  -2  -6  -4    0.10    2.80
  -2  -6  -4    2.30    2.70
  -2  -6  -4    0.40    2.30
   2   6   4    3.30    2.10
   2   6   4   -3.00    2.90
   2   6   4    5.50    7.40
   2   6   4    2.80    2.50
   2   6   4   -5.30    6.50
  -3  -6  -4   -1.80    7.10
  -3  -6  -4   -1.50    9.20
  -3  -6  -4    2.00    3.30
  -3  -6  -4    3.40    2.80
  -3  -6  -4    8.70    3.10
   3   6   4    4.90    2.50
   3   6   4    3.50    2.90
   3   6   4    4.00    2.80
   3   6   4    7.90    7.90
   3   6   4    3.30    5.60
  -4  -6  -4  111.39   17.70
  -4  -6  -4  103.09   12.50
  -4  -6  -4  135.79    8.40
  -4  -6  -4  124.39    9.10
  -4  -6  -4  114.19    8.60
   4   6   4  149.79   16.30
   4   6   4   98.09   13.30
   4   6   4  122.09    8.60
   4   6   4  116.39    9.00
   4   6   4  109.59    9.00
  -5  -6  -4  128.89    9.70
  -5  -6  -4  128.59    9.70
  -5  -6  -4  113.89   18.60
  -5  -6  -4  116.29   14.80
   5   6   4  117.49   10.40
   5   6   4  134.59    9.40
  -6  -6  -4   30.50   11.80
  -6  -6  -4   29.70    5.20
  -6  -6  -4   40.00    5.30
  -6  -6  -4   31.30    8.80
   6   6   4   31.50    4.80
   6   6   4   25.80    6.20
  -7  -6  -4  158.68   14.70
  -7  -6  -4  131.39   19.50
  -7  -6  -4  143.89   11.60
  -7  -6  -4  144.69   11.50
  -7  -6  -4  128.59   15.50
   7   6   4  151.28   11.00
   7   6   4  143.69   12.60
  -8  -6  -4    1.60    5.20
  -8  -6  -4   -2.80    5.30
  -8  -6  -4   -1.20    7.90
  -4   7   4   26.00   10.00
  -4   7   4   15.00    9.20
  -4   7   4   18.60    5.00
  -4   7   4   23.60    5.40
   3  -7  -4  488.95   31.60
  -3   7   4  522.25   35.40
  -3   7   4  547.05   32.00
  -3   7   4  476.55   35.00
  -3   7   4  533.35   32.10
   2  -7  -4   84.69    9.60
   2  -7  -4  102.49    7.90
  -2   7   4  102.59    8.30
  -2   7   4   79.19    9.80
  -2   7   4   96.89   13.40
  -2   7   4  106.89    8.70
   1  -7  -4  548.95   43.80
   1  -7  -4  644.44   40.60
   1  -7  -4  576.94   41.80
   1  -7  -4  656.13   40.00
  -1   7   4  692.63   40.20
  -1   7   4  642.34   42.30
  -1   7   4  687.83   42.70
  -1   7   4  775.92   43.80
  -1   7   4  690.93   40.10
   0  -7  -4  595.44   36.00
   0  -7  -4  621.74   35.80
   0  -7  -4  519.55   38.20
   0  -7  -4  498.15   40.30
   0   7   4  606.64   38.70
   0   7   4  559.34   35.90
   0   7   4  576.24   37.80
   0   7   4  608.14   36.00
   0   7   4  697.03   40.30
   0   7   4  609.04   36.30
  -1  -7  -4  132.89    9.20
  -1  -7  -4  125.49    9.30
  -1  -7  -4  100.89   16.70
  -1  -7  -4  109.89   12.60
   1   7   4  121.19    9.50
   1   7   4  125.39    9.20
   1   7   4  122.39   12.70
   1   7   4  114.99   11.70
   1   7   4  123.39    9.20
   1   7   4  166.38   15.30
   1   7   4  132.39    9.10
  -2  -7  -4  251.17   16.20
  -2  -7  -4  227.28   21.00
  -2  -7  -4  230.88   24.00
  -2  -7  -4  240.88   16.30
   2   7   4  252.07   16.20
   2   7   4  306.37   22.60
   2   7   4  271.47   16.50
   2   7   4  219.28   20.90
   2   7   4  246.98   16.10
  -3  -7  -4   47.10    4.80
  -3  -7  -4   34.10    9.70
  -3  -7  -4   50.09    5.10
  -3  -7  -4   36.90   12.90
   3   7   4   52.29    5.00
   3   7   4   31.40    8.10
   3   7   4   48.10    4.80
   3   7   4   50.59    5.30
  -4  -7  -4  132.99    9.80
  -4  -7  -4  122.09   14.10
  -4  -7  -4  119.99   17.70
  -4  -7  -4  120.99    9.50
   4   7   4  128.89   10.30
   4   7   4   99.69   14.30
   4   7   4  127.69    9.20
   4   7   4  122.79    9.00
  -5  -7  -4   -7.70   11.40
  -5  -7  -4    6.00    4.40
  -5  -7  -4   -3.60    8.70
  -5  -7  -4   -5.80    3.80
   5   7   4   -6.90    4.30
   5   7   4    1.80    3.90
  -6  -7  -4   64.19   11.60
  -6  -7  -4   60.99   16.90
  -6  -7  -4   93.79    7.40
  -6  -7  -4   74.29    7.50
   6   7   4   74.49    7.10
   6   7   4   64.59    8.50
  -7  -7  -4   14.10    7.40
  -7  -7  -4   12.90    9.20
  -7  -7  -4   27.40    5.60
  -7  -7  -4   18.50    5.60
   7   7   4   19.50    5.00
   7   7   4   16.40    6.60
  -8  -7  -4    9.80    8.10
  -8  -7  -4    6.70    5.80
  -8  -7  -4   -2.10    5.70
  -8  -7  -4   10.50    9.00
  -4   8   4  519.95   38.40
  -4   8   4  554.14   39.20
  -4   8   4  559.64   34.90
  -4   8   4  589.94   34.90
  -3   8   4  253.27   22.60
  -3   8   4  284.67   18.50
  -3   8   4  282.77   18.40
  -3   8   4  264.47   23.20
   2  -8  -4  521.15   35.20
   2  -8  -4  565.64   33.00
  -2   8   4  513.45   33.30
  -2   8   4  522.45   37.00
  -2   8   4  491.45   35.90
  -2   8   4  585.24   33.00
   1  -8  -4  388.66   25.70
   1  -8  -4  347.27   28.40
  -1   8   4  371.86   28.20
  -1   8   4  438.86   25.90
  -1   8   4  413.86   26.00
  -1   8   4  414.96   29.90
  -1   8   4  489.45   29.90
   0  -8  -4  297.77   24.10
   0  -8  -4  297.67   27.20
   0  -8  -4  339.17   20.90
   0   8   4  327.27   21.20
   0   8   4  347.07   24.40
   0   8   4  346.37   21.10
   0   8   4  353.06   21.40
   0   8   4  315.67   23.20
  -1  -8  -4  846.02   58.29
  -1  -8  -4  920.41   55.29
  -1  -8  -4 1028.40   55.29
  -1  -8  -4  876.51   61.39
   1   8   4  947.41   58.99
   1   8   4  931.51   55.49
   1   8   4  846.32   55.19
   1   8   4  915.21   55.29
  -2  -8  -4   15.00    7.50
  -2  -8  -4    5.90   11.80
  -2  -8  -4   14.50    4.20
  -2  -8  -4   19.20    3.30
   2   8   4   11.90    3.90
   2   8   4   19.90    4.30
   2   8   4   12.40    7.10
   2   8   4   13.30    3.90
  -3  -8  -4 1443.76   84.69
  -3  -8  -4 1437.66   88.09
  -3  -8  -4 1472.25   91.79
  -3  -8  -4 1387.16   84.79
   3   8   4 1413.26   84.69
   3   8   4 1509.65   84.99
   3   8   4 1356.16   84.79
   3   8   4 1272.27   87.89
  -4  -8  -4  151.78   16.80
  -4  -8  -4  145.39   11.30
  -4  -8  -4  146.19   11.10
  -4  -8  -4  142.79   21.10
   4   8   4  152.88   10.60
   4   8   4  156.38   10.90
   4   8   4  153.78   12.20
   4   8   4  121.49   15.50
  -5  -8  -4  760.92   50.09
  -5  -8  -4  771.62   45.20
  -5  -8  -4  733.83   45.40
   5   8   4  646.24   50.19
   5   8   4  771.72   45.90
   5   8   4  751.62   45.40
  -6  -8  -4  153.88   12.80
  -6  -8  -4  162.78   17.00
  -6  -8  -4  177.68   12.80
   6   8   4  164.28   12.60
  -7  -8  -4  325.77   22.30
  -7  -8  -4  356.46   22.20
  -7  -8  -4  314.37   27.10
  -7  -8  -4  362.66   24.00
   7   8   4  327.27   23.90
   7   8   4  303.97   21.90
  -3   9   4  280.97   18.30
  -3   9   4  248.98   21.60
  -3   9   4  271.87   18.10
  -3   9   4  240.08   22.30
  -2   9   4  237.38   15.00
  -2   9   4  207.88   15.20
  -2   9   4  180.08   18.60
  -2   9   4  200.88   18.50
   1  -9  -4  104.49   13.90
   1  -9  -4  134.19   10.90
  -1   9   4  145.19   11.50
  -1   9   4  171.78   12.40
  -1   9   4  162.28   11.30
  -1   9   4  129.69   14.70
  -1   9   4  144.89   17.60
   0  -9  -4  706.33   53.39
   0  -9  -4  882.21   50.89
   0   9   4  898.21   55.09
   0   9   4  923.51   51.49
   0   9   4  878.01   50.99
   0   9   4  773.42   52.59
   0   9   4  796.22   50.99
  -1  -9  -4   -4.50    8.80
  -1  -9  -4    5.70    4.30
   1   9   4    8.60    4.60
   1   9   4    4.30    9.50
   1   9   4   13.30    4.30
   1   9   4    6.60    4.70
  -2  -9  -4 1132.49   68.39
  -2  -9  -4 1073.99   76.09
  -2  -9  -4 1127.79   72.49
   2   9   4 1173.18   68.69
   2   9   4 1113.69   68.49
   2   9   4 1178.08   68.39
   2   9   4 1131.89   72.59
  -3  -9  -4   28.90   12.00
  -3  -9  -4   46.60    6.40
  -3  -9  -4   41.40    5.70
   3   9   4   35.10    5.30
   3   9   4   32.00   11.30
   3   9   4   34.00    5.60
   3   9   4   39.70    5.80
  -4  -9  -4  895.21   59.29
  -4  -9  -4  911.21   53.79
  -4  -9  -4  890.41   53.89
   4   9   4  834.32   54.09
   4   9   4 1022.10   54.59
   4   9   4  762.42   57.59
   4   9   4  893.11   53.79
  -5  -9  -4  435.16   34.00
  -5  -9  -4  482.45   27.20
  -5  -9  -4  410.56   27.30
   5   9   4  360.86   33.30
   5   9   4  404.76   26.80
   5   9   4  454.75   27.90
  -6  -9  -4  194.18   15.00
  -6  -9  -4  273.77   18.90
  -6  -9  -4  183.28   22.40
   6   9   4  185.18   13.70
   6   9   4  182.38   16.60
  -7  -9  -4  673.93   41.30
  -7  -9  -4  642.94   46.00
   7   9   4  660.63   41.10
  -2  10   4   15.30    5.60
  -2  10   4   10.10    7.20
  -2  10   4   10.90   10.60
  -2  10   4    6.80    5.30
  -2  10   4    0.70    8.30
  -1  10   4  508.65   31.30
  -1  10   4  481.75   34.10
  -1  10   4  420.46   32.50
  -1  10   4  476.45   30.50
  -1  10   4  515.15   30.40
   0 -10  -4   27.40    5.30
   0 -10  -4    0.30   10.30
   0  10   4   29.20   11.00
   0  10   4   31.00    5.50
   0  10   4   28.70    5.90
   0  10   4   32.70    6.30
   0  10   4   23.20    7.50
  -1 -10  -4  292.17   27.30
  -1 -10  -4  361.36   22.50
   1  10   4  347.37   22.50
   1  10   4  310.27   22.70
   1  10   4  375.16   26.90
   1  10   4  372.86   23.00
  -2 -10  -4  186.88   13.00
  -2 -10  -4  154.28   18.40
   2  10   4  163.48   12.80
   2  10   4  185.98   13.30
   2  10   4  160.88   13.30
   2  10   4  176.28   17.80
  -3 -10  -4  180.38   20.60
  -3 -10  -4  202.78   14.50
   3  10   4  185.78   13.90
   3  10   4  211.18   14.40
   3  10   4  185.38   19.20
   3  10   4  222.68   14.90
  -4 -10  -4  466.15   29.60
  -4 -10  -4  485.55   37.10
   4  10   4  534.85   30.20
   4  10   4  393.16   33.60
   4  10   4  449.76   29.70
  -5 -10  -4   50.79   14.80
  -5 -10  -4   51.59    6.10
   5  10   4   50.99    8.50
   5  10   4   25.80   13.10
   5  10   4   43.90    6.70
  -6 -10  -4  470.95   36.90
  -6 -10  -4  462.05   29.80
   6  10   4  450.65   29.50
   0  11   4    1.30    8.30
   0  11   4   11.50    5.40
   0  11   4    8.30    6.10
   0  11   4    9.20    6.40
  -1 -11  -4  -15.30   10.20
  -1 -11  -4   17.20    5.10
   1  11   4   11.60    5.20
   1  11   4    2.10    8.20
   1  11   4    0.90    5.30
   1  11   4   10.70    5.90
  -2 -11  -4    9.40    5.40
  -2 -11  -4  -21.30   11.40
   2  11   4   10.60   11.80
   2  11   4    3.80    5.40
   2  11   4    4.40    5.20
   2  11   4    2.10    5.00
  -3 -11  -4   -1.20    5.30
  -3 -11  -4  -20.30   12.20
   3  11   4   -0.90    4.30
   3  11   4   -7.30    5.30
   3  11   4    5.40    8.90
   3  11   4    0.70    5.80
  -4 -11  -4   12.70   14.20
  -4 -11  -4   16.00    6.00
   4  11   4   15.50    5.90
   4  11   4   12.10    6.30
   4  11   4   15.70   12.50
  -5 -11  -4  -14.00   13.70
  -5 -11  -4    7.10    6.00
   5  11   4   -5.30   12.40
   5  11   4   -4.60    5.90
   4   9  -5   69.39   11.00
   4   9  -5   81.09    8.50
   4   9  -5   75.49    8.50
   3   9  -5   10.70    8.20
   3   9  -5    5.70    5.90
   3   9  -5   12.60    5.40
   2   9  -5  166.88   15.80
   2   9  -5  144.99   12.20
   2   9  -5  157.28   12.50
   2   9  -5  175.98   18.80
   1   9  -5   35.70    9.60
   1   9  -5   40.50    6.00
   1   9  -5   47.20    9.00
   1   9  -5   37.70    5.70
   0   9  -5  128.89   10.90
   0   9  -5  122.39   10.20
   0   9  -5  149.69   18.30
   0   9  -5  142.79   12.70
  -1   9  -5  129.69   11.20
  -1   9  -5  153.78   19.30
  -1   9  -5  146.69   13.30
   5   8  -5   11.70    6.90
   5   8  -5   20.20    6.60
   5   8  -5   26.90    6.40
  -5  -8   5   33.30    6.30
   4   8  -5   16.70    5.80
   4   8  -5   17.30    6.40
   4   8  -5   13.80    5.70
   3   8  -5    2.00    4.90
   3   8  -5    4.40    4.80
   3   8  -5    4.70    7.10
   3   8  -5    1.60    7.20
   2   8  -5    1.10    4.30
   2   8  -5    5.60    8.20
   2   8  -5   -1.70    4.50
   2   8  -5   -0.30    7.00
   1   8  -5    5.40    4.10
   1   8  -5    4.50    8.30
   1   8  -5    3.70    4.40
   1   8  -5   16.00    7.30
   0   8  -5    2.50    7.60
   0   8  -5    2.40    3.50
   0   8  -5    8.00    7.10
   0   8  -5    0.70    4.00
  -1   8  -5    5.30    7.80
  -1   8  -5   -2.70    3.60
  -1   8  -5    0.90    5.30
  -1   8  -5    1.00    3.00
  -2   8  -5   27.80    4.30
  -2   8  -5   30.10   10.00
  -2   8  -5   32.80    7.00
  -3   8  -5    7.50    9.60
  -3   8  -5   -1.20    3.60
  -3   8  -5   -4.60    8.90
   5   7  -5  148.19   11.30
   5   7  -5  142.79   13.40
   5   7  -5  141.19   12.50
  -5  -7   5  137.09   11.70
   4   7  -5  362.66   22.40
   4   7  -5  323.07   22.40
   4   7  -5  328.47   23.30
  -4  -7   5  342.77   21.90
   3   7  -5  533.15   36.20
   3   7  -5  533.55   33.60
   3   7  -5  531.55   35.20
   3   7  -5  525.75   33.60
  -3  -7   5  572.14   33.30
   2   7  -5   90.89    9.20
   2   7  -5   71.19    7.20
   2   7  -5   94.19   11.50
   2   7  -5   80.39    7.40
  -2  -7   5   89.09    7.60
   1   7  -5  627.34   37.90
   1   7  -5  553.64   36.00
   1   7  -5  600.74   36.10
   1   7  -5  585.94   38.70
   0   7  -5    2.40    3.10
   0   7  -5   -1.50    3.30
   0   7  -5    6.00    4.80
   0   7  -5    5.40    6.60
  -1   7  -5  354.86   24.80
  -1   7  -5  349.17   22.60
  -1   7  -5  327.77   20.80
  -1   7  -5  312.77   20.60
  -2   7  -5   12.80    3.20
  -2   7  -5   13.00    8.20
  -2   7  -5   14.60    7.40
  -2   7  -5   10.30    2.40
  -3   7  -5  184.88   12.90
  -3   7  -5  198.38   15.90
  -3   7  -5  212.08   19.80
  -4   7  -5   79.39   10.80
  -4   7  -5  107.29   14.30
  -4   7  -5   95.39    7.80
   6   6  -5  514.75   36.20
   6   6  -5  554.74   33.90
  -6  -6   5  525.25   33.50
   5   6  -5  296.47   19.20
   5   6  -5  275.37   21.60
   5   6  -5  266.97   19.20
  -5  -6   5  274.97   18.70
   4   6  -5 1634.24  102.99
   4   6  -5 1782.82  101.89
   4   6  -5 1695.83  101.99
  -4  -6   5 1679.13  101.69
   3   6  -5   17.70    4.50
   3   6  -5   22.50    7.00
   3   6  -5   25.00    4.90
   3   6  -5   21.30    6.80
  -3  -6   5   26.70    4.30
   2   6  -5 1905.11  109.29
   2   6  -5 1750.12  109.29
   2   6  -5 1770.22  110.09
   2   6  -5 1852.31  111.09
  -2  -6   5 1864.61  109.09
   1   6  -5  184.78   14.50
   1   6  -5  177.38   14.80
   1   6  -5  184.28   12.30
   1   6  -5  175.58   12.20
  -1  -6   5  184.18   11.90
   0   6  -5 1090.09   65.49
   0   6  -5 1064.79   65.29
   0   6  -5 1128.79   66.49
   0   6  -5 1092.99   65.29
   0   6  -5 1074.29   67.49
  -1   6  -5  884.51   52.09
  -1   6  -5  826.02   52.89
  -1   6  -5  872.51   50.29
  -1   6  -5  777.02   50.29
  -2   6  -5  351.26   21.00
  -2   6  -5  343.67   23.80
  -2   6  -5  288.47   19.60
  -2   6  -5  298.37   19.30
  -2   6  -5  328.37   22.40
  -2   6  -5  319.77   19.60
  -3   6  -5  731.23   47.20
  -3   6  -5  715.63   45.70
  -3   6  -5  787.02   45.00
  -3   6  -5  701.83   43.00
  -3   6  -5  666.93   43.10
  -4   6  -5   36.10   10.40
  -4   6  -5   32.60    3.80
  -4   6  -5   29.00    6.90
  -4   6  -5   28.30    7.30
  -5   6  -5  309.47   25.30
  -5   6  -5  246.68   23.70
  -5   6  -5  313.07   22.60
  -5   6  -5  268.17   18.00
   6   5  -5   53.79   10.30
   6   5  -5   51.49    7.10
  -6  -5   5   33.80    6.50
   5   5  -5  765.82   43.60
   5   5  -5  715.33   43.70
   5   5  -5  672.63   45.40
  -5  -5   5  678.13   43.40
   4   5  -5   64.39    7.80
   4   5  -5   67.39    6.80
   4   5  -5   63.59    6.80
  -4  -5   5   68.79    6.40
   3   5  -5  839.72   51.19
   3   5  -5  870.71   51.09
   3   5  -5  824.92   52.19
  -3  -5   5  836.52   50.89
   2   5  -5  678.53   43.30
   2   5  -5  686.83   44.00
   2   5  -5  699.53   42.60
   2   5  -5  742.33   42.60
  -2  -5   5  701.53   42.40
   1   5  -5 1056.19   55.69
   1   5  -5  843.62   54.49
   1   5  -5  900.71   55.69
   1   5  -5  905.01   54.69
   1   5  -5  836.22   56.09
   1   5  -5  870.51   54.69
  -1  -5   5  993.20   54.49
  -1  -5   5  901.81   54.49
   0   5  -5 1861.61   97.39
   0   5  -5 1628.34   97.09
   0   5  -5 1506.35   96.99
   0   5  -5 1895.71   97.79
   0   5  -5 1553.74   98.59
   0   5  -5 1561.94   96.99
   0   5  -5 1531.35   97.89
   0   5  -5 1538.15   96.99
   0  -5   5 1593.54   96.89
  -1   5  -5  247.88   15.30
  -1   5  -5  250.37   16.00
  -1   5  -5  245.78   18.10
  -1   5  -5  273.57   17.60
  -1   5  -5  254.27   15.40
  -1   5  -5  231.08   15.50
  -2   5  -5  963.20   56.99
  -2   5  -5 1031.90   58.19
  -2   5  -5  980.20   59.89
  -2   5  -5  925.61   57.09
  -2   5  -5  990.00   58.89
  -2   5  -5  868.21   57.09
  -3   5  -5   -0.60    8.00
  -3   5  -5    2.70    2.00
  -3   5  -5    1.20    6.80
  -3   5  -5    3.10    1.80
  -3   5  -5    0.50    4.40
  -3   5  -5   -4.80    4.50
  -4   5  -5  600.84   40.40
  -4   5  -5  626.04   39.50
  -4   5  -5  646.54   41.80
  -4   5  -5  611.44   37.30
  -5   5  -5   49.40    4.60
  -5   5  -5   52.89    8.70
  -5   5  -5   53.99   11.20
   6   4  -5   29.00    4.80
   6   4  -5   13.80    8.90
  -6  -4   5   25.30    4.70
   5   4  -5    1.30    4.30
   5   4  -5    1.80    3.60
   5   4  -5   -0.40    7.40
  -5  -4   5    4.70    4.40
  -5  -4   5   -1.00    6.40
   4   4  -5  188.08   15.90
   4   4  -5  207.18   13.60
   4   4  -5  197.68   13.80
  -4  -4   5  192.98   13.50
   3   4  -5  210.58   14.20
   3   4  -5  195.58   15.90
   3   4  -5  203.58   14.30
  -3  -4   5  206.88   13.60
  -3  -4   5  202.18   13.90
  -3  -4   5  249.97   14.60
   2   4  -5   92.79    8.80
   2   4  -5   98.39    6.30
   2   4  -5  103.09    7.60
   2   4  -5   98.29    7.00
   2   4  -5   91.29    8.30
   2   4  -5   95.89    7.50
  -2  -4   5   92.39    7.10
  -2  -4   5   96.59    8.70
   1   4  -5  169.78   11.10
   1   4  -5  159.28   13.00
   1   4  -5  169.88   11.40
   1   4  -5  153.28   12.10
   1   4  -5  185.18   11.50
   1   4  -5  190.38   11.20
  -1  -4   5  169.88   11.20
  -1  -4   5  193.78   12.40
  -1  -4   5  174.58   11.00
   0   4  -5   40.40    3.60
   0   4  -5   48.10    3.80
   0   4  -5   41.90    3.70
   0   4  -5   43.90    3.70
   0   4  -5   48.30    4.20
   0   4  -5   36.80    5.50
   0   4  -5   45.30    3.90
   0   4  -5   38.60    5.50
   0  -4   5   44.30    3.40
   0  -4   5   41.80    3.60
  -1   4  -5  493.05   30.40
  -1   4  -5  485.15   30.40
  -1   4  -5  521.55   30.40
  -1   4  -5  494.35   32.30
  -1   4  -5  492.95   31.70
  -1   4  -5  545.15   30.40
  -2   4  -5    3.20    0.90
  -2   4  -5    4.30    0.90
  -2   4  -5    0.70    4.60
  -2   4  -5    3.90    1.50
  -2   4  -5    2.20    4.90
  -2   4  -5    5.60    3.10
  -2   4  -5    1.20    1.50
  -3   4  -5 1015.00   62.09
  -3   4  -5 1040.90   65.99
  -3   4  -5  997.50   62.19
  -3   4  -5 1048.40   63.99
  -3   4  -5 1086.59   63.69
  -3   4  -5 1092.69   65.19
  -4   4  -5  216.28   15.70
  -4   4  -5  226.78   15.80
  -4   4  -5  197.38   12.80
  -4   4  -5  195.88   12.60
  -4   4  -5  199.38   17.90
  -4   4  -5  213.88   18.20
  -5   4  -5  434.36   27.40
  -5   4  -5  445.96   27.20
  -5   4  -5  481.95   32.50
  -5   4  -5  458.45   30.40
  -6   4  -5  204.38   13.90
  -6   4  -5  238.78   19.10
  -6   4  -5  223.18   21.00
   7   3  -5   60.29    9.70
   7   3  -5   67.39    7.00
  -7  -3   5   49.30    7.50
  -7  -3   5  107.09   12.10
   6   3  -5   19.60    6.80
   6   3  -5   15.30    4.40
  -6  -3   5   27.20    8.20
  -6  -3   5   19.20    5.10
   5   3  -5  113.09   11.80
   5   3  -5  109.69    9.80
   5   3  -5  123.59    9.80
  -5  -3   5  117.69    9.50
  -5  -3   5  125.49    9.90
  -5  -3   5  130.39   12.50
   4   3  -5  174.08   11.70
   4   3  -5  159.58   11.80
   4   3  -5  156.28   12.80
  -4  -3   5  176.78   13.20
  -4  -3   5  156.28   11.30
  -4  -3   5  164.68   11.60
   3   3  -5   29.50    3.80
   3   3  -5   35.20    4.30
   3   3  -5   23.90    5.80
   3   3  -5   34.20    3.70
   3   3  -5   33.10    3.90
  -3  -3   5   30.60    3.30
  -3  -3   5   29.10    4.00
  -3  -3   5   30.20    5.40
  -3  -3   5   48.30    5.70
   2   3  -5  169.18   11.00
   2   3  -5  179.28   11.30
   2   3  -5  169.08   11.50
   2   3  -5  172.88   11.50
   2   3  -5  175.38   12.80
  -2  -3   5  165.08   11.20
  -2  -3   5  176.98   12.10
  -2  -3   5  177.38   11.10
   1   3  -5    9.60    2.10
   1   3  -5    7.10    2.90
   1   3  -5    3.80    2.10
   1   3  -5    7.20    1.80
   1   3  -5    5.20    2.90
   1   3  -5    5.00    2.00
   1   3  -5    2.30    2.10
  -1  -3   5    3.70    2.00
  -1  -3   5    6.70    2.50
  -1  -3   5    5.10    1.60
   0   3  -5    9.90    1.60
   0   3  -5   10.50    3.10
   0   3  -5    5.60    3.50
   0   3  -5   10.10    2.00
   0   3  -5   11.90    2.60
   0   3  -5    8.20    1.90
   0   3  -5   10.50    1.70
   0  -3   5   10.00    1.50
   0  -3   5   11.60    1.70
  -1   3  -5   67.89    5.20
  -1   3  -5   73.59    5.10
  -1   3  -5   74.59    7.20
  -1   3  -5   78.79    5.10
  -1   3  -5   76.79    5.10
  -1   3  -5   73.79    7.10
   1  -3   5   99.99    5.60
   1  -3   5   79.89    4.90
  -2   3  -5   34.90    2.60
  -2   3  -5   38.40    2.70
  -2   3  -5   33.80    5.10
  -2   3  -5   29.30    7.40
  -2   3  -5   33.00    4.20
  -2   3  -5   35.40    5.50
  -3   3  -5   22.10    2.00
  -3   3  -5   20.40    4.60
  -3   3  -5   24.50    7.30
  -3   3  -5   23.40    6.10
  -4   3  -5   10.30    4.30
  -4   3  -5   14.50    1.50
  -4   3  -5   16.00    5.50
  -4   3  -5    7.90    6.60
  -4   3  -5    9.30    1.70
  -4   3  -5    9.90    5.80
  -5   3  -5   53.59    9.70
  -5   3  -5   65.39    8.70
  -5   3  -5   56.69    4.40
  -5   3  -5   56.39    4.70
  -6   3  -5    6.50    8.60
  -6   3  -5    6.80    7.40
  -6   3  -5    9.00    2.50
  -7   3  -5   85.79   11.80
  -7   3  -5  103.69   12.20
  -7   3  -5   94.29    7.30
  -7  -2   5  227.38   20.00
  -7  -2   5  200.78   15.40
   6   2  -5  140.59   15.40
  -6  -2   5  151.08   11.10
  -6  -2   5  168.98   16.00
   5   2  -5  772.32   47.50
   5   2  -5  821.42   47.40
   5   2  -5  690.63   48.30
  -5  -2   5  786.42   47.40
  -5  -2   5  802.72   47.30
  -5  -2   5  795.32   49.30
   4   2  -5    3.40    5.60
   4   2  -5    4.50    2.80
   4   2  -5    7.50    3.40
  -4  -2   5   -0.10    3.10
  -4  -2   5   -5.20    6.00
  -4  -2   5    3.30    3.40
   3   2  -5 1483.05   92.29
   3   2  -5 1525.65   91.39
   3   2  -5 1579.54   91.39
   3   2  -5 1570.74   91.49
  -3  -2   5 1597.24   91.49
  -3  -2   5 1404.66   92.29
  -3  -2   5 1552.64   91.29
   2   2  -5  158.68   10.60
   2   2  -5  145.89   10.70
   2   2  -5  147.99   10.70
   2   2  -5  162.68   11.90
   2   2  -5  183.88   11.20
  -2  -2   5  161.18   10.60
  -2  -2   5  163.38   12.00
  -2  -2   5  176.68   11.00
  -2  -2   5  160.98   10.50
   1   2  -5 2244.08  116.69
   1   2  -5 1861.51  115.69
   1   2  -5 1870.91  115.59
   1   2  -5 1987.70  117.79
   1   2  -5 1803.82  116.09
   1   2  -5 1816.52  115.59
   1   2  -5 2019.40  115.69
  -1  -2   5 1868.71  115.49
  -1  -2   5 1968.80  115.59
  -1  -2   5 2004.10  116.89
   0   2  -5 1169.08   70.79
   0   2  -5 1195.18   70.39
   0   2  -5 1169.38   70.39
   0   2  -5 1103.69   70.89
   0   2  -5 1190.38   70.39
   0   2  -5 1165.78   70.39
   0  -2   5 1192.18   70.29
   0  -2   5 1267.37   70.29
  -1   2  -5  395.46   24.80
  -1   2  -5  408.56   24.80
  -1   2  -5  429.66   24.80
  -1   2  -5  392.96   28.20
  -1   2  -5  388.76   25.80
  -1   2  -5  394.26   25.60
   1  -2   5  448.06   24.80
   1  -2   5  443.96   24.70
  -2   2  -5 1326.37   80.79
  -2   2  -5 1284.97   77.89
  -2   2  -5 1331.97   78.59
  -2   2  -5 1324.47   79.19
  -2   2  -5 1274.77   77.79
  -3   2  -5   22.50    4.90
  -3   2  -5   23.20    1.50
  -3   2  -5   22.70    6.70
  -3   2  -5   23.20    4.70
  -3   2  -5   20.00    1.50
  -4   2  -5  461.35   28.30
  -4   2  -5  463.35   30.50
  -4   2  -5  477.15   30.10
  -4   2  -5  478.55   28.30
  -4   2  -5  489.05   32.00
  -5   2  -5    6.60    1.80
  -5   2  -5    2.10    4.40
  -5   2  -5    2.10    1.70
  -5   2  -5    1.80    1.40
  -5   2  -5    4.60    6.00
  -5   2  -5   -1.30    5.80
  -6   2  -5  207.48   13.20
  -6   2  -5  213.68   17.90
  -7   2  -5   25.50    9.30
  -7   2  -5   17.90    7.50
  -7   2  -5   26.50    3.40
   7   1  -5  180.68   14.00
  -7  -1   5  172.18   13.70
  -7  -1   5  207.18   19.10
  -6  -1   5  818.72   47.70
  -6  -1   5  758.42   47.70
  -6  -1   5  768.42   50.29
   5   1  -5   66.79    9.10
  -5  -1   5   88.09    9.70
  -5  -1   5   76.49    6.70
  -5  -1   5   77.69    6.70
   4   1  -5 1464.85   88.29
   4   1  -5 1389.76   88.99
   4   1  -5 1581.34   90.29
   4   1  -5 1500.95   88.19
  -4  -1   5 1457.05   88.19
  -4  -1   5 1421.36   89.69
  -4  -1   5 1495.75   88.09
   3   1  -5   49.20    4.30
   3   1  -5   46.00    4.40
   3   1  -5   42.40    4.40
   3   1  -5   38.70    5.00
  -3  -1   5   38.10    4.20
  -3  -1   5   34.20    6.10
  -3  -1   5   45.70    3.90
   2   1  -5 1682.13   94.29
   2   1  -5 1514.85   94.19
   2   1  -5 1512.05   94.69
   2   1  -5 1632.04   94.29
  -2  -1   5 1550.54   94.19
  -2  -1   5 1491.05   95.19
  -2  -1   5 1681.33   94.19
   1   1  -5 1453.05   91.29
   1   1  -5 1550.64   90.99
   1   1  -5 1446.96   90.89
   1   1  -5 1552.64   93.39
   1   1  -5 1500.85   90.89
   1   1  -5 1469.75   90.99
  -1  -1   5 1505.55   90.89
  -1  -1   5 1743.63   91.99
   0   1  -5  714.33   44.40
   0   1  -5  721.13   44.30
   0   1  -5  705.03   44.70
   0   1  -5  701.93   46.70
   0   1  -5  771.52   44.40
   0   1  -5  737.33   44.80
   0  -1   5  724.73   44.30
   0  -1   5  743.73   44.30
   0  -1   5  869.01   44.90
  -1   1  -5 2749.23  176.48
  -1   1  -5 2735.43  171.68
  -1   1  -5 2944.41  170.88
  -1   1  -5 2731.33  170.88
  -1   1  -5 2917.91  170.58
  -1   1  -5 2736.53  173.78
  -1   1  -5 2836.12  170.78
   1  -1   5 3177.28  170.08
   1  -1   5 2926.31  170.48
  -2   1  -5  222.78   13.30
  -2   1  -5  214.98   13.30
  -2   1  -5  229.68   15.40
  -2   1  -5  220.98   16.90
  -2   1  -5  231.28   14.40
  -3   1  -5 1818.92  105.69
  -3   1  -5 1770.62  103.99
  -3   1  -5 1558.54  102.99
  -3   1  -5 1771.92  102.99
  -4   1  -5   26.00    6.00
  -4   1  -5   30.00    4.60
  -4   1  -5   25.90    2.10
  -4   1  -5   20.40    5.60
  -4   1  -5   31.80    2.40
  -4   1  -5   24.10    2.20
  -4   1  -5   25.20    2.20
  -5   1  -5  643.14   39.80
  -5   1  -5  610.64   38.30
  -5   1  -5  650.13   38.40
  -5   1  -5  628.14   40.50
  -5   1  -5  656.93   38.40
  -5   1  -5  660.73   41.40
  -6   1  -5  117.59    8.30
  -6   1  -5  130.39    8.50
  -6   1  -5  138.49   12.20
  -7   1  -5  216.28   14.80
  -7   1  -5  259.47   20.80
  -7   1  -5  253.07   15.10
   7   0  -5  282.77   19.80
  -7   0   5  296.57   20.00
  -7   0   5  301.77   23.00
  -7   0   5  292.77   19.80
  -7   0   5  318.87   23.30
   6   0  -5    0.60    4.60
  -6   0   5    2.70    4.20
  -6   0   5    7.20    3.60
  -6   0   5   12.20    8.50
   5   0  -5  867.81   53.49
  -5   0   5  842.42   55.19
  -5   0   5  889.21   53.39
  -5   0   5  930.61   53.29
   4   0  -5  454.55   29.20
   4   0  -5  465.45   28.00
   4   0  -5  418.46   28.50
  -4   0   5  420.06   29.40
  -4   0   5  461.85   27.80
  -4   0   5  482.85   27.70
   3   0  -5 1091.79   65.09
   3   0  -5 1006.40   64.09
  -3   0   5 1121.29   63.39
  -3   0   5  998.30   64.99
  -3   0   5 1069.79   63.39
   2   0  -5 1901.21  116.09
   2   0  -5 1989.50  115.79
   2   0  -5 2032.40  117.49
   2   0  -5 1978.40  115.69
  -2   0   5 1930.11  115.59
  -2   0   5 2004.10  117.69
  -2   0   5 1939.71  115.69
  -2   0   5 1762.32  116.79
   1   0  -5  617.04   37.40
   1   0  -5  612.94   37.60
   1   0  -5  594.04   37.30
   1   0  -5  578.74   39.30
   1   0  -5  663.53   37.40
  -1   0   5  646.24   37.60
  -1   0   5  612.14   37.30
  -1   0   5  647.94   38.60
  -1   0   5  622.24   37.20
   0   0  -5 1921.01  120.39
   0   0  -5 1902.31  120.59
   0   0  -5 2191.58  120.39
   0   0  -5 2028.90  122.49
   0   0  -5 1948.80  121.69
   0   0   5 1929.41  120.69
   0   0   5 2310.77  121.89
   0   0   5 1979.90  120.99
  -1   0  -5   71.59    6.40
  -1   0  -5   76.49    5.00
  -1   0  -5   76.79    5.00
  -1   0  -5   75.39    8.70
  -1   0  -5   71.09    5.40
  -1   0  -5   69.69    5.00
  -1   0  -5   76.69    5.00
   1   0   5   79.79    4.90
   1   0   5   85.79    4.90
   1   0   5   77.69    7.50
   1   0   5   76.89    4.90
  -2   0  -5 2259.37  129.69
  -2   0  -5 2138.59  131.59
  -2   0  -5 2187.98  129.89
  -2   0  -5 2167.58  130.29
  -2   0  -5 2161.48  130.59
  -2   0  -5 2045.50  129.49
  -2   0  -5 2158.78  129.49
   2   0   5 2238.68  129.59
   2   0   5 2218.88  133.29
  -3   0  -5  364.66   24.90
  -3   0  -5  350.06   23.30
  -3   0  -5  383.86   21.80
  -3   0  -5  326.67   21.80
  -3   0  -5  363.66   21.70
  -3   0  -5  340.07   21.80
   3   0   5  362.06   21.70
   3   0   5  414.56   21.70
   3   0   5  361.56   24.30
  -4   0  -5 1633.84   98.99
  -4   0  -5 1692.23   98.89
  -4   0  -5 1666.13   99.19
  -4   0  -5 1599.34  101.39
  -4   0  -5 1627.24   99.99
   4   0   5 1714.23  100.99
   4   0   5 1703.93   98.99
  -5   0  -5  818.32   48.90
  -5   0  -5  753.22   49.20
  -5   0  -5  751.72   46.40
  -5   0  -5  756.72   47.70
  -5   0  -5  793.02   46.30
  -5   0  -5  788.12   46.40
  -6   0  -5  629.04   40.00
  -6   0  -5  623.84   36.80
  -6   0  -5  586.04   36.90
  -7   0  -5  697.23   43.50
  -7   0  -5  606.34   39.50
  -7   0  -5  681.03   39.70
  -8   0  -5   57.19   11.60
  -8   0  -5   56.99    5.50
   6  -1  -5   53.89    6.30
  -6   1   5   56.49    8.40
  -6   1   5   62.19    9.30
  -6   1   5   61.99    6.30
  -6   1   5   58.79    6.40
   5  -1  -5   33.70    5.20
  -5   1   5   42.20    9.00
  -5   1   5   41.00    6.50
  -5   1   5   45.60    4.90
  -5   1   5   36.00    4.90
   4  -1  -5  134.99    9.50
   4  -1  -5  123.89    9.70
   4  -1  -5  129.29    9.40
   4  -1  -5  136.79   10.60
  -4   1   5  145.39   13.70
  -4   1   5  133.49    9.70
  -4   1   5  130.09   10.80
  -4   1   5  127.49    9.50
   3  -1  -5  109.19    8.00
   3  -1  -5  103.29    7.90
   3  -1  -5  102.19    9.50
   3  -1  -5  108.59    7.70
   3  -1  -5   89.99    8.90
  -3   1   5  102.79    8.70
  -3   1   5  114.39   11.50
  -3   1   5  104.89    7.80
  -3   1   5  112.39    7.70
   2  -1  -5  264.57   15.80
   2  -1  -5  245.28   16.00
   2  -1  -5  235.28   16.40
   2  -1  -5  252.17   16.40
   2  -1  -5  247.78   17.70
   2  -1  -5  256.27   15.90
  -2   1   5  259.37   15.90
  -2   1   5  251.47   15.70
  -2   1   5  254.57   18.30
  -2   1   5  274.17   16.30
   1  -1  -5 1140.29   69.79
   1  -1  -5 1150.08   68.09
   1  -1  -5 1157.08   68.69
   1  -1  -5 1075.09   68.19
   1  -1  -5 1133.59   68.09
   1  -1  -5 1142.89   68.09
  -1   1   5 1102.99   69.39
  -1   1   5 1221.18   68.29
  -1   1   5 1116.89   67.99
  -1   1   5 1146.19   67.99
  -1   1   5 1155.68   68.29
   0  -1  -5   69.49    6.90
   0  -1  -5   87.99    5.50
   0  -1  -5   74.19    5.50
   0  -1  -5   82.09    5.50
   0  -1  -5   81.19    5.50
   0  -1  -5   80.49    5.40
   0  -1  -5   74.89    8.50
   0  -1  -5   76.39    5.50
   0   1   5   76.09    8.10
   0   1   5   80.89    5.40
   0   1   5   76.59    8.10
   0   1   5   77.49    5.40
   0   1   5   90.79    5.70
  -1  -1  -5 1903.51  118.29
  -1  -1  -5 1876.01  118.69
  -1  -1  -5 1866.61  119.89
  -1  -1  -5 1940.01  118.29
  -1  -1  -5 2172.58  118.59
  -1  -1  -5 1837.62  118.39
  -1  -1  -5 2116.29  120.29
  -1  -1  -5 1921.41  118.09
   1   1   5 1999.60  118.39
   1   1   5 1999.00  118.19
   1   1   5 2237.48  117.89
   1   1   5 1942.31  119.89
  -2  -1  -5  525.25   29.80
  -2  -1  -5  489.65   29.80
  -2  -1  -5  473.85   30.90
  -2  -1  -5  473.65   29.80
  -2  -1  -5  496.75   29.80
  -2  -1  -5  464.65   32.10
  -2  -1  -5  473.35   29.80
   2   1   5  504.25   29.70
   2   1   5  519.75   29.80
   2   1   5  493.05   32.20
   2   1   5  550.64   29.80
  -3  -1  -5 1328.57   84.49
  -3  -1  -5 1476.55   84.49
  -3  -1  -5 1395.46   85.59
  -3  -1  -5 1431.86   84.49
  -3  -1  -5 1495.15   84.79
  -3  -1  -5 1354.66   86.89
   3   1   5 1406.36   84.59
   3   1   5 1417.96   86.79
   3   1   5 1478.95   84.59
  -4  -1  -5  662.73   39.60
  -4  -1  -5  621.04   40.80
  -4  -1  -5  696.03   39.50
  -4  -1  -5  607.74   42.20
  -4  -1  -5  646.44   39.60
  -4  -1  -5  687.83   39.60
   4   1   5  657.13   41.90
   4   1   5  696.53   39.40
  -5  -1  -5  380.46   27.40
  -5  -1  -5  417.76   24.40
  -5  -1  -5  414.46   24.50
  -5  -1  -5  380.16   25.70
  -5  -1  -5  394.06   24.40
  -5  -1  -5  408.06   27.00
   5   1   5  413.26   27.00
  -6  -1  -5  913.01   55.79
  -6  -1  -5  865.31   58.49
  -6  -1  -5  961.90   58.49
  -6  -1  -5  877.31   56.89
  -6  -1  -5  967.70   55.79
   6   1   5 1000.90   58.29
  -7  -1  -5    4.50    6.10
  -7  -1  -5   11.50    3.10
  -7  -1  -5    5.20    3.30
  -8  -1  -5  444.56   29.10
  -8  -1  -5  516.65   34.20
  -8  -1  -5  483.45   29.50
   6  -2  -5   79.99    7.60
  -6   2   5   90.69    7.60
  -6   2   5   95.49   11.90
  -6   2   5   84.79   12.40
  -6   2   5   76.69    7.50
   5  -2  -5   15.70    4.20
  -5   2   5   15.70    4.10
  -5   2   5   22.10    3.70
  -5   2   5   19.50    6.10
  -5   2   5   14.50    6.60
   4  -2  -5   64.79    6.60
   4  -2  -5   85.99    7.60
   4  -2  -5   90.99    6.50
   4  -2  -5   83.19    6.90
  -4   2   5   78.29    7.10
  -4   2   5   75.59    6.90
  -4   2   5   59.49    9.90
  -4   2   5   73.19    9.60
   3  -2  -5   45.70    6.30
   3  -2  -5   45.70    5.10
   3  -2  -5   49.90    4.50
   3  -2  -5   41.60    4.70
  -3   2   5   50.79    4.20
  -3   2   5   46.60    4.70
  -3   2   5   35.70    7.70
  -3   2   5   48.70    5.90
  -3   2   5   45.20    4.40
   2  -2  -5  167.08   11.00
   2  -2  -5  167.08   11.50
   2  -2  -5  161.48   12.60
   2  -2  -5  159.58   10.80
   2  -2  -5  174.08   10.70
  -2   2   5  165.18   10.80
  -2   2   5  163.08   10.70
  -2   2   5  175.98   11.70
  -2   2   5  187.48   11.00
  -2   2   5  140.99   13.90
   1  -2  -5   19.80    3.30
   1  -2  -5   21.20    2.90
   1  -2  -5   19.00    2.70
   1  -2  -5   23.60    2.30
   1  -2  -5   16.70    4.30
  -1   2   5   23.40    2.40
  -1   2   5   18.90    2.50
  -1   2   5   16.90    5.40
  -1   2   5   30.50    3.20
  -1   2   5   22.00    3.60
  -1   2   5   19.20    4.30
   0  -2  -5  183.78   15.10
   0  -2  -5  202.78   12.80
   0  -2  -5  194.68   13.90
   0  -2  -5  238.98   13.50
   0  -2  -5  208.18   12.90
   0  -2  -5  234.48   13.00
   0  -2  -5  203.48   13.00
   0   2   5  221.18   12.90
   0   2   5  199.78   12.90
   0   2   5  209.08   15.20
   0   2   5  205.68   15.20
   0   2   5  205.98   12.70
   0   2   5  209.58   12.80
   0   2   5  185.18   13.80
  -1  -2  -5    5.90    1.60
  -1  -2  -5    5.70    2.70
  -1  -2  -5    1.40    4.20
  -1  -2  -5    1.90    1.60
  -1  -2  -5    1.70    3.00
  -1  -2  -5    0.40    1.50
  -1  -2  -5    0.30    1.40
   1   2   5    3.10    4.10
   1   2   5    3.70    1.60
   1   2   5    0.90    2.30
  -2  -2  -5   27.40    2.70
  -2  -2  -5   27.50    4.00
  -2  -2  -5   26.00    1.80
  -2  -2  -5   26.60    2.60
  -2  -2  -5   26.70    2.60
  -2  -2  -5   25.70    2.60
  -2  -2  -5   29.30    1.80
  -2  -2  -5   35.70    4.80
  -2  -2  -5   21.10    5.50
   2   2   5   29.80    2.60
   2   2   5   44.30    2.80
   2   2   5   26.60    5.90
  -3  -2  -5  115.99    7.90
  -3  -2  -5  121.09    8.00
  -3  -2  -5  117.79    9.30
  -3  -2  -5  124.09    7.90
  -3  -2  -5  119.29    8.00
  -3  -2  -5  112.99   10.70
   3   2   5  129.89    7.70
   3   2   5  123.39    7.80
   3   2   5  125.99   11.70
  -4  -2  -5  140.49   13.70
  -4  -2  -5  133.69   11.80
  -4  -2  -5  152.08    9.80
  -4  -2  -5  138.29    9.90
  -4  -2  -5  181.68   10.00
  -4  -2  -5  148.99    9.90
   4   2   5  155.58    9.70
   4   2   5  159.08   13.40
   4   2   5  162.48    9.60
  -5  -2  -5   29.70    3.30
  -5  -2  -5   18.80    3.00
  -5  -2  -5   14.40    5.40
  -5  -2  -5   18.10    7.40
  -5  -2  -5   15.70    2.70
   5   2   5   21.20    2.50
   5   2   5   19.20    5.80
  -6  -2  -5   25.90    7.60
  -6  -2  -5   22.20    7.50
  -6  -2  -5   32.50    3.60
  -6  -2  -5   26.70    3.50
  -6  -2  -5   20.00    5.70
   6   2   5   21.20    6.40
  -7  -2  -5   14.50    3.90
  -7  -2  -5   16.70    3.60
  -7  -2  -5   18.90    6.60
  -8  -2  -5   -1.40    4.20
  -8  -2  -5    2.60    9.20
  -8  -2  -5   11.10    3.80
   6  -3  -5    2.40    4.30
  -6   3   5    4.00    9.90
  -6   3   5    4.00    4.70
  -6   3   5    1.90    7.10
  -6   3   5    0.80    4.30
   5  -3  -5  568.44   33.90
  -5   3   5  498.95   37.40
  -5   3   5  562.84   36.20
  -5   3   5  580.64   33.90
  -5   3   5  533.95   34.00
   4  -3  -5   26.60    3.70
  -4   3   5   21.90    8.50
  -4   3   5   28.00    4.40
  -4   3   5   28.50    6.20
  -4   3   5   28.90    4.20
   3  -3  -5 1000.10   58.69
   3  -3  -5  975.30   59.69
   3  -3  -5  897.51   58.69
  -3   3   5  971.70   58.79
  -3   3   5 1009.10   59.99
  -3   3   5 1100.69   58.79
  -3   3   5  890.71   60.49
  -3   3   5  968.60   58.59
   2  -3  -5  297.17   18.70
   2  -3  -5  302.17   19.10
   2  -3  -5  311.87   18.80
   2  -3  -5  295.37   20.30
  -2   3   5  309.67   18.60
  -2   3   5  305.57   20.30
  -2   3   5  289.07   18.50
  -2   3   5  310.57   20.00
  -2   3   5  265.67   20.60
   1  -3  -5  646.04   38.20
   1  -3  -5  639.24   38.90
   1  -3  -5  589.04   38.70
   1  -3  -5  633.84   38.10
   1  -3  -5  565.84   39.70
   1  -3  -5  610.34   38.10
  -1   3   5  647.44   38.10
  -1   3   5  656.93   39.40
  -1   3   5  636.54   40.30
  -1   3   5  625.44   38.00
  -1   3   5  636.94   40.00
  -1   3   5  719.43   39.30
  -1   3   5  624.34   38.10
   0  -3  -5  894.81   52.69
   0  -3  -5  805.22   54.59
   0  -3  -5  945.91   53.59
   0  -3  -5  889.11   52.69
   0  -3  -5  820.72   53.39
   0  -3  -5  881.61   52.69
   0   3   5  815.62   53.89
   0   3   5  889.51   54.29
   0   3   5  874.51   52.69
   0   3   5  938.11   52.69
   0   3   5  894.01   54.99
   0   3   5  912.41   52.59
  -1  -3  -5  512.35   28.20
  -1  -3  -5  392.86   29.20
  -1  -3  -5  448.46   26.80
  -1  -3  -5  399.86   27.90
  -1  -3  -5  445.66   26.80
  -1  -3  -5  438.76   26.80
  -1  -3  -5  519.15   26.90
   1   3   5  447.26   26.80
   1   3   5  455.65   26.40
   1   3   5  387.86   28.10
   1   3   5  420.86   26.70
   1   3   5  444.36   29.50
  -2  -3  -5 1818.22  110.89
  -2  -3  -5 1696.13  113.29
  -2  -3  -5 1794.02  110.89
  -2  -3  -5 2129.19  110.99
  -2  -3  -5 1835.72  110.89
  -2  -3  -5 1743.93  111.99
   2   3   5 1878.71  114.09
   2   3   5 1913.21  112.49
   2   3   5 1962.60  110.89
  -3  -3  -5    8.50    5.90
  -3  -3  -5    4.10    2.10
  -3  -3  -5    3.50    1.90
  -3  -3  -5    2.50    2.00
  -3  -3  -5    0.20    2.20
  -3  -3  -5   10.50    4.40
  -3  -3  -5    5.50    1.30
   3   3   5    5.60    1.90
   3   3   5    1.60    5.70
   3   3   5    1.90    1.70
  -4  -3  -5  637.44   38.40
  -4  -3  -5  693.93   38.50
  -4  -3  -5  743.43   38.40
  -4  -3  -5  624.34   38.40
  -4  -3  -5  560.94   39.80
  -4  -3  -5  577.14   41.60
  -4  -3  -5  597.84   38.40
   4   3   5  638.44   41.90
   4   3   5  662.63   38.20
   4   3   5  615.74   38.30
  -5  -3  -5   64.29    7.80
  -5  -3  -5   69.49    6.30
  -5  -3  -5   64.19    9.90
  -5  -3  -5   84.99    5.90
  -5  -3  -5   77.19    6.10
   5   3   5   70.29    5.50
   5   3   5   73.69   10.60
  -6  -3  -5   36.80    8.00
  -6  -3  -5   36.50    4.30
  -6  -3  -5   36.90    4.50
  -6  -3  -5   28.30    6.80
  -6  -3  -5   29.10    9.20
   6   3   5   36.50    7.60
   6   3   5   41.80    3.90
  -7  -3  -5   19.00    3.90
  -7  -3  -5   10.60    8.10
  -7  -3  -5   14.70    6.30
  -7  -3  -5   23.40    4.20
  -8  -3  -5   10.00    4.50
  -8  -3  -5    3.90    6.90
  -8  -3  -5   -2.30    4.60
  -6   4   5  565.84   40.70
  -6   4   5  608.84   36.20
  -6   4   5  575.54   36.20
   5  -4  -5    4.10    4.00
  -5   4   5    4.80    4.10
  -5   4   5    5.00    7.80
  -5   4   5    9.10    9.20
  -5   4   5    8.20    4.40
   4  -4  -5 1026.40   65.89
  -4   4   5 1161.68   67.89
  -4   4   5 1069.29   68.59
  -4   4   5 1103.99   65.89
  -4   4   5 1111.19   65.99
   3  -4  -5  728.83   43.60
   3  -4  -5  676.03   42.40
   3  -4  -5  690.43   42.30
   3  -4  -5  754.12   42.70
  -3   4   5  663.93   42.40
  -3   4   5  704.73   44.40
  -3   4   5  644.14   44.40
  -3   4   5  714.33   42.40
   2  -4  -5 1204.88   73.69
   2  -4  -5 1212.68   73.19
   2  -4  -5 1250.37   73.09
  -2   4   5 1218.78   74.59
  -2   4   5 1213.98   73.09
  -2   4   5 1219.08   73.19
  -2   4   5 1190.78   74.49
  -2   4   5 1315.27   73.59
  -2   4   5 1242.48   73.19
  -2   4   5 1146.29   75.29
   1  -4  -5 2989.30  190.58
   1  -4  -5 3006.80  193.88
   1  -4  -5 3266.27  189.58
   1  -4  -5 3385.46  188.98
  -1   4   5 3182.68  189.48
  -1   4   5 3036.50  190.58
  -1   4   5 3187.88  189.28
  -1   4   5 3168.38  192.68
  -1   4   5 3286.87  193.48
  -1   4   5 3268.27  188.88
   0  -4  -5  701.83   39.60
   0  -4  -5  668.23   39.50
   0  -4  -5  603.14   40.50
   0  -4  -5  679.43   39.50
   0  -4  -5  594.44   41.90
   0   4   5  661.83   39.60
   0   4   5  662.33   39.50
   0   4   5  670.73   42.50
   0   4   5  645.04   41.30
   0   4   5  680.53   41.60
   0   4   5  652.43   39.50
  -1  -4  -5 4322.67  267.47
  -1  -4  -5 4692.13  266.67
  -1  -4  -5 4686.43  265.87
  -1  -4  -5 4227.98  266.97
  -1  -4  -5 4627.54  266.97
   1   4   5 4459.15  265.87
   1   4   5 3871.71  268.07
   1   4   5 4365.56  266.37
   1   4   5 5046.40  276.47
   1   4   5 4380.16  266.67
  -2  -4  -5    8.20    2.40
  -2  -4  -5   12.50    2.50
  -2  -4  -5    7.40    4.60
  -2  -4  -5    5.10    2.20
  -2  -4  -5   22.90    2.80
  -2  -4  -5    7.20    6.30
   2   4   5    6.90    6.60
   2   4   5    4.70    2.40
   2   4   5    7.70    1.30
   2   4   5    5.50    5.10
   2   4   5    6.60    2.10
  -3  -4  -5 3022.00  190.58
  -3  -4  -5 3549.15  187.48
  -3  -4  -5 2901.61  187.78
  -3  -4  -5 3072.69  187.98
  -3  -4  -5 3079.39  188.38
  -3  -4  -5 3093.79  188.78
  -3  -4  -5 3021.50  187.28
   3   4   5 2960.30  187.28
   3   4   5 3433.06  191.58
   3   4   5 3319.37  188.18
   3   4   5 3220.18  189.58
  -4  -4  -5  418.26   26.40
  -4  -4  -5  509.85   26.60
  -4  -4  -5  418.56   26.40
  -4  -4  -5  450.15   26.20
  -4  -4  -5  392.06   28.50
  -4  -4  -5  377.56   30.50
  -4  -4  -5  382.26   26.50
   4   4   5  428.06   26.40
   4   4   5  501.15   26.50
   4   4   5  439.16   30.40
  -5  -4  -5 1252.97   78.89
  -5  -4  -5 1253.67   77.19
  -5  -4  -5 1229.18   80.89
  -5  -4  -5 1308.87   77.19
   5   4   5 1293.77   77.09
   5   4   5 1393.36   81.29
  -6  -4  -5  924.51   55.09
  -6  -4  -5  826.82   56.69
  -6  -4  -5  930.61   55.09
  -6  -4  -5  812.52   58.89
   6   4   5  933.31   54.89
   6   4   5 1046.90   59.29
  -7  -4  -5  329.27   20.30
  -7  -4  -5  308.07   22.90
  -7  -4  -5  281.97   25.90
  -7  -4  -5  319.37   23.80
  -7  -4  -5  321.27   20.40
  -8  -4  -5  511.85   35.00
  -8  -4  -5  503.25   31.30
  -8  -4  -5  484.75   31.20
   5  -5  -5  184.38   14.00
  -5   5   5  201.88   13.90
  -5   5   5  199.68   14.00
  -5   5   5  195.88   18.00
  -5   5   5  181.08   19.70
   4  -5  -5  497.75   32.00
  -4   5   5  522.75   32.20
  -4   5   5  511.55   35.80
  -4   5   5  512.55   31.90
  -4   5   5  552.34   35.00
   3  -5  -5  233.18   15.40
  -3   5   5  242.08   18.60
  -3   5   5  230.98   18.50
  -3   5   5  245.48   15.80
  -3   5   5  246.68   15.90
   2  -5  -5 1462.95   85.59
   2  -5  -5 1461.75   83.39
   2  -5  -5 1310.07   83.49
   2  -5  -5 1525.05   84.29
  -2   5   5 1356.66   83.49
  -2   5   5 1276.47   85.29
  -2   5   5 1422.76   85.39
  -2   5   5 1393.06   83.39
  -2   5   5 1331.77   84.99
   1  -5  -5    8.50    4.80
   1  -5  -5    8.30    2.90
   1  -5  -5   11.70    6.30
   1  -5  -5    7.30    3.20
  -1   5   5   17.50    5.90
  -1   5   5   15.00    3.30
  -1   5   5   14.10    3.10
  -1   5   5    7.60    5.60
  -1   5   5   20.00    5.50
  -1   5   5    7.10    2.90
   0  -5  -5 1873.11  113.09
   0  -5  -5 1933.81  113.09
   0  -5  -5 1829.42  115.89
   0  -5  -5 1902.41  114.29
   0   5   5 1901.01  115.09
   0   5   5 1828.92  112.99
   0   5   5 1925.21  113.09
   0   5   5 1838.92  114.69
   0   5   5 1877.01  113.09
   0   5   5 2064.09  116.29
  -1  -5  -5 1187.88   70.29
  -1  -5  -5 1179.18   73.79
  -1  -5  -5 1190.48   71.89
  -1  -5  -5 1131.99   70.29
  -1  -5  -5 1222.58   70.29
   1   5   5 1149.48   70.19
   1   5   5 1353.86   74.49
   1   5   5 1169.88   69.99
   1   5   5 1059.89   72.29
   1   5   5 1163.98   71.79
   1   5   5 1111.19   70.29
  -2  -5  -5 1153.98   71.39
  -2  -5  -5 1221.08   71.39
  -2  -5  -5 1181.08   71.39
  -2  -5  -5 1182.38   72.99
  -2  -5  -5 1160.78   74.89
   2   5   5 1224.88   71.29
   2   5   5 1033.80   73.39
   2   5   5 1264.77   71.19
   2   5   5 1163.78   71.39
   2   5   5 1344.17   76.19
  -3  -5  -5 2386.36  130.49
  -3  -5  -5 2221.58  132.29
  -3  -5  -5 2163.28  134.29
  -3  -5  -5 2178.48  131.09
  -3  -5  -5 2194.18  130.49
  -3  -5  -5 2174.18  130.49
   3   5   5 2123.59  130.49
   3   5   5 1964.70  132.89
   3   5   5 2267.47  130.39
   3   5   5 1979.90  130.49
   3   5   5 2448.46  135.39
  -4  -5  -5  724.63   42.90
  -4  -5  -5  712.43   43.20
  -4  -5  -5  761.02   43.30
  -4  -5  -5  737.93   43.30
  -4  -5  -5  691.63   45.50
  -4  -5  -5  667.83   47.80
   4   5   5  623.34   43.10
   4   5   5  805.62   48.10
   4   5   5  740.73   43.00
   4   5   5  688.13   43.20
  -5  -5  -5 2101.29  132.59
  -5  -5  -5 2302.07  128.39
  -5  -5  -5 2091.59  130.19
  -5  -5  -5 2200.58  128.39
   5   5   5 2023.40  128.49
   5   5   5 2190.98  128.29
  -6  -5  -5   33.60    8.00
  -6  -5  -5   37.60   10.70
  -6  -5  -5   37.40    5.20
  -6  -5  -5   38.40    5.30
   6   5   5   50.19    4.80
  -7  -5  -5 1143.89   74.49
  -7  -5  -5 1205.58   71.79
  -7  -5  -5 1097.49   69.29
  -7  -5  -5 1131.69   71.59
  -7  -5  -5 1171.68   69.39
  -8  -5  -5   65.29    7.60
  -8  -5  -5   78.99   10.10
  -8  -5  -5   75.49    7.60
  -5   6   5   48.40    6.40
  -5   6   5   42.40    9.60
  -5   6   5   43.80   10.10
  -5   6   5   52.99    6.20
   4  -6  -5   30.30    5.10
  -4   6   5   39.40    4.60
  -4   6   5   34.50    5.50
  -4   6   5   26.20   10.10
  -4   6   5   34.70    9.00
   3  -6  -5  121.69    9.40
  -3   6   5  115.49    9.80
  -3   6   5  126.59   10.00
  -3   6   5  112.79   12.80
  -3   6   5  123.09   13.90
   2  -6  -5    6.20    5.00
   2  -6  -5    2.30    3.50
   2  -6  -5    3.60    7.00
  -2   6   5    7.90    5.80
  -2   6   5    9.80    3.70
  -2   6   5    6.00    6.60
  -2   6   5    3.10    7.50
  -2   6   5    5.60    4.10
   1  -6  -5  239.18   14.10
   1  -6  -5  216.18   14.20
   1  -6  -5  217.48   16.50
   1  -6  -5  193.98   18.50
  -1   6   5  215.18   16.60
  -1   6   5  191.78   17.70
  -1   6   5  205.18   14.30
  -1   6   5  234.98   17.40
  -1   6   5  213.98   13.90
   0  -6  -5   49.50    9.50
   0  -6  -5   52.99    7.50
   0  -6  -5   62.29    5.00
   0  -6  -5   52.39    5.10
   0   6   5   56.39    4.90
   0   6   5   43.20    8.00
   0   6   5   52.99    7.60
   0   6   5   57.49    9.10
   0   6   5   54.69    4.90
   0   6   5   45.90    4.60
  -1  -6  -5  562.74   34.00
  -1  -6  -5  541.75   38.40
  -1  -6  -5  554.84   35.80
  -1  -6  -5  556.54   33.90
   1   6   5  646.54   38.80
   1   6   5  517.75   36.90
   1   6   5  533.95   35.90
   1   6   5  545.55   33.80
   1   6   5  558.34   33.80
   1   6   5  546.05   34.00
  -2  -6  -5  581.84   37.00
  -2  -6  -5  573.04   36.80
  -2  -6  -5  632.64   39.70
  -2  -6  -5  641.44   36.90
  -2  -6  -5  642.64   42.30
   2   6   5  710.23   42.50
   2   6   5  593.74   36.90
   2   6   5  506.55   39.90
   2   6   5  571.04   36.90
   2   6   5  639.14   36.80
  -3  -6  -5   68.79    6.10
  -3  -6  -5   70.99    6.30
  -3  -6  -5   61.99   12.10
  -3  -6  -5   67.29    9.70
  -3  -6  -5   87.79    6.70
   3   6   5   58.19    5.80
   3   6   5   70.49    5.90
   3   6   5   72.39    6.00
   3   6   5   88.89   14.10
   3   6   5   46.00   10.00
  -4  -6  -5  623.44   38.90
  -4  -6  -5  649.34   45.00
  -4  -6  -5  640.04   41.90
  -4  -6  -5  652.73   38.80
   4   6   5  597.64   42.80
   4   6   5  607.54   38.70
   4   6   5  685.13   38.60
   4   6   5  633.84   38.80
  -5  -6  -5   49.99    5.40
  -5  -6  -5   42.90    5.30
  -5  -6  -5   39.70   11.90
  -5  -6  -5   47.00    9.40
   5   6   5   53.69    5.10
   5   6   5   38.60    5.30
  -6  -6  -5  522.35   32.70
  -6  -6  -5  563.74   32.80
  -6  -6  -5  515.65   39.10
  -6  -6  -5  507.05   35.70
   6   6   5  525.55   33.10
   6   6   5  523.15   32.40
  -7  -6  -5  120.99   15.00
  -7  -6  -5  142.29   10.80
  -7  -6  -5  147.59   14.80
  -7  -6  -5  110.29   10.70
  -8  -6  -5  410.96   28.50
  -8  -6  -5  356.56   25.20
  -8  -6  -5  393.16   25.50
  -4   7   5   68.29    7.50
  -4   7   5   83.79    7.30
  -4   7   5   58.49   10.10
  -4   7   5   72.09   11.40
   3  -7  -5    7.40    4.10
  -3   7   5   18.00    5.00
  -3   7   5    8.60    8.30
  -3   7   5   10.30    9.10
  -3   7   5    9.70    4.60
   2  -7  -5   27.10    6.70
   2  -7  -5   25.90    4.60
   2  -7  -5   21.80    8.80
  -2   7   5   23.60    5.00
  -2   7   5   29.50    4.80
  -2   7   5   15.30    8.60
  -2   7   5   33.70    8.70
   1  -7  -5   -1.20    5.60
   1  -7  -5   -1.30    3.50
   1  -7  -5   -5.00    8.10
  -1   7   5    4.00    5.60
  -1   7   5   -1.00    7.20
  -1   7   5    7.00    3.80
  -1   7   5    8.00    3.80
  -1   7   5    1.90    6.10
   0  -7  -5   76.19    6.80
   0  -7  -5   55.29   12.20
   0  -7  -5   67.09   10.00
   0  -7  -5   77.19    6.90
   0   7   5   89.69   12.40
   0   7   5   82.69    7.00
   0   7   5   82.99    7.00
   0   7   5   74.29    6.70
   0   7   5   69.09   10.40
   0   7   5   70.49    8.40
  -1  -7  -5   54.89   11.80
  -1  -7  -5   65.09    9.80
  -1  -7  -5   72.19    5.80
  -1  -7  -5   72.39    6.30
   1   7   5   96.59   13.20
   1   7   5   59.49    6.20
   1   7   5   73.09   10.60
   1   7   5   66.99    5.80
   1   7   5   73.49    6.20
   1   7   5   57.79    8.60
  -2  -7  -5   39.90    4.30
  -2  -7  -5   25.80   11.00
  -2  -7  -5   32.30    8.80
  -2  -7  -5   41.60    4.50
   2   7   5   37.20    4.30
   2   7   5   35.50    3.90
   2   7   5   33.90    4.60
   2   7   5   30.80    9.50
  -3  -7  -5  120.09    9.80
  -3  -7  -5  133.89    9.10
  -3  -7  -5  113.29   18.50
  -3  -7  -5  130.09   15.70
   3   7   5  107.19   13.60
   3   7   5  132.49    9.40
   3   7   5  125.79    9.60
   3   7   5  140.79    9.60
  -4  -7  -5   13.70    9.00
  -4  -7  -5    7.10    4.20
  -4  -7  -5    5.80    3.80
  -4  -7  -5   11.20   11.70
   4   7   5    8.50    3.90
   4   7   5    0.90    3.90
   4   7   5    8.90    3.40
   4   7   5   -1.00    6.80
  -5  -7  -5   -2.60   11.10
  -5  -7  -5   -1.00    4.20
  -5  -7  -5   -6.50    8.40
  -5  -7  -5    9.20    4.60
   5   7   5    7.20    4.10
   5   7   5   -0.80    4.30
  -6  -7  -5   -0.90    8.80
  -6  -7  -5    1.20    3.70
  -6  -7  -5    3.40    4.50
   6   7   5   -4.40    3.90
   6   7   5   -2.40    4.40
  -7  -7  -5    4.50    5.30
  -7  -7  -5    0.70    3.80
  -7  -7  -5    1.60    7.50
  -7  -7  -5   -3.90    9.80
   7   7   5    8.30    4.60
  -3   8   5  293.97   18.20
  -3   8   5  267.37   18.30
  -3   8   5  231.88   22.60
  -3   8   5  266.77   22.90
   2  -8  -5  254.77   21.00
   2  -8  -5  230.48   16.00
  -2   8   5  239.08   16.50
  -2   8   5  265.57   16.30
  -2   8   5  220.38   21.00
  -2   8   5  207.68   20.10
   1  -8  -5   78.49   14.00
   1  -8  -5   93.89    8.50
   1  -8  -5   89.79   11.10
  -1   8   5   89.19    8.20
  -1   8   5  123.19   13.00
  -1   8   5  101.59    7.80
  -1   8   5   96.49   12.50
  -1   8   5   92.79   11.40
   0  -8  -5  673.53   50.49
   0  -8  -5  733.73   45.60
   0  -8  -5  692.33   48.00
   0   8   5  805.52   45.90
   0   8   5  775.62   45.80
   0   8   5  798.72   45.70
   0   8   5  718.03   47.30
   0   8   5  799.32   48.90
  -1  -8  -5   10.00    4.10
  -1  -8  -5    1.80   10.00
  -1  -8  -5    3.70    7.80
  -1  -8  -5    9.70    3.90
   1   8   5    9.90    4.20
   1   8   5   13.10    4.40
   1   8   5   13.80    7.00
   1   8   5   11.40    3.90
  -2  -8  -5  590.54   36.60
  -2  -8  -5  577.84   43.90
  -2  -8  -5  617.54   36.50
  -2  -8  -5  572.74   40.60
   2   8   5  615.84   36.60
   2   8   5  573.84   41.00
   2   8   5  586.24   36.60
   2   8   5  611.44   36.30
  -3  -8  -5   95.89   13.40
  -3  -8  -5   94.49   17.00
  -3  -8  -5  108.69    8.50
  -3  -8  -5   86.29    8.10
   3   8   5   96.49    8.20
   3   8   5   66.89   13.00
   3   8   5   96.59    8.70
   3   8   5  108.29    8.20
  -4  -8  -5  290.97   26.40
  -4  -8  -5  274.07   18.80
  -4  -8  -5  299.97   23.10
  -4  -8  -5  284.97   18.30
   4   8   5  238.28   24.90
   4   8   5  280.97   18.70
   4   8   5  314.17   18.50
  -5  -8  -5  281.57   19.70
  -5  -8  -5  301.17   19.70
  -5  -8  -5  330.77   24.00
   5   8   5  305.17   20.10
   5   8   5  255.67   24.10
   5   8   5  311.67   19.70
  -6  -8  -5    7.00    5.40
  -6  -8  -5    6.70    5.00
  -6  -8  -5   12.50   10.30
   6   8   5    4.10    5.20
   6   8   5    2.50    3.70
  -7  -8  -5  185.08   14.40
  -7  -8  -5  195.68   16.80
  -7  -8  -5  166.48   20.00
  -7  -8  -5  186.98   14.20
   7   8   5  174.08   13.60
  -3   9   5  781.02   48.00
  -3   9   5  891.21   48.10
  -3   9   5  713.33   51.09
  -3   9   5  735.53   50.99
  -2   9   5  129.89   11.30
  -2   9   5  145.19   11.20
  -2   9   5  107.19   13.70
  -2   9   5  135.79   14.90
   1  -9  -5 1428.96   90.19
  -1   9   5 1402.16   92.39
  -1   9   5 1494.75   93.79
  -1   9   5 1623.24   90.89
  -1   9   5 1606.04   90.39
  -1   9   5 1464.55   90.49
   0  -9  -5    8.00   10.80
   0  -9  -5   12.40    4.70
   0  -9  -5   12.60    8.10
   0   9   5   10.40    9.60
   0   9   5   15.60    4.80
   0   9   5   24.10    5.60
   0   9   5   11.10    7.40
   0   9   5   20.30    4.70
  -1  -9  -5 1060.59   69.09
  -1  -9  -5 1015.40   65.89
  -1  -9  -5 1036.00   72.29
   1   9   5 1005.50   65.89
   1   9   5 1190.08   66.19
   1   9   5 1221.08   70.49
   1   9   5 1120.69   65.99
  -2  -9  -5  456.55   42.30
  -2  -9  -5  512.75   30.90
  -2  -9  -5  481.55   35.60
   2   9   5  506.35   36.40
   2   9   5  463.65   30.90
   2   9   5  521.25   31.00
   2   9   5  499.65   30.50
  -3  -9  -5  465.25   30.50
  -3  -9  -5  529.15   34.80
  -3  -9  -5  528.05   30.40
   3   9   5  505.15   30.30
   3   9   5  422.36   34.30
   3   9   5  508.05   30.60
   3   9   5  442.96   30.50
  -4  -9  -5 1131.59   70.69
  -4  -9  -5 1113.99   65.79
  -4  -9  -5 1099.79   65.89
   4   9   5 1169.78   66.09
   4   9   5 1052.69   65.89
   4   9   5  950.60   70.39
  -5  -9  -5   86.49    8.30
  -5  -9  -5  100.99   14.90
  -5  -9  -5   87.29    8.10
   5   9   5   81.59    8.20
   5   9   5   63.09   14.60
   5   9   5   84.79    9.00
  -6  -9  -5  802.82   49.50
  -6  -9  -5  818.02   54.59
  -6  -9  -5  880.41   49.70
   6   9   5  733.23   49.40
  -7  -9  -5   -0.50    7.10
  -7  -9  -5   -7.30    6.00
  -7  -9  -5    0.50   10.60
  -7  -9  -5    2.60    5.80
   7   9   5    0.50    5.50
  -2  10   5  178.78   12.90
  -2  10   5  151.48   19.90
  -2  10   5  134.19   17.00
  -2  10   5  162.78   14.20
  -2  10   5  142.09   13.00
   1 -10  -5   55.39   10.50
   1 -10  -5   78.89    8.20
  -1  10   5   67.69   13.20
  -1  10   5   64.39   10.70
  -1  10   5   81.79    8.70
  -1  10   5   75.99    8.00
  -1  10   5   82.89    7.80
   0 -10  -5  229.68   15.90
   0 -10  -5  191.98   20.20
   0  10   5  243.88   16.50
   0  10   5  254.37   16.10
   0  10   5  246.08   23.00
   0  10   5  229.28   16.20
   0  10   5  199.68   18.90
  -1 -10  -5  405.86   25.40
  -1 -10  -5  361.16   29.80
   1  10   5  391.96   25.30
   1  10   5  420.56   25.50
   1  10   5  404.36   31.30
   1  10   5  372.96   25.50
  -2 -10  -5  201.48   14.60
  -2 -10  -5  181.98   21.40
   2  10   5  179.28   13.90
   2  10   5  197.98   13.70
   2  10   5  212.68   22.50
   2  10   5  224.58   14.60
  -3 -10  -5  609.74   38.10
  -3 -10  -5  627.44   44.00
   3  10   5  574.34   43.80
   3  10   5  664.23   38.60
   3  10   5  593.64   38.10
  -4 -10  -5   33.70    5.70
  -4 -10  -5   27.70   13.10
   4  10   5   25.20    6.50
   4  10   5   18.30    4.60
   4  10   5   11.80   12.10
  -5 -10  -5  402.56   26.10
  -5 -10  -5  440.96   33.70
   5  10   5  343.67   32.80
   5  10   5  415.26   26.00
  -6 -10  -5   35.40   13.50
  -6 -10  -5   31.20    6.50
   6  10   5   27.10    6.40
   0 -11  -5   43.50   11.70
   0  11   5   79.49   13.10
   0  11   5   95.89    8.10
   0  11   5   79.89   14.50
   0  11   5   81.29    9.20
   0  11   5   77.79    8.30
  -1 -11  -5   19.80   11.40
  -1 -11  -5   35.80    6.30
   1  11   5   40.00    6.50
   1  11   5   37.90    5.30
   1  11   5   33.20    6.70
   1  11   5   42.10   13.00
  -2 -11  -5  109.49    9.50
  -2 -11  -5   89.89   15.40
   2  11   5  100.29    9.70
   2  11   5  106.99    9.30
   2  11   5  119.79   11.20
   2  11   5  107.09   16.20
  -3 -11  -5   19.80    5.80
  -3 -11  -5   -5.80   12.50
   3  11   5    9.10   12.20
   3  11   5    9.40    5.80
  -4 -11  -5  316.17   30.20
  -4 -11  -5  322.67   21.20
   4  11   5  295.07   26.30
   4  11   5  311.57   21.30
  -5 -11  -5   44.60    6.80
  -5 -11  -5   23.40   14.50
   5  11   5   39.40    5.80
   5  11   5   23.00   10.80
   2   9  -6  167.58   14.00
   2   9  -6  195.18   14.10
   2   9  -6  212.28   17.90
   1   9  -6  207.68   16.20
   1   9  -6  188.28   14.60
   0   9  -6  409.56   25.60
   0   9  -6  369.56   25.10
   0   9  -6  463.35   28.80
   0   9  -6  390.96   33.40
   4   8  -6   30.10    9.00
   4   8  -6   24.00    6.20
   4   8  -6   31.90    6.50
   3   8  -6   77.09    7.80
   3   8  -6   81.89   10.50
   3   8  -6   67.69    7.60
   2   8  -6   16.90    5.00
   2   8  -6   29.90    8.20
   2   8  -6   22.60    5.20
   1   8  -6  194.38   13.70
   1   8  -6  177.28   13.70
   1   8  -6  213.28   15.60
   1   8  -6  206.58   17.80
   0   8  -6    2.10    4.00
   0   8  -6    4.20    3.30
   0   8  -6    6.40    7.20
   0   8  -6    0.80    8.60
  -1   8  -6  151.68   16.00
  -1   8  -6  125.89   10.20
  -1   8  -6  127.69    9.40
  -1   8  -6  148.69   14.60
  -2   8  -6   50.09   10.70
  -2   8  -6   29.00    4.30
  -2   8  -6   39.70    9.30
   5   7  -6   -2.40    4.40
   5   7  -6    6.80    9.00
   5   7  -6   -7.30    5.70
  -5  -7   6   -3.80    5.20
   4   7  -6   38.10    8.80
   4   7  -6   42.40    6.60
   4   7  -6   37.20    6.40
   3   7  -6    3.10    4.80
   3   7  -6   19.40    7.60
   3   7  -6    1.40    4.70
   2   7  -6   12.60    4.40
   2   7  -6   19.10    7.20
   2   7  -6    8.50    4.40
   1   7  -6    3.00    5.00
   1   7  -6    8.80    4.10
   1   7  -6    5.80    7.10
   1   7  -6    7.10    3.40
   0   7  -6    9.90    6.60
   0   7  -6    4.50    5.00
   0   7  -6    3.20    3.40
   0   7  -6    8.00    3.10
  -1   7  -6    1.50    3.00
  -1   7  -6    2.30    6.80
  -1   7  -6    3.60    2.40
  -1   7  -6   -1.90    4.90
  -2   7  -6    6.90    7.40
  -2   7  -6    5.90    2.90
  -2   7  -6    8.80    8.00
  -3   7  -6    8.50    2.70
  -3   7  -6    6.20    6.20
  -3   7  -6   22.70    9.60
  -4   7  -6    2.60   10.00
   5   6  -6  373.36   26.30
   5   6  -6  396.56   25.20
   5   6  -6  400.16   25.30
  -5  -6   6  366.56   24.70
   4   6  -6    2.80    4.80
   4   6  -6    7.70    5.70
   4   6  -6   -0.90    4.60
  -4  -6   6   -0.50    4.40
   3   6  -6  417.46   26.20
   3   6  -6  430.66   27.90
   3   6  -6  396.36   26.10
  -3  -6   6  408.56   25.70
   2   6  -6   90.79    7.90
   2   6  -6   87.89    7.90
   2   6  -6  100.89   11.10
   2   6  -6  107.69    9.60
  -2  -6   6   88.39    7.40
   1   6  -6  477.85   30.50
   1   6  -6  467.55   28.70
   1   6  -6  454.05   28.70
   0   6  -6  284.67   17.70
   0   6  -6  283.97   20.30
   0   6  -6  272.57   17.50
   0   6  -6  275.27   19.90
  -1   6  -6  159.68   14.30
  -1   6  -6  172.08   13.80
  -1   6  -6  150.68   10.40
  -1   6  -6  145.99   10.00
  -2   6  -6  250.47   18.10
  -2   6  -6  253.47   19.30
  -2   6  -6  232.38   14.60
  -2   6  -6  218.88   14.60
  -2   6  -6  228.18   14.20
  -3   6  -6   25.00    2.80
  -3   6  -6   30.60    9.10
  -3   6  -6   25.30    8.10
  -3   6  -6   11.90    9.50
  -3   6  -6   28.70    2.70
  -4   6  -6  174.98   17.30
  -4   6  -6  206.48   19.20
  -4   6  -6  163.28   10.90
   6   5  -6  305.17   24.60
   6   5  -6  336.97   21.50
  -6  -5   6  300.87   21.10
   5   5  -6   16.60    4.30
   5   5  -6   12.80    6.40
   5   5  -6   13.90    5.60
  -5  -5   6   10.90    5.00
   4   5  -6  990.30   63.89
   4   5  -6 1025.40   62.69
   4   5  -6 1085.79   62.69
  -4  -5   6 1031.80   62.39
   3   5  -6  138.09   10.60
   3   5  -6  138.19   10.80
   3   5  -6  151.08   13.10
  -3  -5   6  134.49   10.00
   2   5  -6  859.91   53.69
   2   5  -6  911.51   54.89
   2   5  -6  914.61   53.79
   2   5  -6  855.61   54.89
  -2  -5   6  909.51   53.49
   1   5  -6  394.66   24.80
   1   5  -6  397.36   26.20
   1   5  -6  393.96   26.40
   1   5  -6  404.36   24.70
  -1  -5   6  412.76   24.60
   0   5  -6  336.87   22.20
   0   5  -6  313.17   20.30
   0   5  -6  317.87   20.20
   0   5  -6  317.97   20.10
   0   5  -6  311.87   21.40
   0  -5   6  374.36   20.90
  -1   5  -6  946.81   56.99
  -1   5  -6  979.50   57.09
  -1   5  -6  916.31   57.09
  -1   5  -6  962.10   58.39
  -1   5  -6  972.60   59.39
  -2   5  -6   22.30    5.10
  -2   5  -6   23.40    7.40
  -2   5  -6   22.60    2.60
  -2   5  -6   21.60    2.60
  -2   5  -6   23.00    4.50
  -2   5  -6   26.50    2.20
  -3   5  -6 1208.58   78.99
  -3   5  -6 1293.67   77.59
  -3   5  -6 1358.76   75.89
  -3   5  -6 1303.17   76.39
  -3   5  -6 1210.48   74.09
  -3   5  -6 1127.89   74.09
  -4   5  -6   93.69   10.00
  -4   5  -6   66.89    5.10
  -4   5  -6   81.49   11.60
  -4   5  -6   78.29    5.00
  -4   5  -6   70.89   10.20
  -5   5  -6  435.16   27.50
  -5   5  -6  542.55   34.20
  -5   5  -6  460.85   32.40
  -5   5  -6  437.16   27.40
   6   4  -6    1.30    8.80
   6   4  -6    3.90    5.70
  -6  -4   6    3.30    5.10
   5   4  -6 1027.40   57.29
   5   4  -6  941.41   57.29
   5   4  -6  876.51   58.49
  -5  -4   6  926.31   57.29
   4   4  -6  185.18   15.10
   4   4  -6  206.48   14.30
   4   4  -6  218.48   14.20
  -4  -4   6  195.98   13.30
   3   4  -6  854.21   53.09
   3   4  -6  868.01   51.99
   3   4  -6  887.91   51.99
  -3  -4   6  822.42   51.69
   2   4  -6 1446.66   85.29
   2   4  -6 1459.35   85.29
   2   4  -6 1358.46   85.99
  -2  -4   6 1434.86   85.09
   1   4  -6  173.78   11.10
   1   4  -6  181.98   11.90
   1   4  -6  178.28   11.40
   1   4  -6  167.48   11.80
   1   4  -6  177.98   13.40
   1   4  -6  173.68   11.50
   1   4  -6  166.68   13.00
  -1  -4   6  179.78   11.30
  -1  -4   6  195.28   12.40
  -1  -4   6  177.58   11.50
   0   4  -6 3284.27  202.38
   0   4  -6 3161.18  202.28
   0   4  -6 3499.45  201.98
   0   4  -6 3347.47  202.48
   0   4  -6 3663.53  202.08
   0   4  -6 3238.28  201.48
   0   4  -6 3363.86  204.48
   0  -4   6 3584.04  202.28
  -1   4  -6  200.58   12.70
  -1   4  -6  211.88   12.70
  -1   4  -6  197.78   12.60
  -1   4  -6  207.98   13.50
  -1   4  -6  195.58   14.90
  -1   4  -6  196.78   12.80
  -1   4  -6  184.38   14.00
   1  -4   6  231.38   12.50
  -2   4  -6 1417.16   89.49
  -2   4  -6 1454.65   86.29
  -2   4  -6 1394.76   84.99
  -2   4  -6 1396.16   85.09
  -2   4  -6 1483.45   85.99
  -2   4  -6 1433.96   87.19
  -3   4  -6  639.64   42.30
  -3   4  -6  585.94   37.30
  -3   4  -6  662.43   39.10
  -3   4  -6  642.54   40.70
  -3   4  -6  640.24   39.20
  -3   4  -6  607.84   37.30
  -4   4  -6  288.17   22.50
  -4   4  -6  306.77   20.00
  -4   4  -6  297.67   20.00
  -4   4  -6  277.57   16.80
  -4   4  -6  242.68   16.80
  -4   4  -6  323.77   22.50
  -4   4  -6  294.27   20.10
  -5   4  -6  786.62   51.39
  -5   4  -6  934.51   56.29
  -5   4  -6  845.42   51.49
  -5   4  -6  923.01   54.39
  -6   4  -6   10.50    2.70
  -6   4  -6    5.70    7.10
  -6   4  -6    8.40    7.80
   6   3  -6   61.89    9.00
   6   3  -6   60.09    7.40
  -6  -3   6   41.10    6.80
  -6  -3   6   86.99   11.80
   5   3  -6   65.19    6.60
   5   3  -6   60.59    9.60
   5   3  -6   60.09    6.30
  -5  -3   6   74.99    9.20
  -5  -3   6   55.79    6.40
   4   3  -6  120.69    9.90
   4   3  -6  123.89    9.60
   4   3  -6  106.89   11.30
  -4  -3   6  147.99   12.50
  -4  -3   6  105.29    9.30
   3   3  -6  391.26   28.00
   3   3  -6  439.86   27.30
   3   3  -6  440.66   27.30
  -3  -3   6  504.25   28.50
  -3  -3   6  422.26   27.00
  -3  -3   6  441.36   27.00
   2   3  -6   15.90    3.40
   2   3  -6   23.70    3.50
   2   3  -6   14.80    5.00
   2   3  -6   19.40    3.20
   2   3  -6   16.90    2.50
  -2  -3   6   18.50    3.20
  -2  -3   6   20.60    3.20
  -2  -3   6   27.70    4.20
   1   3  -6  455.65   25.00
   1   3  -6  380.86   25.70
   1   3  -6  368.96   24.60
   1   3  -6  395.96   24.80
   1   3  -6  402.56   24.60
   1   3  -6  367.66   24.70
   1   3  -6  420.76   25.30
  -1  -3   6  433.46   24.90
  -1  -3   6  399.06   24.60
   0   3  -6    4.80    2.10
   0   3  -6    1.60    1.90
   0   3  -6    2.10    2.70
   0   3  -6    2.60    3.00
   0   3  -6    4.70    2.90
   0   3  -6    5.00    1.60
   0   3  -6    3.40    1.70
   0  -3   6    5.00    1.40
   0  -3   6    3.30    1.70
  -1   3  -6  194.08   12.10
  -1   3  -6  180.68   16.30
  -1   3  -6  191.48   13.90
  -1   3  -6  186.78   12.10
  -1   3  -6  202.08   12.10
  -1   3  -6  193.08   12.10
  -1   3  -6  188.28   13.70
   1  -3   6  224.68   12.10
  -2   3  -6  147.79   12.30
  -2   3  -6  157.18    9.60
  -2   3  -6  155.98   11.30
  -2   3  -6  167.38   12.00
  -2   3  -6  156.08   15.30
  -2   3  -6  161.58    9.60
  -3   3  -6  111.99   11.50
  -3   3  -6  115.79    9.80
  -3   3  -6  103.19   10.30
  -3   3  -6  122.49   14.40
  -4   3  -6  415.06   28.30
  -4   3  -6  393.76   26.60
  -4   3  -6  409.06   28.80
  -4   3  -6  401.66   26.60
  -5   3  -6   -1.20    1.70
  -5   3  -6    1.80    5.30
  -5   3  -6   -0.80    1.20
  -5   3  -6   -2.10    6.00
  -5   3  -6   -2.50    7.60
  -6   3  -6  115.89    8.20
  -6   3  -6  134.79   14.40
  -6   3  -6  129.69   16.00
   6   2  -6   30.50    8.90
  -6  -2   6   12.20    9.60
  -6  -2   6   10.90    5.20
   5   2  -6   17.20    4.40
   5   2  -6    7.40    7.50
   5   2  -6    8.90    5.60
  -5  -2   6    9.30    8.30
  -5  -2   6   12.70    4.40
   4   2  -6   13.80    3.40
   4   2  -6    3.60    6.00
   4   2  -6   13.30    3.10
  -4  -2   6   15.50    2.90
  -4  -2   6    5.10    3.70
  -4  -2   6   10.30    7.00
   3   2  -6   15.60    3.40
   3   2  -6   10.40    2.90
   3   2  -6    9.20    4.00
  -3  -2   6    9.60    2.30
  -3  -2   6    3.80    5.50
  -3  -2   6    9.80    3.30
   2   2  -6    5.70    3.20
   2   2  -6    1.00    2.60
   2   2  -6    0.00    2.30
   2   2  -6    0.40    2.70
  -2  -2   6    7.00    4.30
  -2  -2   6   -1.00    2.00
  -2  -2   6    2.70    1.90
  -2  -2   6    1.40    2.50
   1   2  -6   23.50    2.90
   1   2  -6   23.90    2.70
   1   2  -6   30.90    3.80
   1   2  -6   20.80    2.80
   1   2  -6   23.00    4.10
   1   2  -6   21.70    3.00
  -1  -2   6   26.80    2.50
  -1  -2   6   21.80    2.70
   0   2  -6   22.60    3.60
   0   2  -6    9.40    3.20
   0   2  -6    8.50    2.40
   0   2  -6   10.10    1.80
   0   2  -6   13.10    2.10
   0   2  -6   10.10    2.00
   0   2  -6   10.90    1.90
   0   2  -6    7.20    6.20
   0  -2   6    9.10    1.70
   0  -2   6    9.20    1.60
  -1   2  -6   64.09    4.80
  -1   2  -6   67.39    6.40
  -1   2  -6   66.49    6.30
  -1   2  -6   67.39   10.60
  -1   2  -6   71.39    4.70
  -1   2  -6   70.29    4.80
  -1   2  -6   76.49    4.60
  -2   2  -6   -0.20    3.20
  -2   2  -6   -1.00    5.90
  -2   2  -6    2.60    3.50
  -2   2  -6    1.20    0.90
  -3   2  -6   14.60    4.60
  -3   2  -6   14.30    5.30
  -3   2  -6   26.30    7.20
  -3   2  -6   13.20    4.40
  -3   2  -6   21.70    5.20
  -4   2  -6   -2.30    3.70
  -4   2  -6   -0.10    0.80
  -4   2  -6    1.80    5.90
  -4   2  -6   -4.80    4.20
  -4   2  -6    0.60    0.80
  -5   2  -6   24.00    2.20
  -5   2  -6   22.30    2.20
  -5   2  -6   27.70    7.90
  -5   2  -6   18.10    6.70
  -5   2  -6   21.90    5.80
  -6   2  -6   36.60    3.10
  -6   2  -6   27.40    3.00
  -6   2  -6   36.60    6.80
  -7   2  -6    1.60    8.60
  -7   2  -6    6.10    2.50
  -7   2  -6   -5.80    8.60
   6   1  -6   45.40    6.20
   6   1  -6   50.59    7.70
  -6  -1   6   48.00    6.30
  -6  -1   6   45.80   10.20
   5   1  -6  918.71   60.19
  -5  -1   6  925.61   59.19
  -5  -1   6 1082.39   59.19
  -5  -1   6  989.90   61.49
   4   1  -6  109.49    7.40
   4   1  -6   85.29    9.30
   4   1  -6   95.39   10.80
  -4  -1   6   98.39    7.20
  -4  -1   6   89.29   10.40
  -4  -1   6   90.29    7.90
   3   1  -6 1183.78   69.49
   3   1  -6 1072.49   70.09
   3   1  -6 1224.38   72.29
   3   1  -6 1191.88   69.49
  -3  -1   6 1127.19   69.49
  -3  -1   6 1047.10   71.09
  -3  -1   6 1261.57   69.49
   2   1  -6  619.74   40.20
   2   1  -6  619.64   37.30
   2   1  -6  569.34   37.90
   2   1  -6  592.14   37.20
  -2  -1   6  642.14   36.80
  -2  -1   6  661.33   37.00
  -2  -1   6  627.84   37.10
  -2  -1   6  604.54   38.60
  -2  -1   6  588.04   37.20
   1   1  -6  896.01   57.39
   1   1  -6  976.90   56.99
   1   1  -6  975.00   56.99
   1   1  -6  933.51   59.79
   1   1  -6  891.71   56.89
  -1  -1   6 1027.70   58.19
  -1  -1   6  964.10   56.89
   0   1  -6  995.90   55.99
   0   1  -6  919.01   55.99
   0   1  -6  874.61   56.39
   0   1  -6  931.41   56.09
   0   1  -6  916.31   55.99
   0   1  -6  914.71   55.99
   0   1  -6  924.31   59.09
   0  -1   6 1015.10   55.89
   0  -1   6  949.90   55.99
  -1   1  -6  293.87   19.10
  -1   1  -6  310.57   18.40
  -1   1  -6  318.77   18.30
  -1   1  -6  298.87   18.40
  -1   1  -6  295.17   18.90
  -1   1  -6  305.37   21.70
  -2   1  -6 1180.78   72.49
  -2   1  -6 1194.68   70.89
  -2   1  -6 1125.19   69.29
  -2   1  -6 1180.28   69.39
  -2   1  -6 1163.58   69.19
  -2   1  -6 1169.58   69.79
  -2   1  -6 1129.79   69.49
  -3   1  -6   22.40    3.80
  -3   1  -6   16.40    7.10
  -3   1  -6   11.50    1.20
  -3   1  -6   12.10    1.20
  -3   1  -6    9.80    4.40
  -4   1  -6  669.03   43.00
  -4   1  -6  710.93   40.80
  -4   1  -6  704.13   44.60
  -4   1  -6  641.74   40.80
  -4   1  -6  702.23   42.70
  -5   1  -6  152.08   12.40
  -5   1  -6  156.58    9.10
  -5   1  -6  135.79    8.70
  -5   1  -6  150.38   14.80
  -5   1  -6  144.09    9.20
  -5   1  -6  140.19   13.60
  -6   1  -6  226.48   14.00
  -6   1  -6  218.18   14.10
  -6   1  -6  237.98   18.80
  -7   1  -6  215.18   19.10
  -7   1  -6  197.28   13.00
   6   0  -6  762.32   46.30
  -6   0   6  753.22   46.10
  -6   0   6  744.43   49.30
   5   0  -6  226.18   16.50
  -5   0   6  263.97   17.70
  -5   0   6  218.68   18.50
  -5   0   6  249.68   16.30
  -5   0   6  251.37   16.20
   4   0  -6 1215.28   72.19
   4   0  -6 1152.98   70.69
   4   0  -6 1225.48   70.99
   4   0  -6 1176.18   70.49
   4   0  -6 1069.49   71.39
  -4   0   6 1143.89   70.49
  -4   0   6 1122.29   72.49
  -4   0   6 1190.98   70.49
  -4   0   6 1249.68   71.19
   3   0  -6  728.53   43.90
   3   0  -6  723.33   45.80
   3   0  -6  673.33   44.40
  -3   0   6  757.02   43.60
  -3   0   6  731.93   43.70
  -3   0   6  789.02   44.00
  -3   0   6  637.24   45.50
   2   0  -6 1231.08   72.69
   2   0  -6 1172.28   73.09
   2   0  -6 1214.28   72.79
   2   0  -6 1202.58   74.79
  -2   0   6 1083.29   74.09
  -2   0   6 1257.17   72.59
  -2   0   6 1199.78   72.59
  -2   0   6 1350.26   73.89
   1   0  -6 2869.01  191.58
   1   0  -6 3239.28  190.58
   1   0  -6 3171.98  190.78
   1   0  -6 3201.48  194.88
   1   0  -6 3528.75  190.28
  -1   0   6 3178.08  191.48
  -1   0   6 3263.07  190.68
  -1   0   6 3146.99  190.88
   0   0  -6   13.20    2.20
   0   0  -6   10.80    2.00
   0   0  -6   12.00    2.40
   0   0  -6   14.60    2.20
   0   0  -6   16.70    4.00
   0   0  -6   13.60    5.40
   0   0  -6   12.90    2.10
   0   0   6   17.80    2.60
   0   0   6   15.30    2.00
   0   0   6   15.10    1.80
  -1   0  -6 4331.87  271.67
  -1   0  -6 4356.96  263.67
  -1   0  -6 4281.87  263.67
  -1   0  -6 4541.55  263.77
  -1   0  -6 4411.66  268.07
  -1   0  -6 3953.40  263.47
  -1   0  -6 5119.69  266.87
  -1   0  -6 4134.69  263.27
   1   0   6 4395.26  263.47
   1   0   6 4700.03  263.47
  -2   0  -6  468.65   28.00
  -2   0  -6  464.85   28.50
  -2   0  -6  461.45   28.10
  -2   0  -6  446.56   29.80
  -2   0  -6  473.85   31.60
  -2   0  -6  470.25   28.10
  -2   0  -6  471.45   28.10
   2   0   6  493.85   31.10
  -3   0  -6 2175.88  127.39
  -3   0  -6 2073.79  127.39
  -3   0  -6 1931.71  126.89
  -3   0  -6 2198.28  128.39
  -3   0  -6 2193.88  127.59
  -3   0  -6 2180.68  130.09
   3   0   6 2164.18  126.89
   3   0   6 2185.58  129.49
  -4   0  -6  771.72   49.20
  -4   0  -6  758.52   47.50
  -4   0  -6  826.72   47.40
  -4   0  -6  784.12   50.89
  -4   0  -6  733.63   47.60
  -4   0  -6  872.31   47.50
   4   0   6  831.92   50.39
  -5   0  -6  421.56   28.20
  -5   0  -6  413.36   25.00
  -5   0  -6  423.36   27.20
  -5   0  -6  420.16   29.20
  -5   0  -6  421.46   25.10
  -5   0  -6  399.96   25.20
  -6   0  -6  884.61   54.79
  -6   0  -6  904.11   53.29
  -6   0  -6  913.61   55.89
  -6   0  -6  862.91   53.09
  -7   0  -6    3.00    2.10
  -7   0  -6    2.90    2.80
  -7   0  -6    8.60    8.50
   6  -1  -6  103.69    9.20
  -6   1   6   99.69    8.50
  -6   1   6  112.69   12.60
  -6   1   6   83.09   12.80
  -6   1   6   90.69    8.50
   5  -1  -6  298.87   20.30
  -5   1   6  337.27   19.80
  -5   1   6  306.27   22.80
  -5   1   6  305.97   20.20
   4  -1  -6 1038.60   65.49
   4  -1  -6 1149.19   65.69
   4  -1  -6 1087.69   65.39
  -4   1   6 1127.69   65.29
  -4   1   6 1069.39   65.49
  -4   1   6 1003.70   67.59
  -4   1   6 1124.99   66.29
   3  -1  -6    4.20    3.20
   3  -1  -6    7.10    3.40
   3  -1  -6    5.70    3.00
   3  -1  -6    7.00    4.70
   3  -1  -6    3.90    3.50
  -3   1   6    6.50    3.20
  -3   1   6    5.00    6.60
  -3   1   6    3.80    3.20
  -3   1   6    4.70    2.70
   2  -1  -6 2587.64  151.98
   2  -1  -6 2569.54  152.58
   2  -1  -6 2532.55  153.68
   2  -1  -6 2742.53  151.98
   2  -1  -6 2422.66  152.28
   2  -1  -6 2435.46  151.98
  -2   1   6 2598.94  151.88
  -2   1   6 2722.63  154.18
  -2   1   6 2269.17  153.28
  -2   1   6 2650.63  151.88
   1  -1  -6  232.08   15.80
   1  -1  -6  250.57   14.60
   1  -1  -6  240.18   14.80
   1  -1  -6  228.58   14.90
   1  -1  -6  244.18   17.40
   1  -1  -6  241.08   14.70
  -1   1   6  218.98   14.60
  -1   1   6  224.88   17.10
  -1   1   6  221.08   14.60
  -1   1   6  240.78   14.50
   0  -1  -6 2765.92  167.38
   0  -1  -6 2717.13  168.78
   0  -1  -6 3128.39  166.88
   0  -1  -6 2731.73  167.88
   0  -1  -6 2693.73  167.78
   0  -1  -6 2626.34  167.18
   0  -1  -6 2824.42  167.48
   0  -1  -6 2911.11  167.98
   0   1   6 2609.04  167.18
   0   1   6 2803.42  170.58
   0   1   6 2848.52  167.48
   0   1   6 2958.50  168.08
  -1  -1  -6 1245.08   66.19
  -1  -1  -6 1222.08   66.79
  -1  -1  -6 1062.79   68.79
  -1  -1  -6 1031.20   66.09
  -1  -1  -6 1053.99   66.09
  -1  -1  -6 1071.39   66.19
  -1  -1  -6 1050.89   67.29
  -1  -1  -6 1033.00   66.09
   1   1   6 1202.58   66.09
   1   1   6 1155.68   66.09
   1   1   6 1086.59   66.09
   1   1   6 1097.89   68.59
  -2  -1  -6 1047.20   67.69
  -2  -1  -6 1100.99   66.49
  -2  -1  -6 1219.48   66.59
  -2  -1  -6 1116.79   66.49
  -2  -1  -6 1045.70   66.49
  -2  -1  -6 1115.59   66.59
  -2  -1  -6 1070.19   69.19
   2   1   6 1157.38   66.39
   2   1   6 1153.58   69.29
   2   1   6 1142.49   66.49
  -3  -1  -6 2322.77  145.29
  -3  -1  -6 2273.97  145.49
  -3  -1  -6 2401.46  147.89
  -3  -1  -6 2443.26  146.39
  -3  -1  -6 2343.37  145.59
  -3  -1  -6 2788.72  145.79
   3   1   6 2530.85  147.79
  -4  -1  -6    7.80    5.80
  -4  -1  -6    2.70    1.80
  -4  -1  -6    1.80    1.80
  -4  -1  -6    3.90    1.90
  -4  -1  -6    3.80    1.70
  -4  -1  -6    5.90    4.30
   4   1   6    5.00    5.40
  -5  -1  -6 1475.85   92.39
  -5  -1  -6 1561.74   93.79
  -5  -1  -6 1617.54   92.29
  -5  -1  -6 1503.05   92.39
  -5  -1  -6 1520.65   95.49
   5   1   6 1626.64   95.09
  -6  -1  -6   49.40    4.50
  -6  -1  -6   48.60    6.90
  -6  -1  -6   46.30    9.00
  -6  -1  -6   54.99    4.80
  -6  -1  -6   51.59    7.80
   6   1   6   48.70    8.10
  -7  -1  -6  606.64   40.60
  -7  -1  -6  619.74   37.00
  -7  -1  -6  599.14   36.70
  -8  -1  -6   84.99   12.60
  -8  -1  -6   70.99    6.30
  -8  -1  -6   73.69    6.40
   6  -2  -6   16.90    4.60
  -6   2   6    9.10    5.00
  -6   2   6   28.10    8.20
  -6   2   6   15.50    7.00
  -6   2   6   13.70    4.70
   5  -2  -6   61.09    6.50
  -5   2   6   57.09    7.70
  -5   2   6   60.49    6.10
  -5   2   6   77.39   11.30
  -5   2   6   63.39    6.40
   4  -2  -6   39.80    4.90
   4  -2  -6   33.40    4.60
   4  -2  -6   35.80    4.30
  -4   2   6   34.90    4.50
  -4   2   6   35.30    5.80
  -4   2   6   29.90    8.70
  -4   2   6   27.60    4.70
   3  -2  -6  173.08   13.00
   3  -2  -6  209.68   13.00
   3  -2  -6  196.08   13.20
   3  -2  -6  195.88   14.50
  -3   2   6  180.58   12.70
  -3   2   6  186.18   12.90
  -3   2   6  213.38   17.10
  -3   2   6  205.58   14.20
   2  -2  -6   15.00    3.30
   2  -2  -6   17.00    3.20
   2  -2  -6   15.80    5.00
   2  -2  -6   18.80    3.00
   2  -2  -6   13.30    3.60
  -2   2   6   18.60    4.00
  -2   2   6   17.70    2.80
  -2   2   6   10.20    6.60
  -2   2   6   14.30    3.10
   1  -2  -6  345.97   23.60
   1  -2  -6  361.36   22.60
   1  -2  -6  352.56   25.10
   1  -2  -6  379.96   22.70
   1  -2  -6  343.77   22.70
  -1   2   6  380.76   24.90
  -1   2   6  349.47   23.40
  -1   2   6  409.46   25.40
  -1   2   6  441.66   23.30
  -1   2   6  363.96   22.60
  -1   2   6  356.36   22.50
   0  -2  -6  177.48   11.50
   0  -2  -6  168.08   11.40
   0  -2  -6  170.98   12.90
   0  -2  -6  180.08   11.40
   0  -2  -6  171.28   14.50
   0  -2  -6  199.18   11.40
   0  -2  -6  199.08   11.90
   0   2   6  188.78   14.40
   0   2   6  187.08   11.30
   0   2   6  218.08   13.90
   0   2   6  162.78   11.30
   0   2   6  165.28   12.20
   0   2   6  174.88   11.30
  -1  -2  -6  135.69   13.00
  -1  -2  -6  149.49    9.70
  -1  -2  -6  165.98    9.70
  -1  -2  -6  149.29    9.60
  -1  -2  -6  165.28   10.70
  -1  -2  -6  145.49   11.40
  -1  -2  -6  140.69    9.50
   1   2   6  150.48    9.10
   1   2   6  148.99    9.50
   1   2   6  152.68   10.60
   1   2   6  146.69   13.00
   1   2   6  146.59    9.50
  -2  -2  -6  439.76   24.20
  -2  -2  -6  360.26   26.80
  -2  -2  -6  405.36   24.20
  -2  -2  -6  395.06   24.20
  -2  -2  -6  404.66   24.20
  -2  -2  -6  349.87   25.30
   2   2   6  417.86   27.20
   2   2   6  399.86   24.00
   2   2   6  414.56   24.10
  -3  -2  -6  171.08   11.40
  -3  -2  -6  167.88   11.30
  -3  -2  -6  211.18   11.20
  -3  -2  -6  180.78   11.40
  -3  -2  -6  154.88   13.40
  -3  -2  -6  159.58   15.20
  -3  -2  -6  180.08   11.40
   3   2   6  193.58   11.10
   3   2   6  185.78   11.20
   3   2   6  168.28   15.20
  -4  -2  -6  743.93   43.30
  -4  -2  -6  691.63   44.80
  -4  -2  -6  741.43   43.30
  -4  -2  -6  675.13   46.50
  -4  -2  -6  743.33   43.30
  -4  -2  -6  663.43   43.20
   4   2   6  710.63   46.40
   4   2   6  788.72   43.20
  -5  -2  -6   12.40    5.80
  -5  -2  -6   14.20    2.90
  -5  -2  -6   15.60    3.00
  -5  -2  -6   20.50    2.90
  -5  -2  -6   15.60    7.90
   5   2   6   19.80    6.90
   5   2   6   21.30    2.40
  -6  -2  -6  544.75   35.90
  -6  -2  -6  565.94   38.10
  -6  -2  -6  569.94   34.40
  -6  -2  -6  568.04   36.70
   6   2   6  577.44   37.40
  -7  -2  -6  165.68   11.40
  -7  -2  -6  158.58   16.60
  -7  -2  -6  155.48   11.00
  -8  -2  -6  135.79   14.20
  -8  -2  -6  121.19    9.40
  -8  -2  -6  123.59   10.00
   6  -3  -6   62.99    6.80
  -6   3   6   70.09   10.50
  -6   3   6   73.19    6.90
  -6   3   6   54.49    6.70
  -6   3   6   63.89   12.50
   5  -3  -6   -0.70    4.20
  -5   3   6    9.20    4.50
  -5   3   6    5.60    7.00
  -5   3   6   13.60    6.40
  -5   3   6    3.60    4.00
   4  -3  -6   78.29    7.10
  -4   3   6   81.69    7.20
  -4   3   6   86.89    7.40
  -4   3   6   75.69    9.90
  -4   3   6   89.29    9.90
   3  -3  -6   14.70    5.10
   3  -3  -6   17.80    3.60
   3  -3  -6   19.40    3.90
   3  -3  -6   16.50    3.80
  -3   3   6   18.00    3.50
  -3   3   6   18.80    5.60
  -3   3   6    9.00    7.70
  -3   3   6   23.70    4.00
   2  -3  -6   30.10    5.90
   2  -3  -6   31.40    3.50
   2  -3  -6   31.10    4.50
   2  -3  -6   34.20    4.10
  -2   3   6   23.90    7.70
  -2   3   6   34.80    5.20
  -2   3   6   37.30    6.10
  -2   3   6   37.20    3.80
  -2   3   6   35.10    3.60
   1  -3  -6   51.79    4.60
   1  -3  -6   47.30    4.20
   1  -3  -6   55.29    5.20
   1  -3  -6   46.10    7.20
   1  -3  -6   52.99    4.40
   1  -3  -6   48.40    6.00
  -1   3   6   47.50    4.30
  -1   3   6   45.40    4.20
  -1   3   6   48.20    6.00
  -1   3   6   47.60    7.40
  -1   3   6   36.80    7.70
   0  -3  -6    3.00    4.80
   0  -3  -6    3.20    3.60
   0  -3  -6    2.50    1.80
   0  -3  -6    2.50    2.10
   0  -3  -6    2.50    2.40
   0  -3  -6    3.60    2.40
   0   3   6   -0.60    3.70
   0   3   6    3.50    2.00
   0   3   6    2.50    2.30
   0   3   6    3.80    4.80
   0   3   6    1.70    5.50
   0   3   6    4.10    1.90
  -1  -3  -6    5.80    2.20
  -1  -3  -6    7.90    2.30
  -1  -3  -6    6.40    4.00
  -1  -3  -6    4.60    5.20
  -1  -3  -6    5.20    2.00
  -1  -3  -6    4.80    3.00
  -1  -3  -6    6.90    2.10
   1   3   6    3.10    3.90
   1   3   6    2.20    5.20
   1   3   6    5.40    2.00
   1   3   6    3.90    1.80
  -2  -3  -6   -1.10    1.90
  -2  -3  -6    0.80    2.10
  -2  -3  -6    4.00    3.30
  -2  -3  -6    6.40    4.60
  -2  -3  -6   -0.80    1.80
  -2  -3  -6   -1.40    2.10
   2   3   6   -0.70    5.70
   2   3   6    2.60    1.80
   2   3   6    0.20    3.60
   2   3   6    1.90    1.90
  -3  -3  -6    0.30    5.80
  -3  -3  -6    1.90    0.80
  -3  -3  -6    1.10    2.10
  -3  -3  -6   -0.80    2.00
  -3  -3  -6    2.50    4.40
  -3  -3  -6   -0.60    2.40
  -3  -3  -6   -2.60    2.00
   3   3   6    3.10    1.80
   3   3   6   -2.60    5.80
   3   3   6    1.30    2.00
  -4  -3  -6   37.70    4.00
  -4  -3  -6   33.80    3.60
  -4  -3  -6   36.60    8.20
  -4  -3  -6   31.70    3.70
  -4  -3  -6   48.20    3.60
  -4  -3  -6   37.10    3.90
  -4  -3  -6   26.40    5.90
   4   3   6   39.70    3.30
   4   3   6   37.40    3.50
   4   3   6   38.30    8.40
  -5  -3  -6   11.30    3.00
  -5  -3  -6   12.60    5.40
  -5  -3  -6   12.90    7.40
  -5  -3  -6    7.50    3.10
  -5  -3  -6    6.00    2.80
   5   3   6    7.10    6.60
   5   3   6    6.80    2.30
  -6  -3  -6   33.80    9.70
  -6  -3  -6   41.00    4.50
  -6  -3  -6   38.00    4.60
  -6  -3  -6   40.00    7.60
   6   3   6   38.40    8.90
  -7  -3  -6    3.00    3.30
  -7  -3  -6    3.40    6.30
  -7  -3  -6   -5.70    5.80
  -7  -3  -6   -3.90    3.90
  -8  -3  -6   51.29    5.50
  -8  -3  -6   40.30    5.70
  -8  -3  -6   44.80   10.90
   5  -4  -6  303.77   21.50
  -5   4   6  323.57   21.70
  -5   4   6  375.26   24.50
  -5   4   6  339.97   21.20
  -5   4   6  322.37   26.50
   4  -4  -6  321.87   22.00
  -4   4   6  350.06   22.10
  -4   4   6  365.16   22.00
  -4   4   6  364.76   24.90
  -4   4   6  319.77   26.20
   3  -4  -6  371.46   24.50
   3  -4  -6  428.36   25.00
   3  -4  -6  419.26   26.40
   3  -4  -6  392.66   24.30
  -3   4   6  371.76   24.60
  -3   4   6  387.46   24.50
  -3   4   6  396.46   26.40
  -3   4   6  351.66   26.90
   2  -4  -6  781.02   46.90
   2  -4  -6  777.62   46.20
   2  -4  -6  759.02   48.20
   2  -4  -6  746.83   46.30
  -2   4   6  839.62   48.20
  -2   4   6  803.32   46.30
  -2   4   6  693.93   48.80
  -2   4   6  731.73   46.30
  -2   4   6  750.42   48.00
   1  -4  -6   37.10    3.50
   1  -4  -6   28.90    6.30
   1  -4  -6   27.80    4.80
   1  -4  -6   30.80    4.00
  -1   4   6   23.30    7.60
  -1   4   6   29.00    6.50
  -1   4   6   28.80    3.90
  -1   4   6   34.90    6.00
  -1   4   6   41.30    3.70
   0  -4  -6 1133.29   63.09
   0  -4  -6 1085.19   63.09
   0  -4  -6 1112.99   63.09
   0  -4  -6 1016.00   64.09
   0  -4  -6  976.40   65.49
   0   4   6 1062.79   63.09
   0   4   6 1064.59   62.99
   0   4   6 1021.20   65.19
   0   4   6 1006.70   64.79
   0   4   6 1049.09   65.89
  -1  -4  -6  241.58   15.00
  -1  -4  -6  225.28   18.70
  -1  -4  -6  243.38   14.90
  -1  -4  -6  252.07   15.00
  -1  -4  -6  229.78   16.80
   1   4   6  237.48   14.90
   1   4   6  258.47   19.50
   1   4   6  245.68   14.80
   1   4   6  196.08   17.00
  -2  -4  -6  651.03   43.50
  -2  -4  -6  710.03   42.00
  -2  -4  -6  732.73   42.00
  -2  -4  -6  648.64   45.40
  -2  -4  -6  690.93   42.00
   2   4   6  720.23   42.00
   2   4   6  676.33   44.00
   2   4   6  684.63   41.90
   2   4   6  760.12   46.70
  -3  -4  -6  510.05   36.90
  -3  -4  -6  546.85   32.90
  -3  -4  -6  499.05   34.70
  -3  -4  -6  595.64   33.00
  -3  -4  -6  519.85   32.90
  -3  -4  -6  517.45   33.00
   3   4   6  600.54   37.60
   3   4   6  553.64   32.90
  -4  -4  -6  410.66   25.10
  -4  -4  -6  396.96   25.10
  -4  -4  -6  438.86   24.60
  -4  -4  -6  459.45   25.20
  -4  -4  -6  359.86   29.40
  -4  -4  -6  358.06   27.20
  -4  -4  -6  384.36   25.20
   4   4   6  432.06   24.90
   4   4   6  397.96   25.00
   4   4   6  422.06   30.30
  -5  -4  -6  608.04   37.60
  -5  -4  -6  570.34   41.70
  -5  -4  -6  606.74   39.60
  -5  -4  -6  606.74   37.50
   5   4   6  631.44   37.40
   5   4   6  677.63   42.40
  -6  -4  -6   25.50    4.30
  -6  -4  -6   34.80    4.50
  -6  -4  -6   27.90    7.20
  -6  -4  -6   37.50    9.80
  -7  -4  -6  340.97   26.00
  -7  -4  -6  340.57   28.60
  -7  -4  -6  337.07   25.20
  -7  -4  -6  349.67   22.10
  -7  -4  -6  368.36   22.30
  -8  -4  -6    1.20    4.70
  -8  -4  -6    5.00    4.90
  -8  -4  -6    2.00    9.10
   5  -5  -6  244.68   18.30
  -5   5   6  270.27   24.20
  -5   5   6  303.47   18.70
  -5   5   6  296.97   23.10
  -5   5   6  276.17   18.70
   4  -5  -6  244.58   17.10
  -4   5   6  271.17   17.30
  -4   5   6  269.77   20.30
  -4   5   6  254.57   16.90
  -4   5   6  251.27   22.40
   3  -5  -6  724.03   45.50
  -3   5   6  799.42   47.70
  -3   5   6  727.23   45.40
  -3   5   6  711.43   47.90
  -3   5   6  772.82   45.50
   2  -5  -6    2.10    4.30
   2  -5  -6    5.10    3.20
   2  -5  -6    4.50    5.90
   2  -5  -6   -0.20    3.40
  -2   5   6    2.00    5.70
  -2   5   6    5.00    3.70
  -2   5   6    1.60    5.00
  -2   5   6    0.70    5.80
  -2   5   6    3.70    3.30
   1  -5  -6 1453.95   85.79
   1  -5  -6 1386.26   86.59
   1  -5  -6 1366.06   88.09
   1  -5  -6 1426.26   85.79
  -1   5   6 1497.95   85.69
  -1   5   6 1511.95   87.79
  -1   5   6 1475.85   88.29
  -1   5   6 1418.26   85.79
  -1   5   6 1362.36   87.99
   0  -5  -6   56.09    5.00
   0  -5  -6   50.59    5.00
   0  -5  -6   68.69   10.00
   0  -5  -6   61.59    6.90
   0   5   6   60.09    9.00
   0   5   6   48.30    7.90
   0   5   6   49.90    5.00
   0   5   6   51.09    4.90
   0   5   6   44.70    8.40
  -1  -5  -6 2145.39  123.29
  -1  -5  -6 1998.50  124.69
  -1  -5  -6 2066.39  123.39
  -1  -5  -6 1994.90  126.49
  -1  -5  -6 2107.19  123.29
   1   5   6 1799.72  125.19
   1   5   6 2409.66  127.79
   1   5   6 2088.49  123.29
   1   5   6 1985.50  123.29
   1   5   6 2107.39  123.29
  -2  -5  -6  732.43   45.40
  -2  -5  -6  798.72   45.40
  -2  -5  -6  769.12   45.50
  -2  -5  -6  740.53   47.10
  -2  -5  -6  733.03   49.00
   2   5   6  805.72   45.40
   2   5   6  781.22   45.00
   2   5   6  741.53   45.40
   2   5   6  669.13   47.90
  -3  -5  -6  536.05   35.60
  -3  -5  -6  561.54   37.80
  -3  -5  -6  559.34   35.70
  -3  -5  -6  561.54   40.10
  -3  -5  -6  580.14   35.60
   3   5   6  624.84   35.50
   3   5   6  580.04   35.60
   3   5   6  637.04   35.20
   3   5   6  539.15   38.60
   3   5   6  675.33   41.00
  -4  -5  -6 1064.59   70.99
  -4  -5  -6 1164.28   67.09
  -4  -5  -6 1093.79   68.89
  -4  -5  -6 1110.59   67.09
  -4  -5  -6 1086.99   67.09
   4   5   6 1033.20   66.89
   4   5   6 1282.07   72.99
  -5  -5  -6    3.20    6.60
  -5  -5  -6    1.20    8.50
  -5  -5  -6    8.70    3.60
  -5  -5  -6    3.60    3.70
   5   5   6    7.00    3.10
  -6  -5  -6  796.02   54.89
  -6  -5  -6  852.11   49.99
  -6  -5  -6  805.72   52.19
  -6  -5  -6  788.52   49.99
   6   5   6  866.81   49.70
  -7  -5  -6   91.59   11.80
  -7  -5  -6  105.69   15.90
  -7  -5  -6  100.59    9.10
  -7  -5  -6  111.39   12.70
  -7  -5  -6  100.09    9.10
  -8  -5  -6  428.36   27.90
  -8  -5  -6  462.85   31.80
  -8  -5  -6  424.96   28.10
   4  -6  -6  501.15   33.00
  -4   6   6  534.45   37.50
  -4   6   6  517.05   33.20
  -4   6   6  565.64   36.40
  -4   6   6  548.65   33.20
   3  -6  -6    8.00    4.20
  -3   6   6    3.70    8.90
  -3   6   6    9.30    4.40
  -3   6   6   12.80    4.30
  -3   6   6    5.80    6.70
   2  -6  -6 1753.52   98.19
   2  -6  -6 1455.75   95.49
   2  -6  -6 1831.42   96.69
  -2   6   6 1557.44   95.49
  -2   6   6 1556.94   95.59
  -2   6   6 1424.96   97.49
  -2   6   6 1573.14   97.79
   1  -6  -6  168.38   12.20
   1  -6  -6  180.78   16.00
   1  -6  -6  176.18   12.20
   1  -6  -6  181.28   14.00
  -1   6   6  172.48   16.00
  -1   6   6  143.19   16.30
  -1   6   6  173.08   12.40
  -1   6   6  180.88   12.10
  -1   6   6  190.78   15.60
   0  -6  -6  993.20   60.79
   0  -6  -6  999.60   59.09
   0  -6  -6  971.00   59.29
   0  -6  -6  967.00   62.69
   0   6   6 1117.99   63.19
   0   6   6  898.11   61.39
   0   6   6  984.50   61.89
   0   6   6  940.01   59.09
   0   6   6  981.70   59.29
  -1  -6  -6  731.13   49.50
  -1  -6  -6  712.63   45.30
  -1  -6  -6  781.22   45.40
  -1  -6  -6  746.43   47.00
   1   6   6  720.73   47.20
   1   6   6  710.33   45.40
   1   6   6  732.23   48.40
   1   6   6  746.73   45.30
   1   6   6  869.71   50.49
   1   6   6  754.22   45.10
  -2  -6  -6  270.77   17.70
  -2  -6  -6  279.97   19.80
  -2  -6  -6  285.57   17.60
  -2  -6  -6  265.57   17.50
  -2  -6  -6  271.17   22.00
   2   6   6  259.67   17.60
   2   6   6  336.17   24.30
   2   6   6  273.57   17.40
   2   6   6  289.97   17.10
   2   6   6  222.88   21.40
  -3  -6  -6 1341.17   80.29
  -3  -6  -6 1385.66   77.99
  -3  -6  -6 1351.16   82.99
  -3  -6  -6 1312.77   77.89
  -3  -6  -6 1286.57   77.99
   3   6   6 1109.09   80.79
   3   6   6 1308.17   77.79
   3   6   6 1305.77   77.89
  -4  -6  -6   33.90    7.10
  -4  -6  -6   39.40    4.70
  -4  -6  -6   37.40    9.40
  -4  -6  -6   38.70    4.90
   4   6   6   38.70    4.10
   4   6   6   19.40    7.30
   4   6   6   36.90    4.00
   4   6   6   34.50    4.40
  -5  -6  -6 1629.44  105.69
  -5  -6  -6 1642.24  102.99
  -5  -6  -6 1739.23  100.79
  -5  -6  -6 1733.03  100.69
   5   6   6 1621.64  100.59
   5   6   6 1723.93  100.59
  -6  -6  -6  129.79   15.00
  -6  -6  -6  140.99   19.40
  -6  -6  -6  139.29   10.60
  -6  -6  -6  122.89   10.60
   6   6   6  128.29    9.90
  -7  -6  -6  444.16   27.90
  -7  -6  -6  431.66   27.90
  -7  -6  -6  446.06   31.10
  -8  -6  -6  278.97   19.30
  -8  -6  -6  268.77   19.60
  -8  -6  -6  306.77   23.60
  -4   7   6    9.30   10.40
  -4   7   6    8.90    8.40
  -4   7   6    6.60    5.10
  -4   7   6   10.40    5.10
   3  -7  -6   72.49    7.10
  -3   7   6   77.19   10.60
  -3   7   6   86.79    7.60
  -3   7   6   83.29    7.40
  -3   7   6   69.19   11.10
   2  -7  -6   73.49    7.00
  -2   7   6   76.89    7.40
  -2   7   6   69.99   10.70
  -2   7   6   84.79    7.10
  -2   7   6   69.69    9.80
   1  -7  -6  140.69   13.80
   1  -7  -6  140.69   16.40
   1  -7  -6  122.49   10.50
  -1   7   6  151.58   14.30
  -1   7   6  142.39    9.80
  -1   7   6  140.49   15.50
  -1   7   6  139.99   10.10
  -1   7   6  118.99   13.10
   0  -7  -6  377.36   24.80
   0  -7  -6  414.06   30.50
   0  -7  -6  399.96   27.10
   0  -7  -6  406.26   24.70
   0   7   6  420.26   28.90
   0   7   6  445.66   29.40
   0   7   6  357.56   26.80
   0   7   6  378.76   24.70
   0   7   6  362.46   24.80
  -1  -7  -6  213.08   19.30
  -1  -7  -6  229.98   17.20
  -1  -7  -6  213.28   14.50
  -1  -7  -6  232.18   14.40
   1   7   6  221.28   14.50
   1   7   6  216.58   20.00
   1   7   6  217.58   14.70
   1   7   6  239.28   14.50
   1   7   6  210.28   16.90
  -2  -7  -6 1088.49   71.39
  -2  -7  -6 1129.49   66.09
  -2  -7  -6 1086.89   66.19
  -2  -7  -6 1130.59   68.79
   2   7   6 1036.80   66.09
   2   7   6 1149.19   66.09
   2   7   6 1187.58   65.89
   2   7   6  969.10   69.39
  -3  -7  -6    2.90    7.60
  -3  -7  -6    0.70    5.90
  -3  -7  -6    8.20    3.20
  -3  -7  -6    2.40    3.60
   3   7   6    4.80    3.30
   3   7   6    0.50    3.00
   3   7   6   -9.10    8.30
   3   7   6   -0.40    3.80
  -4  -7  -6  639.44   41.60
  -4  -7  -6  652.23   38.90
  -4  -7  -6  663.63   38.80
  -4  -7  -6  633.84   44.50
   4   7   6  633.94   38.70
   4   7   6  638.94   38.50
   4   7   6  557.64   43.20
  -5  -7  -6   73.49    7.50
  -5  -7  -6   87.99   11.90
  -5  -7  -6   79.09    7.30
  -5  -7  -6   95.49   15.60
   5   7   6   75.59    7.40
   5   7   6   72.09    7.10
  -6  -7  -6  283.07   24.10
  -6  -7  -6  296.87   19.90
  -6  -7  -6  308.77   19.40
   6   7   6  301.07   19.50
  -7  -7  -6  277.57   23.90
  -7  -7  -6  313.77   19.60
  -7  -7  -6  274.37   19.80
   3  -8  -6   47.30    6.10
  -3   8   6   44.20    6.50
  -3   8   6   52.99   11.50
  -3   8   6   63.09    6.70
  -3   8   6   53.39   11.00
   2  -8  -6   20.80    5.00
  -2   8   6   24.10    5.30
  -2   8   6   27.60    9.70
  -2   8   6   19.10    9.30
  -2   8   6   24.00    5.70
   1  -8  -6   36.00    5.30
   1  -8  -6   35.00    8.60
   1  -8  -6   36.10   11.10
  -1   8   6   34.40    5.20
  -1   8   6   39.70   10.00
  -1   8   6   26.70    5.40
  -1   8   6   24.10    7.30
   0  -8  -6   -4.90    6.90
   0  -8  -6    5.30    4.10
   0  -8  -6   -2.60   10.20
   0   8   6    2.90    7.50
   0   8   6    7.90    4.40
   0   8   6    5.50    4.50
   0   8   6    6.00    4.10
   0   8   6    5.10    6.60
  -1  -8  -6   -2.90    7.70
  -1  -8  -6    7.10    3.90
  -1  -8  -6   -0.50    3.10
  -1  -8  -6   -6.40    9.40
   1   8   6    4.70    3.20
   1   8   6    4.10    3.80
   1   8   6    9.60    4.20
   1   8   6   -0.30    8.60
  -2  -8  -6    6.00    4.00
  -2  -8  -6   -0.30    6.40
  -2  -8  -6   -4.60    7.90
  -2  -8  -6    3.20    4.20
   2   8   6    1.70    9.40
   2   8   6    3.00    3.50
   2   8   6    1.00    3.80
   2   8   6    0.80    4.20
  -3  -8  -6    3.20    9.10
  -3  -8  -6    1.40    6.80
  -3  -8  -6    4.70    4.40
  -3  -8  -6   -0.20    3.10
   3   8   6   -6.70    9.60
   3   8   6    3.10    3.70
   3   8   6    3.90    3.70
   3   8   6    5.30    3.40
  -4  -8  -6   11.10    9.80
  -4  -8  -6   12.70    3.60
  -4  -8  -6   17.20    4.70
   4   8   6   11.70    4.20
   4   8   6    3.60    7.90
   4   8   6   14.90    4.60
  -5  -8  -6   10.90    4.70
  -5  -8  -6    7.80   10.00
  -5  -8  -6    4.90    5.00
   5   8   6    4.10    4.40
   5   8   6   -9.10   10.80
  -6  -8  -6   20.60   10.70
  -6  -8  -6   40.10    5.90
  -6  -8  -6   36.10    6.20
   6   8   6   28.80    5.50
  -7  -8  -6    3.20    5.20
  -7  -8  -6    3.70    5.50
  -7  -8  -6    7.40    9.90
   2  -9  -6  202.38   14.90
  -2   9   6  233.08   15.40
  -2   9   6  205.78   18.80
  -2   9   6  219.98   15.50
  -2   9   6  197.18   20.00
   1  -9  -6   -0.10    8.10
   1  -9  -6    3.80    4.60
  -1   9   6    3.50    8.60
  -1   9   6   -2.90    9.40
  -1   9   6   13.20    5.30
  -1   9   6   15.20    5.10
  -1   9   6    6.80    4.90
   0  -9  -6  339.17   26.70
   0  -9  -6  324.37   29.70
   0  -9  -6  360.96   23.40
   0   9   6  396.26   23.50
   0   9   6  408.26   23.50
   0   9   6  388.66   29.10
   0   9   6  356.56   23.60
   0   9   6  323.67   26.40
  -1  -9  -6   79.79   12.60
  -1  -9  -6   87.29   15.80
  -1  -9  -6   98.39    8.30
   1   9   6   99.59   14.30
   1   9   6  111.19    9.20
   1   9   6  111.09    9.60
   1   9   6  114.39    9.00
  -2  -9  -6  353.86   23.20
  -2  -9  -6  332.97   26.50
   2   9   6  395.06   23.10
   2   9   6  345.67   22.90
   2   9   6  340.27   23.10
   2   9   6  379.26   29.50
  -3  -9  -6  252.57   23.50
  -3  -9  -6  237.88   17.00
  -3  -9  -6  252.47   16.80
   3   9   6  239.48   16.40
   3   9   6  275.07   16.80
   3   9   6  205.58   23.80
  -4  -9  -6   99.89    8.80
  -4  -9  -6  107.19    8.20
  -4  -9  -6   89.69   14.20
   4   9   6   72.79   12.80
   4   9   6  102.69    8.20
  -5  -9  -6  261.27   21.10
  -5  -9  -6  225.88   16.10
  -5  -9  -6  234.88   16.40
   5   9   6  188.78   21.20
   5   9   6  226.38   15.80
  -6  -9  -6   -0.40    5.80
  -6  -9  -6    2.00    4.10
  -6  -9  -6    9.00   11.30
   6   9   6   -1.90    5.00
   1 -10  -6  738.13   46.20
  -1  10   6  810.62   46.40
  -1  10   6  801.12   47.00
  -1  10   6  721.53   46.40
  -1  10   6  765.22   51.09
  -1  10   6  670.13   48.90
   0 -10  -6  276.97   24.10
   0 -10  -6  294.57   20.40
   0  10   6  288.17   23.50
   0  10   6  326.77   20.40
   0  10   6  331.77   27.10
   0  10   6  311.27   20.60
  -1 -10  -6  318.97   28.20
  -1 -10  -6  365.56   24.10
   1  10   6  403.16   24.00
   1  10   6  335.37   24.20
   1  10   6  399.86   30.80
   1  10   6  392.26   24.00
  -2 -10  -6  482.85   36.60
  -2 -10  -6  478.65   31.70
   2  10   6  519.25   31.50
   2  10   6  567.94   31.60
   2  10   6  443.06   31.70
   2  10   6  512.15   37.90
  -3 -10  -6   63.79   13.80
  -3 -10  -6   85.39    7.40
   3  10   6   73.19   12.50
   3  10   6   71.99    7.50
  -4 -10  -6  982.50   59.79
  -4 -10  -6  901.21   54.19
   4  10   6  876.61   54.09
   4  10   6  794.42   58.39
  -5 -10  -6   57.79    7.10
  -5 -10  -6   58.89   13.70
   5  10   6   32.90   11.40
   5  10   6   48.50    6.90
  -6 -10  -6  653.63   44.70
  -6 -10  -6  634.44   38.70
   6  10   6  568.04   38.00
   0 -11  -6  130.19   11.60
   0 -11  -6   92.99   14.10
   0  11   6  122.29   16.80
   0  11   6  129.09   15.60
   0  11   6  144.39   12.10
   0  11   6  150.78   11.50
  -1 -11  -6  633.94   45.00
  -1 -11  -6  638.04   40.90
   1  11   6  713.53   47.00
   1  11   6  644.04   41.10
   1  11   6  673.03   41.30
  -2 -11  -6    1.90    5.50
  -2 -11  -6    4.00   11.30
   2  11   6   -7.50   11.80
   2  11   6    3.30    4.40
  -3 -11  -6  769.72   47.00
  -3 -11  -6  775.02   52.59
   3  11   6  831.02   52.29
   3  11   6  684.13   46.60
  -4 -11  -6   83.19   16.10
  -4 -11  -6   90.09    8.80
   4  11   6   75.79   16.30
   4  11   6   84.39    8.70
   3   8  -7  155.28   12.50
   3   8  -7  128.69   11.90
   3   8  -7  158.78   13.80
   2   8  -7  360.26   22.70
   2   8  -7  323.47   22.60
   2   8  -7  364.86   24.30
   1   8  -7    5.50    4.60
   1   8  -7   11.20    8.10
   1   8  -7    9.20    4.00
   0   8  -7  451.25   28.20
   0   8  -7  362.96   25.00
  -1   8  -7   42.40    9.40
  -1   8  -7   45.80    5.00
   4   7  -7   16.40    8.70
   4   7  -7   21.30    6.00
   4   7  -7   16.90    5.90
   3   7  -7  102.79   11.20
   3   7  -7   79.79    8.20
   3   7  -7   86.99    8.30
   2   7  -7   14.80    4.70
   2   7  -7   14.40    4.70
   2   7  -7   21.50    7.90
   1   7  -7  170.48   12.30
   1   7  -7  195.38   16.00
   1   7  -7  172.48   12.50
   0   7  -7   75.09    6.30
   0   7  -7   64.79    5.90
   0   7  -7   93.49   10.10
  -1   7  -7  147.59   12.30
  -1   7  -7  148.39   15.70
  -1   7  -7  116.59    9.60
  -2   7  -7  181.78   17.90
  -2   7  -7  191.28   16.70
  -3   7  -7    6.90    9.00
  -3   7  -7   -4.40    6.00
  -3   7  -7    4.90    2.20
   5   6  -7    1.70    5.50
   5   6  -7   -3.70    5.70
   5   6  -7    1.80    8.80
  -5  -6   7  -10.30    5.00
   4   6  -7   77.79    8.10
   4   6  -7   82.59    8.00
   4   6  -7   78.29    9.40
  -4  -6   7   77.19    8.70
   3   6  -7   24.30    5.70
   3   6  -7   28.30    7.80
   3   6  -7   24.10    5.00
   2   6  -7   14.90    4.40
   2   6  -7   15.50    7.00
   2   6  -7   15.80    4.90
   1   6  -7    7.60    3.20
   1   6  -7    1.90    3.90
   1   6  -7    7.60    4.90
   0   6  -7   13.10    6.60
   0   6  -7    9.30    5.50
   0   6  -7    7.50    2.90
   0   6  -7    6.70    3.30
  -1   6  -7    1.70    6.50
  -1   6  -7    4.50    6.90
  -1   6  -7    1.50    2.70
  -1   6  -7    0.60    2.10
  -2   6  -7   23.60    8.40
  -2   6  -7   16.80    5.60
  -2   6  -7   17.40    2.70
  -3   6  -7    1.30    1.70
  -3   6  -7    7.50    8.20
  -3   6  -7    2.70    1.80
  -3   6  -7    5.50    5.60
  -4   6  -7   -0.70    9.00
  -4   6  -7  -10.40    8.50
   5   5  -7  725.53   44.50
   5   5  -7  787.02   44.40
   5   5  -7  677.53   46.20
  -5  -5   7  677.83   44.00
   4   5  -7  239.48   18.50
   4   5  -7  240.38   15.90
   4   5  -7  212.98   15.80
  -4  -5   7  207.68   15.20
   3   5  -7  478.25   30.30
   3   5  -7  502.25   30.30
   3   5  -7  492.95   31.90
  -3  -5   7  467.75   29.90
   2   5  -7  631.74   40.30
   2   5  -7  705.93   40.50
   2   5  -7  656.73   41.80
  -2  -5   7  653.83   40.10
   1   5  -7  174.68   11.60
   1   5  -7  160.18   12.60
   1   5  -7  167.58   13.90
   1   5  -7  152.68   11.20
   0   5  -7 1098.19   64.99
   0   5  -7 1055.39   64.89
   0   5  -7 1068.49   66.09
   0   5  -7 1117.09   66.59
  -1   5  -7   12.60    6.00
  -1   5  -7   10.40    5.90
  -1   5  -7   16.90    2.60
  -1   5  -7   12.90    2.30
  -1   5  -7   10.00    2.70
  -2   5  -7  376.46   23.00
  -2   5  -7  387.06   23.10
  -2   5  -7  347.47   29.80
  -2   5  -7  389.96   25.60
  -2   5  -7  397.96   26.40
  -3   5  -7   54.59   11.50
  -3   5  -7   55.59    9.50
  -3   5  -7   61.79    4.20
  -3   5  -7   58.89    4.10
  -3   5  -7   64.39    8.80
  -4   5  -7  136.89   12.80
  -4   5  -7  126.89   15.60
  -4   5  -7  117.29   13.10
  -4   5  -7  106.89   12.40
  -5   5  -7   96.39   13.20
  -5   5  -7   85.19   12.20
   6   4  -7  277.07   18.80
   6   4  -7  256.57   20.00
  -6  -4   7  248.18   18.00
   5   4  -7  584.44   36.90
   5   4  -7  664.83   36.90
   5   4  -7  539.05   38.70
  -5  -4   7  569.84   36.60
   4   4  -7  195.98   13.90
   4   4  -7  193.68   14.10
   4   4  -7  190.98   16.40
  -4  -4   7  186.38   13.50
   3   4  -7 1475.95   86.39
   3   4  -7 1422.56   87.19
   3   4  -7 1416.06   86.39
  -3  -4   7 1438.96   86.19
   2   4  -7   16.00    5.90
   2   4  -7    3.60    3.40
   2   4  -7    8.60    3.60
  -2  -4   7    6.90    3.00
   1   4  -7 1099.99   66.99
   1   4  -7 1128.09   66.59
   1   4  -7 1101.49   65.89
   1   4  -7 1061.29   65.89
  -1  -4   7 1104.79   65.79
   0   4  -7   22.40    3.30
   0   4  -7   21.50    4.50
   0   4  -7   17.30    4.70
   0   4  -7   22.10    3.00
   0   4  -7   26.60    2.90
   0  -4   7   21.30    2.60
  -1   4  -7  677.83   41.60
  -1   4  -7  663.73   47.00
  -1   4  -7  711.23   43.10
  -1   4  -7  712.83   41.70
  -1   4  -7  693.13   42.20
  -1   4  -7  706.53   43.50
  -2   4  -7  259.87   17.50
  -2   4  -7  252.67   16.60
  -2   4  -7  256.47   18.70
  -2   4  -7  242.68   15.00
  -2   4  -7  236.78   15.00
  -2   4  -7  233.98   21.70
  -3   4  -7  428.76   27.30
  -3   4  -7  435.16   28.90
  -3   4  -7  419.16   27.70
  -3   4  -7  432.86   32.10
  -3   4  -7  399.46   25.00
  -4   4  -7  479.85   30.90
  -4   4  -7  470.85   32.00
  -4   4  -7  458.95   31.50
  -4   4  -7  485.35   35.00
  -4   4  -7  482.05   33.00
  -5   4  -7   59.19   10.70
  -5   4  -7   46.60   10.10
  -5   4  -7   55.49    8.60
   6   3  -7  201.48   16.70
  -6  -3   7  193.58   14.60
   5   3  -7  114.19   15.50
   5   3  -7  111.09    9.00
   5   3  -7   95.09   11.50
   5   3  -7  103.49    9.30
  -5  -3   7   82.69    8.30
  -5  -3   7  113.29   14.60
   4   3  -7  506.35   31.90
   4   3  -7  535.35   31.70
   4   3  -7  483.65   33.30
  -4  -3   7  509.25   31.30
   3   3  -7   11.90    6.10
   3   3  -7    8.80    4.00
   3   3  -7   10.30    4.20
  -3  -3   7   14.30    3.70
  -3  -3   7   18.20    5.50
   2   3  -7  925.31   57.89
   2   3  -7  931.21   56.99
   2   3  -7  960.50   57.09
  -2  -3   7  969.00   56.89
   1   3  -7  173.88   10.70
   1   3  -7  148.39   12.30
   1   3  -7  151.58   10.70
   1   3  -7  175.58   10.70
   1   3  -7  149.79   10.70
  -1  -3   7  145.69   10.40
  -1  -3   7  164.68   10.30
   0   3  -7 1637.44   94.69
   0   3  -7 1568.04   98.79
   0   3  -7 1599.24   94.69
   0   3  -7 1584.54   94.69
   0   3  -7 1527.65   94.69
   0   3  -7 1501.25   95.49
   0   3  -7 1577.94   95.29
   0  -3   7 1715.43   94.59
  -1   3  -7  942.61   56.09
  -1   3  -7  886.81   55.79
  -1   3  -7  880.01   54.69
  -1   3  -7  895.21   59.39
  -1   3  -7  905.91   54.79
  -1   3  -7  968.60   54.69
   1  -3   7  939.11   54.89
  -2   3  -7  922.71   56.29
  -2   3  -7  925.81   59.19
  -2   3  -7  895.81   54.19
  -2   3  -7  899.51   54.19
  -2   3  -7  912.11   55.59
  -3   3  -7  957.10   58.59
  -3   3  -7  943.11   59.59
  -3   3  -7  948.71   58.59
  -3   3  -7  982.50   61.89
  -4   3  -7  200.48   19.00
  -4   3  -7  179.18   16.50
  -4   3  -7  182.78   15.10
  -4   3  -7  189.18   15.90
  -4   3  -7  176.78   14.60
  -5   3  -7  889.01   57.39
  -5   3  -7  914.01   55.79
  -5   3  -7  881.31   55.59
  -6   3  -7   19.00    1.70
  -6   3  -7   17.70    1.80
  -6   3  -7   15.50    9.40
  -6   3  -7   26.60    8.30
   6   2  -7    7.60    8.60
   6   2  -7   -1.70    4.20
  -6  -2   7    1.80    4.00
  -6  -2   7   -9.50    8.40
   5   2  -7   -1.70    7.20
   5   2  -7    2.10    3.40
  -5  -2   7    5.40    7.80
  -5  -2   7    2.60    3.50
   4   2  -7    1.70    4.10
   4   2  -7   -0.90    6.20
   4   2  -7   -1.50    7.90
  -4  -2   7   -2.80    3.60
  -4  -2   7   -6.10    7.10
   3   2  -7   92.19   13.00
   3   2  -7   96.99    7.20
   3   2  -7   72.69    8.70
   3   2  -7   88.69    6.90
  -3  -2   7   81.89    7.20
  -3  -2   7   87.79   10.70
   2   2  -7   76.99    6.20
   2   2  -7   77.29    6.80
   2   2  -7   70.79   11.10
   2   2  -7   77.59    7.70
  -2  -2   7  100.79    9.30
  -2  -2   7   78.79    6.60
   1   2  -7  297.47   17.40
   1   2  -7  265.07   21.20
   1   2  -7  267.87   17.40
   1   2  -7  273.97   18.40
   1   2  -7  280.87   17.50
  -1  -2   7  298.37   17.20
  -1  -2   7  268.87   17.20
   0   2  -7  451.85   28.30
   0   2  -7  451.95   27.60
   0   2  -7  428.96   31.90
   0   2  -7  436.56   27.50
   0   2  -7  470.15   27.50
   0   2  -7  424.56   27.50
   0  -2   7  452.75   27.40
   0  -2   7  513.95   27.40
  -1   2  -7   35.00    8.60
  -1   2  -7   34.90    3.30
  -1   2  -7   49.30    3.60
  -1   2  -7   41.80    4.90
  -1   2  -7   41.20    3.20
  -1   2  -7   39.50    3.40
  -1   2  -7   40.30    5.40
  -2   2  -7  709.53   42.50
  -2   2  -7  737.03   42.60
  -2   2  -7  701.43   42.60
  -2   2  -7  727.43   47.20
  -2   2  -7  702.63   43.70
  -2   2  -7  717.23   44.30
  -3   2  -7   44.70    7.10
  -3   2  -7   45.30    5.90
  -3   2  -7   51.39    9.40
  -3   2  -7   51.89    7.70
  -4   2  -7  685.83   44.80
  -4   2  -7  654.43   41.90
  -4   2  -7  672.63   42.40
  -4   2  -7  665.73   42.40
  -4   2  -7  681.93   43.40
  -5   2  -7  182.28   14.20
  -5   2  -7  168.08   10.80
  -5   2  -7  190.98   15.50
  -5   2  -7  177.88   10.90
  -5   2  -7  195.58   15.30
  -5   2  -7  197.28   18.20
  -6   2  -7  200.18   13.90
  -6   2  -7  237.98   20.40
  -6   2  -7  233.48   13.90
  -6   2  -7  272.67   19.30
  -7   2  -7  102.89   13.80
  -7   2  -7  124.49   13.70
   6   1  -7  135.49   13.50
   6   1  -7  156.88   12.50
  -6  -1   7  147.59   11.90
  -6  -1   7  168.58   17.70
   5   1  -7  104.79   10.50
   5   1  -7  106.39    8.70
  -5  -1   7  100.29    9.00
  -5  -1   7  102.19   12.40
   4   1  -7   77.19    9.20
   4   1  -7   88.49    7.80
   4   1  -7   97.69   11.60
  -4  -1   7   94.99    8.00
  -4  -1   7   80.09   10.50
   3   1  -7  138.29   13.90
   3   1  -7  123.79   11.50
  -3  -1   7  133.39    9.50
  -3  -1   7  120.89   12.90
  -3  -1   7  136.49    9.80
  -3  -1   7  142.99    9.20
   2   1  -7  129.49   10.30
   2   1  -7  118.59   13.30
   2   1  -7  124.19    9.10
   2   1  -7  136.69    9.00
  -2  -1   7  129.29   11.50
  -2  -1   7  128.59    8.60
  -2  -1   7  121.59    8.80
   1   1  -7  347.87   21.60
   1   1  -7  325.87   22.20
   1   1  -7  357.16   25.70
   1   1  -7  341.37   21.60
   1   1  -7  325.07   21.80
   1   1  -7  381.16   21.70
  -1  -1   7  355.86   21.50
  -1  -1   7  337.57   21.50
  -1  -1   7  399.86   23.50
   0   1  -7    1.10    2.10
   0   1  -7    0.70    2.70
   0   1  -7   -1.30    5.90
   0   1  -7    1.00    1.80
   0   1  -7   -2.80    2.20
   0  -1   7    0.00    1.60
   0  -1   7   -0.20    1.50
  -1   1  -7   84.99    5.50
  -1   1  -7   72.59    5.50
  -1   1  -7   75.59    6.40
  -1   1  -7   73.49   11.20
  -1   1  -7   78.29    5.60
  -1   1  -7   80.49    6.50
  -1   1  -7   87.99    5.50
   1  -1   7   83.79    5.30
  -2   1  -7    0.10    1.30
  -2   1  -7    1.10    3.10
  -2   1  -7   -3.00    4.50
  -2   1  -7   -0.50    1.30
  -2   1  -7    0.50    1.20
  -2   1  -7    2.80    6.30
  -2   1  -7    1.30    0.90
   2  -1   7    1.50    0.60
   2  -1   7    1.40    0.70
  -3   1  -7    9.10    5.10
  -3   1  -7   -1.60    3.30
  -3   1  -7   15.10    7.00
  -4   1  -7   10.70    7.90
  -4   1  -7   10.70    1.20
  -4   1  -7    8.30    5.10
  -4   1  -7    6.90    1.40
  -5   1  -7    2.80    1.40
  -5   1  -7   -2.50    4.50
  -5   1  -7   -2.10    5.50
  -5   1  -7    0.80    7.50
  -5   1  -7    0.20    1.60
  -6   1  -7   12.30    2.40
  -6   1  -7   20.40    7.90
  -6   1  -7   17.20    2.10
  -7   1  -7    4.80    2.20
  -7   1  -7   -1.90    8.40
   6   0  -7  109.19    9.50
  -6   0   7  103.49   13.50
  -6   0   7  103.39    9.10
   5   0  -7  287.37   19.80
  -5   0   7  297.87   23.60
  -5   0   7  308.57   19.60
   4   0  -7  968.50   56.99
   4   0  -7  966.50   55.19
   4   0  -7  977.00   54.59
   4   0  -7  821.02   55.49
   4   0  -7  836.12   54.59
  -4   0   7  941.31   54.49
  -4   0   7  875.21   54.39
  -4   0   7  807.12   56.79
   3   0  -7    5.70    4.70
   3   0  -7    3.10    3.80
   3   0  -7    3.40    4.50
   3   0  -7    6.90    3.40
   3   0  -7    5.60    6.00
  -3   0   7    8.10    2.70
  -3   0   7    3.00    6.40
  -3   0   7    6.90    3.00
  -3   0   7    7.40    2.40
   2   0  -7 1504.85   86.19
   2   0  -7 1429.76   86.09
   2   0  -7 1461.55   88.89
   2   0  -7 1461.25   86.29
   2   0  -7 1385.56   86.59
  -2   0   7 1525.35   85.99
  -2   0   7 1409.16   85.99
  -2   0   7 1347.97   87.79
   1   0  -7   76.79    8.40
   1   0  -7   79.59   10.40
   1   0  -7   75.99    5.90
   1   0  -7   75.19    6.60
   1   0  -7   70.69    6.00
   1   0  -7   76.49    6.20
  -1   0   7   73.09    8.40
  -1   0   7   78.79    5.70
   0   0  -7 1176.28   65.39
   0   0  -7 1074.79   66.69
   0   0  -7 1012.20   65.29
   0   0  -7 1084.79   65.29
   0   0  -7 1080.09   68.49
   0   0  -7 1048.80   65.29
   0   0  -7 1086.69   65.59
   0   0   7 1165.18   65.19
   0   0   7 1107.99   65.19
  -1   0  -7  158.68    9.90
  -1   0  -7  138.49    9.90
  -1   0  -7  183.28   10.60
  -1   0  -7  136.89    9.90
  -1   0  -7  141.39   13.40
  -1   0  -7  147.89   11.70
  -1   0  -7  157.68   10.30
  -1   0  -7  142.69    9.90
   1   0   7  154.28    9.80
   1   0   7  174.58   10.30
   1   0   7  169.88    9.70
  -2   0  -7  598.44   37.70
  -2   0  -7  622.14   37.30
  -2   0  -7  599.74   37.30
  -2   0  -7  633.34   37.30
  -2   0  -7  632.14   39.30
  -2   0  -7  649.83   41.40
  -2   0  -7  631.74   37.30
  -3   0  -7  457.25   27.50
  -3   0  -7  447.66   28.10
  -3   0  -7  459.25   31.90
  -3   0  -7  433.86   27.50
  -3   0  -7  434.66   27.30
  -3   0  -7  437.36   29.70
  -3   0  -7  458.65   27.40
   3   0   7  488.15   27.20
   3   0   7  490.55   27.20
  -4   0  -7   95.69    5.40
  -4   0  -7   91.19    9.70
  -4   0  -7   90.49   12.10
  -4   0  -7   76.79    5.90
  -4   0  -7   83.29    5.40
  -4   0  -7   79.59    5.80
  -5   0  -7  191.58   15.30
  -5   0  -7  202.38   17.60
  -5   0  -7  180.08   12.30
  -5   0  -7  195.38   12.20
  -5   0  -7  204.98   11.90
  -5   0  -7  203.38   15.20
  -6   0  -7   26.00    3.60
  -6   0  -7   36.50    6.80
  -6   0  -7   38.90    3.30
  -6   0  -7   28.40    8.30
  -7   0  -7   83.19    6.30
  -7   0  -7   62.79    9.60
   6  -1  -7  141.59   11.00
  -6   1   7  151.78   12.00
  -6   1   7  153.68   18.00
   5  -1  -7  703.53   43.10
  -5   1   7  678.93   46.30
  -5   1   7  723.33   42.90
   4  -1  -7   99.69    8.20
   4  -1  -7   95.39    8.60
   4  -1  -7   99.69    8.60
  -4   1   7  102.99    8.00
  -4   1   7   89.29    8.30
  -4   1   7   98.49    9.20
  -4   1   7   70.49    9.90
   3  -1  -7 1323.37   78.69
   3  -1  -7 1309.07   76.59
   3  -1  -7 1215.98   77.19
   3  -1  -7 1328.57   77.29
   3  -1  -7 1255.27   76.69
  -3   1   7 1322.47   76.49
  -3   1   7 1145.19   78.69
  -3   1   7 1305.17   76.49
   2  -1  -7    0.50    5.70
   2  -1  -7    9.50    3.70
   2  -1  -7    4.20    2.80
   2  -1  -7    1.40    3.20
   2  -1  -7   -0.10    2.90
   2  -1  -7   -0.20    3.70
  -2   1   7    4.10    2.70
  -2   1   7    1.20    2.40
  -2   1   7    0.20    2.60
  -2   1   7   -3.40    4.60
   1  -1  -7 1655.83   98.39
   1  -1  -7 1573.64   97.59
   1  -1  -7 1679.73   97.49
   1  -1  -7 1669.13  100.09
   1  -1  -7 1701.73   97.39
   1  -1  -7 1540.25   97.49
  -1   1   7 1523.25   98.99
  -1   1   7 1636.44   97.39
  -1   1   7 1715.63   97.29
   0  -1  -7  716.13   43.00
   0  -1  -7  668.93   43.10
   0  -1  -7  706.93   43.10
   0  -1  -7  717.23   43.20
   0  -1  -7  685.03   43.10
   0  -1  -7  680.23   44.40
   0  -1  -7  801.62   43.20
   0  -1  -7  671.53   46.10
   0   1   7  766.32   43.30
   0   1   7  714.23   43.00
   0   1   7  765.32   43.00
  -1  -1  -7 1200.38   67.59
  -1  -1  -7 1072.79   68.39
  -1  -1  -7 1087.29   66.99
  -1  -1  -7 1076.69   66.99
  -1  -1  -7 1086.39   66.99
  -1  -1  -7 1067.49   70.09
  -1  -1  -7 1193.68   67.09
  -1  -1  -7 1069.79   66.99
   1   1   7 1088.99   66.99
   1   1   7 1135.79   69.89
   1   1   7 1268.77   66.99
  -2  -1  -7 1347.97   84.19
  -2  -1  -7 1408.06   84.19
  -2  -1  -7 1522.25   84.29
  -2  -1  -7 1379.16   85.79
  -2  -1  -7 1382.16   84.19
  -2  -1  -7 1342.87   84.49
  -2  -1  -7 1356.86   87.49
   2   1   7 1458.05   87.39
   2   1   7 1384.76   84.09
   2   1   7 1558.54   84.09
  -3  -1  -7  731.73   44.20
  -3  -1  -7  703.73   45.80
  -3  -1  -7  710.83   47.70
  -3  -1  -7  748.53   44.00
  -3  -1  -7  696.13   44.00
  -3  -1  -7  827.12   44.10
  -3  -1  -7  698.53   44.00
   3   1   7  767.42   47.40
  -4  -1  -7 1494.45   93.39
  -4  -1  -7 1502.45   93.39
  -4  -1  -7 1572.74   93.29
  -4  -1  -7 1574.54   96.99
  -4  -1  -7 1583.74   95.19
   4   1   7 1694.63   96.79
  -5  -1  -7  120.79   13.70
  -5  -1  -7  112.99    7.90
  -5  -1  -7  115.29   11.20
  -5  -1  -7  123.49    7.60
  -5  -1  -7   98.29    7.90
   5   1   7  116.29   12.80
  -6  -1  -7 1212.68   76.69
  -6  -1  -7 1232.58   72.69
  -6  -1  -7 1217.08   75.59
  -6  -1  -7 1205.78   74.49
  -7  -1  -7  118.99    8.60
  -7  -1  -7  110.89   12.80
   6  -2  -7  205.38   15.20
  -6   2   7  222.18   15.10
  -6   2   7  204.28   21.30
   5  -2  -7   11.00    4.50
  -5   2   7   13.10    4.80
  -5   2   7   14.60    4.40
  -5   2   7    9.50    7.10
  -5   2   7   17.50    9.60
   4  -2  -7  491.75   30.30
   4  -2  -7  461.75   30.30
  -4   2   7  442.76   32.70
  -4   2   7  511.95   30.00
  -4   2   7  450.55   30.20
  -4   2   7  551.74   31.60
   3  -2  -7  115.59    9.20
   3  -2  -7  133.79   12.20
   3  -2  -7  137.89   10.50
   3  -2  -7  127.99    9.70
  -3   2   7  101.29   12.40
  -3   2   7  147.19   11.00
  -3   2   7  135.79    9.00
  -3   2   7  130.49    9.20
   2  -2  -7 1040.70   63.89
   2  -2  -7 1106.79   61.59
   2  -2  -7 1013.90   62.39
   2  -2  -7  974.20   61.59
   2  -2  -7  981.00   61.59
  -2   2   7 1142.99   62.39
  -2   2   7 1031.20   61.59
  -2   2   7 1051.59   61.49
  -2   2   7  876.91   63.39
   1  -2  -7  981.20   61.79
   1  -2  -7  967.00   60.29
   1  -2  -7  972.10   59.49
   1  -2  -7  971.60   59.49
   1  -2  -7 1022.40   59.39
   1  -2  -7 1031.40   59.39
  -1   2   7 1066.79   59.29
  -1   2   7 1043.60   61.99
  -1   2   7  897.81   61.49
  -1   2   7  954.00   59.29
  -1   2   7  975.20   59.79
   0  -2  -7 1364.86   78.99
   0  -2  -7 1260.67   79.89
   0  -2  -7 1339.27   78.89
   0  -2  -7 1259.57   81.49
   0  -2  -7 1271.47   78.89
   0  -2  -7 1341.77   78.79
   0  -2  -7 1355.86   78.89
   0   2   7 1305.77   78.79
   0   2   7 1415.06   79.29
   0   2   7 1272.67   80.89
   0   2   7 1333.97   78.79
   0   2   7 1342.17   81.49
   0   2   7 1292.47   78.79
  -1  -2  -7 2219.08  146.19
  -1  -2  -7 2284.87  144.79
  -1  -2  -7 2522.25  145.59
  -1  -2  -7 2547.05  144.49
  -1  -2  -7 2412.56  143.59
  -1  -2  -7 2693.63  143.69
  -1  -2  -7 2377.26  143.59
  -1  -2  -7 2289.17  143.99
   1   2   7 2397.26  143.49
   1   2   7 2459.65  146.59
   1   2   7 2235.08  143.49
   1   2   7 2553.04  144.39
  -2  -2  -7  274.67   18.00
  -2  -2  -7  272.47   19.90
  -2  -2  -7  322.27   18.00
  -2  -2  -7  347.77   19.60
  -2  -2  -7  295.77   17.90
  -2  -2  -7  263.77   21.80
  -2  -2  -7  273.87   18.00
   2   2   7  282.17   17.90
   2   2   7  299.47   17.80
   2   2   7  285.47   21.80
  -3  -2  -7 2539.15  153.88
  -3  -2  -7 2923.01  153.98
  -3  -2  -7 2449.25  157.08
  -3  -2  -7 2548.95  154.58
  -3  -2  -7 2513.45  155.38
  -3  -2  -7 2473.15  154.28
  -3  -2  -7 2527.15  154.68
   3   2   7 2694.63  154.18
   3   2   7 2730.73  157.38
   3   2   7 2496.75  153.78
  -4  -2  -7  305.17   17.40
  -4  -2  -7  266.27   17.30
  -4  -2  -7  270.87   21.90
  -4  -2  -7  271.87   17.30
  -4  -2  -7  265.27   19.70
  -4  -2  -7  272.17   17.30
   4   2   7  288.27   21.40
   4   2   7  288.07   17.10
  -5  -2  -7 1140.29   72.29
  -5  -2  -7 1105.19   68.39
  -5  -2  -7 1163.98   68.39
  -5  -2  -7 1147.29   70.19
  -5  -2  -7 1093.19   68.39
   5   2   7 1217.68   71.89
  -6  -2  -7  657.83   42.50
  -6  -2  -7  668.43   45.00
  -6  -2  -7  673.33   40.30
  -7  -2  -7  458.45   32.40
  -8  -2  -7  603.54   36.20
  -8  -2  -7  635.04   40.90
  -8  -2  -7  550.14   35.80
   5  -3  -7   50.59    6.30
  -5   3   7   58.89   11.50
  -5   3   7   52.69    6.10
  -5   3   7   58.09    6.40
  -5   3   7   54.69    8.60
   4  -3  -7   52.39    6.00
  -4   3   7   48.80    5.60
  -4   3   7   54.99    6.00
  -4   3   7   51.89    9.00
  -4   3   7   59.49    8.10
   3  -3  -7  103.19   10.50
   3  -3  -7   89.59    8.10
   3  -3  -7   94.59    8.30
   3  -3  -7  102.99    8.70
  -3   3   7   88.49   10.70
  -3   3   7   90.39    7.50
  -3   3   7   86.39    7.90
  -3   3   7  117.99   10.60
   2  -3  -7  196.38   12.20
   2  -3  -7  179.68   14.70
   2  -3  -7  173.08   12.60
   2  -3  -7  183.78   13.20
  -2   3   7  188.18   12.30
  -2   3   7  171.38   16.80
  -2   3   7  206.38   14.30
  -2   3   7  179.78   12.50
   1  -3  -7   18.00    5.90
   1  -3  -7   17.00    4.30
   1  -3  -7   16.70    3.40
   1  -3  -7   21.50    3.50
   1  -3  -7   22.60    2.80
  -1   3   7   18.80    5.70
  -1   3   7   19.70    3.00
  -1   3   7   17.60    4.70
  -1   3   7   18.80    2.80
  -1   3   7   21.50    6.00
   0  -3  -7  512.45   28.60
   0  -3  -7  428.96   30.80
   0  -3  -7  424.86   29.10
   0  -3  -7  459.65   27.90
   0  -3  -7  447.86   28.00
   0  -3  -7  489.85   28.00
   0   3   7  448.66   27.80
   0   3   7  466.55   31.00
   0   3   7  494.75   30.30
   0   3   7  458.85   27.80
   0   3   7  457.15   27.80
   0   3   7  407.46   28.90
  -1  -3  -7   56.39    6.30
  -1  -3  -7   41.50    7.80
  -1  -3  -7   46.80    4.20
  -1  -3  -7   39.60    4.00
  -1  -3  -7   54.09    4.30
  -1  -3  -7   40.00    4.00
  -1  -3  -7   36.90    6.00
   1   3   7   43.40    5.60
   1   3   7   43.60    4.00
   1   3   7   45.40    8.20
   1   3   7   47.20    3.10
  -2  -3  -7  744.13   45.10
  -2  -3  -7  693.63   46.60
  -2  -3  -7  836.62   45.20
  -2  -3  -7  658.93   48.20
  -2  -3  -7  801.12   45.10
  -2  -3  -7  774.92   45.20
   2   3   7  745.03   45.00
   2   3   7  770.32   49.10
   2   3   7  731.23   45.00
  -3  -3  -7  356.56   19.40
  -3  -3  -7  278.27   21.40
  -3  -3  -7  310.77   19.30
  -3  -3  -7  287.47   23.50
  -3  -3  -7  309.57   19.30
  -3  -3  -7  287.87   19.30
   3   3   7  322.47   19.20
   3   3   7  325.17   23.40
   3   3   7  323.67   19.10
  -4  -3  -7  556.94   32.80
  -4  -3  -7  471.25   32.70
  -4  -3  -7  548.15   32.70
  -4  -3  -7  545.35   32.80
  -4  -3  -7  468.25   36.70
  -4  -3  -7  479.85   34.60
  -4  -3  -7  566.74   32.40
   4   3   7  571.94   32.60
   4   3   7  549.05   37.20
   4   3   7  617.44   32.50
  -5  -3  -7  362.06   25.80
  -5  -3  -7  366.56   28.30
  -5  -3  -7  377.66   23.60
  -5  -3  -7  401.26   23.60
   5   3   7  394.66   23.30
  -6  -3  -7  111.39    8.00
  -6  -3  -7   93.89   14.30
  -6  -3  -7  102.99   11.60
  -6  -3  -7   90.89    8.20
  -7  -3  -7  324.57   20.00
  -7  -3  -7  295.57   22.50
  -7  -3  -7  316.47   24.70
  -7  -3  -7  321.47   20.20
  -8  -3  -7    7.60    4.00
  -8  -3  -7    7.70    4.00
  -8  -3  -7   10.60    9.60
   5  -4  -7   80.69    7.90
  -5   4   7   94.09    8.00
  -5   4   7   90.49    7.90
  -5   4   7   84.59   13.30
  -5   4   7   88.39   11.10
   4  -4  -7   84.19    8.10
  -4   4   7  109.09    8.70
  -4   4   7   95.49    8.20
  -4   4   7   85.69   12.70
  -4   4   7  105.29   12.50
   3  -4  -7  278.37   17.50
   3  -4  -7  245.28   16.70
   3  -4  -7  245.88   16.90
   3  -4  -7  272.37   19.20
  -3   4   7  229.08   21.30
  -3   4   7  247.98   16.70
  -3   4   7  244.18   16.40
   2  -4  -7    4.30    4.30
   2  -4  -7    0.40    3.60
   2  -4  -7    8.20    6.00
   2  -4  -7    3.00    3.30
  -2   4   7    1.60    5.90
  -2   4   7    8.00    5.20
  -2   4   7    8.90    3.70
  -2   4   7    2.90    3.30
  -2   4   7    7.20    5.40
   1  -4  -7  171.98   11.20
   1  -4  -7  151.18   12.30
   1  -4  -7  161.88   15.10
   1  -4  -7  158.98   10.90
  -1   4   7  174.88   11.00
  -1   4   7  161.48   11.10
  -1   4   7  151.78   15.80
  -1   4   7  176.08   13.40
  -1   4   7  156.08   14.00
   0  -4  -7    4.40    2.20
   0  -4  -7    2.70    5.90
   0  -4  -7    4.00    3.00
   0  -4  -7    4.30    2.10
   0  -4  -7    7.10    4.50
   0   4   7    5.40    2.80
   0   4   7    0.40    6.40
   0   4   7    4.20    2.70
   0   4   7    2.30    2.40
   0   4   7   -2.20    5.10
   0   4   7   -0.60    5.50
  -1  -4  -7  169.48   10.70
  -1  -4  -7  175.88   10.90
  -1  -4  -7  158.78   15.40
  -1  -4  -7  160.08   13.20
  -1  -4  -7  178.88   11.10
   1   4   7  138.69   13.50
   1   4   7  165.18   10.60
   1   4   7  172.88   16.10
   1   4   7  167.08   10.70
   1   4   7  158.38   10.10
  -2  -4  -7   55.59    4.70
  -2  -4  -7   54.79    4.70
  -2  -4  -7   46.70    9.10
  -2  -4  -7   49.60    4.30
  -2  -4  -7   43.40    6.90
   2   4   7   50.09    4.50
   2   4   7   48.00    7.00
   2   4   7   60.49    9.50
  -3  -4  -7    2.20    2.70
  -3  -4  -7   -2.60    5.30
  -3  -4  -7    1.30    2.80
  -3  -4  -7    2.10    7.00
  -3  -4  -7    0.20    2.60
  -3  -4  -7   -2.60    2.30
   3   4   7    1.60    2.60
   3   4   7   -2.80    7.40
   3   4   7    2.80    2.00
  -4  -4  -7   19.70    3.70
  -4  -4  -7   19.40    8.70
  -4  -4  -7   13.70    3.30
  -4  -4  -7   18.70    3.20
  -4  -4  -7   22.60    3.80
  -4  -4  -7   16.60    6.40
   4   4   7   19.80    9.00
   4   4   7   17.20    2.60
   4   4   7   21.90    3.20
  -5  -4  -7   14.10    6.50
  -5  -4  -7   15.10    3.50
  -5  -4  -7   16.70    8.70
  -5  -4  -7   16.20    3.50
   5   4   7   17.30    3.00
  -6  -4  -7   11.20    7.60
  -6  -4  -7   11.80    9.90
  -6  -4  -7   10.90    4.00
  -6  -4  -7    9.90    4.00
  -7  -4  -7    5.20    9.10
  -7  -4  -7    2.50    8.50
  -7  -4  -7    3.90    3.90
  -7  -4  -7    3.60    6.80
  -7  -4  -7   -2.70    4.10
  -8  -4  -7   19.70    4.80
  -8  -4  -7   15.20    7.80
  -8  -4  -7   18.70    5.10
   5  -5  -7   25.10    5.50
  -5   5   7   37.50    5.80
  -5   5   7   40.10    6.10
  -5   5   7   36.20    9.70
  -5   5   7   38.40   11.80
   4  -5  -7  588.34   38.20
  -4   5   7  655.23   38.30
  -4   5   7  657.13   41.20
  -4   5   7  575.84   42.20
  -4   5   7  620.54   38.30
   3  -5  -7   10.30    4.40
  -3   5   7    9.40    3.50
  -3   5   7    8.30    6.90
  -3   5   7   12.20    6.60
  -3   5   7   14.00    3.40
   2  -5  -7 1458.45   88.49
   2  -5  -7 1493.75   86.19
   2  -5  -7 1493.15   86.99
   2  -5  -7 1425.56   86.29
  -2   5   7 1382.06   88.19
  -2   5   7 1278.87   88.29
  -2   5   7 1386.86   86.19
  -2   5   7 1471.95   86.09
  -2   5   7 1545.65   88.29
   1  -5  -7  155.08   12.50
   1  -5  -7  158.68   11.00
   1  -5  -7  162.18   10.80
   1  -5  -7  150.88   15.30
  -1   5   7  165.58   14.30
  -1   5   7  161.18   10.80
  -1   5   7  145.39   14.90
  -1   5   7  146.49   16.00
  -1   5   7  168.18   10.60
   0  -5  -7  769.02   52.09
   0  -5  -7  819.42   49.10
   0  -5  -7  775.12   50.29
   0  -5  -7  821.12   49.00
   0   5   7  800.22   51.29
   0   5   7  763.32   51.19
   0   5   7  861.71   48.90
   0   5   7  893.81   52.89
   0   5   7  801.42   49.00
  -1  -5  -7  505.45   31.40
  -1  -5  -7  546.25   31.30
  -1  -5  -7  469.65   33.00
  -1  -5  -7  473.85   35.10
  -1  -5  -7  524.15   31.20
   1   5   7  553.14   31.20
   1   5   7  547.15   30.80
   1   5   7  496.05   31.10
   1   5   7  426.16   33.50
   1   5   7  569.24   36.30
  -2  -5  -7  225.28   14.30
  -2  -5  -7  216.68   19.60
  -2  -5  -7  215.98   16.20
  -2  -5  -7  230.88   14.40
  -2  -5  -7  216.18   14.40
   2   5   7  179.48   17.40
   2   5   7  261.97   19.90
   2   5   7  228.18   14.20
   2   5   7  215.98   14.20
  -3  -5  -7  407.86   25.90
  -3  -5  -7  412.66   26.10
  -3  -5  -7  408.46   30.20
  -3  -5  -7  411.06   27.90
  -3  -5  -7  430.96   26.00
   3   5   7  393.26   29.00
   3   5   7  423.56   25.90
   3   5   7  479.95   25.90
  -4  -5  -7  125.89   16.40
  -4  -5  -7  120.19   13.50
  -4  -5  -7  137.49    9.50
  -4  -5  -7  134.19    9.60
   4   5   7  124.39    9.10
  -5  -5  -7  455.25   28.60
  -5  -5  -7  463.95   28.50
  -5  -5  -7  462.15   31.40
  -5  -5  -7  446.16   34.00
   5   5   7  472.35   28.30
  -6  -5  -7    3.60    3.90
  -6  -5  -7   -4.70    3.90
  -6  -5  -7    3.00    7.30
  -6  -5  -7   -7.00    9.10
  -7  -5  -7  128.59   14.40
  -7  -5  -7  119.39   10.00
  -7  -5  -7  115.79   10.30
  -8  -5  -7   11.00    5.00
  -8  -5  -7    5.90    9.60
  -8  -5  -7    7.40    4.90
   4  -6  -7   55.99    6.50
  -4   6   7   47.60    6.40
  -4   6   7   59.09   10.70
  -4   6   7   50.39    6.50
  -4   6   7   62.89   12.00
   3  -6  -7  704.73   44.60
  -3   6   7  700.73   44.60
  -3   6   7  756.02   44.60
  -3   6   7  688.53   48.10
  -3   6   7  786.32   47.40
   2  -6  -7  671.13   41.10
  -2   6   7  699.63   41.10
  -2   6   7  655.93   41.20
  -2   6   7  599.84   44.30
  -2   6   7  722.53   43.90
   1  -6  -7  561.44   37.00
   1  -6  -7  600.44   38.60
   1  -6  -7  657.23   37.20
   1  -6  -7  593.64   40.60
  -1   6   7  613.34   37.10
  -1   6   7  635.34   40.10
  -1   6   7  649.04   40.40
  -1   6   7  568.04   40.30
  -1   6   7  574.84   37.20
   0  -6  -7 1951.00  118.29
   0  -6  -7 1886.91  120.09
   0  -6  -7 1860.21  116.89
   0  -6  -7 1997.60  116.89
   0   6   7 2074.39  116.89
   0   6   7 2082.39  119.59
   0   6   7 1959.70  116.89
   0   6   7 1852.31  118.99
  -1  -6  -7  426.86   30.30
  -1  -6  -7  436.26   28.10
  -1  -6  -7  440.96   28.20
  -1  -6  -7  441.46   32.70
   1   6   7  550.24   34.00
   1   6   7  470.95   28.10
   1   6   7  416.26   30.70
   1   6   7  442.26   28.00
   1   6   7  479.35   27.70
  -2  -6  -7 3188.18  191.28
  -2  -6  -7 3322.07  193.18
  -2  -6  -7 3279.17  195.48
  -2  -6  -7 3306.17  191.38
   2   6   7 3337.67  191.18
   2   6   7 2751.12  193.58
   2   6   7 3123.19  191.18
   2   6   7 3404.16  191.68
  -3  -6  -7   -0.80    3.40
  -3  -6  -7    3.60    3.80
  -3  -6  -7    9.90    9.20
  -3  -6  -7    3.30    6.90
   3   6   7    5.80    2.90
   3   6   7   -9.30    7.10
   3   6   7    8.10    1.20
   3   6   7    6.10    3.40
  -4  -6  -7 1760.32  106.79
  -4  -6  -7 1757.82  104.49
  -4  -6  -7 1840.72  104.49
  -4  -6  -7 1740.93  109.29
   4   6   7 1615.84  107.39
   4   6   7 1760.22  104.29
  -5  -6  -7  251.07   16.20
  -5  -6  -7  234.58   20.20
  -5  -6  -7  245.58   23.80
  -5  -6  -7  234.28   16.20
   5   6   7  238.68   16.00
  -6  -6  -7  734.73   43.80
  -6  -6  -7  704.63   43.90
  -6  -6  -7  703.83   46.60
  -7  -6  -7  502.55   35.30
  -7  -6  -7  516.25   32.30
  -7  -6  -7  525.65   32.40
   4  -7  -7   69.59    7.90
  -4   7   7   70.89    6.70
  -4   7   7   69.19    7.80
  -4   7   7   56.29   12.50
   3  -7  -7  237.88   16.80
  -3   7   7  242.68   17.20
  -3   7   7  213.28   22.30
  -3   7   7  271.07   17.00
  -3   7   7  252.27   21.30
   2  -7  -7  102.19    9.60
  -2   7   7  116.99    8.70
  -2   7   7  117.49   10.00
  -2   7   7  101.49   13.60
  -2   7   7  110.09   14.50
   1  -7  -7  765.32   44.80
   1  -7  -7  629.04   43.10
   1  -7  -7  764.32   47.00
  -1   7   7  612.94   46.10
  -1   7   7  683.23   43.20
  -1   7   7  713.73   46.40
  -1   7   7  703.13   43.10
  -1   7   7  756.02   46.60
   0  -7  -7    2.40    4.10
   0  -7  -7    6.20    8.30
   0  -7  -7    5.90    6.40
   0  -7  -7    0.30    3.80
   0   7   7    4.80    4.10
   0   7   7    4.60    2.80
   0   7   7   -0.60    5.90
   0   7   7   -0.90    7.90
  -1  -7  -7  796.32   47.40
  -1  -7  -7  798.82   49.70
  -1  -7  -7  813.22   52.39
  -1  -7  -7  745.73   47.40
   1   7   7  805.02   47.20
   1   7   7  775.72   50.49
   1   7   7  731.83   47.40
  -2  -7  -7  209.38   13.30
  -2  -7  -7  188.68   13.40
  -2  -7  -7  198.18   17.50
  -2  -7  -7  209.18   20.60
   2   7   7  208.68   12.50
   2   7   7  180.78   13.20
   2   7   7  146.59   16.60
   2   7   7  189.38   13.00
  -3  -7  -7  857.61   52.19
  -3  -7  -7  813.12   49.20
  -3  -7  -7  808.32   49.30
  -3  -7  -7  837.42   55.09
   3   7   7  728.23   49.00
   3   7   7  823.82   49.10
   3   7   7  810.02   49.00
  -4  -7  -7  771.02   48.90
  -4  -7  -7  771.02   45.60
  -4  -7  -7  759.12   51.99
  -4  -7  -7  739.43   45.70
   4   7   7  702.83   45.30
  -5  -7  -7  592.54   35.10
  -5  -7  -7  555.24   35.10
  -5  -7  -7  571.34   38.70
   5   7   7  546.55   34.80
  -6  -7  -7  917.01   57.79
  -6  -7  -7  970.40   60.19
  -6  -7  -7  998.30   57.69
   6   7   7  911.01   57.39
  -7  -7  -7   54.39    7.00
  -7  -7  -7   57.79   10.90
  -7  -7  -7   57.09    7.00
   3  -8  -7   12.20    5.20
  -3   8   7   17.50    9.70
  -3   8   7   24.30    6.00
  -3   8   7   18.20   10.80
  -3   8   7   20.70    5.70
   2  -8  -7   21.30    5.60
  -2   8   7   31.80    5.90
  -2   8   7   37.70    8.30
  -2   8   7   25.80   10.40
  -2   8   7   44.10    6.00
   1  -8  -7    5.80    8.70
   1  -8  -7   14.00    4.80
   1  -8  -7    5.50    6.70
  -1   8   7   17.70    9.30
  -1   8   7   -0.30    8.70
  -1   8   7   19.30    4.70
  -1   8   7   18.80    5.10
   0  -8  -7   61.29    9.20
   0  -8  -7   56.99   11.50
   0  -8  -7   49.70    6.10
   0   8   7   51.19    6.30
   0   8   7   44.40   10.10
   0   8   7   52.99   11.30
   0   8   7   52.09    5.90
  -1  -8  -7   75.89   10.90
  -1  -8  -7   84.99    7.60
  -1  -8  -7   87.29    7.40
  -1  -8  -7   70.19   13.40
   1   8   7   90.79    7.90
   1   8   7   78.59   12.90
   1   8   7   77.89    7.50
   1   8   7   96.89    7.40
  -2  -8  -7   87.49    7.70
  -2  -8  -7   83.59   14.60
  -2  -8  -7   97.49    8.20
  -2  -8  -7   81.09   11.60
   2   8   7   89.29    7.10
   2   8   7   77.19    7.50
   2   8   7   81.09    7.20
   2   8   7   76.29   11.50
  -3  -8  -7  126.79   10.80
  -3  -8  -7  130.89   10.50
  -3  -8  -7  142.99   16.50
   3   8   7  118.89   16.00
   3   8   7  141.59   10.50
  -4  -8  -7   69.09    7.20
  -4  -8  -7   68.69    6.60
  -4  -8  -7   63.39   11.70
   4   8   7   80.79    6.80
   4   8   7   39.60   10.40
  -5  -8  -7  215.38   14.60
  -5  -8  -7  217.58   21.10
  -5  -8  -7  249.08   15.20
   5   8   7  212.28   14.80
   5   8   7  168.18   19.70
  -6  -8  -7    3.80    5.40
  -6  -8  -7    6.20    5.20
  -6  -8  -7   15.90   10.00
   6   8   7    3.20    4.70
  -7  -8  -7  330.77   21.90
  -7  -8  -7  335.27   21.90
  -7  -8  -7  305.57   26.60
   2  -9  -7   29.00    5.80
  -2   9   7   28.10   10.80
  -2   9   7   37.40    6.60
  -2   9   7   42.20    6.30
  -2   9   7   36.60   10.90
   1  -9  -7  158.48   16.20
   1  -9  -7  150.98   12.80
  -1   9   7  195.78   12.20
  -1   9   7  150.38   18.00
  -1   9   7  171.68   13.30
  -1   9   7  174.08   19.40
   0  -9  -7  219.68   20.80
   0  -9  -7  215.78   24.30
   0  -9  -7  208.28   15.00
   0   9   7  231.78   15.70
   0   9   7  224.38   15.90
   0   9   7  239.18   15.60
   0   9   7  195.78   19.80
   0   9   7  238.28   22.10
  -1  -9  -7    5.70    4.90
  -1  -9  -7    2.20    8.70
   1   9   7   11.00   10.80
   1   9   7    9.10    5.00
   1   9   7    9.50    3.50
   1   9   7   10.60    4.30
  -2  -9  -7  124.19   14.40
  -2  -9  -7  109.89    9.80
  -2  -9  -7  142.09   11.40
   2   9   7  120.49   16.10
   2   9   7  116.79   10.30
  -3  -9  -7   -2.40    9.90
  -3  -9  -7    2.60    4.50
  -3  -9  -7    1.20    5.00
   3   9   7    0.10    4.80
   3   9   7  -14.50   10.60
  -4  -9  -7   49.10    6.80
  -4  -9  -7   58.79    6.50
  -4  -9  -7   59.59   12.20
   4   9   7   35.40   13.20
   4   9   7   45.00    6.30
  -5  -9  -7   25.70    5.90
  -5  -9  -7   26.70    5.70
  -5  -9  -7   23.40    9.10
   5   9   7   -4.90   12.10
   5   9   7   27.20    5.50
  -6  -9  -7    2.30   10.90
  -6  -9  -7    4.10    5.60
  -6  -9  -7   -0.10    5.60
   6   9   7    0.80    4.60
   1 -10  -7  144.69   12.20
  -1  10   7  111.29   15.10
  -1  10   7  144.09   11.20
  -1  10   7  157.68   12.30
  -1  10   7  146.79   19.80
  -1  10   7  169.08   12.90
   0 -10  -7   81.19    8.00
   0 -10  -7   71.99   11.50
   0  10   7   90.29   14.40
   0  10   7   81.89    8.00
   0  10   7   75.49    8.20
   0  10   7   61.99   11.60
  -1 -10  -7  460.95   31.30
  -1 -10  -7  496.15   35.30
   1  10   7  498.75   31.40
   1  10   7  532.15   37.70
  -2 -10  -7    5.20   10.20
  -2 -10  -7    8.50    5.40
   2  10   7    4.90   11.20
   2  10   7    8.80    5.30
  -3 -10  -7  425.36   32.40
  -3 -10  -7  412.26   26.40
   3  10   7  379.16   26.10
   3  10   7  413.46   31.50
  -4 -10  -7   40.60   12.80
  -4 -10  -7   32.20    5.40
   4  10   7   32.90    6.10
   4  10   7   21.90   13.10
  -5 -10  -7  132.49   11.20
  -5 -10  -7  151.08   17.70
   5  10   7   96.89   18.00
   5  10   7  136.69   10.40
  -1 -11  -7   18.40   10.40
  -1 -11  -7    7.40    5.90
   1  11   7   20.10    9.90
   1  11   7   15.50    5.60
  -2 -11  -7  404.16   32.00
  -2 -11  -7  394.86   26.00
   2  11   7  386.56   26.60
   2  11   7  456.65   34.30
  -3 -11  -7  116.59   14.50
  -3 -11  -7  110.39    9.90
   3  11   7   99.39   17.30
   3  11   7  105.39    9.80
  -4 -11  -7  305.87   20.60
  -4 -11  -7  334.37   26.00
   4  11   7  287.37   29.30
   4  11   7  273.37   19.60
   1   8  -8  522.85   32.70
   1   8  -8  462.95   30.80
   3   7  -8   19.70    5.50
   3   7  -8   15.50    5.60
   3   7  -8   18.50    8.50
   2   7  -8  428.36   26.10
   2   7  -8  380.46   25.90
   2   7  -8  420.26   27.60
   1   7  -8  174.18   15.00
   1   7  -8  136.49   10.80
   1   7  -8  138.19   11.40
   0   7  -8  116.39    9.20
   0   7  -8  105.29    8.50
   0   7  -8  138.39   13.90
  -1   7  -8  307.27   20.50
  -1   7  -8  358.06   23.00
  -2   7  -8   11.10    8.00
  -2   7  -8    7.00    2.70
   4   6  -8    5.50    5.20
   4   6  -8    1.10    8.30
   4   6  -8    2.80    5.50
   3   6  -8   19.80    6.20
   3   6  -8   15.50    4.90
   3   6  -8   17.60    5.30
   2   6  -8   30.40    7.90
   2   6  -8   25.30    4.80
   2   6  -8   25.70    5.40
   1   6  -8   16.20    3.80
   1   6  -8   19.10    7.20
   1   6  -8    9.50    3.90
   0   6  -8   52.89    5.00
   0   6  -8   42.50    4.50
   0   6  -8   53.89    8.40
  -1   6  -8   53.29    4.80
  -1   6  -8   67.09    8.90
  -1   6  -8   55.29    4.90
  -2   6  -8  166.98   11.20
  -2   6  -8  184.68   16.20
  -2   6  -8  178.78   15.50
  -3   6  -8    5.40    9.00
  -3   6  -8    1.00    1.40
  -3   6  -8    1.20    7.50
  -3   6  -8   -0.20    1.40
   5   5  -8   48.30    7.40
   5   5  -8   54.69    7.40
   5   5  -8   41.50    8.20
  -5  -5   8   43.60    6.20
   4   5  -8   34.50    6.00
   4   5  -8   29.70    5.80
   4   5  -8   33.90    8.80
   3   5  -8  111.99   11.90
   3   5  -8  135.59   10.60
   3   5  -8  130.49   10.40
   2   5  -8    3.60    3.70
   2   5  -8    3.90    4.80
   2   5  -8    1.30    4.00
   1   5  -8   22.50    4.10
   1   5  -8   28.80    6.90
   1   5  -8   33.80    4.20
   0   5  -8    1.00    4.40
   0   5  -8   -2.60    2.60
   0   5  -8    2.80    3.00
  -1   5  -8   17.10    3.00
  -1   5  -8   22.90    6.60
  -1   5  -8   19.20    6.40
  -2   5  -8   12.70    2.40
  -2   5  -8   16.00    7.30
  -2   5  -8   10.20    2.20
  -2   5  -8   10.90    6.40
  -3   5  -8   22.00    1.90
  -3   5  -8   26.20    9.00
  -3   5  -8   21.50    7.30
  -4   5  -8    6.50    8.70
  -4   5  -8   -1.80    7.20
  -4   5  -8    2.60    7.80
   5   4  -8  173.38   13.10
   5   4  -8  164.58   13.20
   5   4  -8  147.89   14.20
  -5  -4   8  144.49   12.20
   4   4  -8  435.56   28.20
   4   4  -8  424.96   29.90
   4   4  -8  482.55   28.20
  -4  -4   8  424.36   27.70
   3   4  -8   37.30    5.30
   3   4  -8   30.40    6.20
   3   4  -8   38.80    4.70
  -3  -4   8   32.30    4.80
   2   4  -8  763.12   46.70
   2   4  -8  765.62   47.90
   2   4  -8  748.83   46.70
  -2  -4   8  793.32   46.40
   1   4  -8   52.69    5.20
   1   4  -8   59.19    5.30
   1   4  -8   56.69    6.60
   0   4  -8  809.52   50.29
   0   4  -8  860.01   49.40
   0   4  -8  785.32   55.09
  -1   4  -8  380.26   22.70
  -1   4  -8  371.66   22.80
  -1   4  -8  358.66   28.40
  -1   4  -8  380.36   24.70
  -2   4  -8  277.97   25.50
  -2   4  -8  306.77   18.20
  -2   4  -8  306.67   20.70
  -2   4  -8  284.57   18.20
  -2   4  -8  302.87   19.80
  -2   4  -8  321.77   21.70
  -3   4  -8  292.77   20.70
  -3   4  -8  293.37   25.30
  -4   4  -8   78.49    9.00
  -4   4  -8   66.99   10.60
  -4   4  -8   59.49   10.00
  -4   4  -8   69.99    9.40
  -4   4  -8   71.39   13.30
  -5   4  -8  260.27   22.40
  -5   4  -8  248.88   20.80
  -5   4  -8  271.27   19.90
   5   3  -8  711.43   40.50
   5   3  -8  607.04   41.60
  -5  -3   8  638.94   40.20
   4   3  -8    0.30    4.70
   4   3  -8    1.20    9.40
   4   3  -8    7.00    7.20
  -4  -3   8    7.90    4.10
   3   3  -8 1508.55   94.09
   3   3  -8 1610.74   94.09
   3   3  -8 1539.05   95.09
   3   3  -8 1639.54   98.89
  -3  -3   8 1545.25   93.89
   2   3  -8  345.57   22.20
   2   3  -8  332.47   22.90
   2   3  -8  349.67   28.20
   2   3  -8  377.16   22.20
  -2  -3   8  349.07   21.90
   1   3  -8 1391.46   85.59
   1   3  -8 1371.06   86.39
   1   3  -8 1505.45   90.79
  -1  -3   8 1463.25   85.49
   0   3  -8 1075.89   66.99
   0   3  -8 1145.99   67.99
   0   3  -8 1132.39   71.69
   0   3  -8 1127.69   66.89
  -1   3  -8  315.37   21.20
  -1   3  -8  351.76   21.30
  -1   3  -8  330.47   19.70
  -1   3  -8  304.47   26.10
  -1   3  -8  311.07   19.80
  -1   3  -8  314.67   19.70
  -2   3  -8 1611.74   97.49
  -2   3  -8 1505.95   92.09
  -2   3  -8 1573.54   93.99
  -2   3  -8 1514.65   93.39
  -3   3  -8    0.90    6.30
  -3   3  -8   -2.00    6.30
  -3   3  -8    3.60    5.00
  -3   3  -8   -2.20    5.20
  -3   3  -8    8.30    8.50
  -4   3  -8 1290.27   79.29
  -4   3  -8 1284.37   77.99
  -4   3  -8 1263.27   78.59
  -4   3  -8 1257.27   77.79
  -4   3  -8 1285.97   81.19
  -5   3  -8  131.39   15.30
  -5   3  -8  117.59   12.60
  -5   3  -8  111.69   12.00
  -5   3  -8  127.09   13.80
  -6   3  -8  455.45   32.70
  -6   3  -8  437.66   31.30
   5   2  -8   16.40    8.20
   5   2  -8   13.80    5.80
  -5  -2   8   18.00    9.60
  -5  -2   8   13.30    5.10
   4   2  -8  709.33   46.00
   4   2  -8  697.33   41.10
   4   2  -8  588.64   42.00
  -4  -2   8  635.84   40.90
  -4  -2   8  732.83   43.40
   3   2  -8  321.47   23.40
   3   2  -8  352.66   27.80
   3   2  -8  344.97   22.00
  -3  -2   8  388.56   23.90
  -3  -2   8  322.07   21.70
   2   2  -8  118.29   15.60
   2   2  -8  118.59    9.50
   2   2  -8  131.99   11.10
  -2  -2   8  150.48   12.20
  -2  -2   8  126.79    9.10
   1   2  -8  635.24   39.30
   1   2  -8  648.24   40.10
   1   2  -8  655.53   43.50
  -1  -2   8  656.33   39.20
   0   2  -8    3.60    6.00
   0   2  -8    4.70    2.50
   0   2  -8   10.00    4.40
   0   2  -8    2.70    2.40
   0   2  -8    7.40    2.20
   0  -2   8    5.90    2.10
  -1   2  -8 1065.39   69.39
  -1   2  -8 1084.49   64.69
  -1   2  -8 1068.19   64.69
  -1   2  -8 1056.49   65.49
  -1   2  -8 1140.89   65.49
  -2   2  -8  104.79   12.50
  -2   2  -8   98.09   10.30
  -2   2  -8  103.19    6.60
  -2   2  -8  113.19    6.60
  -2   2  -8   99.69    6.90
  -2   2  -8  101.59    8.90
  -2   2  -8   98.49    9.60
  -2   2  -8  114.19    6.80
  -3   2  -8  750.12   46.10
  -3   2  -8  700.43   43.40
  -3   2  -8  752.62   46.10
  -3   2  -8  736.53   45.00
  -3   2  -8  776.82   49.10
  -3   2  -8  692.13   43.40
  -4   2  -8  301.27   21.40
  -4   2  -8  292.27   21.80
  -4   2  -8  299.77   22.30
  -4   2  -8  326.47   25.00
  -4   2  -8  294.67   20.60
  -5   2  -8  190.08   15.80
  -5   2  -8  186.28   19.10
  -5   2  -8  158.08   15.00
  -5   2  -8  169.28   16.50
  -5   2  -8  153.38   14.50
  -6   2  -8  405.96   28.70
  -6   2  -8  411.16   30.00
   5   1  -8    9.50    5.50
   5   1  -8   13.60    7.40
  -5  -1   8    5.20    4.90
  -5  -1   8   15.40    9.10
   4   1  -8    2.90    4.70
   4   1  -8   -3.40    4.60
   4   1  -8   -1.20    6.70
  -4  -1   8    3.30    3.90
  -4  -1   8   -9.60    7.20
   3   1  -8  104.19   10.60
   3   1  -8  105.59    9.10
   3   1  -8  112.79   13.50
  -3  -1   8  104.99    8.40
  -3  -1   8  102.59   12.10
   2   1  -8  112.49   10.20
   2   1  -8  109.99    9.10
   2   1  -8  117.59   14.20
  -2  -1   8  120.89    8.60
  -2  -1   8  130.69   11.80
   1   1  -8  109.99    9.10
   1   1  -8  124.89   14.40
   1   1  -8  126.49    8.70
   1   1  -8  116.39    9.70
  -1  -1   8  135.29    8.30
  -1  -1   8  123.49    8.50
   0   1  -8  347.97   26.00
   0   1  -8  321.27   21.50
   0   1  -8  344.17   20.90
   0   1  -8  339.97   21.00
   0   1  -8  313.47   21.00
   0  -1   8  333.27   20.80
   0  -1   8  385.36   20.80
  -1   1  -8    8.50    3.00
  -1   1  -8    3.00    5.40
  -1   1  -8    1.30    7.20
  -1   1  -8    3.00    2.40
  -1   1  -8    4.20    2.10
  -1   1  -8    4.60    1.70
  -1   1  -8    2.70    2.00
  -1   1  -8    4.60    2.00
   1  -1   8    4.80    1.60
  -2   1  -8  140.39    9.10
  -2   1  -8  142.19   13.20
  -2   1  -8  143.99    9.00
  -2   1  -8  144.59    9.20
  -2   1  -8  140.89   15.70
  -2   1  -8  142.39    9.30
  -2   1  -8  151.08   10.70
   2  -1   8  156.28    8.90
  -3   1  -8   48.10    7.60
  -3   1  -8   49.10   10.10
  -3   1  -8   48.40    5.70
  -3   1  -8   45.30    3.50
  -3   1  -8   46.10    3.60
  -4   1  -8  107.39   12.40
  -4   1  -8  106.29    6.40
  -4   1  -8  124.49   16.00
  -4   1  -8  102.49    9.30
  -4   1  -8   97.59    6.40
  -5   1  -8  310.47   22.70
  -5   1  -8  316.07   22.70
  -5   1  -8  306.27   18.70
  -5   1  -8  325.97   25.70
  -5   1  -8  302.07   18.50
  -6   1  -8   10.90    1.70
  -6   1  -8    5.90    2.20
  -6   1  -8    7.10    7.80
  -7   1  -8  248.68   15.70
  -7   1  -8  277.07   21.90
   5   0  -8   48.70    6.70
  -5   0   8   59.89    6.50
  -5   0   8   50.89   10.90
   4   0  -8   64.59    6.40
   4   0  -8   55.89    6.50
   4   0  -8   65.69    7.40
   4   0  -8   60.39    8.20
  -4   0   8   59.69    6.30
  -4   0   8   56.59   10.30
   3   0  -8  113.39    9.00
   3   0  -8  103.69    8.50
   3   0  -8  114.19   13.80
   3   0  -8  118.69   10.60
   3   0  -8  117.29   11.30
  -3   0   8  105.89   11.90
  -3   0   8  114.79    8.80
   2   0  -8   42.20    5.50
   2   0  -8   42.70    4.70
   2   0  -8   35.30    4.70
   2   0  -8   40.70    8.30
   2   0  -8   38.40    6.20
  -2   0   8   35.60    7.60
  -2   0   8   40.60    4.40
  -2   0   8   36.60    4.00
   1   0  -8  287.27   18.00
   1   0  -8  279.07   18.00
   1   0  -8  299.77   20.20
   1   0  -8  282.67   18.10
   1   0  -8  274.17   18.40
   1   0  -8  283.07   22.30
  -1   0   8  299.47   20.70
  -1   0   8  294.17   17.90
   0   0  -8   26.80    3.80
   0   0  -8   26.70    3.40
   0   0  -8   20.10    3.00
   0   0  -8   29.00    3.20
   0   0  -8   29.00    3.30
   0   0  -8   25.10    7.80
   0   0  -8   23.60    5.70
   0   0   8   29.80    2.80
   0   0   8   25.20    2.90
  -1   0  -8  116.79   11.50
  -1   0  -8  118.79    8.10
  -1   0  -8  118.09    8.60
  -1   0  -8  112.19    8.20
  -1   0  -8  120.79   14.00
  -1   0  -8  111.29    8.10
  -1   0  -8  107.79    8.20
  -1   0  -8  131.69    8.60
   1   0   8  117.39    8.00
   1   0   8  146.79    9.00
   1   0   8  135.79    7.90
  -2   0  -8   32.50    8.60
  -2   0  -8   31.80    2.90
  -2   0  -8   28.70    2.90
  -2   0  -8   31.60    3.70
  -2   0  -8   31.80    2.80
  -2   0  -8   30.80    6.40
  -2   0  -8   30.10    2.90
  -3   0  -8   56.69    4.80
  -3   0  -8   62.99    6.20
  -3   0  -8   61.79    4.90
  -3   0  -8   58.29    4.50
  -3   0  -8   62.69    4.40
  -3   0  -8   59.69    8.10
  -3   0  -8   62.89   10.60
   3   0   8   76.79    4.10
  -4   0  -8   48.30    2.80
  -4   0  -8   39.60    2.80
  -4   0  -8   38.00    5.40
  -4   0  -8   40.20    3.40
  -4   0  -8   41.70    3.40
  -4   0  -8   45.00    9.50
  -4   0  -8   42.70    7.30
  -5   0  -8   46.40    3.80
  -5   0  -8   37.60    3.60
  -5   0  -8   43.20    9.60
  -5   0  -8   39.80    7.30
  -6   0  -8  113.99   12.70
  -6   0  -8   99.69    7.50
  -6   0  -8  108.99    7.10
  -6   0  -8   94.39   11.90
  -7   0  -8    2.10    2.40
  -7   0  -8    3.40    6.60
   5  -1  -8   45.70    6.30
  -5   1   8   53.89    5.60
  -5   1   8   47.70   11.20
   4  -1  -8  910.91   51.39
   4  -1  -8  864.61   50.79
   4  -1  -8  803.92   50.89
  -4   1   8  764.82   53.69
  -4   1   8  817.72   50.69
   3  -1  -8   82.79    9.40
   3  -1  -8   81.19   11.70
   3  -1  -8   87.79    7.30
   3  -1  -8   87.09    9.00
   3  -1  -8   87.29    6.80
  -3   1   8   82.19    7.50
  -3   1   8   88.69    6.40
  -3   1   8   63.19    9.40
   2  -1  -8 1032.30   65.09
   2  -1  -8 1037.40   64.59
   2  -1  -8 1080.09   64.79
   2  -1  -8 1101.29   67.59
   2  -1  -8 1088.79   65.69
  -2   1   8 1139.39   64.49
  -2   1   8  930.61   66.79
  -2   1   8 1190.78   64.29
  -2   1   8 1056.39   64.59
   1  -1  -8  661.83   42.70
   1  -1  -8  709.63   44.00
   1  -1  -8  686.63   42.60
   1  -1  -8  721.53   46.00
   1  -1  -8  718.33   42.50
   1  -1  -8  713.93   42.60
  -1   1   8  775.82   42.40
  -1   1   8  646.04   44.80
  -1   1   8  696.43   42.50
   0  -1  -8  672.93   44.50
   0  -1  -8  718.23   46.00
   0  -1  -8  724.13   48.00
   0  -1  -8  801.92   44.60
   0  -1  -8  707.83   44.50
   0  -1  -8  711.03   44.40
   0  -1  -8  708.73   44.50
   0   1   8  719.73   44.40
   0   1   8  783.02   44.30
   0   1   8  839.02   44.70
  -1  -1  -8 1632.94   90.69
  -1  -1  -8 1471.95   94.19
  -1  -1  -8 1422.66   90.49
  -1  -1  -8 1449.95   90.59
  -1  -1  -8 1451.35   90.59
  -1  -1  -8 1620.44   90.99
  -1  -1  -8 1425.76   92.09
  -1  -1  -8 1427.26   90.59
   1   1   8 1493.05   90.49
   1   1   8 1750.02   90.59
   1   1   8 1563.44   93.99
  -2  -1  -8   41.00    6.70
  -2  -1  -8   38.00    3.80
  -2  -1  -8   40.70    3.60
  -2  -1  -8   40.20    8.80
  -2  -1  -8   48.00    3.80
  -2  -1  -8   38.50    3.60
  -2  -1  -8   41.90    3.70
   2   1   8   49.00    8.50
   2   1   8   41.00    3.60
  -3  -1  -8 1298.27   83.09
  -3  -1  -8 1297.67   79.09
  -3  -1  -8 1252.67   78.89
  -3  -1  -8 1330.77   80.99
  -3  -1  -8 1331.77   78.99
  -3  -1  -8 1249.68   78.99
  -3  -1  -8 1429.56   78.99
   3   1   8 1419.16   82.79
  -4  -1  -8  259.47   19.30
  -4  -1  -8  253.57   16.30
  -4  -1  -8  271.27   16.30
  -4  -1  -8  267.47   21.90
  -4  -1  -8  260.47   16.80
  -4  -1  -8  266.27   16.10
  -5  -1  -8  332.37   19.50
  -5  -1  -8  325.37   22.80
  -5  -1  -8  321.07   19.80
  -5  -1  -8  294.87   19.80
  -5  -1  -8  341.27   25.40
  -6  -1  -8  233.38   17.60
  -6  -1  -8  196.98   19.30
  -6  -1  -8  221.88   14.20
  -6  -1  -8  225.38   13.80
  -6  -1  -8  232.28   20.40
  -7  -1  -8   77.69    6.50
  -7  -1  -8   75.89   10.30
   5  -2  -8  928.81   57.49
  -5   2   8  920.31   60.89
  -5   2   8  985.60   57.49
   4  -2  -8  272.97   18.30
  -4   2   8  285.97   18.10
  -4   2   8  256.37   22.90
   3  -2  -8 1372.56   78.09
   3  -2  -8 1373.06   79.69
   3  -2  -8 1229.48   77.49
   3  -2  -8 1336.77   77.49
  -3   2   8 1097.09   79.89
  -3   2   8 1331.47   77.29
  -3   2   8 1264.27   77.29
   2  -2  -8 1038.10   64.49
   2  -2  -8 1102.79   64.49
   2  -2  -8 1095.19   67.19
   2  -2  -8 1085.19   65.39
  -2   2   8 1083.09   64.39
  -2   2   8  900.51   66.79
  -2   2   8 1130.79   64.99
  -2   2   8 1119.19   64.29
   1  -2  -8  478.55   29.30
   1  -2  -8  473.35   30.40
   1  -2  -8  454.75   29.20
   1  -2  -8  486.65   29.20
   1  -2  -8  473.05   32.30
   1  -2  -8  482.35   29.10
  -1   2   8  501.55   28.90
  -1   2   8  465.65   29.00
  -1   2   8  504.25   29.30
  -1   2   8  408.16   31.90
   0  -2  -8 2326.27  129.89
   0  -2  -8 2253.77  131.19
   0  -2  -8 2265.17  129.79
   0  -2  -8 2123.99  129.79
   0  -2  -8 2093.89  130.99
   0  -2  -8 2205.08  129.79
   0  -2  -8 2160.18  132.89
   0   2   8 2312.07  132.89
   0   2   8 2197.68  129.79
   0   2   8 2132.79  129.69
   0   2   8 1893.51  131.59
  -1  -2  -8   23.90    3.10
  -1  -2  -8   18.60    3.60
  -1  -2  -8   16.70    7.30
  -1  -2  -8   28.40    2.70
  -1  -2  -8   19.40    5.50
  -1  -2  -8   18.50    2.90
  -1  -2  -8   17.70    2.80
  -1  -2  -8   18.00    3.00
   1   2   8   18.20    2.50
   1   2   8   24.20    2.30
   1   2   8   19.40    6.80
   1   2   8   20.70    2.80
  -2  -2  -8 2277.37  132.49
  -2  -2  -8 2100.29  135.69
  -2  -2  -8 2179.68  132.39
  -2  -2  -8 2125.09  133.99
  -2  -2  -8 2423.06  132.49
  -2  -2  -8 2169.18  132.39
  -2  -2  -8 2177.18  132.49
   2   2   8 2385.66  132.29
   2   2   8 2134.19  132.29
   2   2   8 2287.87  136.09
  -3  -2  -8  365.06   25.90
  -3  -2  -8  434.76   23.60
  -3  -2  -8  369.36   23.50
  -3  -2  -8  375.16   23.50
  -3  -2  -8  360.26   23.50
  -3  -2  -8  373.16   28.20
  -3  -2  -8  379.76   23.10
   3   2   8  410.16   23.40
   3   2   8  392.16   28.00
  -4  -2  -8 1128.19   67.89
  -4  -2  -8 1154.58   71.89
  -4  -2  -8 1144.79   67.99
  -4  -2  -8 1154.88   67.89
  -4  -2  -8 1140.39   69.79
  -4  -2  -8 1097.89   67.89
  -5  -2  -8  490.85   28.50
  -5  -2  -8  470.85   31.20
  -5  -2  -8  461.75   28.60
  -5  -2  -8  448.26   28.60
  -5  -2  -8  476.35   33.70
  -6  -2  -8  264.37   23.30
  -6  -2  -8  263.27   15.80
  -6  -2  -8  225.28   16.00
  -6  -2  -8  254.67   19.90
  -7  -2  -8  446.96   27.30
  -7  -2  -8  436.76   30.60
   5  -3  -8   61.39    6.80
  -5   3   8   53.49    5.90
  -5   3   8   47.90   12.00
   4  -3  -8   81.69    7.40
  -4   3   8   74.29    6.60
  -4   3   8   63.69   12.10
   3  -3  -8  291.97   17.90
   3  -3  -8  254.57   18.00
   3  -3  -8  293.67   18.70
  -3   3   8  251.47   17.80
  -3   3   8  298.57   19.80
  -3   3   8  271.57   17.70
  -3   3   8  221.48   22.30
   2  -3  -8   14.60    4.00
   2  -3  -8   14.60    3.10
   2  -3  -8   18.60    6.30
   2  -3  -8   13.10    4.60
  -2   3   8   15.40    5.20
  -2   3   8   13.00    3.40
  -2   3   8   13.30    3.10
  -2   3   8   10.00    6.40
   1  -3  -8  963.00   62.79
   1  -3  -8  952.10   61.19
   1  -3  -8 1062.39   60.29
   1  -3  -8  965.20   60.29
  -1   3   8 1027.70   61.19
  -1   3   8 1006.40   60.19
  -1   3   8 1040.20   63.09
  -1   3   8  911.71   62.79
  -1   3   8 1073.69   60.09
   0  -3  -8   49.80    6.80
   0  -3  -8   54.19    5.00
   0  -3  -8   50.59    4.80
   0  -3  -8   84.79    5.80
   0  -3  -8   51.19    8.80
   0  -3  -8   56.99    5.90
   0   3   8   46.60    5.90
   0   3   8   58.39    5.00
   0   3   8   57.39    9.00
   0   3   8   44.10    8.90
   0   3   8   52.19    4.80
   0   3   8   59.19    4.80
  -1  -3  -8  974.70   57.39
  -1  -3  -8  907.31   57.39
  -1  -3  -8  874.91   58.89
  -1  -3  -8  926.21   57.49
  -1  -3  -8  874.81   60.69
  -1  -3  -8 1068.29   58.39
   1   3   8  909.21   57.39
   1   3   8  991.00   58.39
   1   3   8  963.30   61.09
   1   3   8 1061.19   56.99
  -2  -3  -8  149.79   12.70
  -2  -3  -8  194.18   11.10
  -2  -3  -8  160.18   10.90
  -2  -3  -8  158.28   10.70
  -2  -3  -8  165.18   10.80
  -2  -3  -8  154.08   14.60
   2   3   8  146.19   10.50
   2   3   8  179.48   10.60
   2   3   8  169.48   16.30
  -3  -3  -8  581.84   36.10
  -3  -3  -8  562.64   39.80
  -3  -3  -8  564.44   36.10
  -3  -3  -8  701.03   36.30
  -3  -3  -8  527.55   36.00
  -3  -3  -8  567.44   37.80
   3   3   8  589.54   36.00
   3   3   8  626.24   41.10
   3   3   8  650.13   35.90
  -4  -3  -8  426.16   26.10
  -4  -3  -8  419.46   28.70
  -4  -3  -8  421.36   31.20
  -4  -3  -8  436.76   26.20
  -4  -3  -8  404.46   26.10
   4   3   8  445.36   25.90
  -5  -3  -8  141.79   13.00
  -5  -3  -8  129.79   15.80
  -5  -3  -8  123.89    8.90
  -5  -3  -8  101.79    8.90
  -6  -3  -8  700.93   42.30
  -6  -3  -8  675.63   42.40
  -6  -3  -8  686.73   44.70
  -6  -3  -8  731.63   47.60
  -7  -3  -8    9.30    7.60
  -7  -3  -8   -8.00    8.80
  -7  -3  -8    0.30    3.70
  -7  -3  -8    4.00    3.50
   5  -4  -8   34.10    5.00
  -5   4   8   29.70    6.00
  -5   4   8   31.20   11.50
   4  -4  -8   50.39    5.60
  -4   4   8   74.99   14.80
  -4   4   8   45.20    6.30
  -4   4   8   48.90   11.60
   3  -4  -8    8.80    4.50
   3  -4  -8   17.60    4.90
  -3   4   8   17.10    3.40
  -3   4   8   17.70    6.50
  -3   4   8   28.40    4.80
  -3   4   8   15.30    9.60
   2  -4  -8   90.99    8.40
   2  -4  -8   94.69    9.80
   2  -4  -8  101.99   12.40
   2  -4  -8  108.99    8.40
  -2   4   8   87.99    7.30
  -2   4   8   98.19   11.30
  -2   4   8  103.59   12.00
  -2   4   8   93.39    8.20
  -2   4   8  101.89   12.10
   1  -4  -8   28.40    7.40
   1  -4  -8   33.80    4.40
   1  -4  -8   31.50    5.70
   1  -4  -8   33.90    3.80
  -1   4   8   37.70    4.40
  -1   4   8   16.70    8.50
  -1   4   8   34.30    6.80
  -1   4   8   33.30    7.40
  -1   4   8   33.00    4.00
   0  -4  -8  305.97   18.00
   0  -4  -8  267.27   17.80
   0  -4  -8  276.47   21.80
   0  -4  -8  289.17   17.90
   0  -4  -8  281.07   19.70
   0   4   8  302.87   22.20
   0   4   8  254.17   19.40
   0   4   8  286.07   17.60
   0   4   8  273.17   17.90
   0   4   8  303.27   22.00
  -1  -4  -8   52.79    9.70
  -1  -4  -8   64.29    5.50
  -1  -4  -8   54.89    7.50
  -1  -4  -8   71.99    5.90
  -1  -4  -8   62.69    5.30
   1   4   8   61.29    4.20
   1   4   8   58.79    7.60
   1   4   8   55.49   10.10
   1   4   8   71.59    5.40
   1   4   8   59.89    5.20
  -2  -4  -8  331.17   19.20
  -2  -4  -8  284.47   23.80
  -2  -4  -8  327.87   19.20
  -2  -4  -8  283.87   21.40
  -2  -4  -8  287.77   19.00
   2   4   8  318.07   23.90
   2   4   8  308.07   19.00
   2   4   8  297.47   21.10
  -3  -4  -8  821.12   43.90
  -3  -4  -8  723.33   43.70
  -3  -4  -8  658.63   43.60
  -3  -4  -8  663.03   47.90
  -3  -4  -8  746.73   43.70
  -3  -4  -8  657.63   45.60
   3   4   8  727.23   43.50
   3   4   8  776.72   43.40
  -4  -4  -8   19.30    9.10
  -4  -4  -8   28.90    3.80
  -4  -4  -8   32.70    4.20
  -4  -4  -8   14.60    6.80
   4   4   8   22.50    3.20
  -5  -4  -8  700.03   38.50
  -5  -4  -8  580.54   40.30
  -5  -4  -8  598.34   43.40
  -5  -4  -8  645.24   38.40
  -6  -4  -8    4.60    3.60
  -6  -4  -8   10.50   10.60
  -6  -4  -8    2.90    6.90
  -6  -4  -8    0.90    4.00
  -7  -4  -8  393.66   27.50
  -7  -4  -8  389.76   24.50
  -7  -4  -8  373.76   24.30
   4  -5  -8   -2.00    4.50
  -4   5   8    0.40    6.80
  -4   5   8   -6.20    9.80
  -4   5   8    4.00    5.00
   3  -5  -8  138.39   11.70
  -3   5   8  159.88   15.60
  -3   5   8  160.28   11.50
  -3   5   8  149.09   17.80
  -3   5   8  153.48   11.70
   2  -5  -8   45.30    6.70
   2  -5  -8   37.60    5.10
   2  -5  -8   45.10    5.50
   2  -5  -8   40.30    8.60
  -2   5   8   40.10    5.10
  -2   5   8   31.30    8.30
  -2   5   8   40.00    5.40
  -2   5   8   45.40    7.80
   1  -5  -8  127.99   12.30
   1  -5  -8  137.79    9.90
   1  -5  -8  137.89   15.10
   1  -5  -8  124.59   10.10
  -1   5   8  139.79   14.20
  -1   5   8  120.19   13.40
  -1   5   8  128.09   10.00
  -1   5   8  122.69   13.50
  -1   5   8  142.99    9.20
   0  -5  -8   90.29    7.60
   0  -5  -8   90.99   12.60
   0  -5  -8   91.39   10.30
   0  -5  -8   85.09    7.70
   0   5   8   95.29    7.10
   0   5   8   66.19    9.70
   0   5   8   89.69   12.10
   0   5   8   81.29   12.20
   0   5   8   85.39    6.80
  -1  -5  -8  195.58   16.40
  -1  -5  -8  209.98   13.90
  -1  -5  -8  194.38   18.90
  -1  -5  -8  194.48   14.00
   1   5   8  159.18   16.40
   1   5   8  234.88   12.90
   1   5   8  227.78   13.70
   1   5   8  201.88   13.80
   1   5   8  225.08   13.00
   1   5   8  214.68   19.60
  -2  -5  -8  398.66   25.00
  -2  -5  -8  392.96   26.70
  -2  -5  -8  419.66   24.70
  -2  -5  -8  404.56   29.90
   2   5   8  392.86   24.80
   2   5   8  449.46   24.70
   2   5   8  346.27   27.30
  -3  -5  -8    0.00    3.20
  -3  -5  -8   -1.70    6.00
  -3  -5  -8    7.70    8.50
  -3  -5  -8    5.40    3.50
   3   5   8   -7.50    6.00
   3   5   8    2.30    2.90
  -4  -5  -8  162.48   11.50
  -4  -5  -8  163.38   15.50
  -4  -5  -8  159.98   11.40
  -4  -5  -8  158.88   18.50
   4   5   8  165.58   11.00
  -5  -5  -8    4.80    7.20
  -5  -5  -8   -0.60    9.20
  -5  -5  -8    3.90    3.70
  -5  -5  -8    0.20    3.90
   5   5   8    7.30    3.40
  -6  -5  -8   55.49    9.50
  -6  -5  -8   49.00    5.70
  -6  -5  -8   50.19    5.90
  -7  -5  -8    0.80    7.50
  -7  -5  -8   -2.70    4.60
  -7  -5  -8    4.40    4.60
   4  -6  -8  191.98   15.20
  -4   6   8  228.08   14.80
  -4   6   8  226.18   20.40
  -4   6   8  195.78   18.90
   3  -6  -8  190.38   14.50
  -3   6   8  168.28   20.30
  -3   6   8  198.98   14.60
  -3   6   8  222.88   19.50
  -3   6   8  213.98   13.80
   2  -6  -8  263.77   22.10
   2  -6  -8  262.97   18.60
   2  -6  -8  303.87   20.10
  -2   6   8  306.27   22.90
  -2   6   8  252.07   23.60
  -2   6   8  302.47   18.50
  -2   6   8  266.67   18.70
   1  -6  -8  664.33   42.10
   1  -6  -8  619.74   40.90
   1  -6  -8  636.84   43.90
   1  -6  -8  680.73   40.90
  -1   6   8  686.03   44.40
  -1   6   8  697.93   40.80
  -1   6   8  742.73   44.30
  -1   6   8  608.74   44.30
  -1   6   8  668.93   40.90
   0  -6  -8   11.60    4.10
   0  -6  -8   11.00    4.00
   0  -6  -8   13.10    6.10
   0  -6  -8   14.00    8.10
   0   6   8   16.90    4.20
   0   6   8   11.70    3.70
   0   6   8    3.80    7.20
   0   6   8   10.50    6.60
  -1  -6  -8  634.54   44.40
  -1  -6  -8  635.34   42.10
  -1  -6  -8  648.74   40.10
  -1  -6  -8  642.54   40.20
   1   6   8  723.33   40.00
   1   6   8  597.34   43.40
   1   6   8  624.44   40.00
   1   6   8  729.63   39.50
  -2  -6  -8  124.29   11.50
  -2  -6  -8  118.19    8.60
  -2  -6  -8  123.79   16.10
  -2  -6  -8  116.09    9.10
   2   6   8  121.89    8.60
   2   6   8   91.29   12.40
   2   6   8  114.69    8.80
  -3  -6  -8  514.65   33.30
  -3  -6  -8  499.95   30.20
  -3  -6  -8  485.45   30.20
  -3  -6  -8  502.75   36.10
   3   6   8  498.05   30.00
   3   6   8  430.86   33.60
  -4  -6  -8  375.16   24.30
  -4  -6  -8  386.36   24.20
  -4  -6  -8  392.36   30.70
  -4  -6  -8  376.36   26.60
   4   6   8  387.26   23.90
  -5  -6  -8  226.28   19.90
  -5  -6  -8  224.88   15.50
  -5  -6  -8  228.98   15.50
   5   6   8  232.58   15.10
  -6  -6  -8  410.96   26.40
  -6  -6  -8  424.76   26.40
  -6  -6  -8  414.86   30.00
  -7  -6  -8    5.10    8.40
  -7  -6  -8   -3.60    5.20
  -7  -6  -8   -4.60    4.90
   3  -7  -8  387.26   25.30
  -3   7   8  373.46   28.90
  -3   7   8  405.86   26.00
  -3   7   8  430.96   29.50
   2  -7  -8  541.35   36.20
  -2   7   8  572.24   36.30
  -2   7   8  542.65   39.10
  -2   7   8  620.54   36.00
  -2   7   8  640.54   39.80
   1  -7  -8   30.80    9.80
   1  -7  -8   25.10    4.40
   1  -7  -8   30.90    6.80
  -1   7   8   36.00    5.30
  -1   7   8   29.30   10.20
  -1   7   8   33.60    5.00
  -1   7   8   20.20    9.90
   0  -7  -8 1235.88   71.19
   0  -7  -8 1175.88   75.09
   0  -7  -8 1204.88   72.89
   0  -7  -8 1106.69   71.19
   0   7   8 1064.39   73.99
   0   7   8 1274.97   71.09
   0   7   8 1288.17   74.69
   0   7   8 1097.89   71.09
  -1  -7  -8  125.59   14.20
  -1  -7  -8  134.19   17.10
  -1  -7  -8  132.09    9.80
  -1  -7  -8  118.39   10.60
   1   7   8  125.59   16.30
   1   7   8  152.38   10.30
   1   7   8  154.58    9.60
   1   7   8  135.59    9.90
  -2  -7  -8 1224.88   71.79
  -2  -7  -8 1219.58   74.59
  -2  -7  -8 1186.08   69.19
  -2  -7  -8 1145.79   69.29
   2   7   8 1018.10   72.49
   2   7   8 1103.49   69.09
  -3  -7  -8  479.05   29.30
  -3  -7  -8  490.55   34.70
  -3  -7  -8  496.55   31.90
  -3  -7  -8  486.35   29.20
   3   7   8  458.65   29.20
   3   7   8  406.26   33.60
  -4  -7  -8  428.26   26.30
  -4  -7  -8  440.36   30.10
  -4  -7  -8  417.86   26.20
   4   7   8  358.96   30.80
   4   7   8  425.56   26.00
  -5  -7  -8  655.13   40.60
  -5  -7  -8  638.04   40.90
  -5  -7  -8  681.33   44.40
   5   7   8  683.63   40.60
  -6  -7  -8   29.80    5.70
  -6  -7  -8   29.00    5.80
  -6  -7  -8   37.90    9.80
  -7  -7  -8  726.03   44.40
  -7  -7  -8  714.33   47.80
   2  -8  -8    0.60    4.90
  -2   8   8    3.20    9.30
  -2   8   8    7.60    7.70
  -2   8   8    3.70    5.50
   1  -8  -8  734.33   43.90
   1  -8  -8  536.85   39.00
   1  -8  -8  720.53   41.20
  -1   8   8  597.24   39.10
  -1   8   8  657.73   43.20
  -1   8   8  617.74   38.90
  -1   8   8  540.15   42.60
   0  -8  -8   11.90    7.30
   0  -8  -8    6.00    9.30
   0  -8  -8    3.20    4.70
   0   8   8   -0.90    9.10
   0   8   8    8.20    9.10
   0   8   8   10.70    4.50
   0   8   8   12.70    4.00
   0   8   8   10.70    4.80
  -1  -8  -8  684.33   45.70
  -1  -8  -8  788.02   48.40
  -1  -8  -8  765.62   45.70
  -1  -8  -8  773.52   51.19
   1   8   8  759.72   49.30
   1   8   8  714.33   45.60
  -2  -8  -8  345.87   24.20
  -2  -8  -8  298.87   20.00
  -2  -8  -8  321.57   19.90
   2   8   8  278.07   25.80
   2   8   8  281.47   19.90
  -3  -8  -8  162.18   14.50
  -3  -8  -8  128.89   10.10
  -3  -8  -8  147.29   10.80
   3   8   8   97.99   15.30
   3   8   8  132.49   10.60
  -4  -8  -8  718.33   44.70
  -4  -8  -8  749.42   48.40
  -4  -8  -8  764.22   44.60
   4   8   8  683.53   44.20
  -5  -8  -8    0.10    9.30
  -5  -8  -8    3.90    5.10
  -5  -8  -8    5.00    5.00
   5   8   8    1.50    4.40
  -6  -8  -8  740.33   47.80
  -6  -8  -8  798.42   47.80
  -6  -8  -8  795.72   51.69
  -7  -8  -8   88.69    9.10
  -7  -8  -8  102.79    9.00
  -7  -8  -8   82.19   13.20
   1  -9  -8   97.19    8.60
  -1   9   8  113.99   14.40
  -1   9   8   85.59    9.00
  -1   9   8   88.09   13.60
   0  -9  -8   36.10    5.30
   0  -9  -8   54.59   10.60
   0   9   8   33.60   10.70
   0   9   8   45.80   11.90
   0   9   8   40.80    6.40
  -1  -9  -8  210.38   19.10
  -1  -9  -8  202.18   14.80
   1   9   8  189.18   14.70
   1   9   8  211.88   22.00
  -2  -9  -8   17.70    5.50
  -2  -9  -8   24.20    7.80
   2   9   8   22.90    5.30
   2   9   8   21.70   11.70
  -3  -9  -8  285.17   19.30
  -3  -9  -8  298.27   22.80
  -3  -9  -8  307.17   19.20
   3   9   8  267.17   19.00
   3   9   8  260.97   26.30
  -4  -9  -8    1.40    4.80
  -4  -9  -8    0.50    5.00
  -4  -9  -8   -0.40   10.00
   4   9   8    0.70    4.80
   4   9   8  -20.30   10.90
  -5  -9  -8  223.48   22.60
  -5  -9  -8  242.08   16.20
  -5  -9  -8  231.28   16.30
   5   9   8  202.58   15.70
  -6  -9  -8   95.19   14.80
  -6  -9  -8   96.59    9.10
  -6  -9  -8  100.39    8.60
   6   9   8   92.69   11.40
   0 -10  -8   85.89   11.90
   0 -10  -8   68.79    8.00
   0  10   8   71.49    8.10
   0  10   8   78.09   14.20
   0  10   8   67.69   12.20
  -1 -10  -8   11.20    5.70
  -1 -10  -8    5.20    9.50
   1  10   8    9.70   11.80
   1  10   8    9.50    5.60
  -2 -10  -8   48.50    9.70
  -2 -10  -8   52.19    7.00
   2  10   8   61.09   14.00
   2  10   8   52.09    6.90
  -3 -10  -8    2.90    5.60
  -3 -10  -8   -3.50   10.60
   3  10   8    1.70    5.30
   3  10   8  -10.00   11.90
  -4 -10  -8   97.79    9.20
  -4 -10  -8   89.89   12.90
   4  10   8   93.69    8.60
   4  10   8   76.49   16.30
  -5 -10  -8   96.99    9.40
  -5 -10  -8   94.29   15.20
   5  10   8  100.89    8.50
   5  10   8   50.69   15.80
  -2 -11  -8  123.69   15.90
  -2 -11  -8  123.09   10.90
   2  11   8  142.19   18.60
   2  11   8  138.69   12.10
  -3 -11  -8  145.09   17.90
  -3 -11  -8  165.38   13.50
   3  11   8  163.18   13.20
   3  11   8  151.08   20.20
   1   7  -9  207.38   17.30
   1   7  -9  169.78   13.00
   0   7  -9  418.16   26.70
   0   7  -9  339.67   23.20
  -1   7  -9  117.69   12.00
  -1   7  -9   94.79    8.20
   3   6  -9  251.67   17.70
   3   6  -9  264.27   17.90
   3   6  -9  256.57   19.20
   2   6  -9  238.58   16.80
   2   6  -9  261.87   19.80
   1   6  -9  722.13   43.10
   1   6  -9  620.34   40.70
   1   6  -9  679.83   41.00
   0   6  -9    1.80    7.20
   0   6  -9    0.70    3.50
  -1   6  -9  622.74   40.10
  -2   6  -9  221.28   16.80
  -2   6  -9  175.48   11.90
  -3   6  -9  265.67   21.00
   4   5  -9    9.80    8.30
   4   5  -9    6.90    5.60
   4   5  -9    7.20    5.60
   3   5  -9    2.90    4.70
   3   5  -9   -0.20    4.90
   3   5  -9    6.20    7.60
   2   5  -9   23.30    4.60
   2   5  -9   25.50    4.80
   2   5  -9   21.80    7.50
   1   5  -9   23.60    4.20
   1   5  -9   27.60    7.20
   1   5  -9   18.20    4.10
   0   5  -9   32.70    7.00
   0   5  -9   26.20    4.00
  -1   5  -9   13.00    2.70
  -1   5  -9   25.40    5.60
  -1   5  -9   18.10    3.20
  -2   5  -9   58.39    8.50
  -2   5  -9   60.29    4.90
  -3   5  -9   62.09    9.10
  -4   5  -9   -3.70    7.90
  -4   5  -9    3.00    7.50
  -4   5  -9    0.50    8.50
   4   4  -9   15.40    5.70
   4   4  -9   15.70    6.30
   3   4  -9  149.29   14.50
   3   4  -9  159.38   12.10
   2   4  -9   16.00    4.40
   2   4  -9   18.10    5.20
   1   4  -9   83.79    7.50
   1   4  -9   91.09    9.40
   0   4  -9   40.60    6.70
   0   4  -9   37.30    4.20
  -1   4  -9   31.20    3.50
  -1   4  -9   34.90    3.40
  -1   4  -9   35.40    6.70
  -2   4  -9   39.10    6.90
  -2   4  -9   34.00    3.20
  -3   4  -9    0.30    7.90
  -3   4  -9   10.90    6.50
  -3   4  -9   18.00    6.40
  -4   4  -9   18.80    7.20
  -4   4  -9    9.90    5.80
  -4   4  -9    9.00    8.00
  -4   4  -9    5.20    7.60
  -5   4  -9   -0.30    6.50
  -5   4  -9   -3.60    9.90
  -5   4  -9   -4.10    7.90
   5   3  -9   31.60    6.40
   5   3  -9   26.00    9.00
  -5  -3   9   17.90    5.60
   4   3  -9  732.03   42.50
   4   3  -9  632.84   43.80
  -4  -3   9  692.43   42.10
   3   3  -9  313.87   18.60
   3   3  -9  260.87   20.20
  -3  -3   9  261.87   17.90
   2   3  -9  271.87   17.60
   2   3  -9  268.57   19.20
  -2  -3   9  263.57   17.10
   1   3  -9  488.15   31.90
   1   3  -9  523.45   40.00
   1   3  -9  493.05   30.80
   0   3  -9   71.99    6.20
   0   3  -9   56.89   12.30
   0   3  -9   61.39    5.60
   0   3  -9   88.49    8.70
  -1   3  -9  718.43   43.20
  -1   3  -9  697.93   48.10
  -1   3  -9  674.83   41.70
  -2   3  -9    1.40    1.90
  -2   3  -9   -1.40    5.10
  -2   3  -9    1.90    9.50
  -2   3  -9    4.10    4.90
  -2   3  -9    5.90    1.80
  -3   3  -9  444.46   30.10
  -3   3  -9  433.56   27.90
  -3   3  -9  418.66   25.60
  -3   3  -9  422.36   25.60
  -3   3  -9  449.06   28.40
  -4   3  -9   59.29    8.10
  -4   3  -9   61.59    8.00
  -4   3  -9   51.59    9.10
  -4   3  -9   54.19   10.10
  -5   3  -9  154.48   16.70
  -5   3  -9  152.28   14.40
  -5   3  -9  152.68   16.20
   5   2  -9  252.37   19.20
   5   2  -9  262.37   18.40
  -5  -2   9  258.47   17.70
   4   2  -9   84.19    8.40
   4   2  -9   84.19   10.00
  -4  -2   9   86.49    7.60
   3   2  -9  526.85   36.80
   3   2  -9  543.75   36.30
   3   2  -9  623.84   42.20
  -3  -2   9  576.14   35.90
  -3  -2   9  666.53   38.00
   2   2  -9  761.42   49.50
   2   2  -9  707.63   44.20
   2   2  -9  696.63   44.70
  -2  -2   9  735.43   43.90
   1   2  -9  554.94   37.40
   1   2  -9  495.95   31.50
   1   2  -9  478.95   32.30
  -1  -2   9  526.45   31.20
   0   2  -9 1468.95   86.49
   0   2  -9 1368.16   87.09
   0   2  -9 1509.85   91.69
  -1   2  -9   28.10   10.00
  -1   2  -9   31.00    5.10
  -1   2  -9   29.00    3.20
  -1   2  -9   34.80    3.30
  -2   2  -9  948.21   58.29
  -2   2  -9  976.10   60.29
  -2   2  -9  978.20   57.09
  -2   2  -9  985.50   58.79
  -2   2  -9  947.01   62.79
  -2   2  -9  961.50   57.19
  -2   2  -9  922.31   57.29
  -3   2  -9   87.39    8.90
  -3   2  -9   76.89   10.40
  -3   2  -9  101.09   15.40
  -3   2  -9   93.89    5.80
  -3   2  -9   92.19    5.90
  -3   2  -9   85.99   10.10
  -4   2  -9  608.34   38.70
  -4   2  -9  630.44   42.60
  -4   2  -9  565.54   37.20
  -4   2  -9  582.04   39.10
  -4   2  -9  561.84   37.80
  -5   2  -9  387.06   28.40
  -5   2  -9  404.16   27.40
  -5   2  -9  386.36   26.40
  -6   2  -9  139.09   12.80
  -6   2  -9  116.79   15.80
   5   1  -9  281.57   19.10
   5   1  -9  250.77   21.00
  -5  -1   9  302.07   23.40
  -5  -1   9  260.17   18.40
   4   1  -9  234.38   18.40
   4   1  -9  211.48   17.80
   4   1  -9  231.58   15.80
   4   1  -9  251.47   21.50
   4   1  -9  222.08   16.10
  -4  -1   9  208.98   15.50
  -4  -1   9  230.68   19.60
   3   1  -9  880.01   55.79
   3   1  -9  921.71   55.69
   3   1  -9  963.30   60.19
   3   1  -9  863.11   56.59
  -3  -1   9  993.30   57.89
  -3  -1   9  898.21   55.49
   2   1  -9    2.50    4.80
   2   1  -9    2.40    3.80
   2   1  -9    8.80    8.30
  -2  -1   9    3.30    5.90
  -2  -1   9    2.30    3.20
   1   1  -9 1125.69   68.49
   1   1  -9 1093.59   67.99
   1   1  -9 1124.19   67.89
   1   1  -9 1167.58   72.49
  -1  -1   9 1147.49   67.79
   0   1  -9  211.48   19.40
   0   1  -9  192.58   13.60
   0   1  -9  194.18   16.50
   0   1  -9  200.28   12.90
   0   1  -9  191.08   13.10
   0  -1   9  205.18   12.60
  -1   1  -9 1444.06   89.99
  -1   1  -9 1399.56   87.39
  -1   1  -9 1480.75   85.19
  -1   1  -9 1375.66   85.59
  -1   1  -9 1403.76   85.09
  -1   1  -9 1349.16   85.09
   1  -1   9 1541.95   85.39
  -2   1  -9 1078.29   63.29
  -2   1  -9 1013.90   63.29
  -2   1  -9 1101.69   68.69
  -2   1  -9 1053.29   64.49
  -2   1  -9 1067.19   63.99
  -2   1  -9 1065.79   65.99
  -2   1  -9 1054.49   63.29
  -3   1  -9  549.85   35.90
  -3   1  -9  574.44   38.60
  -3   1  -9  542.45   33.20
  -3   1  -9  542.25   35.40
  -3   1  -9  560.24   34.40
  -3   1  -9  560.64   33.20
  -4   1  -9  976.30   60.59
  -4   1  -9  989.70   61.99
  -4   1  -9 1022.60   63.59
  -4   1  -9 1038.10   60.59
  -4   1  -9 1078.89   66.49
  -5   1  -9   15.60    9.40
  -5   1  -9    6.20    6.00
  -5   1  -9   12.90    5.70
  -5   1  -9    8.10    6.80
  -6   1  -9  388.36   29.30
  -6   1  -9  451.15   33.10
   5   0  -9   -1.90    5.00
  -5   0   9   -3.10    4.50
  -5   0   9   -5.80    9.50
   4   0  -9    2.20    4.60
   4   0  -9    4.10    5.00
   4   0  -9   12.90    6.50
   4   0  -9    3.00    5.90
  -4   0   9   -0.50    4.20
  -4   0   9   -3.90    8.30
   3   0  -9   -1.20    4.40
   3   0  -9   -1.50    5.20
   3   0  -9    1.30    7.20
   3   0  -9    0.80    5.30
   3   0  -9   -0.30    4.00
  -3   0   9   -5.80    7.30
  -3   0   9   -6.00    3.60
   2   0  -9   54.79   10.00
   2   0  -9   57.19    7.70
   2   0  -9   53.59    6.50
   2   0  -9   52.79    5.70
   2   0  -9   53.89    5.60
  -2   0   9   55.39    5.30
  -2   0   9   50.89    8.80
   1   0  -9   51.09    5.20
   1   0  -9   51.29   10.10
   1   0  -9   50.39    5.20
   1   0  -9   54.39    5.70
   1   0  -9   48.10    7.70
  -1   0   9   63.89    5.30
   0   0  -9  133.89    9.30
   0   0  -9  125.89   12.40
   0   0  -9  124.49    9.00
   0   0  -9  125.39    9.20
   0   0  -9  121.09    9.10
   0   0  -9  126.49   15.20
   0   0   9  129.89    8.80
  -1   0  -9  175.98   11.30
  -1   0  -9  169.58   11.40
  -1   0  -9  166.78   11.40
  -1   0  -9  170.38   14.90
  -1   0  -9  181.28   11.10
  -1   0  -9  172.68   17.70
  -1   0  -9  182.58   11.80
   1   0   9  172.98   11.10
  -2   0  -9   41.80    3.80
  -2   0  -9   48.00    4.60
  -2   0  -9   43.10    7.60
  -2   0  -9   40.10    3.80
  -2   0  -9   46.20   10.00
  -2   0  -9   50.79    4.30
  -3   0  -9  153.48   10.20
  -3   0  -9  158.38   10.40
  -3   0  -9  164.28   14.80
  -3   0  -9  159.08   10.40
  -3   0  -9  179.08   11.40
  -3   0  -9  170.98   17.80
  -4   0  -9   12.40    2.20
  -4   0  -9   12.30    9.00
  -4   0  -9   13.50    4.20
  -4   0  -9   12.80    6.80
  -4   0  -9   12.20    2.20
  -5   0  -9  337.67   22.10
  -5   0  -9  371.06   22.30
  -5   0  -9  398.36   29.80
  -5   0  -9  355.26   24.80
  -5   0  -9  387.16   26.50
  -6   0  -9   34.20    4.20
  -6   0  -9   45.10    3.90
  -6   0  -9   31.20    9.20
  -6   0  -9   46.50    9.00
  -7   0  -9  157.58   17.50
   5  -1  -9  195.78   14.90
  -5   1   9  216.98   20.80
  -5   1   9  199.68   14.70
   4  -1  -9   54.29    6.80
   4  -1  -9   45.40    6.30
  -4   1   9   56.09    5.90
  -4   1   9   41.20   10.70
   3  -1  -9  205.58   13.40
   3  -1  -9  189.98   12.90
   3  -1  -9  185.98   14.30
   3  -1  -9  201.88   14.70
  -3   1   9  163.18   17.80
  -3   1   9  177.58   13.10
   2  -1  -9  109.39   13.10
   2  -1  -9  113.89    7.60
   2  -1  -9   83.09    8.20
   2  -1  -9  109.39   10.50
   2  -1  -9   85.49    9.50
  -2   1   9   94.19    7.90
  -2   1   9   82.59   10.20
   1  -1  -9   92.09   10.80
   1  -1  -9   97.59    8.60
   1  -1  -9  110.99    8.10
   1  -1  -9   94.39    8.10
   1  -1  -9  116.69   13.60
  -1   1   9  105.09    7.70
  -1   1   9   98.59   11.40
   0  -1  -9   72.49    8.90
   0  -1  -9   85.69    7.00
   0  -1  -9   81.29    8.10
   0  -1  -9   79.89   12.90
   0  -1  -9   87.59    6.90
   0  -1  -9   90.39    6.90
   0   1   9   91.19    6.50
   0   1   9   88.19    6.30
  -1  -1  -9   39.50    7.30
  -1  -1  -9   41.80    9.70
  -1  -1  -9   42.20    4.30
  -1  -1  -9   46.90    4.60
  -1  -1  -9   39.90    4.10
  -1  -1  -9   39.90    4.30
   1   1   9   45.80    4.00
   1   1   9   50.79    3.90
   1   1   9   58.79    4.70
  -2  -1  -9   14.40    2.80
  -2  -1  -9   19.90    2.70
  -2  -1  -9   16.60    6.30
  -2  -1  -9   17.10    2.80
  -2  -1  -9   19.60    8.60
  -2  -1  -9   17.40    2.60
   2   1   9   22.60    2.50
  -3  -1  -9   55.49    4.80
  -3  -1  -9   56.99    5.20
  -3  -1  -9   58.59   11.00
  -3  -1  -9   57.29    5.00
  -3  -1  -9   54.19    4.50
  -3  -1  -9   50.89    8.20
  -4  -1  -9    9.70    2.10
  -4  -1  -9   13.80    8.60
  -4  -1  -9   10.60    3.40
  -4  -1  -9    9.80    6.60
  -4  -1  -9    5.60    2.60
  -4  -1  -9   10.00    2.50
  -5  -1  -9   34.70    3.50
  -5  -1  -9   41.70    3.10
  -5  -1  -9   28.70    9.90
  -5  -1  -9   22.80    7.40
  -5  -1  -9   23.20    3.50
  -6  -1  -9   10.70    2.70
  -6  -1  -9   14.30   10.20
  -6  -1  -9    9.60    6.80
  -7  -1  -9    3.80    2.80
  -7  -1  -9    1.40    7.00
   5  -2  -9   95.09    8.70
  -5   2   9   77.09   13.50
  -5   2   9   84.89    8.30
   4  -2  -9  214.98   15.70
  -4   2   9  218.18   21.00
  -4   2   9  235.58   15.60
   3  -2  -9  390.06   26.10
   3  -2  -9  357.46   22.60
   3  -2  -9  365.96   23.50
   3  -2  -9  331.27   22.70
  -3   2   9  303.37   25.30
  -3   2   9  358.16   22.20
   2  -2  -9  182.58   12.10
   2  -2  -9  165.38   14.20
   2  -2  -9  182.68   17.00
   2  -2  -9  161.58   12.20
  -2   2   9  138.09   16.80
  -2   2   9  178.18   11.90
   1  -2  -9 1149.98   67.49
   1  -2  -9 1206.08   67.39
   1  -2  -9 1109.39   67.39
   1  -2  -9 1113.39   68.59
   1  -2  -9 1142.79   70.69
  -1   2   9  978.80   69.69
  -1   2   9 1129.29   67.19
   0  -2  -9   15.30    3.60
   0  -2  -9   19.90    6.00
   0  -2  -9   21.50    8.20
   0  -2  -9   22.10    3.20
   0  -2  -9   23.50    3.70
   0   2   9   19.30    3.10
   0   2   9   26.00    8.60
  -1  -2  -9 1207.68   80.89
  -1  -2  -9 1441.46   77.29
  -1  -2  -9 1369.96   76.89
  -1  -2  -9 1247.68   77.09
  -1  -2  -9 1218.98   77.09
  -1  -2  -9 1220.28   78.79
  -1  -2  -9 1285.07   77.09
   1   2   9 1320.97   76.99
  -2  -2  -9   13.20    1.50
  -2  -2  -9    8.20    5.90
  -2  -2  -9   15.00    2.90
  -2  -2  -9   18.30    2.90
  -2  -2  -9   27.00    3.30
  -2  -2  -9   14.90    8.10
   2   2   9   15.40    2.60
   2   2   9   12.00    2.30
  -3  -2  -9  916.51   59.69
  -3  -2  -9  899.51   57.29
  -3  -2  -9  878.91   54.99
  -3  -2  -9  879.21   54.99
  -3  -2  -9  940.51   54.99
   3   2   9  985.60   54.89
  -4  -2  -9  177.38   11.90
  -4  -2  -9  188.18   12.10
  -4  -2  -9  177.78   15.90
  -4  -2  -9  191.88   18.80
  -4  -2  -9  187.28   12.10
  -5  -2  -9  350.46   26.70
  -5  -2  -9  332.47   20.10
  -5  -2  -9  299.97   20.20
  -5  -2  -9  325.87   23.60
  -6  -2  -9  320.57   23.80
  -6  -2  -9  313.07   20.30
  -6  -2  -9  340.17   27.00
  -6  -2  -9  327.37   20.00
  -7  -2  -9   34.80   10.70
  -7  -2  -9   43.90    4.70
  -7  -2  -9   50.49    8.80
   4  -3  -9  584.24   36.80
  -4   3   9  613.64   36.80
  -4   3   9  579.44   41.00
   3  -3  -9  180.48   13.10
   3  -3  -9  215.78   14.50
   3  -3  -9  178.88   13.30
  -3   3   9  175.98   13.10
  -3   3   9  145.49   17.10
   2  -3  -9 1406.56   81.39
   2  -3  -9 1349.66   81.39
   2  -3  -9 1422.76   84.29
   2  -3  -9 1424.86   82.39
  -2   3   9 1333.67   81.19
  -2   3   9 1177.68   83.59
   1  -3  -9   41.80    4.90
   1  -3  -9   43.20    9.40
   1  -3  -9   41.40    7.10
   1  -3  -9   40.90    5.00
  -1   3   9   47.20    5.70
  -1   3   9   41.60    8.40
  -1   3   9   48.20    4.40
  -1   3   9   23.60    9.20
  -1   3   9   40.70    5.10
   0  -3  -9 2079.69  125.19
   0  -3  -9 2026.50  123.79
   0  -3  -9 2189.68  123.79
   0  -3  -9 2031.10  126.99
   0   3   9 2099.79  123.69
   0   3   9 1753.32  125.79
   0   3   9 2321.97  124.29
  -1  -3  -9  374.96   23.40
  -1  -3  -9  347.97   23.40
  -1  -3  -9  355.06   25.50
  -1  -3  -9  350.16   27.80
   1   3   9  429.46   22.70
   1   3   9  385.66   23.10
   1   3   9  367.36   23.20
  -2  -3  -9 1815.52  105.69
  -2  -3  -9 1693.13  105.69
  -2  -3  -9 1721.53  107.49
  -2  -3  -9 1804.02  105.69
  -2  -3  -9 1686.93  109.59
   2   3   9 1787.12  105.59
   2   3   9 1891.71  105.69
  -3  -3  -9 1915.11  116.89
  -3  -3  -9 1828.12  114.99
  -3  -3  -9 1973.20  115.09
  -3  -3  -9 1911.31  114.99
  -3  -3  -9 1908.11  119.09
   3   3   9 2040.20  114.89
  -4  -3  -9  366.46   23.20
  -4  -3  -9  391.96   29.20
  -4  -3  -9  381.76   26.30
  -4  -3  -9  362.96   23.20
  -5  -3  -9 1577.24   93.59
  -5  -3  -9 1567.04   98.39
  -5  -3  -9 1552.34   95.79
  -6  -3  -9   12.80    3.90
  -6  -3  -9   20.50    7.50
  -6  -3  -9   16.90    3.60
  -7  -3  -9  759.22   47.40
  -7  -3  -9  802.22   50.19
  -7  -3  -9  788.72   47.30
   4  -4  -9   11.00    5.30
  -4   4   9    9.90    5.10
  -4   4   9    7.60   10.50
   3  -4  -9  411.16   26.30
  -3   4   9  391.86   31.30
  -3   4   9  446.76   26.30
   2  -4  -9  146.49   15.20
   2  -4  -9  118.69   10.40
   2  -4  -9  124.59   10.40
   2  -4  -9  141.09   12.40
  -2   4   9  136.19   10.50
  -2   4   9  106.39   13.90
  -2   4   9  152.18   12.90
   1  -4  -9  615.94   40.50
   1  -4  -9  673.03   40.60
   1  -4  -9  663.63   41.90
   1  -4  -9  649.74   43.80
  -1   4   9  731.23   42.20
  -1   4   9  587.04   43.20
  -1   4   9  729.03   41.00
  -1   4   9  705.73   45.40
  -1   4   9  632.64   40.50
   0  -4  -9 1085.89   64.79
   0  -4  -9 1065.49   66.39
   0  -4  -9 1079.59   68.39
   0  -4  -9 1024.60   64.89
   0   4   9 1196.68   64.79
   0   4   9  986.60   67.39
   0   4   9 1125.49   64.89
   0   4   9 1061.19   66.19
  -1  -4  -9  228.88   15.20
  -1  -4  -9  233.68   15.20
  -1  -4  -9  220.68   20.20
  -1  -4  -9  228.68   17.80
   1   4   9  217.98   14.90
   1   4   9  236.18   16.90
   1   4   9  256.87   14.90
  -2  -4  -9 1137.79   65.09
  -2  -4  -9 1073.19   65.09
  -2  -4  -9 1070.19   68.99
  -2  -4  -9 1058.69   66.79
   2   4   9 1078.89   64.99
  -3  -4  -9   34.70   10.00
  -3  -4  -9   32.20    4.30
  -3  -4  -9   48.80    4.60
  -3  -4  -9   35.00    7.70
   3   4   9   41.70    4.10
  -4  -4  -9  978.20   60.49
  -4  -4  -9 1012.50   62.99
  -4  -4  -9  949.01   60.49
  -4  -4  -9 1026.20   65.69
   4   4   9 1067.79   60.39
  -5  -4  -9  139.59   10.80
  -5  -4  -9  144.29   15.30
  -5  -4  -9  153.18   10.70
  -5  -4  -9  162.88   18.90
  -6  -4  -9  529.95   35.20
  -6  -4  -9  508.15   32.00
  -6  -4  -9  521.85   32.10
  -7  -4  -9  462.95   28.70
  -7  -4  -9  496.75   32.30
  -7  -4  -9  432.66   28.70
   4  -5  -9    2.10    4.70
  -4   5   9    1.10    5.20
  -4   5   9   11.50   10.80
   3  -5  -9    6.90    4.90
  -3   5   9    2.60   10.20
  -3   5   9   12.00    5.10
   2  -5  -9   19.40    4.70
   2  -5  -9   20.60    6.00
   2  -5  -9   13.80    4.80
  -2   5   9   23.20    8.10
  -2   5   9   14.30    4.70
  -2   5   9   15.40    7.40
   1  -5  -9    3.90    7.30
   1  -5  -9    0.50    4.20
   1  -5  -9    7.10    5.40
   1  -5  -9    3.70    3.90
  -1   5   9    5.00    3.70
  -1   5   9    5.10    6.80
  -1   5   9    9.40    9.20
   0  -5  -9   88.39   13.50
   0  -5  -9   79.69    7.10
   0  -5  -9   81.69    7.40
   0  -5  -9   87.09   10.80
   0   5   9   87.09   12.40
   0   5   9   89.89   11.80
   0   5   9   93.39    7.30
   0   5   9   88.49    7.60
  -1  -5  -9   92.59   11.60
  -1  -5  -9  112.39    7.60
  -1  -5  -9   97.49    7.60
  -1  -5  -9  106.49   14.70
   1   5   9   80.19   10.40
   1   5   9  102.29    7.90
  -2  -5  -9   14.20    3.80
  -2  -5  -9    3.10    3.40
  -2  -5  -9    7.80    6.40
  -2  -5  -9    9.50    8.70
   2   5   9    8.10    3.30
   2   5   9   -2.70    5.50
  -3  -5  -9  304.17   17.20
  -3  -5  -9  245.88   23.20
  -3  -5  -9  275.97   17.30
  -3  -5  -9  243.58   20.30
   3   5   9  247.48   16.80
  -4  -5  -9   48.80   11.80
  -4  -5  -9   64.39    5.80
  -4  -5  -9   60.29    5.60
  -4  -5  -9   46.70    9.10
   4   5   9   49.40    5.10
  -5  -5  -9  211.38   14.20
  -5  -5  -9  235.48   14.80
  -5  -5  -9  179.38   18.30
  -6  -5  -9   65.89    6.50
  -6  -5  -9   42.40    9.70
  -6  -5  -9   54.89    6.20
  -7  -5  -9  129.29   16.00
  -7  -5  -9  133.59   11.10
  -7  -5  -9  130.69   10.80
   3  -6  -9  107.29    9.00
  -3   6   9   81.49   12.10
  -3   6   9  105.59    8.70
   2  -6  -9  147.89   12.90
   2  -6  -9  114.29   10.90
  -2   6   9  137.89   14.60
  -2   6   9  121.09   10.90
  -2   6   9  119.69   14.70
   1  -6  -9   22.00    5.00
   1  -6  -9   22.30    7.20
   1  -6  -9   21.10    4.80
   1  -6  -9   26.50    9.60
  -1   6   9   26.10    8.00
  -1   6   9   18.80    8.00
  -1   6   9   26.10    5.10
   0  -6  -9  116.29    9.60
   0  -6  -9  113.99   12.30
   0  -6  -9  119.09   15.20
   0  -6  -9  118.99    9.50
   0   6   9  125.29   15.00
   0   6   9   88.59   13.50
   0   6   9  109.99    8.60
  -1  -6  -9    2.20    3.90
  -1  -6  -9    1.10    3.10
  -1  -6  -9   -2.50    6.30
  -1  -6  -9    2.80    8.50
   1   6   9   -6.50    6.80
   1   6   9    0.00    3.70
  -2  -6  -9   60.29    5.20
  -2  -6  -9   56.39   11.80
  -2  -6  -9   52.69    9.00
  -2  -6  -9   56.99    5.70
   2   6   9   42.50    9.00
   2   6   9   52.09    5.30
  -3  -6  -9    4.60    9.70
  -3  -6  -9    7.10    3.90
  -3  -6  -9    3.00    3.90
  -3  -6  -9    7.60    7.30
   3   6   9    5.50    3.30
   3   6   9   -6.80    7.10
  -4  -6  -9    2.80    7.90
  -4  -6  -9   13.70    4.60
  -4  -6  -9    4.10    4.20
   4   6   9    9.30    3.60
  -5  -6  -9    9.00    4.40
  -5  -6  -9    1.60    6.30
  -5  -6  -9   -1.10    4.60
  -6  -6  -9   13.40    8.60
  -6  -6  -9    9.00    4.70
  -6  -6  -9   20.40    4.90
  -7  -6  -9    8.70    5.20
  -7  -6  -9    6.60    4.80
  -7  -6  -9    6.20    8.90
   3  -7  -9  519.35   32.80
  -3   7   9  504.45   37.70
  -3   7   9  536.35   33.10
   2  -7  -9    8.10    4.10
  -2   7   9    6.30    9.60
  -2   7   9   16.70    5.40
  -2   7   9   -4.10   10.40
   1  -7  -9  957.00   58.09
   1  -7  -9  939.71   55.69
   1  -7  -9  801.22   54.19
  -1   7   9  792.22   56.89
  -1   7   9  825.12   54.19
  -1   7   9 1021.10   57.79
   0  -7  -9    8.90    8.90
   0  -7  -9    7.50    4.50
   0  -7  -9    8.00    3.80
   0  -7  -9   10.70    6.80
   0   7   9    8.70    4.40
   0   7   9  -10.20    9.40
   0   7   9    9.10    8.60
  -1  -7  -9  908.21   56.79
  -1  -7  -9  967.60   59.09
  -1  -7  -9  974.90   56.79
  -1  -7  -9  941.21   61.59
   1   7   9  885.41   56.79
   1   7   9  957.10   60.39
  -2  -7  -9  259.47   23.80
  -2  -7  -9  262.87   16.40
  -2  -7  -9  253.67   17.00
  -2  -7  -9  267.87   19.30
   2   7   9  194.58   21.30
   2   7   9  256.17   16.60
  -3  -7  -9  325.97   20.40
  -3  -7  -9  322.97   20.50
  -3  -7  -9  345.67   24.60
   3   7   9  328.67   20.20
   3   7   9  246.28   24.50
  -4  -7  -9  516.95   33.60
  -4  -7  -9  527.05   33.30
  -4  -7  -9  576.44   37.30
   4   7   9  544.75   33.30
  -5  -7  -9   40.70   10.30
  -5  -7  -9   38.40    5.90
  -5  -7  -9   34.50    5.80
   5   7   9   39.50    5.70
  -6  -7  -9  459.95   29.80
  -6  -7  -9  485.95   34.00
  -7  -7  -9   16.70    5.60
  -7  -7  -9   15.20    9.70
  -7  -7  -9   25.90    6.30
   2  -8  -9  640.34   42.90
  -2   8   9  791.92   47.00
  -2   8   9  705.43   43.00
  -2   8   9  629.24   47.10
   1  -8  -9  422.06   27.80
   1  -8  -9  370.26   25.30
  -1   8   9  409.56   25.80
  -1   8   9  340.57   30.50
  -1   8   9  444.86   30.70
   0  -8  -9  373.16   26.40
   0  -8  -9  338.27   23.70
   0   8   9  415.96   29.10
   0   8   9  369.06   23.70
   0   8   9  334.97   28.40
  -1  -8  -9  954.20   62.69
  -1  -8  -9 1043.10   65.09
  -1  -8  -9 1037.70   62.69
   1   8   9  980.60   62.59
   1   8   9 1175.38   67.29
  -2  -8  -9  163.38   12.10
  -2  -8  -9  185.28   17.60
  -2  -8  -9  168.28   13.00
   2   8   9  182.08   19.70
   2   8   9  170.88   12.70
  -3  -8  -9 1357.46   78.09
  -3  -8  -9 1277.97   74.99
  -3  -8  -9 1291.87   75.09
   3   8   9 1100.19   78.69
   3   8   9 1188.08   74.79
  -4  -8  -9   10.60    7.30
  -4  -8  -9   10.70    4.80
  -4  -8  -9   16.20    5.10
   4   8   9   13.60    3.70
   4   8   9  -11.60    9.80
  -5  -8  -9  934.61   57.09
  -5  -8  -9  826.92   53.39
  -5  -8  -9  882.31   53.29
   5   8   9  855.31   52.99
  -6  -8  -9  144.69   12.40
  -6  -8  -9  149.39   12.40
  -6  -8  -9  149.49   18.80
   1  -9  -9   58.29    7.60
  -1   9   9   59.69   12.90
  -1   9   9   61.49    7.40
  -1   9   9   69.99   12.80
   0  -9  -9  366.86   24.80
   0  -9  -9  299.37   21.40
   0   9   9  359.36   27.70
   0   9   9  301.57   21.30
   0   9   9  272.37   26.20
  -1  -9  -9   58.79    7.30
  -1  -9  -9   64.59   10.60
   1   9   9   66.79    7.00
   1   9   9   62.89   13.40
  -2  -9  -9  506.05   35.00
  -2  -9  -9  612.14   38.90
  -2  -9  -9  586.24   35.80
   2   9   9  609.74   41.00
   2   9   9  511.55   34.60
  -3  -9  -9   39.40    5.10
  -3  -9  -9   44.50   11.00
  -3  -9  -9   34.30    6.00
   3   9   9   33.30    5.90
   3   9   9   23.20   12.30
  -4  -9  -9  410.46   29.00
  -4  -9  -9  339.47   23.50
  -4  -9  -9  391.76   23.50
   4   9   9  305.27   23.00
  -5  -9  -9  121.19    9.60
  -5  -9  -9  100.89    9.60
  -5  -9  -9  104.09   14.60
   5   9   9   90.79    8.80
  -6  -9  -9  462.35   29.00
  -6  -9  -9  414.76   29.20
  -6  -9  -9  467.85   34.30
  -1 -10  -9   10.00    5.90
  -1 -10  -9   17.20    9.70
   1  10   9   10.40    5.80
   1  10   9    7.00   11.60
  -2 -10  -9    7.20   10.00
  -2 -10  -9    4.70    5.70
   2  10   9    0.70    5.40
   2  10   9   -2.00   12.10
  -3 -10  -9  164.08   19.30
  -3 -10  -9  149.88   12.70
   3  10   9  129.59   12.10
   3  10   9  147.19   18.20
  -4 -10  -9   83.49   14.00
  -4 -10  -9   89.79    8.70
   4  10   9   51.09   15.40
   4  10   9   74.59    7.90
  -5 -10  -9  152.68   17.10
  -5 -10  -9  143.39   12.60
  -5 -10  -9  113.59   11.30
   1   6 -10   15.10    6.30
   1   6 -10   13.00    4.70
   0   6 -10  430.86   27.50
   0   6 -10  363.86   24.40
  -1   6 -10   40.10    4.50
  -1   6 -10   52.89    8.90
   3   5 -10  252.37   21.10
   3   5 -10  283.87   18.70
   2   5 -10    2.60    7.20
   2   5 -10    4.00    4.60
   1   5 -10  430.86   26.80
   1   5 -10  423.86   28.20
   0   5 -10   41.00    4.60
   0   5 -10   50.29    8.10
   0   5 -10   42.70    4.80
  -1   5 -10  261.87   18.50
  -1   5 -10  223.88   15.20
  -3   5 -10   14.50    9.60
  -3   5 -10   33.40    8.10
   3   4 -10   22.80    7.90
   3   4 -10   23.80    5.60
   2   4 -10   37.20    5.60
   2   4 -10   45.60    8.20
   1   4 -10   11.50    4.20
   1   4 -10   20.70    4.20
   1   4 -10   25.90    6.80
   0   4 -10   18.90    3.90
   0   4 -10   17.40    3.70
   0   4 -10   20.40    6.40
  -1   4 -10  109.39    7.90
  -1   4 -10  125.39   11.60
  -2   4 -10    1.40    5.90
  -3   4 -10  102.49   13.10
  -3   4 -10  129.89   12.10
  -4   4 -10    3.80    8.30
  -4   4 -10   11.30    7.90
   4   3 -10   11.30    5.80
   4   3 -10   11.40    6.10
   3   3 -10  117.09   11.70
   3   3 -10  116.89   10.00
   2   3 -10   78.09    7.60
   2   3 -10   81.69    7.40
   2   3 -10   91.79    9.50
   1   3 -10   61.99    5.80
   1   3 -10   57.29    5.80
   1   3 -10   63.09    7.80
   0   3 -10  128.59   10.20
   0   3 -10  168.68   12.50
  -1   3 -10    1.70    2.50
  -1   3 -10    7.40    5.10
  -2   3 -10   50.19    4.30
  -2   3 -10   65.79    7.40
  -2   3 -10   54.99    4.40
  -2   3 -10   40.40    9.70
  -3   3 -10    3.70    1.30
  -3   3 -10    8.30    5.50
  -3   3 -10   -3.80    7.50
  -3   3 -10    0.60    5.10
  -3   3 -10    3.70    1.40
  -4   3 -10   35.80    9.00
  -4   3 -10   30.30    7.00
  -4   3 -10   38.30    7.00
  -5   3 -10   -3.40    7.50
  -5   3 -10   -5.90   10.10
  -5   3 -10   -4.70    6.70
   4   2 -10  359.76   20.60
   4   2 -10  280.57   22.70
   4   2 -10  280.17   21.00
  -4  -2  10  323.47   20.60
   3   2 -10  878.81   55.59
   3   2 -10  879.91   54.99
  -3  -2  10  945.21   54.59
   2   2 -10   18.70    4.60
   2   2 -10   17.80    5.90
   1   2 -10  951.20   56.59
   1   2 -10  891.81   55.59
   0   2 -10   42.50    4.50
   0   2 -10   47.80    6.10
   0   2 -10   38.70    4.40
  -1   2 -10  994.50   62.69
  -1   2 -10  977.70   59.59
  -1   2 -10 1011.00   60.59
  -2   2 -10  348.07   21.80
  -2   2 -10  316.07   20.00
  -2   2 -10  328.07   19.90
  -2   2 -10  331.17   19.80
  -2   2 -10  304.27   24.40
  -3   2 -10  429.46   30.60
  -3   2 -10  456.25   28.20
  -3   2 -10  428.96   26.10
  -3   2 -10  435.16   26.20
  -4   2 -10  352.46   25.60
  -4   2 -10  339.77   23.00
  -4   2 -10  348.27   25.70
  -5   2 -10   59.59    9.70
  -5   2 -10   59.99    9.40
  -5   2 -10   57.09   10.20
   4   1 -10  410.26   28.70
   4   1 -10  416.56   30.00
   4   1 -10  470.25   28.70
  -4  -1  10  431.46   28.30
  -4  -1  10  528.95   32.20
   3   1 -10   32.90    5.60
   3   1 -10   34.70    6.80
   3   1 -10   35.80    5.50
   3   1 -10   29.60    7.90
  -3  -1  10   29.00    8.10
  -3  -1  10   27.30    4.90
   2   1 -10  866.81   55.99
   2   1 -10  851.01   55.39
   2   1 -10  926.21   55.39
   2   1 -10  948.01   60.59
   2   1 -10  968.90   57.69
  -2  -1  10  926.61   55.09
   1   1 -10  400.86   26.10
   1   1 -10  416.96   27.70
   1   1 -10  376.36   25.50
   1   1 -10  397.36   25.50
   1   1 -10  437.56   31.60
  -1  -1  10  416.16   25.10
   0   1 -10  757.32   47.30
   0   1 -10  821.82   53.19
   0   1 -10  777.82   47.80
   0   1 -10  797.92   50.09
   0   1 -10  769.72   47.30
  -1   1 -10  753.52   47.40
  -1   1 -10  752.92   47.40
  -1   1 -10  815.12   50.39
  -1   1 -10  813.22   48.10
  -1   1 -10  813.92   53.39
  -2   1 -10  203.88   17.90
  -2   1 -10  220.88   21.30
  -2   1 -10  221.88   14.60
  -2   1 -10  208.88   13.20
  -2   1 -10  194.88   13.30
  -3   1 -10  769.82   46.00
  -3   1 -10  774.62   47.10
  -3   1 -10  784.82   49.50
  -3   1 -10  754.42   46.00
  -4   1 -10   16.80    6.80
  -4   1 -10   19.10    7.80
  -4   1 -10   27.70    2.20
  -4   1 -10   16.40    2.10
  -5   1 -10  968.00   60.39
  -5   1 -10  945.51   60.19
  -6   1 -10   49.99   10.10
  -6   1 -10   60.89    9.70
   4   0 -10   -2.50    6.30
   4   0 -10    4.40    5.30
   4   0 -10   -3.50    6.30
   4   0 -10    2.30    5.10
  -4   0  10   -0.50    8.90
  -4   0  10   -0.90    4.60
   3   0 -10  249.68   18.30
   3   0 -10  270.37   19.20
   3   0 -10  230.08   17.10
   3   0 -10  258.87   17.10
  -3   0  10  256.17   16.80
  -3   0  10  253.17   21.10
   2   0 -10   22.70    9.20
   2   0 -10   19.60    4.60
   2   0 -10   24.10    5.30
   2   0 -10   20.30    6.80
   2   0 -10   13.20    4.30
  -2   0  10   19.20    7.80
  -2   0  10   18.20    4.00
   1   0 -10  189.08   16.50
   1   0 -10  202.98   13.40
   1   0 -10  195.08   13.40
   1   0 -10  185.58   13.80
   1   0 -10  199.78   19.60
  -1   0  10  206.88   13.00
   0   0 -10  231.08   15.90
   0   0 -10  240.58   15.90
   0   0 -10  256.77   22.40
   0   0 -10  258.17   16.40
   0   0 -10  240.18   19.20
   0   0  10  252.67   15.60
  -1   0 -10   64.19   12.00
  -1   0 -10   63.19    9.10
  -1   0 -10   62.19    5.40
  -1   0 -10   67.29    6.40
  -1   0 -10   65.19    5.50
  -2   0 -10  869.21   54.89
  -2   0 -10  917.31   57.99
  -2   0 -10  842.02   52.09
  -2   0 -10  830.72   52.09
  -2   0 -10  869.11   52.19
  -2   0 -10  894.91   52.49
  -3   0 -10   23.50    6.30
  -3   0 -10   28.70    4.80
  -3   0 -10   17.40    2.90
  -3   0 -10   25.20    3.00
  -3   0 -10   19.00    2.50
  -3   0 -10   22.70    8.40
  -4   0 -10  779.12   47.30
  -4   0 -10  729.93   43.80
  -4   0 -10  698.83   43.80
  -5   0 -10  115.99    8.00
  -5   0 -10  122.79   14.10
  -5   0 -10  123.59    7.90
  -6   0 -10  272.77   20.20
  -6   0 -10  236.98   14.80
  -6   0 -10  227.28   20.80
   4  -1 -10   10.20    4.20
  -4   1  10    5.60    4.80
  -4   1  10    0.50    9.60
   3  -1 -10   -1.00    4.40
   3  -1 -10   -5.00    4.50
   3  -1 -10    2.30    7.70
   3  -1 -10    2.80    5.10
   3  -1 -10   -2.60    5.50
  -3   1  10   -0.80    4.10
  -3   1  10   -3.80    8.50
   2  -1 -10    3.70    5.90
   2  -1 -10    0.60    3.80
   2  -1 -10    4.20    3.20
   2  -1 -10    8.90    8.10
   2  -1 -10    6.30    4.50
  -2   1  10    3.90    3.40
  -2   1  10   -4.20    7.90
   1  -1 -10   17.10    4.10
   1  -1 -10   18.10    8.50
   1  -1 -10   20.60    4.00
   1  -1 -10   14.80    4.00
   1  -1 -10   14.40    6.30
  -1   1  10   20.30    3.50
   0  -1 -10   11.70    3.40
   0  -1 -10    9.20    3.50
   0  -1 -10   19.00    3.60
   0  -1 -10   10.50    6.50
   0  -1 -10   13.30    8.70
   0   1  10   15.30    3.10
  -1  -1 -10   84.59    6.60
  -1  -1 -10   80.19   12.40
  -1  -1 -10   81.19    9.80
  -1  -1 -10   78.09    6.60
  -1  -1 -10   73.49    6.90
   1   1  10   82.79    6.40
  -2  -1 -10    1.50    8.80
  -2  -1 -10    2.50    2.60
  -2  -1 -10    6.50    3.40
  -2  -1 -10    3.20    2.70
  -2  -1 -10    0.30    6.40
  -2  -1 -10    2.50    3.20
  -3  -1 -10   54.19   11.60
  -3  -1 -10   48.60    8.60
  -3  -1 -10   42.70    4.10
  -3  -1 -10   45.70    4.20
  -3  -1 -10   42.40    4.20
  -4  -1 -10   66.79    8.60
  -4  -1 -10   65.89    5.70
  -4  -1 -10   64.89    5.30
  -4  -1 -10   73.99   11.60
  -4  -1 -10   63.79    5.10
  -5  -1 -10   16.80    7.50
  -5  -1 -10    9.40    2.80
  -6  -1 -10  221.78   19.00
   4  -2 -10  232.68   16.40
  -4   2  10  214.08   21.90
  -4   2  10  240.58   16.10
   3  -2 -10   23.10    5.10
   3  -2 -10   22.30   10.80
   3  -2 -10   17.40    5.30
   3  -2 -10   26.30    6.70
  -3   2  10   15.60    9.80
  -3   2  10   21.20    4.00
   2  -2 -10  373.96   26.20
   2  -2 -10  352.86   21.90
   2  -2 -10  353.76   23.50
   2  -2 -10  324.67   21.90
  -2   2  10  290.97   24.50
  -2   2  10  337.37   21.60
   1  -2 -10   -2.30    3.70
   1  -2 -10    5.00    5.80
   1  -2 -10    5.70    7.90
   1  -2 -10    2.70    2.80
   1  -2 -10    5.50    3.30
  -1   2  10  -12.00    8.00
  -1   2  10    3.20    3.40
   0  -2 -10  421.26   25.20
   0  -2 -10  380.26   25.30
   0  -2 -10  414.76   30.40
   0  -2 -10  395.56   27.60
   0  -2 -10  398.56   25.30
   0   2  10  426.46   25.10
  -1  -2 -10  140.59   17.00
  -1  -2 -10  149.09   10.50
  -1  -2 -10  170.88   10.70
  -1  -2 -10  138.39   14.10
  -1  -2 -10  143.69   10.40
   1   2  10  147.19   10.10
  -2  -2 -10  212.08   14.40
  -2  -2 -10  213.18   20.80
  -2  -2 -10  215.68   14.40
  -2  -2 -10  216.08   18.00
   2   2  10  244.58   14.00
  -3  -2 -10  274.77   21.40
  -3  -2 -10  274.27   17.60
  -3  -2 -10  286.47   24.40
  -3  -2 -10  285.67   17.70
  -4  -2 -10   16.90    3.30
  -4  -2 -10    7.60    9.50
  -4  -2 -10   13.80    3.00
  -4  -2 -10    4.20    7.10
  -5  -2 -10   73.69   10.40
  -5  -2 -10   77.29    6.70
  -6  -2 -10   -2.70    3.10
  -6  -2 -10    4.10    7.60
  -7  -2 -10    9.30   10.40
  -7  -2 -10   20.40    3.80
  -7  -2 -10   25.60    9.30
   4  -3 -10   24.10    6.00
  -4   3  10   39.00    5.90
  -4   3  10   27.50    9.10
   3  -3 -10  629.54   37.10
   3  -3 -10  595.84   36.90
  -3   3  10  601.74   36.90
  -3   3  10  560.54   41.20
   2  -3 -10   92.99   10.40
   2  -3 -10  105.89   14.50
   2  -3 -10   98.69    8.00
   2  -3 -10   81.39    7.80
  -2   3  10   98.49    8.50
  -2   3  10   67.89   12.60
   1  -3 -10  652.13   39.30
   1  -3 -10  641.14   39.10
   1  -3 -10  667.73   40.90
   1  -3 -10  665.43   43.20
  -1   3  10  646.74   39.10
  -1   3  10  561.34   42.80
   0  -3 -10  717.13   44.50
   0  -3 -10  720.23   46.30
   0  -3 -10  734.83   48.70
   0  -3 -10  747.83   44.50
   0   3  10  738.53   44.30
  -1  -3 -10  158.68   11.10
  -1  -3 -10  166.18   15.70
  -1  -3 -10  161.18   13.30
  -1  -3 -10  153.78   11.20
   1   3  10  155.18   10.70
  -2  -3 -10  547.05   38.00
  -2  -3 -10  566.54   33.70
  -2  -3 -10  532.45   35.60
  -2  -3 -10  539.75   33.50
   2   3  10  561.14   33.40
  -3  -3 -10   37.00    4.30
  -3  -3 -10   46.80   11.10
  -3  -3 -10   45.70    8.50
  -3  -3 -10   39.30    4.60
  -4  -3 -10  484.25   31.10
  -4  -3 -10  472.15   34.10
  -4  -3 -10  410.26   27.50
  -4  -3 -10  438.06   27.60
  -5  -3 -10    4.80    3.70
  -5  -3 -10    4.80    3.30
  -5  -3 -10   11.40    7.60
  -6  -3 -10  315.87   20.10
  -6  -3 -10  351.36   24.50
  -6  -3 -10  301.37   20.40
  -7  -3 -10   74.29   11.40
  -7  -3 -10   63.59    6.10
   4  -4 -10  371.56   24.30
  -4   4  10  400.96   24.20
  -4   4  10  358.76   30.10
   3  -4 -10  171.48   13.00
  -3   4  10  161.08   17.80
  -3   4  10  171.38   12.80
   2  -4 -10  476.85   31.20
   2  -4 -10  494.75   31.10
   2  -4 -10  544.55   34.70
   2  -4 -10  528.25   32.30
  -2   4  10  494.45   30.90
  -2   4  10  415.76   35.20
   1  -4 -10  277.27   18.50
   1  -4 -10  282.97   18.40
   1  -4 -10  300.47   23.90
   1  -4 -10  281.77   20.20
  -1   4  10  234.18   23.40
  -1   4  10  286.37   18.20
   0  -4 -10  427.46   27.00
   0  -4 -10  395.96   26.80
   0  -4 -10  412.96   29.10
   0  -4 -10  434.26   31.70
   0   4  10  476.85   28.40
   0   4  10  449.56   27.00
  -1  -4 -10  719.33   46.50
  -1  -4 -10  753.12   48.60
  -1  -4 -10  776.02   46.50
  -1  -4 -10  749.73   51.09
   1   4  10  763.22   46.40
   1   4  10  834.82   47.70
  -2  -4 -10   33.70   10.30
  -2  -4 -10   35.00    4.40
  -2  -4 -10   36.80    4.60
  -2  -4 -10   32.00    7.80
   2   4  10   32.90    4.00
  -3  -4 -10 1124.49   73.49
  -3  -4 -10 1140.99   68.39
  -3  -4 -10 1127.49   68.39
  -3  -4 -10 1120.99   70.79
   3   4  10 1174.38   68.19
  -4  -4 -10   94.79   11.40
  -4  -4 -10  104.29    8.50
  -4  -4 -10   94.29    7.90
  -5  -4 -10  685.93   42.00
  -5  -4 -10  720.93   45.30
  -5  -4 -10  668.13   42.10
  -6  -4 -10  169.98   16.30
  -6  -4 -10  136.59   11.00
  -7  -4 -10  357.06   22.30
  -7  -4 -10  387.86   27.80
  -7  -4 -10  319.87   22.50
   3  -5 -10  133.19   10.50
  -3   5  10  141.59   10.50
  -3   5  10  128.99   16.50
   2  -5 -10   82.69    7.30
   2  -5 -10   93.99   11.30
  -2   5  10   63.69   13.10
  -2   5  10   77.49    7.60
   1  -5 -10   83.29    8.10
   1  -5 -10   95.19   11.10
   1  -5 -10  106.99   14.30
   1  -5 -10   99.99    8.80
  -1   5  10   91.79    7.90
  -1   5  10   78.29   13.50
   0  -5 -10  570.84   35.10
   0  -5 -10  545.45   36.90
   0  -5 -10  584.74   39.60
   0  -5 -10  568.44   35.00
   0   5  10  624.14   37.30
   0   5  10  513.65   38.10
   0   5  10  557.44   34.90
  -1  -5 -10    3.50    6.50
  -1  -5 -10    7.30    4.00
  -1  -5 -10    9.90    4.10
  -1  -5 -10    4.10    8.80
   1   5  10   14.30    3.80
   1   5  10   -0.30    5.80
  -2  -5 -10  947.41   56.69
  -2  -5 -10  937.11   61.79
  -2  -5 -10  902.41   56.49
  -2  -5 -10  926.61   58.99
   2   5  10  979.20   56.59
  -3  -5 -10   21.90    4.40
  -3  -5 -10   19.20    4.30
  -3  -5 -10   23.10    7.90
   3   5  10   24.10    3.80
  -4  -5 -10  801.92   49.30
  -4  -5 -10  747.53   46.30
  -4  -5 -10  736.23   46.20
  -5  -5 -10  299.47   22.10
  -5  -5 -10  292.57   19.10
  -5  -5 -10  296.17   19.20
  -6  -5 -10  147.39   11.70
  -6  -5 -10  171.88   17.40
  -6  -5 -10  157.38   11.90
  -7  -5 -10  459.15   29.70
  -7  -5 -10  457.15   29.80
  -7  -5 -10  522.45   34.80
   3  -6 -10    6.70    5.60
  -3   6  10   16.30    5.60
  -3   6  10   18.30   11.60
   2  -6 -10   -2.20    5.10
  -2   6  10   -1.40    5.10
  -2   6  10   -2.70   10.60
   1  -6 -10   68.89    8.70
   1  -6 -10   52.39    6.70
   1  -6 -10   93.59   13.90
  -1   6  10   47.50    6.60
  -1   6  10   58.89   10.00
   0  -6 -10   19.30    4.90
   0  -6 -10   11.40    4.90
   0  -6 -10   17.90    7.10
   0  -6 -10   21.10    9.50
   0   6  10   23.10    8.50
   0   6  10   -0.30   10.00
   0   6  10   14.80    4.20
  -1  -6 -10   31.20   10.40
  -1  -6 -10   27.10    7.70
   1   6  10   30.00    4.70
   1   6  10   22.90    8.60
  -2  -6 -10   72.89    6.20
  -2  -6 -10   63.09    6.30
  -2  -6 -10   56.19    9.40
   2   6  10   51.09    5.70
   2   6  10   40.30    9.30
  -3  -6 -10   29.60    5.00
  -3  -6 -10    9.80    6.20
  -4  -6 -10  208.18   19.30
  -4  -6 -10  256.07   16.90
  -4  -6 -10  299.47   17.00
   4   6  10  243.68   17.10
  -5  -6 -10    8.10    4.90
  -5  -6 -10    8.40    4.60
  -5  -6 -10    5.10    8.80
  -6  -6 -10  277.67   18.80
  -6  -6 -10  260.07   23.60
  -6  -6 -10  310.77   19.40
  -7  -6 -10   -4.90    4.90
  -7  -6 -10   -1.30    4.80
  -7  -6 -10   11.30    9.20
   2  -7 -10  287.07   20.50
  -2   7  10  344.87   20.70
  -2   7  10  284.27   24.30
   1  -7 -10  172.28   14.60
   1  -7 -10  237.98   21.20
   1  -7 -10  214.28   17.90
  -1   7  10  188.98   14.60
  -1   7  10  165.18   21.10
   0  -7 -10  116.09   13.50
   0  -7 -10  118.79    9.90
   0  -7 -10   98.59    9.40
   0   7  10  131.59   15.30
   0   7  10  115.69    8.90
   0   7  10   91.99   14.70
  -1  -7 -10  304.97   20.30
  -1  -7 -10  282.17   20.40
  -1  -7 -10  314.37   23.40
   1   7  10  326.67   25.60
   1   7  10  318.77   19.80
  -2  -7 -10   13.20    4.60
  -2  -7 -10   20.20    8.40
  -2  -7 -10   17.10    4.70
   2   7  10   16.20    4.40
   2   7  10    0.40    8.30
  -3  -7 -10  221.38   14.30
  -3  -7 -10  218.08   17.30
  -3  -7 -10  201.18   14.10
   3   7  10  152.08   18.50
   3   7  10  201.28   13.70
  -4  -7 -10    4.20    6.80
  -4  -7 -10    2.20    4.90
  -4  -7 -10    5.70    4.60
   4   7  10    8.50    4.00
  -5  -7 -10   92.89   13.00
  -5  -7 -10   97.59    8.60
  -5  -7 -10   89.49    8.50
  -6  -7 -10   23.50    8.20
  -6  -7 -10   21.70    6.10
  -6  -7 -10   23.10    5.60
   1  -8 -10  195.08   17.70
   1  -8 -10  158.38   13.90
  -1   8  10  151.28   17.60
  -1   8  10  175.68   13.80
  -1   8  10  212.88   19.70
   0  -8 -10  260.57   20.00
   0  -8 -10  310.07   22.90
   0   8  10  312.37   19.90
   0   8  10  263.57   25.60
   0   8  10  339.97   26.90
  -1  -8 -10  107.69    9.00
  -1  -8 -10   99.99    9.10
  -1  -8 -10  103.89   12.10
   1   8  10  102.59   14.00
   1   8  10   98.69    8.80
  -2  -8 -10  540.95   35.40
  -2  -8 -10  499.05   31.90
  -2  -8 -10  521.45   32.20
   2   8  10  499.35   36.70
   2   8  10  491.85   31.50
  -3  -8 -10   18.10    5.20
  -3  -8 -10   17.10    7.40
  -3  -8 -10   15.70    5.10
   3   8  10   17.80    4.60
   3   8  10    1.70   10.00
  -4  -8 -10  277.97   18.20
  -4  -8 -10  266.47   18.40
  -4  -8 -10  303.17   23.60
   4   8  10  199.18   23.70
   4   8  10  286.67   17.90
  -5  -8 -10   40.30   10.90
  -5  -8 -10   34.40    6.30
  -5  -8 -10   37.00    6.20
  -6  -8 -10  301.17   21.20
  -6  -8 -10  317.87   21.30
  -6  -8 -10  329.47   26.70
   0  -9 -10   12.10    9.40
   0  -9 -10    4.20    5.50
   0   9  10   10.60   11.00
   0   9  10   10.50    5.40
  -1  -9 -10  455.65   30.60
  -1  -9 -10  514.35   34.00
   1   9  10  478.55   30.60
  -2  -9 -10   74.39   11.40
  -2  -9 -10   60.79    6.80
   2   9  10   63.29    7.30
   2   9  10   63.29   13.80
  -3  -9 -10  854.41   51.79
  -3  -9 -10  755.82   48.90
  -3  -9 -10  800.82   48.80
   3   9  10  800.62   54.19
   3   9  10  764.82   48.60
  -4  -9 -10  363.96   24.00
  -4  -9 -10  393.06   24.00
  -4  -9 -10  408.76   29.40
   4   9  10  282.37   29.70
   4   9  10  374.06   23.60
  -5  -9 -10  366.46   25.80
  -5  -9 -10  406.16   25.90
  -5  -9 -10  418.26   31.20
  -2 -10 -10  287.07   23.60
  -2 -10 -10  258.57   18.70
   2  10  10  240.28   18.20
   2  10  10  266.37   26.40
  -3 -10 -10  177.48   19.60
  -3 -10 -10  149.79   13.00
   3  10  10  139.69   12.00
   3  10  10  126.69   18.50
   1   5 -11  219.58   17.50
   1   5 -11  221.98   14.60
   1   5 -11  177.48   14.10
   0   5 -11  212.48   14.20
   0   5 -11  239.98   17.60
   0   5 -11  188.88   13.90
  -1   5 -11  444.36   30.00
   2   4 -11  211.78   16.40
   2   4 -11  242.08   17.50
   2   4 -11  251.57   16.30
   1   4 -11   38.10    5.30
   1   4 -11   51.59    8.20
   0   4 -11  202.88   14.80
   0   4 -11  258.87   17.60
  -1   4 -11    9.40    6.40
  -2   4 -11  260.47   18.00
  -2   4 -11  221.18   21.50
  -2   4 -11  222.08   14.60
  -3   4 -11   46.10    8.80
  -3   4 -11   41.90   10.60
   3   3 -11   22.40    7.90
   3   3 -11   16.60    5.90
   2   3 -11   20.10    5.10
   2   3 -11   36.40    7.30
   1   3 -11   10.70    6.00
   1   3 -11    9.40    4.40
   0   3 -11   11.10    6.50
   0   3 -11   -2.30    3.40
  -1   3 -11   25.70    6.10
  -1   3 -11   19.30    3.20
  -1   3 -11   12.90    9.20
  -1   3 -11   21.40    3.70
  -2   3 -11   12.00    5.70
  -2   3 -11   -7.00    8.40
  -2   3 -11    1.50    2.60
  -3   3 -11   52.29    9.20
  -3   3 -11   53.49   11.40
  -3   3 -11   57.39    4.30
  -3   3 -11   59.99    4.30
  -4   3 -11   15.00    9.10
   3   2 -11    5.40    4.90
   3   2 -11    1.10    5.00
   3   2 -11    2.00    8.40
   3   2 -11    8.70    6.50
   2   2 -11  232.18   15.80
   2   2 -11  223.78   20.20
   2   2 -11  236.78   17.40
   2   2 -11  220.48   15.70
   1   2 -11   10.60    8.70
   1   2 -11   27.50    6.00
   1   2 -11   23.80    4.60
   1   2 -11   17.30    4.40
   0   2 -11  166.18   11.30
   0   2 -11  186.58   13.00
   0   2 -11  147.79   11.30
   0   2 -11  143.49   16.90
  -1   2 -11   85.59    7.60
  -1   2 -11   98.69    9.20
  -1   2 -11   81.99   11.70
  -1   2 -11   94.59    7.30
  -2   2 -11   47.80    6.70
  -2   2 -11   41.50    4.00
  -2   2 -11   22.40    9.20
  -3   2 -11   57.59    4.30
  -3   2 -11   55.49    4.60
  -3   2 -11   42.80   10.10
  -4   2 -11   37.20    9.40
  -5   2 -11   83.59   11.50
  -5   2 -11   74.89   10.30
   3   1 -11  483.05   33.20
   3   1 -11  486.25   32.20
   3   1 -11  559.24   35.40
   3   1 -11  526.85   32.20
  -3  -1  11  506.15   37.10
   2   1 -11   48.00    7.00
   2   1 -11   42.70    5.80
   2   1 -11   46.90    9.40
   2   1 -11   42.00    5.90
   1   1 -11  353.06   25.80
   1   1 -11  314.27   22.00
   1   1 -11  358.46   22.90
   1   1 -11  362.96   22.10
   0   1 -11  253.47   16.60
   0   1 -11  245.68   15.80
   0   1 -11  232.48   15.90
   0   1 -11  237.78   20.20
  -1   1 -11  124.39   14.80
  -1   1 -11  128.59    9.40
  -1   1 -11  129.09    9.30
  -2   1 -11  585.14   38.60
  -2   1 -11  571.24   34.60
  -2   1 -11  567.94   34.70
  -3   1 -11    1.00    2.50
  -3   1 -11    3.80    2.40
  -3   1 -11   -4.30    7.60
  -4   1 -11  327.47   19.80
  -4   1 -11  361.86   25.40
  -4   1 -11  315.17   19.90
  -5   1 -11   39.60    9.40
   3   0 -11  206.58   17.90
   3   0 -11  197.78   14.20
   3   0 -11  160.88   14.10
   3   0 -11  195.68   15.20
  -3   0  11  198.58   20.00
  -3   0  11  191.88   13.60
   2   0 -11  623.44   40.80
   2   0 -11  685.33   42.40
   2   0 -11  602.34   40.10
   2   0 -11  676.43   40.10
  -2   0  11  673.33   39.80
   1   0 -11 1015.50   59.89
   1   0 -11  911.61   57.79
   1   0 -11  944.71   58.29
   1   0 -11  954.90   57.79
   0   0 -11  356.56   22.20
   0   0 -11  332.97   21.70
   0   0 -11  337.87   25.20
   0   0 -11  350.16   21.90
  -1   0 -11 1346.97   85.09
  -1   0 -11 1417.56   84.49
  -1   0 -11 1420.56   84.49
  -1   0 -11 1470.95   87.29
  -2   0 -11    9.70    2.90
  -2   0 -11    9.40    7.60
  -2   0 -11    8.20    3.00
  -3   0 -11  814.42   50.49
  -3   0 -11  889.81   54.29
  -3   0 -11  841.92   50.69
  -4   0 -11  129.89   14.80
  -4   0 -11  107.69    8.40
  -4   0 -11  121.19    8.10
  -5   0 -11  386.76   23.70
  -5   0 -11  369.36   23.70
  -5   0 -11  450.15   28.90
  -6   0 -11  455.25   29.90
  -6   0 -11  370.96   28.90
  -6   0 -11  374.96   23.40
   3  -1 -11   93.59    9.00
   3  -1 -11   98.69    8.80
   3  -1 -11  106.69   11.90
   3  -1 -11  111.79   10.70
  -3   1  11   98.89    8.40
  -3   1  11   96.39   13.40
   2  -1 -11  448.16   29.10
   2  -1 -11  463.45   28.70
   2  -1 -11  422.46   28.70
   2  -1 -11  491.65   31.00
  -2   1  11  447.56   32.50
  -2   1  11  467.25   28.50
   1  -1 -11    2.70    4.20
   1  -1 -11   10.70    6.80
   1  -1 -11    5.70    3.90
   1  -1 -11   12.20    4.10
  -1   1  11    5.40    3.60
   0  -1 -11  452.05   29.40
   0  -1 -11  463.45   30.80
   0  -1 -11  449.76   28.00
   0  -1 -11  436.36   27.90
  -1  -1 -11   78.09    6.30
  -1  -1 -11   73.49   10.00
  -1  -1 -11   68.39    6.20
  -2  -1 -11  308.77   19.80
  -2  -1 -11  319.17   19.90
  -2  -1 -11  324.67   22.80
  -3  -1 -11  229.38   14.90
  -3  -1 -11  227.38   19.60
  -3  -1 -11  244.28   15.00
  -4  -1 -11  213.68   17.10
  -4  -1 -11  201.38   13.30
  -5  -1 -11  375.16   26.00
  -5  -1 -11  320.67   21.00
  -6  -1 -11   23.00    8.70
  -6  -1 -11    9.60    2.80
   3  -2 -11    1.90    5.10
   3  -2 -11    4.70    5.00
   3  -2 -11    2.60    5.90
  -3   2  11   -7.00    9.80
  -3   2  11   -3.70    4.30
   2  -2 -11   -0.40    7.00
   2  -2 -11    2.70    9.70
   2  -2 -11   -3.40    4.40
   2  -2 -11    0.00    4.60
  -2   2  11    1.50    4.10
  -2   2  11   -0.70    8.90
   1  -2 -11   32.30    5.00
   1  -2 -11   35.60    5.10
   1  -2 -11   29.10    7.50
   1  -2 -11   27.40    9.90
  -1   2  11   28.80    4.60
   0  -2 -11    7.80    6.90
   0  -2 -11    7.80    4.00
   0  -2 -11    5.80    9.00
   0  -2 -11    2.10    3.70
   0   2  11    9.20    3.40
  -1  -2 -11  209.78   18.30
  -1  -2 -11  224.68   14.50
  -1  -2 -11  236.08   24.40
  -1  -2 -11  210.48   14.70
  -2  -2 -11  138.79   14.70
  -2  -2 -11  132.69    9.90
  -2  -2 -11  142.39   10.10
  -3  -2 -11   59.79    5.30
  -3  -2 -11   55.49    9.60
  -3  -2 -11   54.29    5.10
  -4  -2 -11  118.89    8.70
  -4  -2 -11  110.89    8.40
  -4  -2 -11  118.89   14.60
  -5  -2 -11   -0.40    3.20
  -5  -2 -11    0.10    2.50
  -5  -2 -11    5.30    7.90
  -6  -2 -11   76.49   11.20
  -6  -2 -11   85.59    7.10
   3  -3 -11   -4.10    4.90
  -3   3  11   -0.20   10.50
  -3   3  11    5.30    4.80
   2  -3 -11  239.78   17.90
   2  -3 -11  283.67   20.50
   2  -3 -11  304.17   23.90
   2  -3 -11  284.07   18.00
  -2   3  11  258.57   17.70
  -2   3  11  201.48   23.20
   1  -3 -11   12.30    6.60
   1  -3 -11    4.60    4.30
   1  -3 -11    7.70    9.60
   1  -3 -11   10.40    4.60
  -1   3  11    2.90    9.60
  -1   3  11    9.40    4.10
   0  -3 -11  379.06   26.90
   0  -3 -11  378.16   24.30
   0  -3 -11  383.16   29.70
   0  -3 -11  393.96   24.30
   0   3  11  387.56   24.00
  -1  -3 -11  132.59   12.70
  -1  -3 -11  135.39   15.40
  -1  -3 -11  138.69   10.20
  -1  -3 -11  131.79   10.50
   1   3  11  146.29    9.80
  -2  -3 -11  147.59   11.10
  -2  -3 -11  154.88   15.50
  -2  -3 -11  156.18   10.90
  -3  -3 -11  237.88   16.00
  -3  -3 -11  245.28   16.00
  -3  -3 -11  268.87   20.50
  -4  -3 -11   -0.40    3.30
  -4  -3 -11    0.40    5.90
  -4  -3 -11    0.00    3.40
  -5  -3 -11   64.79    5.80
  -5  -3 -11   55.69   10.10
  -5  -3 -11   58.59    5.50
  -6  -3 -11   -1.50    3.50
  -6  -3 -11   -0.60    3.00
  -6  -3 -11    4.40    8.10
   3  -4 -11  456.25   28.60
  -3   4  11  455.25   28.50
  -3   4  11  427.36   33.90
   2  -4 -11  347.17   22.80
   2  -4 -11  300.57   20.50
   2  -4 -11  322.07   27.70
   2  -4 -11  317.87   20.00
  -2   4  11  251.87   26.00
  -2   4  11  292.47   20.20
   1  -4 -11  297.57   21.90
   1  -4 -11  318.67   24.90
   1  -4 -11  309.07   20.00
   1  -4 -11  309.47   19.90
  -1   4  11  235.88   25.30
  -1   4  11  316.77   19.70
   0  -4 -11 1022.40   67.69
   0  -4 -11 1042.10   62.89
   0  -4 -11 1039.20   64.89
   0  -4 -11 1036.10   63.09
   0   4  11 1078.69   62.89
  -1  -4 -11   25.00    4.70
  -1  -4 -11   23.80    7.70
  -1  -4 -11   28.50    4.70
   1   4  11   34.70    4.40
  -2  -4 -11 1095.29   68.19
  -2  -4 -11 1107.19   70.29
  -2  -4 -11 1143.29   68.19
   2   4  11 1189.78   68.19
  -3  -4 -11   19.90    4.10
  -3  -4 -11   20.30    6.50
  -3  -4 -11   19.00    4.40
  -4  -4 -11  649.43   39.80
  -4  -4 -11  654.03   43.20
  -5  -4 -11  207.88   14.40
  -5  -4 -11  232.48   19.80
  -5  -4 -11  206.68   14.30
  -6  -4 -11  110.49   12.80
  -6  -4 -11   94.19    8.10
   2  -5 -11   71.79    7.90
   2  -5 -11   87.69   10.80
  -2   5  11   77.79    7.60
  -2   5  11   56.79   13.50
   1  -5 -11 1262.57   83.19
   1  -5 -11 1466.65   84.89
   1  -5 -11 1462.85   83.39
  -1   5  11 1442.86   83.29
  -1   5  11 1279.67   86.39
   0  -5 -11   15.90    5.00
   0  -5 -11   20.30    4.90
   0  -5 -11   28.40    8.30
   0   5  11   25.60    4.60
  -1  -5 -11 1211.08   76.19
  -1  -5 -11 1160.38   74.09
  -1  -5 -11 1260.17   74.09
   1   5  11 1292.77   73.99
  -2  -5 -11  447.96   27.70
  -2  -5 -11  439.86   30.90
  -2  -5 -11  424.36   27.80
   2   5  11  461.35   27.60
  -3  -5 -11  545.75   34.20
  -3  -5 -11  529.35   34.20
  -3  -5 -11  588.94   36.80
  -4  -5 -11  952.70   59.59
  -4  -5 -11  970.40   59.59
  -4  -5 -11 1040.60   62.79
  -5  -5 -11  123.59   10.40
  -5  -5 -11  143.89   16.20
  -5  -5 -11  123.59   10.20
  -6  -5 -11  774.72   47.40
  -6  -5 -11  723.73   47.30
  -6  -5 -11  845.92   51.29
   2  -6 -11   38.20    6.40
  -2   6  11   42.50    6.30
  -2   6  11   23.60   12.40
   1  -6 -11    6.40    6.30
   1  -6 -11   11.30    7.80
   1  -6 -11    4.40    5.20
  -1   6  11    4.90    4.90
  -1   6  11   -6.90   10.60
   0  -6 -11  123.39   11.10
   0  -6 -11  128.59   14.10
   0  -6 -11  142.19   10.10
   0   6  11  129.39    9.80
  -1  -6 -11  166.78   12.80
  -1  -6 -11  169.48   12.70
  -1  -6 -11  178.08   16.60
   1   6  11  174.48   12.30
   1   6  11  167.78   16.20
  -2  -6 -11  132.59   11.10
  -2  -6 -11  158.48   16.00
  -2  -6 -11  116.39   11.20
   2   6  11  152.38   10.60
  -3  -6 -11  347.37   22.90
  -3  -6 -11  359.76   22.90
  -3  -6 -11  369.46   25.60
   3   6  11  348.87   22.90
  -4  -6 -11   27.90    5.20
  -4  -6 -11   31.70    5.40
  -4  -6 -11   33.10    9.60
  -5  -6 -11  273.67   22.40
  -5  -6 -11  233.98   16.80
  -5  -6 -11  241.28   17.10
  -6  -6 -11    6.30    4.90
  -6  -6 -11    9.30    5.50
  -6  -6 -11   10.20    9.90
   1  -7 -11   41.70    6.70
   1  -7 -11   62.49    9.70
  -1   7  11   33.00    6.40
  -1   7  11   45.50   10.40
   0  -7 -11   34.70    6.00
   0  -7 -11   34.30    8.60
   0  -7 -11   36.90    6.20
   0   7  11   36.80    5.60
  -1  -7 -11   19.90    5.20
  -1  -7 -11   20.20    8.40
  -1  -7 -11   21.20    5.30
   1   7  11   14.70    8.30
   1   7  11   19.00    4.90
  -2  -7 -11   21.70    5.30
  -2  -7 -11   31.20    9.20
   2   7  11   19.00    4.70
   2   7  11    4.60    7.90
  -3  -7 -11   15.00    5.20
  -3  -7 -11   17.40    7.30
  -3  -7 -11   13.20    4.90
   3   7  11   14.20    4.50
   3   7  11   -4.40    8.10
  -4  -7 -11  167.88   12.20
  -4  -7 -11  141.29   15.30
  -5  -7 -11   32.00    5.80
  -5  -7 -11   35.80    5.90
  -5  -7 -11   31.60   10.50
  -6  -7 -11  138.89   11.70
  -6  -7 -11  157.58   11.40
  -6  -7 -11   94.29   14.60
   0  -8 -11   34.80    8.70
   0  -8 -11   27.60    6.40
   0   8  11   27.30    5.80
  -1  -8 -11  148.29   12.80
  -1  -8 -11  170.28   17.10
  -1  -8 -11  147.19   12.80
   1   8  11  189.68   20.40
   1   8  11  165.48   12.70
  -2  -8 -11    6.50    8.90
  -2  -8 -11   -2.30    4.70
  -2  -8 -11    4.50    5.20
   2   8  11   -2.60    9.20
   2   8  11    1.30    4.70
  -3  -8 -11  207.68   15.10
  -3  -8 -11  210.88   15.30
  -3  -8 -11  232.98   18.50
   3   8  11  209.18   14.60
   3   8  11  164.98   20.30
  -4  -8 -11   48.10    6.80
  -4  -8 -11   48.70   11.50
  -4  -8 -11   46.90    6.40
  -5  -8 -11   87.19   13.50
  -5  -8 -11   78.19    8.40
  -5  -8 -11   93.99    8.70
  -1  -9 -11   27.70    9.60
  -1  -9 -11   24.10    6.40
   1   9  11   30.00    5.60
   1   9  11   37.50   13.30
  -2  -9 -11  371.56   27.20
  -2  -9 -11  461.95   31.20
   2   9  11  426.16   26.50
  -3  -9 -11  189.78   13.80
  -3  -9 -11  189.78   15.00
  -3  -9 -11  224.38   20.60
   3   9  11  199.78   14.30
   3   9  11  167.08   21.30
  -4  -9 -11   36.80    7.10
  -4  -9 -11   45.70   11.80
  -4  -9 -11   53.79    7.00
   1   3 -12   13.50    4.50
   1   3 -12   12.40    4.90
   1   3 -12    1.30    7.40
   1   3 -12   18.20    6.80
   0   3 -12  287.27   25.30
   0   3 -12  304.57   19.30
   0   3 -12  271.07   19.30
   0   3 -12  355.76   22.00
  -1   3 -12   64.29   12.10
  -1   3 -12   86.49    7.40
  -2   3 -12  117.79   14.60
  -2   3 -12  129.39    9.00
  -3   3 -12  283.87   17.00
  -3   3 -12  267.67   23.80
   2   2 -12   14.70    6.60
   2   2 -12    7.90    4.90
   2   2 -12    2.10    9.10
   2   2 -12    1.70    4.70
   1   2 -12    4.20    4.30
   1   2 -12  -11.40    8.70
   1   2 -12    1.00    4.50
   1   2 -12   11.50    5.90
   0   2 -12    2.10    3.80
   0   2 -12   -1.70    8.70
   0   2 -12    9.70    5.50
   0   2 -12    7.20    4.00
  -1   2 -12   -8.40    8.30
  -1   2 -12   -3.90    3.40
  -1   2 -12   -2.00    2.90
  -2   2 -12    3.30    9.10
  -2   2 -12   13.20    3.20
  -3   2 -12    3.00    2.30
  -3   2 -12   -3.60    8.90
  -4   2 -12   33.00   10.10
   2   1 -12  213.28   16.00
   2   1 -12  215.68   14.90
   2   1 -12  209.78   19.10
   2   1 -12  182.78   15.00
   1   1 -12  103.89   13.10
   1   1 -12  109.19    9.60
   1   1 -12  124.79    9.90
   1   1 -12  126.69   10.70
   0   1 -12  109.39    9.50
   0   1 -12  106.49    8.70
   0   1 -12  113.79   13.10
  -1   1 -12  158.98   11.40
  -1   1 -12  159.08   11.30
  -1   1 -12  164.78   15.30
  -2   1 -12   32.20    3.80
  -2   1 -12   26.70    9.50
  -2   1 -12   23.20    3.30
  -3   1 -12  110.89    7.80
  -3   1 -12   98.89   12.90
  -4   1 -12    0.20    8.70
  -4   1 -12    5.50    2.10
   3   0 -12  199.88   15.50
   3   0 -12  219.38   18.50
   3   0 -12  222.38   17.30
   3   0 -12  173.18   15.30
  -3   0  12  244.28   20.40
   2   0 -12  663.83   42.30
   2   0 -12  752.52   45.10
   2   0 -12  729.83   42.40
   2   0 -12  604.44   43.30
   1   0 -12   35.70    5.30
   1   0 -12   26.40    5.10
   1   0 -12   30.40    8.80
   0   0 -12  770.42   48.30
   0   0 -12  821.52   51.49
   0   0 -12  795.12   48.20
  -1   0 -12   43.10    8.10
  -1   0 -12   37.80    4.50
  -1   0 -12   37.30    4.60
  -2   0 -12  669.83   42.90
  -2   0 -12  620.54   38.90
  -3   0 -12  195.48   12.90
  -3   0 -12  199.78   17.00
  -4   0 -12  329.27   21.30
  -4   0 -12  376.26   26.70
  -5   0 -12  275.87   17.70
  -5   0 -12  327.07   24.10
   3  -1 -12  222.38   17.80
   3  -1 -12  285.77   20.30
   3  -1 -12  264.57   17.90
  -3   1  12  240.58   22.80
   2  -1 -12   -2.00    7.00
   2  -1 -12    0.70    4.80
   2  -1 -12   -2.00    4.70
   1  -1 -12  627.04   36.90
   1  -1 -12  611.64   39.60
   1  -1 -12  557.04   36.90
   0  -1 -12   58.49    8.60
   0  -1 -12   60.39    6.10
   0  -1 -12   64.39    6.40
  -1  -1 -12 1043.70   64.59
  -1  -1 -12 1069.89   64.59
  -1  -1 -12 1109.79   67.59
  -2  -1 -12  472.25   32.20
  -2  -1 -12  448.96   28.10
  -2  -1 -12  452.25   28.20
  -3  -1 -12  397.26   27.80
  -3  -1 -12  357.16   23.00
  -3  -1 -12  372.76   23.20
  -4  -1 -12  598.74   40.40
  -5  -1 -12   21.50    3.50
  -5  -1 -12   34.40    9.70
   3  -2 -12    5.60    6.00
   3  -2 -12   -2.90    5.50
  -3   2  12   -5.10    4.80
  -3   2  12  -11.00   10.20
   2  -2 -12  248.98   18.20
   2  -2 -12  280.57   20.80
   2  -2 -12  284.37   18.30
  -2   2  12  223.68   23.20
  -2   2  12  279.37   17.80
   1  -2 -12   67.79    7.20
   1  -2 -12   68.09    7.00
   1  -2 -12   77.29   10.00
   0  -2 -12  101.39    8.50
   0  -2 -12   99.49    9.00
   0  -2 -12  111.39   13.80
  -1  -2 -12  251.67   16.80
  -1  -2 -12  252.27   20.70
  -1  -2 -12  248.08   16.50
  -2  -2 -12    6.20    3.80
  -2  -2 -12   11.70    3.90
  -2  -2 -12    8.90    7.90
  -3  -2 -12  480.15   28.30
  -3  -2 -12  463.55   32.40
  -3  -2 -12  433.86   28.20
  -4  -2 -12   12.10    8.60
  -4  -2 -12    0.90    3.50
  -4  -2 -12    2.40    3.00
  -5  -2 -12  595.04   38.40
  -5  -2 -12  685.53   42.90
   2  -3 -12   28.90    4.70
   2  -3 -12   31.10    8.50
   2  -3 -12   28.50    5.80
  -2   3  12   26.30    5.40
  -2   3  12    8.40   10.70
   1  -3 -12   -8.60    4.20
   1  -3 -12   -0.90    4.60
   1  -3 -12   -1.10    6.80
  -1   3  12   -1.80    4.10
   0  -3 -12    7.20    4.40
   0  -3 -12    3.30    7.30
   0  -3 -12    5.20    4.30
  -1  -3 -12    7.80    4.10
  -1  -3 -12    7.30    4.10
  -1  -3 -12    4.20    7.50
  -2  -3 -12   29.50    4.80
  -2  -3 -12   27.80    4.50
  -2  -3 -12   35.60    8.90
  -3  -3 -12    7.10    3.90
  -3  -3 -12    8.30    3.80
  -3  -3 -12   12.00    6.50
  -4  -3 -12    9.80    3.90
  -4  -3 -12   15.20    9.00
  -4  -3 -12   16.90    3.90
  -5  -3 -12   17.60    3.90
  -5  -3 -12   41.70    9.90
  -5  -3 -12   27.60    4.50
  -6  -3 -12   10.90    3.90
  -6  -3 -12   22.40    9.40
   2  -4 -12    5.80    5.30
   2  -4 -12    2.70    5.30
   2  -4 -12    9.30    7.70
  -2   4  12   -1.30   11.10
  -2   4  12    7.20    5.00
   1  -4 -12  300.97   20.50
   1  -4 -12  322.47   22.90
   1  -4 -12  294.47   20.60
  -1   4  12  316.87   20.20
   0  -4 -12   12.10    4.70
   0  -4 -12   12.40    4.60
   0  -4 -12   12.80    7.50
   0   4  12   10.70    4.20
  -1  -4 -12  242.98   16.40
  -1  -4 -12  239.58   16.70
  -1  -4 -12  247.48   20.30
  -2  -4 -12   50.19    5.70
  -2  -4 -12   56.59    5.70
  -2  -4 -12   45.40    9.70
  -3  -4 -12  132.79   10.60
  -3  -4 -12  152.28   16.40
  -3  -4 -12  147.39   10.70
  -4  -4 -12   63.09   10.80
  -4  -4 -12   61.79    6.30
  -4  -4 -12   58.89    6.20
  -5  -4 -12   61.19    6.30
  -5  -4 -12   73.09   11.50
  -5  -4 -12   71.39    6.40
  -6  -4 -12   32.20   10.30
  -6  -4 -12   34.90    5.20
  -6  -4 -12   34.30    4.80
   2  -5 -12  160.18   13.00
  -2   5  12  143.39   17.40
  -2   5  12  176.58   12.90
   1  -5 -12    1.90    5.20
   1  -5 -12   -1.40    3.70
   1  -5 -12    5.80    7.00
  -1   5  12   -6.50   11.30
  -1   5  12    2.10    4.40
   0  -5 -12  318.47   22.50
   0  -5 -12  356.16   25.40
   0  -5 -12  349.96   22.50
   0   5  12  358.56   22.30
  -1  -5 -12  161.88   16.30
  -1  -5 -12  148.39   12.00
  -1  -5 -12  146.39   11.10
   1   5  12  168.58   11.40
  -2  -5 -12  376.06   23.70
  -2  -5 -12  386.16   27.50
  -2  -5 -12  352.36   23.70
  -3  -5 -12  407.66   29.20
  -3  -5 -12  395.66   25.00
  -3  -5 -12  382.16   24.90
  -4  -5 -12  151.98   17.00
  -4  -5 -12  122.99   10.90
  -4  -5 -12  135.49   11.20
  -5  -5 -12  407.46   26.70
  -5  -5 -12  414.16   26.80
  -5  -5 -12  455.75   31.60
  -6  -5 -12   12.10    9.80
   1  -6 -12  587.94   39.10
   1  -6 -12  690.73   41.10
  -1   6  12  629.64   38.60
  -1   6  12  583.04   44.30
   0  -6 -12  228.18   19.10
   0  -6 -12  208.98   16.10
   0  -6 -12  233.28   15.40
   0   6  12  227.68   15.70
  -1  -6 -12  397.26   25.70
  -1  -6 -12  416.66   29.00
  -1  -6 -12  361.66   25.70
   1   6  12  432.46   25.50
  -2  -6 -12  379.76   24.90
  -2  -6 -12  364.56   24.90
  -2  -6 -12  429.56   28.90
  -3  -6 -12  114.19   13.30
  -3  -6 -12  106.49    9.10
  -3  -6 -12   94.69    8.70
  -4  -6 -12  910.81   54.89
  -4  -6 -12  802.12   51.19
  -4  -6 -12  808.72   51.19
  -5  -6 -12   45.30   10.90
  -5  -6 -12   37.80    5.80
  -5  -6 -12   38.00    5.90
   0  -7 -12   66.29    8.10
   0  -7 -12   76.39   10.60
   0   7  12   72.19    7.20
  -1  -7 -12  425.86   29.60
  -1  -7 -12  375.36   26.30
  -1  -7 -12  410.76   26.40
   1   7  12  430.86   26.20
  -2  -7 -12    2.60    8.60
  -2  -7 -12    2.70    4.90
  -2  -7 -12   12.40    4.10
   2   7  12    6.00    4.50
  -3  -7 -12  477.55   32.10
  -3  -7 -12  493.95   31.90
  -3  -7 -12  558.84   36.20
  -4  -7 -12   65.29    6.90
  -4  -7 -12   61.89   10.10
  -4  -7 -12   50.29    7.00
  -5  -7 -12  283.77   24.10
  -5  -7 -12  247.68   18.30
  -5  -7 -12  260.37   18.10
  -1  -8 -12   -1.20    8.60
  -1  -8 -12   -2.40    5.50
   1   8  12    2.20    5.10
  -2  -8 -12   13.90    7.60
  -2  -8 -12   17.50    5.90
   2   8  12    8.60    5.10
  -3  -8 -12    7.90    9.60
  -3  -8 -12   12.70    5.50
  -3  -8 -12   11.30    5.70
   3   8  12  -21.00    8.60
  -4  -8 -12   44.80    7.00
  -4  -8 -12   34.70   11.30
   0   2 -13  102.09    9.20
   0   2 -13   99.79   13.90
   0   2 -13  118.09    9.70
  -1   2 -13  166.88   11.80
  -1   2 -13  185.08   19.60
  -2   2 -13   32.20   10.90
  -2   2 -13   42.50    4.50
   1   1 -13   -9.10    4.20
   1   1 -13   -7.40    8.60
   1   1 -13    7.40    5.20
   0   1 -13    4.80    4.20
   0   1 -13   -1.90    4.40
   0   1 -13   -6.00    9.00
  -1   1 -13   -9.10    8.50
  -1   1 -13   -0.20    3.60
  -1   1 -13   -0.90    3.90
  -2   1 -13    3.30    3.60
  -2   1 -13    0.80    9.20
  -3   1 -13   12.10    3.20
  -3   1 -13   11.20    9.50
   1   0 -13  156.28   13.30
   1   0 -13  181.68   18.10
   1   0 -13  181.88   13.00
   0   0 -13   12.40    4.80
   0   0 -13    9.40    9.20
   0   0 -13    8.20    4.40
  -1   0 -13  198.78   13.50
  -1   0 -13  184.28   13.30
  -1   0 -13  194.68   17.20
  -2   0 -13   83.29   12.20
  -2   0 -13   85.49    7.40
  -2   0 -13   92.49    7.80
  -3   0 -13   31.20   10.20
  -3   0 -13   36.00    4.30
  -4   0 -13   62.79   11.60
  -4   0 -13   60.89    5.10
   1  -1 -13   53.39   10.00
   1  -1 -13   51.59    6.30
   1  -1 -13   37.40    6.00
   0  -1 -13  344.07   22.10
   0  -1 -13  337.27   26.00
   0  -1 -13  334.57   21.80
  -1  -1 -13  201.18   19.10
  -1  -1 -13  196.58   13.80
  -1  -1 -13  186.08   13.60
  -2  -1 -13  116.99    9.00
  -2  -1 -13  102.49   13.20
  -2  -1 -13  122.79    9.40
  -3  -1 -13  288.17   18.20
  -3  -1 -13  267.07   18.00
  -3  -1 -13  314.67   24.20
  -4  -1 -13   54.59    5.40
  -4  -1 -13   73.89   11.80
   1  -2 -13  243.18   16.70
   1  -2 -13  218.58   16.60
   1  -2 -13  257.17   20.50
   0  -2 -13  450.25   27.80
   0  -2 -13  449.76   31.40
   0  -2 -13  424.66   28.00
  -1  -2 -13  149.79   16.80
  -1  -2 -13  155.78   11.30
  -1  -2 -13  143.29   11.70
  -2  -2 -13  901.11   56.09
  -2  -2 -13  869.71   52.49
  -2  -2 -13  833.72   52.39
  -3  -2 -13    4.30    3.90
  -3  -2 -13    4.00    8.90
  -3  -2 -13    5.80    3.60
  -4  -2 -13  460.05   30.00
  -4  -2 -13  528.45   35.10
   1  -3 -13  116.49   11.10
   1  -3 -13  136.59   15.20
   1  -3 -13  137.09   11.30
   0  -3 -13   64.19    6.80
   0  -3 -13   60.39   10.20
   0  -3 -13   55.59    6.60
  -1  -3 -13  160.08   16.80
  -1  -3 -13  144.89   11.80
  -1  -3 -13  139.59   11.70
  -2  -3 -13    4.50    6.50
  -2  -3 -13    2.70    4.00
  -2  -3 -13   -0.70    3.90
  -3  -3 -13  152.88   11.60
  -3  -3 -13  157.28   11.40
  -3  -3 -13  155.28   17.50
  -4  -3 -13   74.69    6.90
  -4  -3 -13   79.09   12.10
  -5  -3 -13   97.99    9.00
  -5  -3 -13  103.49   13.50
   1  -4 -13   19.30    8.90
   1  -4 -13   21.60    5.30
   1  -4 -13   11.30    5.40
   0  -4 -13    4.50    4.80
   0  -4 -13    3.10    7.90
   0  -4 -13   -0.60    4.90
  -1  -4 -13    8.60    8.40
  -1  -4 -13   11.80    4.90
  -1  -4 -13    9.00    4.60
  -2  -4 -13   11.30    9.00
  -2  -4 -13    6.10    4.40
  -2  -4 -13    2.40    4.20
  -3  -4 -13    4.10    4.00
  -3  -4 -13    6.40    9.00
  -3  -4 -13    7.10    4.20
  -4  -4 -13    9.60    4.40
  -4  -4 -13   17.10    7.70
  -4  -4 -13   11.70    4.70
  -5  -4 -13    9.10    4.60
  -5  -4 -13    9.80    9.80
  -5  -4 -13    1.90    4.00
   0  -5 -13  117.79   10.30
   0  -5 -13  125.79   11.10
   0  -5 -13  141.79   15.40
  -1  -5 -13  103.89   12.40
  -1  -5 -13   95.39    8.50
  -1  -5 -13   90.69    8.70
  -2  -5 -13  161.88   17.60
  -2  -5 -13  150.38   11.80
  -2  -5 -13  148.09   11.90
  -3  -5 -13   19.40    9.60
  -3  -5 -13   14.90    5.30
  -3  -5 -13   11.30    5.10
  -4  -5 -13  155.48   12.20
  -4  -5 -13  179.88   19.20
  -4  -5 -13  168.38   12.40
  -5  -5 -13   10.10    4.60
  -5  -5 -13   18.00    8.20
  -5  -5 -13    9.60    5.10
   0  -6 -13  194.08   15.90
   0  -6 -13  223.58   19.60
   0  -6 -13  230.78   16.10
   0   6  13  246.38   17.20
  -1  -6 -13  614.54   37.00
  -1  -6 -13  550.54   37.00
  -1  -6 -13  618.94   40.20
  -2  -6 -13   14.00    5.20
  -2  -6 -13   10.40    5.00
  -2  -6 -13   19.40    9.50
  -3  -6 -13  535.55   34.00
  -3  -6 -13  578.94   37.10
  -3  -6 -13  517.35   34.10
  -4  -6 -13   13.30    5.10
  -4  -6 -13   14.30    8.00
  -4  -6 -13    8.20    5.00
  -2  -7 -13  327.67   23.90
  -2  -7 -13  401.66   28.60
  -2  -7 -13  377.56   24.10
  -3  -7 -13   58.39    7.30
  -3  -7 -13   73.89   12.30
  -3  -7 -13   58.99    7.40
  -1  -1 -14  178.48   19.00
  -1  -1 -14  179.88   12.80
  -1  -1 -14  162.38   13.00
  -2  -1 -14  363.66   23.70
  -2  -1 -14  384.76   27.60
   0  -2 -14   52.19    6.90
   0  -2 -14   58.29   10.80
   0  -2 -14   54.69    6.50
  -1  -2 -14  394.56   25.50
  -1  -2 -14  392.06   25.40
  -1  -2 -14  422.16   30.30
  -2  -2 -14    6.00    4.50
  -2  -2 -14    7.50    4.20
  -2  -2 -14   11.30    9.40
  -3  -2 -14  282.77   18.90
  -3  -2 -14  300.67   24.80
  -1  -3 -14   71.59    7.10
  -1  -3 -14   67.39    7.00
  -1  -3 -14   70.09   11.60
  -2  -3 -14  690.73   41.50
  -2  -3 -14  624.74   41.30
  -2  -3 -14  714.13   45.60
  -3  -3 -14  219.68   15.60
  -3  -3 -14  234.58   21.90
  -1  -4 -14  118.29   10.40
  -1  -4 -14  132.99   11.10
  -1  -4 -14  142.89   16.90
  -2  -4 -14  112.99    9.90
  -2  -4 -14  139.69   14.50
  -2  -4 -14  123.19   10.50
  -3  -4 -14   18.80    5.10
  -3  -4 -14   17.40    4.80
  -3  -4 -14   22.70   10.30
  -2  -5 -14    8.40    5.00
  -2  -5 -14   11.80    5.50
  -2  -5 -14   11.70    9.80
   0   0   0    0.00    0.00

_computing_structure_solution     'SHELXT 2014/5 (Sheldrick, 2014)'
;
_shelx_hkl_checksum              98093
loop_
_space_group_symop_operation_xyz
'x, y, z'
'-x, -y, -z'
loop_
_atom_site_label
_atom_site_type_symbol
_atom_site_fract_x
_atom_site_fract_y
_atom_site_fract_z
_atom_site_U_iso_or_equiv
_atom_site_adp_type
_atom_site_occupancy
_atom_site_site_symmetry_order
_atom_site_calc_flag
_atom_site_refinement_flags_posn
_atom_site_refinement_flags_adp
Se1 Se 0.27629(3) 0.41419(2) 0.20206(2) 0.01593(8) Uani 1 1 d . .
N1 N 0.7113(3) 0.3363(2) 0.44461(17) 0.0132(4) Uani 1 1 d . .
C1 C 0.7108(4) 0.1528(2) 0.1781(2) 0.0154(4) Uani 1 1 d . .
B1 B 0.5558(4) 0.2746(3) 0.2626(2) 0.0135(5) Uani 1 1 d . .
C3 C 0.8624(4) 0.0282(3) 0.2598(2) 0.0223(5) Uani 1 1 d . .
H3A H 0.950787 -0.048780 0.209914 0.033 Uiso 1 1 calc R U
H3AB H 0.778099 -0.023002 0.333290 0.033 Uiso 1 1 calc R U
H3AC H 0.954627 0.077438 0.288006 0.033 Uiso 1 1 calc R U
Se2 Se 0.29040(3) 0.21122(2) 0.37892(2) 0.01552(8) Uani 1 1 d . .
N2 N 0.6983(3) 0.5142(2) 0.27852(17) 0.0142(4) Uani 1 1 d . .
C2 C 0.8495(4) 0.2361(3) 0.0683(2) 0.0224(5) Uani 1 1 d . .
H2A H 0.943949 0.160753 0.018741 0.034 Uiso 1 1 calc R U
H2AB H 0.935696 0.284988 0.101755 0.034 Uiso 1 1 calc R U
H2AC H 0.757290 0.315628 0.014506 0.034 Uiso 1 1 calc R U
C4 C 0.5876(4) 0.0697(3) 0.1234(2) 0.0223(5) Uani 1 1 d . .
H4A H 0.688145 0.002583 0.068940 0.033 Uiso 1 1 calc R U
H4AB H 0.485689 0.146638 0.074115 0.033 Uiso 1 1 calc R U
H4AC H 0.510353 0.006649 0.192328 0.033 Uiso 1 1 calc R U
C5 C 0.6605(3) 0.3714(2) 0.3270(2) 0.0126(4) Uani 1 1 d . .
C6 C 0.7118(4) 0.1906(3) 0.5339(2) 0.0183(5) Uani 1 1 d . .
H6A H 0.695617 0.208793 0.619759 0.027 Uiso 1 1 calc R U
H6AB H 0.846990 0.115820 0.515313 0.027 Uiso 1 1 calc R U
H6AC H 0.592950 0.149412 0.526670 0.027 Uiso 1 1 calc R U
C8 C 0.7664(3) 0.5678(3) 0.3660(2) 0.0170(5) Uani 1 1 d . .
H8 H 0.801599 0.664939 0.354710 0.020 Uiso 1 1 calc R U
C9 C 0.7736(3) 0.4573(3) 0.4700(2) 0.0168(5) Uani 1 1 d . .
H9 H 0.813944 0.461446 0.546604 0.020 Uiso 1 1 calc R U
C7 C 0.6756(4) 0.6042(3) 0.1522(2) 0.0216(5) Uani 1 1 d . .
H7A H 0.801965 0.646378 0.116654 0.032 Uiso 1 1 calc R U
H7AB H 0.548061 0.689557 0.156747 0.032 Uiso 1 1 calc R U
H7AC H 0.661603 0.537131 0.098405 0.032 Uiso 1 1 calc R U
loop_
_atom_site_aniso_label
_atom_site_aniso_U_11
_atom_site_aniso_U_22
_atom_site_aniso_U_33
_atom_site_aniso_U_23
_atom_site_aniso_U_13
_atom_site_aniso_U_12
Se1 0.01453(13) 0.01753(13) 0.01618(13) -0.00351(9) -0.00367(9) -0.00320(9)
N1 0.0116(9) 0.0150(9) 0.0137(9) -0.0043(7) -0.0015(7) -0.0030(7)
C1 0.0171(11) 0.0163(11) 0.0154(10) -0.0077(9) -0.0014(8) -0.0047(9)
B1 0.0151(12) 0.0120(11) 0.0141(11) -0.0018(9) -0.0017(9) -0.0054(9)
C3 0.0232(13) 0.0186(12) 0.0248(13) -0.0090(10) -0.0046(10) 0.0005(10)
Se2 0.01562(13) 0.01627(13) 0.01627(13) -0.00418(9) 0.00068(9) -0.00783(9)
N2 0.0144(9) 0.0128(9) 0.0157(9) -0.0040(7) 0.0002(7) -0.0047(7)
C2 0.0250(13) 0.0234(12) 0.0205(12) -0.0110(10) 0.0038(10) -0.0083(10)
C4 0.0243(12) 0.0219(12) 0.0251(12) -0.0128(10) -0.0031(10) -0.0064(10)
C5 0.0097(10) 0.0128(10) 0.0135(10) -0.0035(8) 0.0015(8) -0.0016(8)
C6 0.0210(12) 0.0170(11) 0.0152(11) 0.0009(9) -0.0035(9) -0.0044(9)
C8 0.0146(11) 0.0172(11) 0.0223(12) -0.0097(9) -0.0004(9) -0.0057(9)
C9 0.0136(11) 0.0201(11) 0.0197(11) -0.0103(9) -0.0015(9) -0.0043(9)
C7 0.0283(13) 0.0195(12) 0.0178(11) 0.0014(9) -0.0040(10) -0.0110(10)
loop_
_atom_type_symbol
_atom_type_description
_atom_type_scat_dispersion_real
_atom_type_scat_dispersion_imag
_atom_type_scat_source
C C 0.0033 0.0016 'International Tables Vol C Tables 4.2.6.8 and 6.1.1.4'
H H 0.0000 0.0000 'International Tables Vol C Tables 4.2.6.8 and 6.1.1.4'
B B 0.0013 0.0007 'International Tables Vol C Tables 4.2.6.8 and 6.1.1.4'
N N 0.0061 0.0033 'International Tables Vol C Tables 4.2.6.8 and 6.1.1.4'
Se Se -0.0929 2.2259 'International Tables Vol C Tables 4.2.6.8 and 6.1.1.4'
loop_
_exptl_crystal_face_index_h
_exptl_crystal_face_index_k
_exptl_crystal_face_index_l
_exptl_crystal_face_perp_dist
1.00 -1.00 2.00 0.2460
-1.00 1.00 -2.00 0.3150
-1.00 2.00 -2.00 0.3200
1.00 -2.00 2.00 0.2490
1.00 0.00 2.00 0.2430
-1.00 0.00 -2.00 0.3100
0.00 2.00 1.00 0.1740
0.00 -2.00 -1.00 0.2070
-1.00 2.00 -1.00 0.3070
0.00 -1.00 -1.00 0.2320
0.00 1.00 1.00 0.1120
0.00 1.00 2.00 0.1600
0.00 -1.00 -2.00 0.2790
1.00 -2.00 -2.00 0.1920
1.00 -1.00 -2.00 0.2070
-2.00 1.00 2.00 0.1490
2.00 -1.00 -2.00 0.2030
2.00 -1.00 -1.00 0.2070
-1.00 0.00 2.00 0.1820
-1.00 0.00 0.00 0.2030
-2.00 -1.00 2.00 0.1670
-2.00 -1.00 1.00 0.1500
-1.00 -1.00 0.00 0.1530
loop_
_geom_angle_atom_site_label_1
_geom_angle_atom_site_label_2
_geom_angle_atom_site_label_3
_geom_angle
B1 Se1 Se2 55.37(7)
C5 N1 C9 110.71(18)
C5 N1 C6 126.70(18)
C9 N1 C6 122.55(19)
C4 C1 C2 108.31(19)
C4 C1 C3 107.95(19)
C2 C1 C3 107.7(2)
C4 C1 B1 112.90(18)
C2 C1 B1 110.34(18)
C3 C1 B1 109.50(18)
C5 B1 C1 119.08(18)
C5 B1 Se2 111.71(15)
C1 B1 Se2 117.76(15)
C5 B1 Se1 109.66(15)
C1 B1 Se1 119.38(16)
Se2 B1 Se1 69.19(8)
C1 C3 H3A 109.5
C1 C3 H3AB 109.5
H3A C3 H3AB 109.5
C1 C3 H3AC 109.5
H3A C3 H3AC 109.5
H3AB C3 H3AC 109.5
B1 Se2 Se1 55.44(7)
C5 N2 C8 110.53(18)
C5 N2 C7 127.28(19)
C8 N2 C7 122.19(19)
C1 C2 H2A 109.5
C1 C2 H2AB 109.5
H2A C2 H2AB 109.5
C1 C2 H2AC 109.5
H2A C2 H2AC 109.5
H2AB C2 H2AC 109.5
C1 C4 H4A 109.5
C1 C4 H4AB 109.5
H4A C4 H4AB 109.5
C1 C4 H4AC 109.5
H4A C4 H4AC 109.5
H4AB C4 H4AC 109.5
N1 C5 N2 104.72(18)
N1 C5 B1 128.18(19)
N2 C5 B1 126.84(19)
N1 C6 H6A 109.5
N1 C6 H6AB 109.5
H6A C6 H6AB 109.5
N1 C6 H6AC 109.5
H6A C6 H6AC 109.5
H6AB C6 H6AC 109.5
C9 C8 N2 107.20(19)
C9 C8 H8 126.4
N2 C8 H8 126.4
C8 C9 N1 106.81(19)
C8 C9 H9 126.6
N1 C9 H9 126.6
N2 C7 H7A 109.5
N2 C7 H7AB 109.5
H7A C7 H7AB 109.5
N2 C7 H7AC 109.5
H7A C7 H7AC 109.5
H7AB C7 H7AC 109.5
loop_
_geom_bond_atom_site_label_1
_geom_bond_atom_site_label_2
_geom_bond_distance
Se1 B1 2.075(3)
Se1 Se2 2.3557(10)
N1 C5 1.354(3)
N1 C9 1.380(3)
N1 C6 1.458(3)
C1 C4 1.534(3)
C1 C2 1.538(3)
C1 C3 1.545(3)
C1 B1 1.619(3)
B1 C5 1.610(3)
B1 Se2 2.074(3)
C3 H3A 0.9800
C3 H3AB 0.9800
C3 H3AC 0.9800
N2 C5 1.357(3)
N2 C8 1.377(3)
N2 C7 1.460(3)
C2 H2A 0.9800
C2 H2AB 0.9800
C2 H2AC 0.9800
C4 H4A 0.9800
C4 H4AB 0.9800
C4 H4AC 0.9800
C6 H6A 0.9800
C6 H6AB 0.9800
C6 H6AC 0.9800
C8 C9 1.340(3)
C8 H8 0.9500
C9 H9 0.9500
C7 H7A 0.9800
C7 H7AB 0.9800
C7 H7AC 0.9800
loop_
_geom_torsion_atom_site_label_1
_geom_torsion_atom_site_label_2
_geom_torsion_atom_site_label_3
_geom_torsion_atom_site_label_4
_geom_torsion
C4 C1 B1 C5 179.92(19)
C2 C1 B1 C5 -58.7(3)
C3 C1 B1 C5 59.6(3)
C4 C1 B1 Se2 39.5(2)
C2 C1 B1 Se2 160.84(16)
C3 C1 B1 Se2 -80.8(2)
C4 C1 B1 Se1 -41.1(2)
C2 C1 B1 Se1 80.3(2)
C3 C1 B1 Se1 -161.35(16)
C9 N1 C5 N2 1.8(2)
C6 N1 C5 N2 -175.81(18)
C9 N1 C5 B1 -172.6(2)
C6 N1 C5 B1 9.8(3)
C8 N2 C5 N1 -1.5(2)
C7 N2 C5 N1 177.97(18)
C8 N2 C5 B1 173.04(19)
C7 N2 C5 B1 -7.5(3)
C1 B1 C5 N1 -93.9(3)
Se2 B1 C5 N1 48.8(3)
Se1 B1 C5 N1 123.5(2)
C1 B1 C5 N2 92.9(3)
Se2 B1 C5 N2 -124.47(19)
Se1 B1 C5 N2 -49.8(3)
C5 N2 C8 C9 0.6(2)
C7 N2 C8 C9 -178.83(19)
N2 C8 C9 N1 0.5(2)
C5 N1 C9 C8 -1.4(2)
C6 N1 C9 C8 176.26(19)
