#------------------------------------------------------------------------------
#$Date: 2019-11-26 02:09:08 +0200 (Tue, 26 Nov 2019) $
#$Revision: 242368 $
#$URL: file:///home/coder/svn-repositories/cod/cif/4/13/23/4132389.cif $
#------------------------------------------------------------------------------
#
# This file is available in the Crystallography Open Database (COD),
# http://www.crystallography.net/
#
# All data on this site have been placed in the public domain by the
# contributors.
#
data_4132389
loop_
_publ_author_name
'Hoshimoto, Yoichi'
'Kinoshita, Takuya'
'Hazra, Sunit'
'Ohashi, Masato'
'Ogoshi, Sensuke'
_publ_section_title
;
 Main-Group-Catalyzed Reductive Alkylation of Multiply Substituted Amines
 with Aldehydes Using H<sub>2</sub>.
;
_journal_issue                   23
_journal_name_full               'Journal of the American Chemical Society'
_journal_page_first              7292
_journal_page_last               7300
_journal_paper_doi               10.1021/jacs.8b03626
_journal_volume                  140
_journal_year                    2018
_chemical_formula_moiety         'C15 H13 N O4'
_chemical_formula_sum            'C15 H13 N O4'
_chemical_formula_weight         271.27
_space_group_crystal_system      triclinic
_space_group_IT_number           2
_space_group_name_Hall           '-P 1'
_space_group_name_H-M_alt        'P -1'
_symmetry_Int_Tables_number      2
_atom_sites_solution_primary     dual
_audit_creation_date             2017-10-30
_audit_creation_method
;
Olex2 1.2
(compiled 2017.08.10 svn.r3458 for OlexSys, GUI svn.r5381)
;
_cell_angle_alpha                64.760(6)
_cell_angle_beta                 79.688(5)
_cell_angle_gamma                86.397(5)
_cell_formula_units_Z            2
_cell_length_a                   7.7110(5)
_cell_length_b                   10.5200(6)
_cell_length_c                   10.5887(6)
_cell_measurement_reflns_used    4119
_cell_measurement_temperature    128
_cell_measurement_theta_max      73.0160
_cell_measurement_theta_min      4.6560
_cell_volume                     764.31(9)
_computing_cell_refinement       'CrysAlisPro 1.171.39.31d (Rigaku OD, 2017)'
_computing_data_collection       'CrysAlisPro 1.171.39.31d (Rigaku OD, 2017)'
_computing_data_reduction        'CrysAlisPro 1.171.39.31d (Rigaku OD, 2017)'
_computing_molecular_graphics    'Olex2 (Dolomanov et al., 2009)'
_computing_publication_material  'Olex2 (Dolomanov et al., 2009)'
_computing_structure_refinement  'olex2.refine (Bourhis et al., 2015)'
_computing_structure_solution    'ShelXD (Sheldrick, 2008)'
_diffrn_ambient_temperature      128
_diffrn_detector                 'CCD plate'
_diffrn_detector_type            HyPix
_diffrn_measured_fraction_theta_full 0.9644
_diffrn_measured_fraction_theta_max 0.9644
_diffrn_measurement_details
;
List of Runs (angles in degrees, time in seconds):

  # Type    Start    End  Width  t~exp~   \w     \q     \k     \f   Frames
--------------------------------------------------------------------------
  1  \w     22.00 115.00   0.50    1.15    --   42.80  57.00 150.00  186
  2  \w    103.00 129.00   0.50    4.60    --   76.50 123.00  73.00   52
  3  \w     71.00  96.00   0.50    1.15    --   42.80 125.00 -30.00   50
  4  \w     58.00  98.00   0.50    1.15    --   42.80 148.00-122.00   80
  5  \w     74.00 116.00   0.50    1.15    --   42.80 125.00-150.00   84
  6  \w     79.00 104.00   0.50    4.60    --   76.50 148.00-122.00   50
  7  \w     58.00 134.00   0.50    4.60    --   76.50  37.00-150.00  152
  8  \w     33.00  76.00   0.50    1.15    --   42.80-123.00  -6.00   86
  9  \w     64.00  90.00   0.50    4.60    --   76.50-123.00  -6.00   52
 10  \w     42.00  67.00   0.50    1.15    --   42.80-148.00-170.00   50
 11  \w     54.00  94.00   0.50    4.60    --   76.50-148.00-170.00   80
 12  \w    -51.00 -26.00   0.50    1.15    --  -42.80 123.00  73.00   50
 13  \w    -83.00 -57.00   0.50    4.60    -- -106.00 125.00  90.00   52
 14  \w   -105.00 -73.00   0.50    4.60    -- -106.00 123.00  73.00   64
 15  \w   -109.00 -34.00   0.50    4.60    -- -106.00  57.00  90.00  150
 16  \w   -120.00 -31.00   0.50    4.60    -- -106.00  37.00 -60.00  178
 17  \w   -109.00 -66.00   0.50    1.15    --  -42.80 148.00-122.00   86
 18  \w   -113.00 -63.00   0.50    1.15    --  -42.80-148.00-170.00  100
 19  \w   -117.00 -80.00   0.50    4.60    -- -106.00-148.00-170.00   74
 20  \w   -141.00-115.00   0.50    4.60    -- -106.00-123.00  -6.00   52
 21  \w   -138.00 -83.00   0.50    4.60    -- -106.00 -37.00  60.00  110
 22  \w   -127.00 -35.00   0.50    4.60    -- -106.00  37.00  90.00  184
 23  \w   -118.00 -93.00   0.50    4.60    -- -106.00 125.00 -30.00   50
 24  \w   -127.00 -82.00   0.50    4.60    -- -106.00 148.00-122.00   90
 25  \w   -120.00 -33.00   0.50    4.60    -- -106.00 125.00-120.00  174
 26  \w   -117.00 -36.00   0.50    4.60    -- -106.00  37.00-150.00  162
 27  \w   -119.00 -90.00   0.50    4.60    -- -106.00 125.00-180.00   58
 28  \w   -121.00 -55.00   0.50    4.60    -- -106.00  77.00-180.00  132
 29  \w   -121.00 -34.00   0.50    4.60    -- -106.00  57.00 -60.00  174
 30  \w   -136.00 -55.00   0.50    4.60    -- -106.00  19.00 120.00  162
 31  \w   -109.00 -70.00   0.50    1.15    --  -42.80-125.00 150.00   78
 32  \w   -166.00-104.00   0.50    4.60    -- -106.00 -57.00 150.00  124
;
_diffrn_measurement_device       'four-circle diffractometer'
_diffrn_measurement_device_type
'XtaLAB Synergy, Single source at offset/far, HyPix'
_diffrn_measurement_method       '\w scans'
_diffrn_orient_matrix_type
'CrysAlisPro convention (1999,Acta A55,543-557)'
_diffrn_orient_matrix_UB_11      -0.0922266000
_diffrn_orient_matrix_UB_12      0.1344112000
_diffrn_orient_matrix_UB_13      -0.0892948000
_diffrn_orient_matrix_UB_21      0.1590289000
_diffrn_orient_matrix_UB_22      0.0890705000
_diffrn_orient_matrix_UB_23      -0.0131344000
_diffrn_orient_matrix_UB_31      0.0863135000
_diffrn_orient_matrix_UB_32      -0.0147180000
_diffrn_orient_matrix_UB_33      -0.1359497000
_diffrn_radiation_monochromator  mirror
_diffrn_radiation_probe          x-ray
_diffrn_radiation_type           'Cu K\a'
_diffrn_radiation_wavelength     1.54184
_diffrn_reflns_av_R_equivalents  0.0246
_diffrn_reflns_av_unetI/netI     0.0282
_diffrn_reflns_limit_h_max       9
_diffrn_reflns_limit_h_min       -9
_diffrn_reflns_limit_k_max       11
_diffrn_reflns_limit_k_min       -13
_diffrn_reflns_limit_l_max       7
_diffrn_reflns_limit_l_min       -13
_diffrn_reflns_number            7795
_diffrn_reflns_theta_full        73.9731
_diffrn_reflns_theta_max         73.97
_diffrn_reflns_theta_min         4.65
_diffrn_source                   'micro-focus sealed X-ray tube'
_diffrn_source_type              'PhotonJet (Cu) X-ray Source'
_exptl_absorpt_coefficient_mu    0.719
_exptl_absorpt_correction_T_max  1.00000
_exptl_absorpt_correction_T_min  0.78705
_exptl_absorpt_correction_type   multi-scan
_exptl_absorpt_process_details
;
CrysAlisPro 1.171.39.31d (Rigaku Oxford Diffraction, 2017)
Empirical absorption correction using spherical harmonics,
 implemented in SCALE3 ABSPACK scaling algorithm.
;
_exptl_crystal_colour            yellow
_exptl_crystal_colour_primary    yellow
_exptl_crystal_density_diffrn    1.1786
_exptl_crystal_description       plate
_exptl_crystal_F_000             285.0202
_exptl_crystal_size_max          0.1
_exptl_crystal_size_mid          0.1
_exptl_crystal_size_min          0.05
_refine_diff_density_max         0.6619
_refine_diff_density_min         -0.3997
_refine_diff_density_rms         0.0762
_refine_ls_d_res_high            0.8021
_refine_ls_d_res_low             9.5146
_refine_ls_extinction_expression Fc^*^=kFc[1+0.001xFc^2^\l^3^/sin(2\q)]^-1/4^
_refine_ls_goodness_of_fit_ref   1.2819
_refine_ls_hydrogen_treatment    constr
_refine_ls_matrix_type           full
_refine_ls_number_constraints    25
_refine_ls_number_parameters     184
_refine_ls_number_reflns         2981
_refine_ls_number_restraints     0
_refine_ls_restrained_S_all      1.2819
_refine_ls_R_factor_all          0.0711
_refine_ls_R_factor_gt           0.0660
_refine_ls_shift/su_max          0.0008
_refine_ls_shift/su_mean         0.0002
_refine_ls_structure_factor_coef Fsqd
_refine_ls_weighting_details
'w=1/[\s^2^(Fo^2^)+(0.2P)^2^] where P=(Fo^2^+2Fc^2^)/3'
_refine_ls_weighting_scheme      calc
_refine_ls_wR_factor_gt          0.2731
_refine_ls_wR_factor_ref         0.2814
_reflns_Friedel_coverage         0.0
_reflns_limit_h_max              9
_reflns_limit_h_min              -9
_reflns_limit_k_max              13
_reflns_limit_k_min              -11
_reflns_limit_l_max              13
_reflns_limit_l_min              0
_reflns_number_gt                2621
_reflns_number_total             2981
_reflns_threshold_expression     I>=2u(I)
_iucr_refine_instructions_details
;
TITL exp_44 in P-1 #2
REM Best SHELXD solution FINAL CC 81.53
REM Fragments: 19 1 1
REM reset to P-1 #2
CELL 1.54184 7.710991 10.520027 10.588742 64.7605 79.6882 86.3967
ZERR 2 0.00046 0.000615 0.000606 0.0057 0.0049 0.0048
LATT 1
SFAC C N O H
UNIT 30 2 12 1

ABIN 
ACTA NOHKL
EXTI 0.012011
WGHT 0.2 0
FVAR 6.92567
REM <olex2.extras>
REM <HklSrc "%.\\exp_44.hkl">
REM </olex2.extras>

O001  3     0.41025  0.96602  0.37114  11.00000  0.03890  0.03883  0.03939 =
 -0.02587 -0.01250  0.00950 
AFIX 147
H001  4     0.49761  0.95277  0.40912  11.00000 -1.50000 
AFIX 0
O002  3     0.28280  0.92659  0.09430  11.00000  0.04088  0.05221  0.04745 =
 -0.03554  0.00261 -0.00321 
AFIX 147
H002  4     0.36467  0.92395  0.03428  11.00000 -1.50000 
AFIX 0
N1    2     0.03853  1.23316  0.45823  11.00000  0.03762  0.04035  0.03508 =
 -0.02283 -0.00835  0.00879 
AFIX 43
H1    4     0.13873  1.22535  0.48561  11.00000 -1.20000 
AFIX 0
O004  3     0.44106  1.10669  0.07719  11.00000  0.03730  0.05027  0.03901 =
 -0.02880  0.00110 -0.00439 
O005  3     0.36635  1.13110  0.45284  11.00000  0.04508  0.03856  0.04522 =
 -0.02749 -0.01922  0.01130 
C006  1     0.14841  1.06901  0.20595  11.00000  0.03645  0.03523  0.02887 =
 -0.01700 -0.00333  0.00017 
C007  1    -0.01051  1.07745  0.16186  11.00000  0.03969  0.05210  0.03028 =
 -0.02326 -0.00352 -0.00336 
AFIX 43
H007  4    -0.02295  1.04355  0.09590  11.00000 -1.20000 
AFIX 0
C008  1     0.16784  1.11325  0.31178  11.00000  0.03310  0.03317  0.02732 =
 -0.01599 -0.00394  0.00235 
C009  1     0.32297  1.07424  0.38137  11.00000  0.03396  0.03214  0.02868 =
 -0.01767 -0.00339  0.00403 
C010  1     0.02467  1.18169  0.36232  11.00000  0.03646  0.03280  0.02682 =
 -0.01481 -0.00425  0.00312 
C011  1    -0.13581  1.19066  0.31130  11.00000  0.03288  0.04544  0.03155 =
 -0.01780 -0.00297  0.00540 
AFIX 43
H011  4    -0.23144  1.23403  0.34308  11.00000 -1.20000 
AFIX 0
C012  1    -0.15416  1.13781  0.21738  11.00000  0.03356  0.05694  0.03767 =
 -0.02268 -0.00787  0.00070 
AFIX 43
H012  4    -0.26292  1.14168  0.18965  11.00000 -1.20000 
AFIX 0
C013  1     0.30609  1.03312  0.12248  11.00000  0.03740  0.04008  0.02938 =
 -0.02033 -0.00494 -0.00001 
C014  1    -0.10004  1.29946  0.51765  11.00000  0.04297  0.03945  0.03666 =
 -0.02231 -0.00128  0.00249 
AFIX 23
H01a  4    -0.20638  1.24230  0.54757  11.00000 -1.20000 
H01b  4    -0.06794  1.30083  0.60155  11.00000 -1.20000 
AFIX 0
C015  1    -0.14137  1.44793  0.41982  11.00000  0.04766  0.04194  0.05129 =
 -0.02591 -0.01409  0.00698 
C016  1    -0.27186  1.51930  0.46860  11.00000  0.04435  0.05517  0.08661 =
 -0.04494 -0.02249  0.01249 
AFIX 43
H016  4    -0.33211  1.47610  0.56104  11.00000 -1.20000 
AFIX 0
C018  1    -0.05227  1.51735  0.28235  11.00000  0.09880  0.04992  0.05107 =
 -0.01771 -0.01804  0.00171 
AFIX 43
H018  4     0.03707  1.47093  0.24799  11.00000 -1.20000 
AFIX 0
C019  1    -0.31504  1.65655  0.38040  11.00000  0.07401  0.06711  0.16986 =
 -0.08211 -0.07404  0.03645 
AFIX 43
H019  4    -0.40529  1.70300  0.41383  11.00000 -1.20000 
AFIX 0
C021  1    -0.09139  1.65232  0.19516  11.00000  0.16876  0.04749  0.07378 =
 -0.01486 -0.04643  0.00692 
AFIX 43
H021  4    -0.02873  1.69585  0.10357  11.00000 -1.20000 
AFIX 0
C1    1    -0.22325  1.72302  0.24341  11.00000  0.14910  0.05022  0.10478 =
 -0.02321 -0.07720  0.01414 
AFIX 43
H1a   4    -0.25057  1.81433  0.18486  11.00000 -1.20000 
AFIX 0
HKLF 4

END
Q1 1 -0.28 1.805556 0.222222 11 0.05 0.66
Q2 1 0.36 1.5 -0.055556 11 0.05 0.42
Q3 1 0.48 1.444444 0.194444 11 0.05 0.4
Q4 1 -0.2 1.527778 0.277778 11 0.05 0.39
Q5 1 0.24 1.5 0.027778 11 0.05 0.31
Q6 1 0.24 1.111111 0.333333 11 0.05 0.27
Q7 1 0.52 1.388889 0 11 0.05 0.25
Q8 1 0.36 1.555556 0.138889 11 0.05 0.24
Q9 1 -0.28 1.638889 0.222222 11 0.05 0.23
Q10 1 -0.48 1.694444 0.194444 11 0.05 0.23

  REM The information below was added by Olex2.
  REM
  REM R1 = 0.0660 for 2621 Fo > 4sig(Fo) and 0.0711 for all 2981 data
  REM 184 parameters refined using 0 restraints
  REM Highest difference peak 0.6619, deepest hole -0.3997
  REM Mean Shift 0.0002, Max Shift 0.0008.

  REM +++ Tabular Listing of Refinement Information +++
  REM R1_all = 0.0711
  REM R1_gt = 0.0660
  REM wR_ref = 0.2814
  REM GOOF = 1.2819
  REM Shift_max = 0.0008
  REM Shift_mean = 0.0002
  REM Reflections_all = 2981
  REM Reflections_gt = 2621
  REM Parameters = 184
  REM Hole = -0.3997
  REM Peak = 0.6619
  REM Flack = n/a

  
;
_cod_data_source_file            ja8b03626_si_002.cif
_cod_data_source_block           4au
_cod_original_cell_volume        764.32(9)
_cod_database_code               4132389
_chemical_oxdiff_formula         'C15 H17 N1 O6 '
_reflns_odcompleteness_completeness 99.78
_reflns_odcompleteness_iscentric 1
_reflns_odcompleteness_theta     66.97
_olex2_refinement_description
;
1. Fixed Uiso
 At 1.2 times of:
  All C(H) groups, All C(H,H) groups, All N(H) groups
 At 1.5 times of:
  All O(H) groups
2.a Secondary CH2 refined with riding coordinates:
 C014(H01a,H01b)
2.b Aromatic/amide H refined with riding coordinates:
 C011(H011), C012(H012), C007(H007), C018(H018), C021(H021), C1(H1a),
 C019(H019), C016(H016), N1(H1)
2.c Idealised tetrahedral OH refined as rotating group:
 O001(H001), O002(H002)
;
_shelx_fab_file
;
-9 -2 1 0.5995 -0.0040
-9 0 1 0.4031 -0.0015
-9 0 2 0.3809 0.0031
-9 1 1 -0.4716 0.0012
-9 1 2 -0.4752 -0.0016
-9 2 1 0.3622 -0.0040
-9 2 2 0.4274 -0.0002
-9 3 1 0.0373 0.0074
-8 -5 1 -0.2174 -0.0027
-8 -4 1 -0.1318 0.0004
-8 -4 2 0.5812 0.0031
-8 -3 1 0.7275 -0.0016
-8 -3 2 -0.3280 -0.0034
-8 -2 1 -0.7393 0.0027
-8 -2 2 0.0948 0.0017
-8 -2 3 0.3377 0.0049
-8 -1 1 -0.0476 -0.0018
-8 -1 2 -0.3622 0.0011
-8 -1 3 -0.2018 0.0020
-8 0 1 0.7032 0.0015
-8 0 2 0.6761 -0.0008
-8 0 3 0.4578 -0.0037
-8 0 4 0.3435 -0.0027
-8 1 1 -0.5930 -0.0028
-8 1 2 -0.3186 -0.0016
-8 1 3 -0.6395 -0.0003
-8 1 4 -1.1082 0.0013
-8 1 5 -0.9429 0.0005
-8 2 1 0.3830 0.0041
-8 2 2 -0.4119 0.0019
-8 2 3 0.2795 0.0019
-8 2 4 1.2520 0.0014
-8 2 5 1.2080 -0.0007
-8 3 1 -0.8685 -0.0047
-8 3 2 0.5909 -0.0008
-8 3 3 0.2182 0.0013
-8 3 4 -0.7526 -0.0006
-8 3 5 -0.8225 0.0009
-8 4 1 1.6839 0.0044
-8 4 2 -0.0377 0.0015
-8 4 3 -0.3112 -0.0036
-8 4 4 0.3795 -0.0022
-8 5 1 -1.8936 -0.0036
-8 5 2 -0.5825 -0.0035
-8 5 3 0.1645 0.0015
-8 6 1 1.2535 0.0037
-8 6 2 0.7572 0.0040
-7 -7 1 0.6667 -0.0040
-7 -6 1 -0.8884 -0.0006
-7 -6 2 -0.8083 0.0036
-7 -5 1 0.7103 0.0027
-7 -5 2 1.3396 0.0013
-7 -5 3 0.2084 -0.0054
-7 -4 1 -0.0838 0.0009
-7 -4 2 -1.4440 -0.0024
-7 -4 3 -0.7545 0.0012
-7 -4 4 0.3179 0.0110
-7 -3 1 -0.7068 -0.0055
-7 -3 2 1.1372 -0.0007
-7 -3 3 1.4825 0.0016
-7 -3 4 0.2848 -0.0039
-7 -2 1 1.1251 0.0076
-7 -2 2 -0.7390 0.0029
-7 -2 3 -1.9253 0.0003
-7 -2 4 -0.9656 -0.0023
-7 -2 5 -0.2028 0.0014
-7 -1 1 -1.0041 -0.0080
-7 -1 2 0.3958 -0.0017
-7 -1 3 1.7822 -0.0028
-7 -1 4 1.1542 0.0002
-7 -1 5 0.1810 0.0014
-7 0 1 0.6492 0.0074
-7 0 2 0.1138 -0.0010
-7 0 3 -1.2086 0.0004
-7 0 4 -1.1594 0.0032
-7 0 5 -0.2104 -0.0005
-7 0 6 0.1299 0.0047
-7 1 1 -0.1515 -0.0056
-7 1 2 -0.8409 0.0017
-7 1 3 0.3665 0.0041
-7 1 4 1.3384 -0.0013
-7 1 5 0.7263 0.0005
-7 1 6 -0.1946 -0.0027
-7 2 1 -0.6983 0.0038
-7 2 2 1.3048 0.0004
-7 2 3 0.6349 -0.0033
-7 2 4 -1.2977 -0.0014
-7 2 5 -1.4533 -0.0006
-7 2 6 -0.0576 0.0009
-7 2 7 0.5597 0.0069
-7 3 1 1.6916 -0.0035
-7 3 2 -1.0777 -0.0015
-7 3 3 -1.3748 -0.0013
-7 3 4 0.7615 0.0003
-7 3 5 1.7666 -0.0002
-7 3 6 0.5230 -0.0009
-7 3 7 -0.4632 -0.0040
-7 4 1 -2.1884 0.0051
-7 4 2 0.3830 -0.0008
-7 4 3 1.4786 0.0017
-7 4 4 -0.1546 0.0014
-7 4 5 -1.5418 -0.0009
-7 4 6 -0.9159 -0.0007
-7 5 1 1.9171 -0.0062
-7 5 2 0.2512 0.0031
-7 5 3 -1.1906 0.0020
-7 5 4 -0.2580 -0.0013
-7 5 5 1.0104 0.0043
-7 5 6 0.9962 0.0054
-7 6 1 -1.1811 0.0035
-7 6 2 -0.5854 -0.0024
-7 6 3 0.9159 -0.0037
-7 6 4 0.6678 0.0024
-7 6 5 -0.3271 -0.0045
-7 6 6 -0.7162 -0.0093
-7 7 1 0.3977 0.0027
-7 7 2 0.6599 0.0013
-7 7 3 -0.5703 0.0024
-7 7 4 -0.9267 -0.0042
-7 7 5 -0.2250 -0.0001
-7 8 1 0.1088 -0.0064
-7 8 2 -0.5332 -0.0018
-7 8 3 0.0287 -0.0023
-7 8 4 0.6594 0.0022
-6 -8 1 0.6257 -0.0041
-6 -7 1 -0.8756 0.0036
-6 -7 2 -0.6882 0.0008
-6 -6 1 0.5761 0.0024
-6 -6 2 1.1796 -0.0002
-6 -6 3 0.1803 -0.0005
-6 -5 1 0.0831 -0.0039
-6 -5 2 -1.3884 -0.0056
-6 -5 3 -0.3596 -0.0021
-6 -5 4 0.3698 -0.0049
-6 -4 1 -1.0679 -0.0010
-6 -4 2 1.0501 0.0058
-6 -4 3 0.6104 0.0039
-6 -4 4 -0.7530 0.0007
-6 -4 5 -0.7403 0.0050
-6 -3 1 2.3053 0.0031
-6 -3 2 -0.1195 -0.0020
-6 -3 3 -1.0235 -0.0018
-6 -3 4 0.5121 0.0027
-6 -3 5 1.2757 0.0010
-6 -3 6 0.7248 -0.0057
-6 -2 1 -3.2369 -0.0001
-6 -2 2 -1.0520 0.0027
-6 -2 3 1.2955 0.0009
-6 -2 4 0.2246 -0.0019
-6 -2 5 -1.4489 -0.0018
-6 -2 6 -1.3903 0.0017
-6 -1 1 3.3420 -0.0002
-6 -1 2 2.0506 -0.0053
-6 -1 3 -1.0388 -0.0033
-6 -1 4 -0.7786 0.0000
-6 -1 5 1.4692 -0.0010
-6 -1 6 2.0155 0.0022
-6 0 1 -2.6832 -0.0041
-6 0 2 -2.7496 0.0022
-6 0 3 0.2500 0.0044
-6 0 4 1.0160 -0.0004
-6 0 5 -1.3016 0.0023
-6 0 6 -2.4972 -0.0016
-6 0 7 -1.9726 -0.0071
-6 1 1 1.5072 0.0053
-6 1 2 3.0687 0.0033
-6 1 3 0.8811 -0.0018
-6 1 4 -1.1015 0.0017
-6 1 5 0.5618 -0.0008
-6 1 6 2.5087 -0.0014
-6 1 7 2.6236 0.0059
-6 1 8 1.4991 0.0028
-6 2 1 -0.0059 -0.0018
-6 2 2 -2.8304 -0.0035
-6 2 3 -2.2071 -0.0010
-6 2 4 0.6377 -0.0017
-6 2 5 0.5167 -0.0014
-6 2 6 -1.7615 0.0018
-6 2 7 -2.6192 -0.0029
-6 2 8 -1.6731 -0.0016
-6 3 1 -1.2844 0.0013
-6 3 2 2.1474 -0.0002
-6 3 3 3.3661 0.0006
-6 3 4 0.6880 0.0005
-6 3 5 -1.0101 0.0017
-6 3 6 0.5910 0.0002
-6 3 7 1.9725 0.0016
-6 3 8 1.2795 0.0011
-6 4 1 1.7253 -0.0064
-6 4 2 -1.4073 0.0009
-6 4 3 -3.7759 0.0017
-6 4 4 -2.1348 0.0007
-6 4 5 0.5425 0.0003
-6 4 6 0.2964 -0.0001
-6 4 7 -1.1555 0.0007
-6 4 8 -0.8975 0.0001
-6 5 1 -1.3563 0.0098
-6 5 2 0.7158 0.0026
-6 5 3 3.2144 -0.0027
-6 5 4 2.7279 0.0000
-6 5 5 0.2926 -0.0014
-6 5 6 -0.6297 -0.0019
-6 5 7 0.4440 -0.0035
-6 5 8 0.7434 -0.0032
-6 6 1 0.6711 -0.0070
-6 6 2 0.0142 -0.0051
-6 6 3 -2.0935 0.0019
-6 6 4 -2.4846 -0.0024
-6 6 5 -0.8813 -0.0011
-6 6 6 0.6192 0.0019
-6 6 7 0.2129 0.0025
-6 6 8 -0.5183 0.0044
-6 7 1 0.1233 0.0033
-6 7 2 -0.5107 0.0044
-6 7 3 0.9877 -0.0019
-6 7 4 1.9786 0.0023
-6 7 5 1.1240 0.0032
-6 7 6 -0.4164 -0.0010
-6 7 7 -0.6634 0.0013
-6 8 1 -0.8449 -0.0037
-6 8 2 0.4440 -0.0036
-6 8 3 -0.1849 0.0030
-6 8 4 -1.3958 0.0025
-6 8 5 -1.0460 0.0000
-6 8 6 0.0860 0.0031
-6 8 7 0.5870 -0.0024
-6 9 1 0.9629 0.0052
-6 9 2 -0.0748 0.0051
-6 9 3 -0.2352 -0.0019
-6 9 4 0.7290 -0.0062
-5 -9 1 0.3303 0.0003
-5 -8 1 -0.5239 0.0028
-5 -8 2 -0.1604 -0.0077
-5 -7 1 0.2730 -0.0041
-5 -7 2 0.3676 -0.0018
-5 -7 3 -0.4760 0.0091
-5 -7 4 -0.5031 0.0064
-5 -6 1 0.4557 0.0027
-5 -6 2 -0.4924 0.0066
-5 -6 3 0.6400 0.0025
-5 -6 4 1.2287 -0.0034
-5 -6 5 0.8807 0.0008
-5 -5 1 -1.4213 -0.0037
-5 -5 2 0.4853 -0.0031
-5 -5 3 -0.3415 -0.0042
-5 -5 4 -1.5526 0.0022
-5 -5 5 -1.5754 0.0043
-5 -4 1 2.6913 0.0080
-5 -4 2 -0.0079 0.0015
-5 -4 3 -0.3389 0.0004
-5 -4 4 1.1282 -0.0004
-5 -4 5 1.8343 -0.0049
-5 -4 6 1.3061 0.0000
-5 -3 1 -4.0536 -0.0093
-5 -3 2 -1.1852 -0.0050
-5 -3 3 0.9222 0.0001
-5 -3 4 -0.1443 -0.0022
-5 -3 5 -1.7485 0.0006
-5 -3 6 -1.7929 0.0012
-5 -3 7 -0.6728 -0.0043
-5 -2 1 4.4950 0.0050
-5 -2 2 2.5109 0.0064
-5 -2 3 -1.0212 0.0010
-5 -2 4 -0.8609 0.0019
-5 -2 5 1.5451 0.0014
-5 -2 6 2.4645 -0.0014
-5 -2 7 1.3365 -0.0010
-5 -1 1 -3.3103 0.0011
-5 -1 2 -3.0770 -0.0039
-5 -1 3 0.7451 -0.0005
-5 -1 4 1.6330 0.0002
-5 -1 5 -1.1311 0.0004
-5 -1 6 -2.8333 0.0016
-5 -1 7 -2.0579 0.0008
-5 0 1 1.0949 -0.0068
-5 0 2 2.7694 0.0018
-5 0 3 -0.3367 0.0008
-5 0 4 -2.3167 -0.0001
-5 0 5 0.2431 -0.0008
-5 0 6 2.5815 -0.0026
-5 0 7 2.5289 0.0004
-5 0 8 1.1064 -0.0009
-5 1 1 1.1510 0.0114
-5 1 2 -2.0078 0.0002
-5 1 3 -0.2898 -0.0020
-5 1 4 2.6998 -0.0009
-5 1 5 0.9830 -0.0009
-5 1 6 -1.9702 0.0027
-5 1 7 -2.8026 0.0009
-5 1 8 -1.9613 -0.0005
-5 1 9 -0.7554 0.0026
-5 2 1 -3.1260 -0.0112
-5 2 2 0.8714 -0.0032
-5 2 3 1.1758 0.0013
-5 2 4 -2.0882 -0.0002
-5 2 5 -1.8761 0.0010
-5 2 6 1.2860 -0.0012
-5 2 7 2.8934 -0.0017
-5 2 8 2.4459 0.0009
-5 2 9 1.0020 0.0011
-5 3 1 4.7674 0.0051
-5 3 2 0.6352 0.0034
-5 3 3 -1.8463 0.0003
-5 3 4 0.4348 0.0016
-5 3 5 1.8884 0.0004
-5 3 6 -0.5053 -0.0001
-5 3 7 -2.5742 0.0010
-5 3 8 -2.3464 -0.0010
-5 3 9 -0.7419 -0.0030
-5 4 1 -5.5599 -0.0012
-5 4 2 -1.9754 -0.0001
-5 4 3 1.7924 -0.0003
-5 4 4 1.2204 -0.0009
-5 4 5 -1.1822 -0.0002
-5 4 6 -0.3729 0.0007
-5 4 7 1.7134 -0.0013
-5 4 8 1.9071 -0.0007
-5 4 9 0.5172 0.0012
-5 5 1 5.0739 0.0062
-5 5 2 2.6146 -0.0014
-5 5 3 -1.1279 0.0000
-5 5 4 -1.9707 0.0001
-5 5 5 0.2977 -0.0013
-5 5 6 1.1264 -0.0024
-5 5 7 -0.4362 0.0006
-5 5 8 -1.2420 0.0022
-5 5 9 -0.5601 0.0016
-5 6 1 -3.6041 -0.0122
-5 6 2 -2.6679 -0.0004
-5 6 3 0.3092 -0.0002
-5 6 4 1.9448 -0.0008
-5 6 5 0.4992 0.0013
-5 6 6 -1.4457 0.0036
-5 6 7 -0.8941 0.0026
-5 6 8 0.3245 -0.0000
-5 6 9 0.4781 -0.0008
-5 7 1 1.7876 0.0089
-5 7 2 2.4125 0.0004
-5 7 3 0.4355 -0.0006
-5 7 4 -1.6339 0.0011
-5 7 5 -1.1896 0.0005
-5 7 6 1.1010 -0.0005
-5 7 7 1.6460 -0.0028
-5 7 8 0.4679 -0.0020
-5 8 1 -0.1593 -0.0018
-5 8 2 -1.7968 0.0016
-5 8 3 -1.0157 0.0019
-5 8 4 1.1443 -0.0001
-5 8 5 1.5721 -0.0015
-5 8 6 -0.2415 -0.0054
-5 8 7 -1.3804 -0.0032
-5 8 8 -0.6151 -0.0013
-5 9 2 0.9040 -0.0000
-5 9 3 1.2065 -0.0004
-5 9 4 -0.5020 -0.0003
-5 9 5 -1.3571 -0.0006
-5 9 6 -0.4614 0.0064
-5 9 7 0.5212 0.0078
-5 10 1 0.6290 -0.0116
-5 10 2 -0.2006 -0.0059
-5 10 3 -0.8745 -0.0042
-5 10 4 0.0168 -0.0013
-5 10 6 0.4622 -0.0002
-4 -10 1 0.3051 0.0009
-4 -9 1 -0.5687 -0.0074
-4 -9 2 0.1451 0.0005
-4 -8 1 0.8719 0.0125
-4 -8 2 0.3903 0.0064
-4 -8 3 -0.3537 0.0091
-4 -7 1 -0.8394 -0.0116
-4 -7 2 -1.1703 -0.0041
-4 -7 3 -0.0127 -0.0075
-4 -7 4 0.5461 -0.0039
-4 -7 5 0.0972 0.0062
-4 -6 1 0.4301 0.0068
-4 -6 2 1.7149 -0.0011
-4 -6 3 0.6417 -0.0011
-4 -6 4 -0.8054 0.0007
-4 -6 5 -0.7843 -0.0092
-4 -6 6 -0.1310 -0.0070
-4 -5 1 0.2209 -0.0036
-4 -5 2 -1.8402 0.0001
-4 -5 3 -1.4224 0.0031
-4 -5 4 0.3599 -0.0008
-4 -5 5 1.1173 0.0028
-4 -5 6 0.4607 0.0075
-4 -4 1 -1.2127 0.0050
-4 -4 2 1.4233 0.0030
-4 -4 3 2.3729 0.0015
-4 -4 4 1.0390 0.0014
-4 -4 5 -0.4220 0.0025
-4 -4 6 -0.2922 -0.0045
-4 -4 7 0.4407 -0.0106
-4 -3 1 2.2549 -0.0091
-4 -3 2 -0.4672 -0.0017
-4 -3 3 -3.3228 -0.0035
-4 -3 4 -3.0126 -0.0006
-4 -3 5 -0.9355 -0.0010
-4 -3 6 -0.0349 0.0012
-4 -3 7 -0.6986 0.0079
-4 -3 8 -0.5962 0.0107
-4 -2 1 -2.3285 0.0126
-4 -2 2 -0.5088 -0.0002
-4 -2 3 3.8681 0.0016
-4 -2 4 4.7404 0.0010
-4 -2 5 2.1563 -0.0016
-4 -2 6 0.0207 0.0004
-4 -2 7 0.2491 -0.0009
-4 -2 8 0.7858 -0.0016
-4 -1 1 0.7696 -0.0134
-4 -1 2 0.8635 -0.0012
-4 -1 3 -3.7860 -0.0002
-4 -1 4 -5.8078 -0.0030
-4 -1 5 -3.2074 0.0016
-4 -1 6 -0.2222 0.0000
-4 -1 7 0.3442 -0.0014
-4 -1 8 -0.6086 -0.0026
-4 0 1 1.9899 0.0109
-4 0 2 -0.4596 0.0031
-4 0 3 3.1702 -0.0007
-4 0 4 6.3926 0.0031
-4 0 5 4.5545 -0.0014
-4 0 6 1.3379 -0.0016
-4 0 7 -0.1762 0.0004
-4 0 8 0.3022 0.0003
-4 0 9 0.6371 0.0036
-4 1 1 -5.0970 -0.0052
-4 1 2 -0.6038 -0.0024
-4 1 3 -2.1916 0.0022
-4 1 4 -6.3533 -0.0015
-4 1 5 -5.8607 0.0016
-4 1 6 -2.7222 0.0032
-4 1 7 -0.4393 -0.0007
-4 1 8 0.0342 0.0007
-4 1 9 -0.2881 -0.0011
-4 2 1 7.8833 -0.0015
-4 2 2 2.3582 -0.0003
-4 2 3 1.1714 -0.0026
-4 2 4 5.1333 0.0010
-4 2 5 6.1021 0.0002
-4 2 6 3.2305 -0.0035
-4 2 7 0.5735 0.0005
-4 2 8 -0.4556 0.0008
-4 2 9 0.0121 -0.0016
-4 3 1 -9.7195 0.0034
-4 3 2 -4.5453 0.0030
-4 3 3 -0.7517 0.0025
-4 3 4 -3.0174 -0.0008
-4 3 5 -5.0852 -0.0021
-4 3 6 -2.9549 0.0020
-4 3 7 -0.2818 0.0010
-4 3 8 0.8056 -0.0009
-4 3 9 -0.0019 0.0022
-4 3 10 -0.6468 0.0029
-4 4 1 10.0561 0.0028
-4 4 2 6.3325 -0.0030
-4 4 3 1.3219 -0.0027
-4 4 4 1.2535 -0.0004
-4 4 5 3.6573 0.0012
-4 4 6 2.7904 0.0000
-4 4 7 0.3351 -0.0005
-4 4 8 -0.8219 0.0004
-4 4 9 -0.0036 -0.0000
-4 4 10 1.0416 -0.0011
-4 5 1 -8.7964 -0.0119
-4 5 2 -6.9181 -0.0013
-4 5 3 -2.3274 0.0021
-4 5 4 -0.4437 0.0003
-4 5 5 -2.3113 -0.0001
-4 5 6 -2.8352 -0.0007
-4 5 7 -0.8946 -0.0015
-4 5 8 0.5069 -0.0002
-4 5 9 0.1966 -0.0010
-4 5 10 -0.7729 -0.0034
-4 6 1 6.3875 0.0140
-4 6 2 6.2037 0.0059
-4 6 3 2.8389 -0.0011
-4 6 4 0.0553 0.0006
-4 6 5 0.8298 0.0009
-4 6 6 2.4383 -0.0001
-4 6 7 1.4453 0.0009
-4 6 8 -0.1449 -0.0008
-4 6 9 -0.4635 -0.0024
-4 6 10 0.0632 0.0021
-4 7 1 -3.5953 -0.0067
-4 7 2 -4.7019 -0.0054
-4 7 3 -2.6960 0.0017
-4 7 4 0.2542 0.0008
-4 7 5 0.6604 -0.0007
-4 7 6 -1.3830 0.0008
-4 7 7 -1.5791 0.0006
-4 7 8 0.0201 0.0003
-4 7 9 0.7619 0.0050
-4 7 10 0.5380 0.0045
-4 8 1 1.1881 -0.0009
-4 8 2 2.9897 0.0017
-4 8 3 2.3721 -0.0021
-4 8 4 -0.1983 -0.0028
-4 8 5 -1.5191 -0.0012
-4 8 6 0.1131 -0.0005
-4 8 7 1.2301 0.0000
-4 8 8 -0.1247 0.0037
-4 8 9 -1.0826 0.0003
-4 9 1 0.3354 0.0007
-4 9 2 -1.4193 -0.0003
-4 9 3 -1.9707 -0.0002
-4 9 4 -0.1583 0.0007
-4 9 5 1.5159 0.0016
-4 9 6 0.8061 0.0004
-4 9 7 -0.5929 -0.0000
-4 9 8 0.1430 -0.0043
-4 9 9 1.0847 -0.0077
-4 10 1 -0.8433 0.0029
-4 10 2 0.2427 0.0009
-4 10 3 1.2433 0.0017
-4 10 4 0.2880 0.0024
-4 10 5 -1.0287 -0.0004
-4 10 6 -0.9927 -0.0016
-4 10 7 0.0737 -0.0024
-4 11 1 0.5932 -0.0021
-4 11 2 0.3238 0.0005
-4 11 3 -0.3802 0.0015
-4 11 4 -0.1060 -0.0004
-4 11 5 0.4726 0.0008
-4 11 6 0.5234 0.0028
-3 -10 1 -0.7041 -0.0020
-3 -10 2 -0.1743 0.0078
-3 -9 1 1.1281 0.0002
-3 -9 2 0.4742 -0.0071
-3 -9 3 -0.2902 -0.0131
-3 -8 1 -1.5254 0.0006
-3 -8 2 -1.3433 0.0016
-3 -8 3 -0.0885 0.0040
-3 -8 4 0.0508 -0.0009
-3 -7 1 1.4176 -0.0017
-3 -7 2 2.2562 -0.0019
-3 -7 3 1.1528 0.0003
-3 -7 4 -0.0563 0.0015
-3 -7 5 0.2588 0.0003
-3 -6 1 -0.7708 0.0018
-3 -6 2 -2.6306 0.0045
-3 -6 3 -2.2416 0.0039
-3 -6 4 -0.4588 -0.0006
-3 -6 5 -0.1066 0.0019
-3 -6 6 -0.8786 -0.0015
-3 -5 1 -0.0758 0.0005
-3 -5 2 2.4548 -0.0013
-3 -5 3 2.8697 -0.0048
-3 -5 4 1.2877 -0.0003
-3 -5 5 0.1974 0.0024
-3 -5 6 0.9165 0.0039
-3 -5 7 1.1361 0.0124
-3 -4 1 1.2596 -0.0040
-3 -4 2 -1.6219 -0.0030
-3 -4 3 -3.2239 -0.0000
-3 -4 4 -2.4393 0.0009
-3 -4 5 -0.9478 -0.0038
-3 -4 6 -0.9959 -0.0037
-3 -4 7 -1.6474 -0.0049
-3 -4 8 -0.8624 -0.0023
-3 -3 1 -2.8746 0.0057
-3 -3 2 -0.1707 0.0010
-3 -3 3 3.4699 0.0013
-3 -3 4 4.0112 -0.0017
-3 -3 5 2.3816 -0.0004
-3 -3 6 1.3865 0.0005
-3 -3 7 1.9581 -0.0010
-3 -3 8 1.5885 -0.0032
-3 -2 1 4.0121 -0.0044
-3 -2 2 2.5697 0.0026
-3 -2 3 -3.1910 0.0026
-3 -2 4 -5.4222 0.0009
-3 -2 5 -3.8116 0.0027
-3 -2 6 -1.8041 0.0012
-3 -2 7 -1.7225 0.0005
-3 -2 8 -1.9503 0.0004
-3 -2 9 -1.0189 0.0008
-3 -1 1 -3.5843 0.0004
-3 -1 2 -4.6301 -0.0018
-3 -1 3 1.9010 -0.0049
-3 -1 4 5.8729 0.0013
-3 -1 5 4.6868 0.0001
-3 -1 6 2.2011 -0.0005
-3 -1 7 1.2041 0.0010
-3 -1 8 1.7284 0.0021
-3 -1 9 1.4132 0.0004
-3 0 1 1.5653 0.0064
-3 0 2 5.5360 0.0005
-3 0 3 0.1266 0.0043
-3 0 4 -5.4173 -0.0014
-3 0 5 -5.3185 -0.0026
-3 0 6 -2.9571 0.0001
-3 0 7 -1.1059 -0.0004
-3 0 8 -1.2401 0.0003
-3 0 9 -1.4993 0.0008
-3 0 10 -0.5051 0.0008
-3 1 1 1.2559 -0.0135
-3 1 2 -4.7451 -0.0029
-3 1 3 -1.9720 -0.0033
-3 1 4 4.4740 -0.0008
-3 1 5 5.8939 0.0022
-3 1 6 3.8246 -0.0007
-3 1 7 1.3065 0.0005
-3 1 8 0.6057 -0.0010
-3 1 9 1.2035 -0.0021
-3 1 10 0.4984 0.0032
-3 2 1 -3.8814 0.0142
-3 2 2 2.3504 0.0044
-3 2 3 3.0410 0.0010
-3 2 4 -2.7731 0.0013
-3 2 5 -5.5950 -0.0022
-3 2 6 -3.8615 0.0004
-3 2 7 -0.9988 -0.0008
-3 2 8 0.3702 -0.0020
-3 2 9 -0.5276 0.0013
-3 2 10 -0.6282 -0.0032
-3 3 1 5.3088 -0.0064
-3 3 2 0.4335 -0.0015
-3 3 3 -3.3910 0.0024
-3 3 4 0.1497 0.0005
-3 3 5 3.8861 0.0025
-3 3 6 2.9544 0.0008
-3 3 7 0.2350 -0.0005
-3 3 8 -1.4110 0.0026
-3 3 9 -0.3198 -0.0000
-3 3 10 0.8410 -0.0003
-3 3 11 0.4230 0.0053
-3 4 1 -5.1842 0.0003
-3 4 2 -2.2910 -0.0010
-3 4 3 3.0099 -0.0032
-3 4 4 2.2610 -0.0011
-3 4 5 -1.6905 -0.0005
-3 4 6 -2.1463 -0.0010
-3 4 7 0.0079 0.0012
-3 4 8 1.7902 0.0001
-3 4 9 0.9749 -0.0001
-3 4 10 -0.8511 0.0013
-3 4 11 -0.8477 -0.0011
-3 5 1 4.1334 -0.0059
-3 5 2 3.1226 -0.0013
-3 5 3 -1.7136 0.0007
-3 5 4 -3.1458 0.0008
-3 5 5 0.0708 -0.0012
-3 5 6 1.9412 0.0004
-3 5 7 0.5976 0.0007
-3 5 8 -1.3086 -0.0010
-3 5 9 -1.1969 -0.0007
-3 5 10 0.5090 0.0008
-3 5 11 0.8513 0.0016
-3 6 1 -2.8031 0.0168
-3 6 2 -3.3614 0.0056
-3 6 3 0.0155 0.0017
-3 6 4 2.7241 -0.0010
-3 6 5 1.1108 -0.0005
-3 6 6 -1.6161 -0.0003
-3 6 7 -1.3453 -0.0018
-3 6 8 0.4986 -0.0000
-3 6 9 1.0502 0.0017
-3 6 10 -0.0467 -0.0004
-3 6 11 -0.5561 -0.0014
-3 7 1 1.2562 -0.0196
-3 7 2 2.8972 -0.0066
-3 7 3 1.0536 -0.0018
-3 7 4 -2.0244 0.0004
-3 7 5 -2.1800 0.0021
-3 7 6 0.6226 0.0002
-3 7 7 1.6394 -0.0005
-3 7 8 0.1587 0.0006
-3 7 9 -0.8237 -0.0011
-3 7 10 -0.2982 -0.0027
-3 7 11 0.3469 -0.0025
-3 8 1 0.3103 0.0123
-3 8 2 -1.7107 0.0038
-3 8 3 -1.2509 0.0003
-3 8 4 1.3085 0.0007
-3 8 5 2.6632 -0.0014
-3 8 6 0.6170 -0.0005
-3 8 7 -1.4203 0.0027
-3 8 8 -0.5858 -0.0004
-3 8 9 0.7071 -0.0032
-3 8 10 0.5781 0.0015
-3 8 11 -0.2703 0.0049
-3 9 1 -1.2925 -0.0041
-3 9 2 0.4618 -0.0002
-3 9 3 1.1349 0.0017
-3 9 4 -0.4356 0.0007
-3 9 5 -2.2286 0.0020
-3 9 6 -1.4897 0.0024
-3 9 7 0.7406 -0.0021
-3 9 8 0.7783 -0.0017
-3 9 9 -0.5498 0.0063
-3 9 10 -0.7571 0.0050
-3 10 1 1.4242 0.0018
-3 10 2 0.3154 -0.0012
-3 10 3 -0.9029 -0.0018
-3 10 4 -0.2152 -0.0019
-3 10 5 1.3733 -0.0030
-3 10 6 1.6759 -0.0031
-3 10 7 0.0961 0.0012
-3 10 8 -0.6842 0.0064
-3 10 9 0.1684 -0.0007
-3 11 1 -0.9958 -0.0046
-3 11 2 -0.6361 -0.0000
-3 11 3 0.4150 -0.0004
-3 11 4 0.3255 -0.0013
-3 11 5 -0.6251 -0.0004
-3 11 6 -1.0828 -0.0013
-3 11 7 -0.4445 -0.0023
-3 11 8 0.3905 -0.0078
-3 12 3 0.0257 0.0016
-3 12 4 -0.2437 0.0054
-3 12 5 0.0906 0.0050
-2 -10 1 0.1299 0.0040
-2 -10 2 -0.3603 -0.0029
-2 -9 1 -0.2689 0.0008
-2 -9 2 0.0803 -0.0019
-2 -9 3 0.8563 0.0101
-2 -9 4 0.1285 0.0000
-2 -8 1 0.0679 -0.0067
-2 -8 2 0.4354 0.0041
-2 -8 3 -0.6078 -0.0005
-2 -8 4 -0.8187 0.0009
-2 -8 5 -0.0005 0.0096
-2 -7 1 0.8472 0.0083
-2 -7 2 -0.4455 -0.0012
-2 -7 3 0.1259 -0.0032
-2 -7 4 1.2896 -0.0008
-2 -7 5 0.8262 -0.0013
-2 -7 6 -0.0550 0.0028
-2 -6 1 -2.3136 -0.0059
-2 -6 2 -0.2056 0.0010
-2 -6 3 -0.0575 0.0011
-2 -6 4 -1.3968 -0.0014
-2 -6 5 -1.4795 -0.0038
-2 -6 6 0.1039 -0.0051
-2 -6 7 0.5211 0.0012
-2 -5 1 3.7713 0.0056
-2 -5 2 1.0124 -0.0046
-2 -5 3 0.2780 -0.0027
-2 -5 4 1.3295 0.0022
-2 -5 5 1.8360 0.0019
-2 -5 6 0.3240 0.0028
-2 -5 7 -0.7943 -0.0029
-2 -5 8 -0.0723 -0.0059
-2 -4 1 -5.2391 -0.0080
-2 -4 2 -2.4103 0.0026
-2 -4 3 -0.4764 0.0059
-2 -4 5 -1.8002 0.0012
-2 -4 6 -1.1648 0.0003
-2 -4 7 0.3316 -0.0010
-2 -4 8 0.1370 -0.0013
-2 -3 1 7.0004 0.0082
-2 -3 2 5.5440 0.0043
-2 -3 3 1.2374 -0.0021
-2 -3 4 0.2144 0.0002
-2 -3 5 1.1803 -0.0006
-2 -3 6 1.6950 -0.0010
-2 -3 7 0.4558 0.0030
-2 -3 8 -0.2504 0.0064
-2 -3 9 0.1564 0.0053
-2 -2 1 -8.1818 -0.0053
-2 -2 2 -9.9296 -0.0035
-2 -2 3 -3.3873 -0.0038
-2 -2 4 0.2341 -0.0019
-2 -2 5 -0.3326 -0.0008
-2 -2 6 -1.5723 0.0006
-2 -2 7 -1.0697 0.0001
-2 -2 8 0.3085 -0.0013
-2 -2 9 0.2807 -0.0030
-2 -1 1 7.3444 0.0034
-2 -1 2 13.4279 -0.0065
-2 -1 3 6.7743 0.0016
-2 -1 4 0.3719 0.0018
-2 -1 5 -0.1823 -0.0008
-2 -1 6 1.0571 -0.0010
-2 -1 7 1.3783 -0.0016
-2 -1 8 0.0011 -0.0046
-2 -1 9 -0.6136 -0.0019
-2 -1 10 -0.1064 0.0005
-2 0 1 -4.7048 -0.0045
-2 0 2 -14.6175 0.0113
-2 0 3 -10.2681 0.0052
-2 0 4 -1.7295 -0.0005
-2 0 5 0.7033 0.0024
-2 0 6 -0.1109 0.0012
-2 0 7 -1.2504 -0.0009
-2 0 8 -0.6538 0.0017
-2 0 9 0.5394 0.0020
-2 0 10 0.0667 -0.0010
-2 1 1 2.0817 0.0055
-2 1 2 13.3714 -0.0055
-2 1 3 12.4271 -0.0069
-2 1 4 2.9521 0.0014
-2 1 5 -1.8100 -0.0006
-2 1 6 -1.4830 -0.0005
-2 1 7 0.5803 0.0023
-2 1 8 1.3000 0.0028
-2 1 9 -0.0685 0.0020
-2 1 10 -0.1040 0.0004
-2 1 11 0.7501 -0.0031
-2 2 1 -0.6345 -0.0015
-2 2 2 -9.9978 0.0008
-2 2 3 -12.3818 0.0051
-2 2 4 -4.0199 -0.0026
-2 2 5 2.6493 -0.0019
-2 2 6 3.0371 -0.0000
-2 2 7 0.2865 -0.0008
-2 2 8 -1.7319 -0.0008
-2 2 9 -0.6527 -0.0025
-2 2 10 0.1398 -0.0010
-2 2 11 -0.4945 0.0063
-2 3 1 0.1405 -0.0062
-2 3 2 5.6665 -0.0046
-2 3 3 10.6682 -0.0051
-2 3 4 5.6101 0.0014
-2 3 5 -1.7053 0.0023
-2 3 6 -3.4060 0.0001
-2 3 7 -0.8708 0.0005
-2 3 8 1.8914 -0.0022
-2 3 9 1.4060 -0.0006
-2 3 10 -0.0041 0.0020
-2 3 11 0.0252 -0.0030
-2 4 1 -0.1606 0.0083
-2 4 2 -2.2931 0.0081
-2 4 3 -8.4945 0.0043
-2 4 4 -7.3769 -0.0004
-2 4 5 -0.7862 -0.0026
-2 4 6 2.5596 -0.0008
-2 4 7 1.1934 -0.0022
-2 4 8 -1.6634 0.0005
-2 4 9 -1.9119 0.0017
-2 4 10 -0.3205 -0.0017
-2 4 11 0.2148 -0.0005
-2 4 12 0.1573 0.0019
-2 5 1 0.5633 -0.0012
-2 5 2 0.5957 -0.0041
-2 5 3 6.1102 -0.0006
-2 5 4 7.7760 0.0012
-2 5 5 2.9921 0.0031
-2 5 6 -1.4090 0.0016
-2 5 7 -1.4796 0.0018
-2 5 8 1.0751 0.0011
-2 5 9 2.0412 -0.0010
-2 5 10 0.7042 0.0001
-2 5 11 -0.0523 -0.0002
-2 5 12 -0.0763 -0.0009
-2 6 1 -1.2239 -0.0044
-2 6 2 0.2027 0.0002
-2 6 3 -3.2798 -0.0004
-2 6 4 -6.1942 -0.0009
-2 6 5 -3.9375 -0.0018
-2 6 6 0.3218 -0.0008
-2 6 7 1.5629 0.0005
-2 6 8 -0.4295 0.0003
-2 6 9 -1.8959 0.0015
-2 6 10 -1.0184 0.0014
-2 6 11 -0.2425 0.0014
-2 7 1 1.9899 -0.0001
-2 7 2 -0.4393 -0.0031
-2 7 3 0.8754 -0.0037
-2 7 4 3.9279 -0.0009
-2 7 5 4.0926 0.0007
-2 7 6 0.8900 0.0002
-2 7 7 -1.1999 -0.0004
-2 7 8 -0.0572 -0.0001
-2 7 9 1.5777 -0.0017
-2 7 10 1.2106 -0.0014
-2 7 11 0.3328 0.0005
-2 8 1 -2.6050 0.0051
-2 8 2 -0.1635 0.0062
-2 8 3 0.0134 0.0063
-2 8 4 -2.3198 0.0010
-2 8 5 -3.8101 -0.0022
-2 8 6 -1.9646 -0.0008
-2 8 7 0.5488 -0.0010
-2 8 8 0.4331 -0.0022
-2 8 9 -1.0748 0.0009
-2 8 10 -1.2906 0.0012
-2 8 11 -0.2991 -0.0028
-2 9 1 2.5969 -0.0009
-2 9 2 1.0376 -0.0027
-2 9 3 0.1330 -0.0033
-2 9 4 1.3061 0.0003
-2 9 5 2.9244 0.0029
-2 9 6 2.3793 -0.0003
-2 9 7 0.1237 -0.0013
-2 9 8 -0.6679 0.0019
-2 9 9 0.4480 -0.0011
-2 9 10 1.2192 -0.0032
-2 10 1 -1.8084 -0.0043
-2 10 2 -1.2414 -0.0016
-2 10 3 -0.2185 -0.0006
-2 10 4 -0.4807 -0.0009
-2 10 5 -1.7134 -0.0010
-2 10 6 -2.0937 0.0021
-2 10 7 -0.6627 0.0047
-2 10 8 0.5836 0.0006
-2 10 9 0.0660 0.0013
-2 10 10 -0.8856 0.0051
-2 11 1 0.7901 0.0011
-2 11 2 0.8608 -0.0004
-2 11 3 0.1890 0.0009
-2 11 4 0.0470 0.0019
-2 11 5 0.8264 0.0020
-2 11 6 1.3943 0.0023
-2 11 7 0.7864 -0.0012
-2 11 8 -0.2602 -0.0008
-2 11 9 -0.2434 0.0001
-2 12 2 -0.4738 0.0044
-2 12 3 -0.3177 0.0008
-2 12 4 -0.0408 -0.0041
-2 12 5 -0.4056 -0.0059
-2 12 6 -0.5992 -0.0102
-2 12 7 -0.3713 -0.0079
-1 -11 1 0.1289 0.0095
-1 -10 1 -0.0565 -0.0025
-1 -10 2 0.5769 0.0012
-1 -10 3 0.8011 0.0092
-1 -9 1 -0.6255 -0.0044
-1 -9 2 -0.7196 0.0031
-1 -9 3 -1.2276 -0.0049
-1 -9 4 -0.4718 0.0014
-1 -8 1 1.6706 0.0049
-1 -8 2 0.9125 -0.0035
-1 -8 3 1.3336 -0.0014
-1 -8 4 1.2888 -0.0016
-1 -8 5 0.4163 -0.0072
-1 -7 1 -2.3894 -0.0028
-1 -7 2 -1.0152 -0.0001
-1 -7 3 -1.2088 0.0017
-1 -7 4 -2.0349 0.0014
-1 -7 5 -1.6375 0.0011
-1 -7 6 -0.3707 -0.0031
-1 -6 1 3.0792 0.0056
-1 -6 2 1.0337 0.0017
-1 -6 3 1.1009 0.0005
-1 -6 4 2.4896 0.0006
-1 -6 5 2.7310 0.0014
-1 -6 6 0.9209 0.0050
-1 -6 7 -0.4987 -0.0019
-1 -5 1 -4.2180 -0.0097
-1 -5 2 -1.4478 -0.0016
-1 -5 3 -1.0094 0.0016
-1 -5 4 -2.6001 -0.0021
-1 -5 5 -3.3143 -0.0002
-1 -5 6 -1.7567 -0.0016
-1 -5 7 0.3469 0.0028
-1 -5 8 0.3877 0.0126
-1 -4 1 4.5842 0.0052
-1 -4 2 2.8943 0.0035
-1 -4 3 1.0575 -0.0041
-1 -4 4 2.1424 0.0011
-1 -4 5 3.2475 -0.0005
-1 -4 6 2.8016 -0.0022
-1 -4 7 0.8450 -0.0003
-1 -4 8 0.1946 -0.0036
-1 -4 9 0.4118 -0.0087
-1 -3 1 -2.1253 0.0029
-1 -3 2 -5.1054 -0.0034
-1 -3 3 -1.7996 0.0019
-1 -3 4 -1.1111 0.0001
-1 -3 5 -2.3889 -0.0007
-1 -3 6 -3.3521 0.0023
-1 -3 7 -2.3558 -0.0008
-1 -3 8 -0.9700 -0.0044
-1 -3 9 -0.8105 0.0017
-1 -2 1 -3.6193 0.0029
-1 -2 2 6.3537 -0.0023
-1 -2 3 3.3784 -0.0003
-1 -2 4 0.1197 0.0002
-1 -2 5 0.9973 0.0016
-1 -2 6 2.8464 -0.0000
-1 -2 7 3.0159 -0.0001
-1 -2 8 1.3010 0.0022
-1 -2 9 0.6148 0.0018
-1 -2 10 0.3674 -0.0075
-1 -1 1 11.0654 -0.0213
-1 -1 2 -5.0731 0.0050
-1 -1 3 -5.1893 0.0028
-1 -1 4 0.1057 -0.0003
-1 -1 5 0.3813 -0.0002
-1 -1 6 -1.5476 -0.0006
-1 -1 7 -2.5310 -0.0008
-1 -1 8 -1.2272 0.0025
-1 -1 9 -0.0796 0.0009
-1 -1 10 -0.3100 0.0017
-1 0 1 -17.5745 0.0281
-1 0 2 1.9749 0.0025
-1 0 3 6.8705 -0.0034
-1 0 4 0.7065 0.0005
-1 0 5 -1.6417 -0.0010
-1 0 6 -0.1560 -0.0009
-1 0 7 1.4076 0.0027
-1 0 8 1.1568 -0.0004
-1 0 9 -0.1526 -0.0028
-1 0 10 0.0554 0.0010
-1 0 11 0.6772 0.0026
-1 1 1 20.4365 -0.0136
-1 1 2 0.9385 -0.0112
-1 1 3 -8.2508 -0.0013
-1 1 4 -2.3514 -0.0023
-1 1 5 2.8365 -0.0007
-1 1 6 2.2579 0.0015
-1 1 7 -0.0122 -0.0017
-1 1 8 -1.1247 -0.0028
-1 1 9 -0.1122 0.0009
-1 1 10 0.2353 -0.0010
-1 1 11 -0.6194 -0.0020
-1 2 1 -18.6077 -0.0028
-1 2 2 -3.0740 0.0094
-1 2 3 8.3355 0.0043
-1 2 4 4.2374 0.0032
-1 2 5 -3.2930 0.0025
-1 2 6 -4.3430 -0.0004
-1 2 7 -1.5337 -0.0010
-1 2 8 0.8783 0.0003
-1 2 9 0.5852 -0.0007
-1 2 10 -0.2832 0.0005
-1 2 11 0.1791 0.0001
-1 2 12 0.3742 -0.0025
-1 3 1 13.9461 0.0038
-1 3 2 5.0104 -0.0013
-1 3 3 -6.3651 -0.0025
-1 3 4 -5.6728 -0.0014
-1 3 5 2.1759 -0.0003
-1 3 6 5.3634 0.0012
-1 3 7 2.8964 0.0012
-1 3 8 -0.4157 0.0025
-1 3 9 -0.9929 0.0024
-1 3 10 -0.0608 0.0002
-1 3 11 0.1254 0.0001
-1 3 12 0.0040 0.0031
-1 4 1 -9.3341 0.0049
-1 4 2 -6.3295 -0.0011
-1 4 3 3.4948 0.0024
-1 4 4 6.2769 0.0001
-1 4 5 0.1023 -0.0031
-1 4 6 -4.8454 -0.0041
-1 4 7 -3.7011 -0.0001
-1 4 8 -0.0592 -0.0003
-1 4 9 1.2513 -0.0011
-1 4 10 0.5310 0.0006
-1 4 11 -0.0505 0.0004
-1 4 12 -0.2426 -0.0018
-1 5 1 5.8569 -0.0094
-1 5 2 6.0817 -0.0027
-1 5 3 -1.3234 -0.0060
-1 5 4 -5.8386 -0.0017
-1 5 5 -2.0801 0.0029
-1 5 6 3.3975 0.0047
-1 5 7 3.9017 0.0008
-1 5 8 0.5390 -0.0015
-1 5 9 -1.3242 -0.0013
-1 5 10 -0.7700 -0.0027
-1 5 11 -0.1186 -0.0010
-1 5 12 0.2110 0.0018
-1 6 1 -3.0321 0.0047
-1 6 2 -4.6734 0.0030
-1 6 3 -0.2200 0.0062
-1 6 4 4.2234 0.0020
-1 6 5 2.8839 -0.0009
-1 6 6 -1.7141 -0.0022
-1 6 7 -3.5495 -0.0024
-1 6 8 -1.1038 -0.0005
-1 6 9 1.1743 0.0004
-1 6 10 0.8465 0.0023
-1 6 11 0.1570 0.0014
-1 6 12 -0.0635 -0.0020
-1 7 1 0.7235 0.0048
-1 7 2 3.1877 0.0022
-1 7 3 1.6199 -0.0010
-1 7 4 -2.0131 0.0010
-1 7 5 -2.8472 0.0005
-1 7 6 0.0503 -0.0003
-1 7 7 2.6233 0.0019
-1 7 8 1.5603 0.0010
-1 7 9 -0.8107 0.0001
-1 7 10 -1.0229 -0.0006
-1 7 11 -0.2186 -0.0012
-1 7 12 0.0171 0.0004
-1 8 1 0.6785 -0.0088
-1 8 2 -1.7962 -0.0034
-1 8 3 -2.1989 -0.0008
-1 8 4 0.3917 -0.0021
-1 8 5 2.5150 -0.0000
-1 8 6 1.2464 0.0015
-1 8 7 -1.3755 -0.0004
-1 8 8 -1.6142 0.0015
-1 8 9 0.2943 0.0028
-1 8 10 1.1863 0.0014
-1 8 11 0.4507 0.0010
-1 8 12 -0.1107 0.0010
-1 9 1 -1.1066 0.0038
-1 9 2 0.4196 -0.0034
-1 9 3 1.5574 -0.0046
-1 9 4 0.2252 -0.0007
-1 9 5 -1.8983 -0.0011
-1 9 6 -1.7283 -0.0009
-1 9 7 0.3178 0.0017
-1 9 8 1.2779 -0.0008
-1 9 9 0.2390 -0.0029
-1 9 10 -0.9995 -0.0022
-1 9 11 -0.7015 -0.0013
-1 10 1 0.8264 -0.0004
-1 10 2 0.3634 0.0064
-1 10 3 -0.6404 0.0076
-1 10 4 -0.4291 0.0016
-1 10 5 0.9688 -0.0002
-1 10 6 1.4551 -0.0009
-1 10 7 0.2838 -0.0043
-1 10 8 -0.8109 -0.0023
-1 10 9 -0.5699 -0.0011
-1 10 10 0.4805 -0.0012
-1 10 11 0.7048 0.0006
-1 11 1 -0.2215 0.0067
-1 11 2 -0.2784 0.0027
-1 11 3 0.1876 -0.0013
-1 11 4 0.5267 0.0020
-1 11 5 -0.1498 0.0027
-1 11 6 -0.8957 -0.0005
-1 11 7 -0.4642 0.0008
-1 11 8 0.4358 -0.0005
-1 11 9 0.5641 0.0004
-1 12 2 -0.0559 -0.0131
-1 12 3 0.0440 -0.0062
-1 12 4 -0.3248 -0.0041
-1 12 5 -0.1668 -0.0018
-1 12 6 0.3693 0.0063
-1 12 7 0.2921 0.0085
-1 12 8 -0.2479 0.0082
0 -11 1 -0.2432 -0.0086
0 -10 1 0.6321 -0.0025
0 -10 2 -0.2246 -0.0072
0 -10 3 -0.7364 -0.0115
0 -9 1 -0.5233 0.0072
0 -9 2 -0.1823 0.0037
0 -9 3 0.6435 0.0064
0 -9 4 0.3253 0.0057
0 -8 1 -0.0883 0.0005
0 -8 2 0.5903 0.0018
0 -8 3 -0.0206 0.0008
0 -8 4 -0.4422 -0.0009
0 -8 5 -0.2914 -0.0041
0 -7 1 0.2168 -0.0083
0 -7 2 -1.3338 -0.0024
0 -7 3 -1.1560 0.0001
0 -7 4 0.0457 -0.0031
0 -7 5 0.6455 0.0025
0 -7 6 0.1395 0.0059
0 -7 7 -0.2828 -0.0015
0 -6 1 0.1473 0.0077
0 -6 2 2.4226 0.0002
0 -6 3 2.5595 -0.0045
0 -6 4 0.8066 0.0016
0 -6 5 -0.5758 0.0022
0 -6 6 -0.2165 -0.0054
0 -6 7 0.6256 0.0011
0 -5 1 -0.4427 -0.0089
0 -5 2 -2.9105 0.0001
0 -5 3 -3.5623 0.0025
0 -5 4 -1.5465 0.0013
0 -5 5 0.2243 -0.0036
0 -5 6 0.2287 0.0003
0 -5 7 -0.9272 -0.0009
0 -5 8 -0.6782 -0.0090
0 -4 1 2.4408 0.0187
0 -4 2 2.4325 0.0003
0 -4 3 3.7996 0.0021
0 -4 4 2.1470 -0.0005
0 -4 5 0.1531 0.0008
0 -4 6 -0.5122 0.0023
0 -4 7 0.6148 0.0004
0 -4 8 0.8076 0.0015
0 -4 9 -0.0681 0.0071
0 -3 1 -8.9303 -0.0202
0 -3 2 -2.3554 -0.0001
0 -3 3 -3.4424 -0.0011
0 -3 4 -3.1819 -0.0018
0 -3 5 -0.9875 0.0016
0 -3 6 0.8227 -0.0007
0 -3 7 0.4159 -0.0006
0 -3 8 -0.5562 0.0044
0 -3 9 0.0287 0.0009
0 -2 1 19.0157 0.0002
0 -2 2 4.2306 0.0002
0 -2 3 2.8176 -0.0022
0 -2 4 4.5565 0.0017
0 -2 5 2.6105 -0.0014
0 -2 6 -0.4469 -0.0014
0 -2 7 -1.3618 0.0009
0 -2 8 0.0404 -0.0018
0 -2 9 0.3550 -0.0049
0 -2 10 0.0937 0.0044
0 -1 1 -28.6926 0.0184
0 -1 2 -8.0332 -0.0008
0 -1 3 -2.0073 0.0017
0 -1 4 -5.1940 0.0001
0 -1 5 -4.5020 0.0003
0 -1 6 -0.8013 0.0010
0 -1 7 1.3989 -0.0000
0 -1 8 0.4696 -0.0021
0 -1 9 -0.7027 0.0016
0 -1 10 -0.4927 0.0008
0 -1 11 -0.1678 -0.0010
0 0 1 35.5599 -0.0046
0 0 2 12.5655 0.0024
0 0 3 0.9636 0.0006
0 0 4 4.1755 -0.0001
0 0 5 5.9512 0.0003
0 0 6 2.5895 0.0009
0 0 7 -0.4976 -0.0004
0 0 8 -0.7361 0.0007
0 0 9 0.5748 0.0018
0 0 10 0.7573 -0.0015
0 0 11 0.1153 -0.0038
0 1 0 -44.4997 -0.0424
0 1 1 -38.8417 -0.0264
0 1 2 -16.4801 -0.0064
0 1 3 -0.0417 -0.0015
0 1 4 -1.6230 -0.0019
0 1 5 -6.4671 -0.0008
0 1 6 -4.5926 -0.0008
0 1 7 -0.9461 -0.0009
0 1 8 0.5632 0.0018
0 1 9 -0.1345 -0.0011
0 1 10 -0.7883 -0.0004
0 1 11 -0.2338 0.0035
0 1 12 0.3204 0.0061
0 2 0 36.2984 0.0283
0 2 1 36.7784 0.0316
0 2 2 18.5694 0.0092
0 2 3 0.1263 0.0024
0 2 4 -1.3534 0.0036
0 2 5 5.5028 0.0011
0 2 6 6.2674 -0.0017
0 2 7 2.6618 0.0011
0 2 8 0.1485 -0.0004
0 2 9 -0.0757 0.0001
0 2 10 0.7120 0.0012
0 2 11 0.6406 -0.0016
0 2 12 -0.0414 -0.0021
0 3 0 -23.0134 0.0162
0 3 1 -28.9388 -0.0063
0 3 2 -18.2047 -0.0059
0 3 3 -1.5869 -0.0032
0 3 4 3.3835 -0.0031
0 3 5 -3.0288 -0.0014
0 3 6 -6.8402 0.0021
0 3 7 -4.3526 0.0012
0 3 8 -1.1201 -0.0008
0 3 9 -0.0454 -0.0004
0 3 10 -0.5419 -0.0012
0 3 11 -0.9616 0.0006
0 3 12 -0.4533 -0.0003
0 4 0 10.5599 -0.0339
0 4 1 19.0486 -0.0133
0 4 2 15.8073 0.0005
0 4 3 3.3446 0.0014
0 4 4 -3.9014 0.0010
0 4 5 0.1876 0.0010
0 4 6 6.0746 0.0001
0 4 7 5.4919 -0.0028
0 4 8 1.7617 -0.0014
0 4 9 0.0017 -0.0008
0 4 10 0.1953 0.0002
0 4 11 0.8415 0.0002
0 4 12 0.7474 0.0010
0 5 0 -3.6183 0.0217
0 5 1 -11.3077 0.0101
0 5 2 -12.3463 -0.0002
0 5 3 -4.0255 0.0012
0 5 4 3.3602 0.0002
0 5 5 1.6942 0.0004
0 5 6 -4.4015 0.0001
0 5 7 -5.6065 0.0026
0 5 8 -1.8644 0.0025
0 5 9 0.4718 0.0016
0 5 10 0.2955 0.0010
0 5 11 -0.4621 -0.0005
0 5 12 -0.7686 -0.0012
0 6 0 0.8322 -0.0115
0 6 1 6.1291 -0.0015
0 6 2 8.5762 0.0037
0 6 3 3.7220 -0.0013
0 6 4 -2.2824 0.0013
0 6 5 -2.3952 -0.0002
0 6 6 2.2606 -0.0036
0 6 7 4.6235 -0.0028
0 6 8 1.8587 -0.0003
0 6 9 -0.8716 0.0010
0 6 10 -0.8245 0.0006
0 6 11 0.0703 0.0008
0 6 12 0.6596 -0.0000
0 7 0 0.6794 0.0088
0 7 1 -2.2040 -0.0006
0 7 2 -5.0243 -0.0052
0 7 3 -3.3547 -0.0002
0 7 4 0.8959 -0.0031
0 7 5 2.4850 -0.0026
0 7 6 -0.0611 0.0038
0 7 7 -2.9630 0.0027
0 7 8 -2.0400 -0.0011
0 7 9 0.6236 -0.0024
0 7 10 1.2661 -0.0029
0 7 11 0.4481 -0.0033
0 7 12 -0.3555 0.0005
0 8 0 -1.1722 0.0007
0 8 1 -0.3453 0.0026
0 8 2 2.1587 0.0033
0 8 3 2.9270 -0.0004
0 8 4 0.2947 0.0022
0 8 5 -2.3326 0.0039
0 8 6 -1.5110 -0.0004
0 8 7 1.3603 -0.0010
0 8 8 2.0630 0.0003
0 8 9 0.0549 -0.0006
0 8 10 -1.3910 0.0005
0 8 11 -1.0405 0.0054
0 8 12 -0.1413 0.0030
0 9 0 0.5123 -0.0111
0 9 1 1.0758 -0.0061
0 9 2 -0.2761 0.0003
0 9 3 -1.9357 0.0034
0 9 4 -0.7720 0.0007
0 9 5 1.8865 -0.0012
0 9 6 1.9821 -0.0004
0 9 7 -0.3535 -0.0005
0 9 8 -1.5889 -0.0001
0 9 9 -0.4893 0.0013
0 9 10 1.0400 0.0027
0 9 11 1.2254 -0.0026
0 9 12 0.4637 -0.0061
0 10 0 0.1285 0.0065
0 10 1 -0.7417 0.0047
0 10 2 -0.5300 -0.0023
0 10 3 0.7544 -0.0047
0 10 4 0.7614 -0.0012
0 10 5 -1.0517 -0.0011
0 10 6 -1.6169 -0.0018
0 10 7 -0.1229 0.0002
0 10 8 0.8645 0.0003
0 10 9 0.4415 0.0032
0 10 10 -0.4534 0.0015
0 10 11 -0.8188 -0.0009
0 11 0 -0.1287 0.0079
0 11 1 0.2758 -0.0003
0 11 2 0.4318 -0.0014
0 11 3 -0.1242 -0.0001
0 11 4 -0.7194 -0.0033
0 11 5 0.0569 -0.0018
0 11 6 0.9626 0.0026
0 11 7 0.3959 0.0013
0 11 8 -0.3135 0.0023
0 11 9 -0.2087 -0.0031
0 11 10 0.0849 -0.0081
0 12 2 0.0003 0.0086
0 12 3 0.0051 0.0078
0 12 4 0.5751 0.0087
0 12 5 0.5867 0.0064
0 12 6 -0.2903 -0.0025
0 12 7 -0.4778 -0.0039
0 12 8 0.0442 -0.0067
0 12 9 0.0785 -0.0052
0 13 5 -0.6223 -0.0073
0 13 6 -0.2334 0.0027
1 -11 0 0.0251 -0.0057
1 -10 0 0.1631 0.0036
1 -10 1 -0.5647 0.0065
1 -10 2 -0.0282 0.0101
1 -10 3 0.5648 0.0061
1 -9 0 -0.8638 -0.0059
1 -9 1 0.4389 -0.0030
1 -9 2 0.5571 -0.0036
1 -9 3 -0.1877 -0.0003
1 -9 4 -0.0434 -0.0011
1 -8 0 1.8425 0.0078
1 -8 1 0.5542 -0.0009
1 -8 2 -0.8824 -0.0032
1 -8 3 -0.8186 -0.0048
1 -8 4 -0.3678 -0.0044
1 -8 5 -0.2227 0.0058
1 -7 0 -2.1935 -0.0033
1 -7 1 -1.7220 0.0034
1 -7 2 0.7793 0.0035
1 -7 3 1.8577 -0.0002
1 -7 4 1.2153 0.0045
1 -7 5 0.4356 -0.0029
1 -7 6 0.6676 -0.0040
1 -7 7 0.9680 0.0097
1 -6 0 1.7189 -0.0068
1 -6 1 2.5433 -0.0049
1 -6 2 -0.5704 -0.0020
1 -6 3 -2.6039 0.0062
1 -6 4 -2.2366 0.0013
1 -6 5 -1.0942 -0.0013
1 -6 6 -1.0518 0.0050
1 -6 7 -1.4144 -0.0024
1 -5 0 -0.7802 0.0184
1 -5 1 -3.6460 0.0076
1 -5 2 -0.2765 0.0018
1 -5 3 2.7468 -0.0025
1 -5 4 2.9008 -0.0036
1 -5 5 1.7914 0.0018
1 -5 6 1.3476 -0.0018
1 -5 7 1.8272 -0.0012
1 -5 8 1.0646 0.0016
1 -4 0 -2.1075 -0.0228
1 -4 1 4.3210 -0.0111
1 -4 2 2.5757 0.0024
1 -4 3 -1.5975 -0.0020
1 -4 4 -2.8630 -0.0000
1 -4 5 -2.0378 0.0001
1 -4 6 -1.0807 0.0004
1 -4 7 -1.7141 0.0006
1 -4 8 -1.5431 0.0003
1 -4 9 -0.3908 -0.0003
1 -3 0 9.3641 0.0098
1 -3 1 -1.4615 0.0093
1 -3 2 -5.1160 -0.0089
1 -3 3 -1.0300 -0.0033
1 -3 4 2.2914 0.0020
1 -3 5 2.1596 -0.0009
1 -3 6 0.4984 -0.0013
1 -3 7 0.7468 0.0006
1 -3 8 1.5452 -0.0003
1 -3 9 0.5943 -0.0010
1 -3 10 0.2638 0.0038
1 -2 0 -19.6542 0.0087
1 -2 1 -6.1528 -0.0021
1 -2 2 5.4007 0.0065
1 -2 3 4.2738 0.0081
1 -2 4 -1.2495 -0.0001
1 -2 5 -2.5088 0.0002
1 -2 6 -0.3352 0.0014
1 -2 7 0.5320 -0.0007
1 -2 8 -0.7182 -0.0016
1 -2 9 -0.5566 0.0017
1 -2 10 -0.2482 -0.0027
1 -1 0 27.8136 -0.0021
1 -1 1 15.2738 0.0029
1 -1 2 -2.7483 0.0054
1 -1 3 -7.1563 -0.0025
1 -1 4 -0.7428 -0.0006
1 -1 5 2.5670 0.0002
1 -1 6 0.6542 -0.0001
1 -1 7 -1.2936 0.0002
1 -1 8 -0.4948 0.0027
1 -1 9 0.2085 0.0003
1 -1 10 0.2232 0.0009
1 -1 11 0.4317 0.0035
1 0 0 -30.4402 -0.0303
1 0 1 -22.1187 -0.0176
1 0 2 -1.4898 -0.0122
1 0 3 9.1058 -0.0024
1 0 4 3.8000 -0.0003
1 0 5 -1.9260 -0.0002
1 0 6 -1.1309 -0.0010
1 0 7 1.2916 -0.0009
1 0 8 1.3760 -0.0006
1 0 9 0.2761 -0.0010
1 0 10 -0.2194 -0.0010
1 0 11 -0.4300 -0.0023
1 1 0 27.7451 0.0456
1 1 1 25.3106 0.0271
1 1 2 5.8571 0.0051
1 1 3 -9.4651 -0.0033
1 1 4 -6.9638 -0.0011
1 1 5 0.8874 0.0001
1 1 6 1.8191 -0.0002
1 1 7 -0.7273 0.0021
1 1 8 -1.6775 -0.0012
1 1 9 -0.7652 -0.0018
1 1 10 0.1499 0.0005
1 1 11 0.3608 0.0020
1 2 0 -20.5331 -0.0221
1 2 1 -23.9138 -0.0131
1 2 2 -8.9445 0.0073
1 2 3 7.8697 0.0099
1 2 4 9.1226 0.0040
1 2 5 0.7056 0.0005
1 2 6 -2.4251 0.0028
1 2 7 -0.1839 -0.0013
1 2 8 1.5084 -0.0004
1 2 9 1.1852 0.0030
1 2 10 0.0496 0.0011
1 2 11 -0.4321 -0.0003
1 2 12 0.0355 -0.0009
1 3 0 10.3474 -0.0060
1 3 1 17.5944 -0.0076
1 3 2 9.4184 -0.0124
1 3 3 -5.1654 -0.0068
1 3 4 -9.9829 -0.0038
1 3 5 -3.3954 -0.0016
1 3 6 2.0269 -0.0026
1 3 7 1.2241 -0.0005
1 3 8 -0.9557 0.0023
1 3 9 -1.4139 -0.0007
1 3 10 -0.3463 -0.0008
1 3 11 0.6341 -0.0015
1 3 12 0.2904 -0.0002
1 4 0 -1.4071 0.0056
1 4 1 -9.4875 0.0078
1 4 2 -7.7250 0.0061
1 4 3 2.7071 -0.0006
1 4 4 9.6591 0.0004
1 4 5 6.3013 0.0019
1 4 6 -0.5810 -0.0010
1 4 7 -2.1538 -0.0006
1 4 8 0.1816 -0.0021
1 4 9 1.4795 -0.0007
1 4 10 0.7062 -0.0008
1 4 11 -0.6172 0.0001
1 4 12 -0.5404 0.0006
1 5 0 -2.7535 0.0064
1 5 1 3.8806 0.0060
1 5 2 5.7943 0.0042
1 5 3 -0.9387 0.0033
1 5 4 -8.1268 0.0022
1 5 5 -7.4736 -0.0010
1 5 6 -0.7736 0.0024
1 5 7 2.6978 0.0024
1 5 8 0.5105 0.0018
1 5 9 -1.5507 0.0004
1 5 10 -1.1214 0.0006
1 5 11 0.2204 0.0017
1 5 12 0.4869 0.0001
1 6 0 3.3185 -0.0037
1 6 1 -1.1073 -0.0075
1 6 2 -4.2014 -0.0076
1 6 3 -0.3601 -0.0010
1 6 4 5.6281 -0.0012
1 6 5 6.4796 0.0001
1 6 6 1.5340 0.0006
1 6 7 -2.4518 -0.0007
1 6 8 -0.9613 -0.0022
1 6 9 1.4963 -0.0013
1 6 10 1.4994 0.0002
1 6 11 0.3411 -0.0005
1 6 12 -0.3327 0.0035
1 6 13 0.0941 0.0022
1 7 0 -3.2555 -0.0046
1 7 1 -1.0798 -0.0039
1 7 2 2.0192 0.0029
1 7 3 1.0476 -0.0015
1 7 4 -3.0063 -0.0022
1 7 5 -4.7955 -0.0001
1 7 6 -2.2507 -0.0018
1 7 7 1.3019 -0.0014
1 7 8 1.1959 0.0018
1 7 9 -1.0020 0.0017
1 7 10 -1.6748 -0.0007
1 7 11 -0.8874 -0.0007
1 7 12 0.1540 -0.0084
1 7 13 0.1956 -0.0097
1 8 0 2.9686 -0.0001
1 8 1 2.7980 0.0079
1 8 2 0.5029 0.0018
1 8 3 -0.8844 0.0009
1 8 4 1.1043 0.0036
1 8 5 3.5527 0.0010
1 8 6 2.9364 -0.0013
1 8 7 0.0106 -0.0006
1 8 8 -1.1997 -0.0010
1 8 9 0.2818 0.0004
1 8 10 1.5931 0.0032
1 8 11 1.3347 -0.0002
1 8 12 0.1963 0.0052
1 9 0 -1.7768 0.0093
1 9 1 -2.7640 -0.0012
1 9 2 -1.8578 -0.0021
1 9 3 0.2583 0.0011
1 9 4 -0.0679 -0.0010
1 9 5 -2.5023 -0.0019
1 9 6 -2.8436 0.0021
1 9 7 -0.5068 0.0025
1 9 8 1.0036 0.0001
1 9 9 0.0637 -0.0007
1 9 10 -1.3446 -0.0047
1 9 11 -1.4377 -0.0006
1 9 12 -0.5146 0.0026
1 10 0 0.4796 -0.0052
1 10 1 1.5085 -0.0016
1 10 2 1.6621 0.0013
1 10 3 0.1982 -0.0009
1 10 4 -0.4500 -0.0013
1 10 5 1.2073 0.0019
1 10 6 1.8799 0.0011
1 10 7 0.2019 -0.0004
1 10 8 -0.8076 0.0015
1 10 9 0.0173 -0.0031
1 10 10 0.9970 -0.0014
1 10 11 1.0436 0.0022
1 11 0 0.0312 -0.0079
1 11 1 -0.5096 -0.0035
1 11 2 -0.8910 -0.0007
1 11 3 -0.3134 -0.0000
1 11 4 0.6223 0.0007
1 11 5 0.0082 -0.0005
1 11 6 -0.8133 -0.0022
1 11 7 0.0563 0.0002
1 11 8 0.6832 -0.0016
1 11 9 -0.0276 0.0050
1 11 10 -0.5631 0.0104
1 12 2 0.2646 -0.0015
1 12 3 0.2471 -0.0020
1 12 4 -0.4130 -0.0002
1 12 5 -0.5484 -0.0019
1 12 6 0.1785 -0.0010
1 12 7 0.1080 -0.0037
1 12 8 -0.4457 -0.0017
1 13 5 0.3814 0.0033
2 -11 0 0.3078 0.0027
2 -10 0 -0.9742 0.0053
2 -10 1 0.1817 0.0011
2 -10 2 0.1787 -0.0039
2 -9 0 2.3954 -0.0010
2 -9 1 0.7012 -0.0051
2 -9 2 -0.1130 -0.0035
2 -9 3 0.3559 -0.0021
2 -9 4 0.4658 0.0032
2 -8 0 -4.0706 -0.0082
2 -8 1 -2.6973 -0.0024
2 -8 2 -0.5190 0.0042
2 -8 3 0.2290 0.0051
2 -8 4 0.0125 0.0020
2 -8 5 -0.1783 -0.0125
2 -7 0 5.2010 0.0072
2 -7 1 5.0435 0.0087
2 -7 2 2.0004 0.0011
2 -7 3 -0.2712 -0.0003
2 -7 4 -0.4159 -0.0021
2 -7 5 0.2182 0.0060
2 -7 6 -0.0876 0.0109
2 -6 0 -5.7756 -0.0003
2 -6 1 -7.1380 -0.0082
2 -6 2 -3.9354 -0.0033
2 -6 3 -0.5754 -0.0036
2 -6 4 0.3677 -0.0018
2 -6 5 -0.2032 0.0012
2 -6 6 0.1408 -0.0028
2 -6 7 0.9394 0.0010
2 -5 0 6.4228 -0.0007
2 -5 1 9.5780 0.0072
2 -5 2 6.3674 0.0021
2 -5 3 1.9486 -0.0012
2 -5 4 -0.1047 0.0016
2 -5 5 -0.0415 -0.0033
2 -5 6 -0.0749 -0.0029
2 -5 7 -1.0029 -0.0020
2 -5 8 -0.5092 -0.0004
2 -4 0 -6.6495 -0.0027
2 -4 1 -12.4261 -0.0076
2 -4 2 -10.1177 -0.0041
2 -4 3 -4.2736 0.0062
2 -4 4 -0.4789 0.0026
2 -4 5 0.3455 0.0016
2 -4 6 -0.2280 0.0021
2 -4 7 0.5478 0.0012
2 -4 8 0.6471 0.0012
2 -4 9 -0.2546 -0.0006
2 -3 0 4.5916 0.0048
2 -3 1 13.2824 0.0061
2 -3 2 14.5559 0.0071
2 -3 3 8.1793 -0.0031
2 -3 4 1.8879 -0.0037
2 -3 5 -0.4608 -0.0003
2 -3 6 0.5438 0.0002
2 -3 7 0.3323 0.0004
2 -3 8 -0.6773 -0.0006
2 -3 9 0.0857 0.0005
2 -3 10 0.2277 0.0000
2 -2 0 0.1165 -0.0063
2 -2 1 -9.8303 -0.0052
2 -2 2 -17.0374 -0.0035
2 -2 3 -12.7455 0.0006
2 -2 4 -4.1593 0.0018
2 -2 5 0.2817 0.0005
2 -2 6 -0.4817 0.0000
2 -2 7 -1.2004 -0.0015
2 -2 8 0.2371 -0.0005
2 -2 9 -0.0152 -0.0021
2 -2 10 -0.3599 -0.0036
2 -1 0 -4.7019 0.0049
2 -1 1 3.5912 0.0076
2 -1 2 16.1585 -0.0019
2 -1 3 16.4697 -0.0042
2 -1 4 7.1224 -0.0022
2 -1 5 0.5821 -0.0007
2 -1 6 0.3167 -0.0011
2 -1 7 1.7145 0.0017
2 -1 8 0.6747 0.0010
2 -1 9 0.2083 0.0012
2 -1 10 0.4318 0.0038
2 -1 11 -0.2114 0.0032
2 0 0 6.2778 0.0039
2 0 1 1.8135 -0.0087
2 0 2 -13.1776 -0.0020
2 0 3 -18.8765 0.0033
2 0 4 -10.7302 0.0022
2 0 5 -2.3878 0.0003
2 0 6 -0.5323 0.0007
2 0 7 -1.8487 -0.0011
2 0 8 -1.5862 -0.0014
2 0 9 -0.4711 0.0004
2 0 10 -0.1683 -0.0005
2 0 11 0.5626 -0.0005
2 1 0 -4.9988 -0.0125
2 1 1 -4.9572 0.0061
2 1 2 9.2699 0.0116
2 1 3 19.3009 0.0047
2 1 4 13.9261 0.0007
2 1 5 4.3078 -0.0003
2 1 6 0.6695 0.0005
2 1 7 1.4854 -0.0000
2 1 8 2.0919 0.0012
2 1 9 0.8483 0.0005
2 1 10 -0.1881 -0.0007
2 1 11 -0.7380 -0.0023
2 2 0 2.5947 0.0116
2 2 1 6.2692 -0.0040
2 2 2 -4.5282 -0.0135
2 2 3 -16.3572 -0.0049
2 2 4 -14.7143 -0.0002
2 2 5 -5.3529 0.0020
2 2 6 -0.2284 -0.0004
2 2 7 -0.5152 -0.0001
2 2 8 -2.1007 0.0000
2 2 9 -1.6441 -0.0011
2 2 10 -0.0353 -0.0003
2 2 11 0.6079 0.0017
2 2 12 0.3198 0.0029
2 3 0 0.1731 -0.0074
2 3 1 -5.5177 0.0032
2 3 2 0.1179 0.0068
2 3 3 10.6481 -0.0057
2 3 4 12.7380 -0.0060
2 3 5 5.9888 -0.0037
2 3 6 0.1210 -0.0017
2 3 7 -0.5692 0.0009
2 3 8 1.6455 -0.0004
2 3 9 2.6024 -0.0002
2 3 10 0.9574 -0.0005
2 3 11 -0.4054 -0.0001
2 3 12 -0.1577 -0.0011
2 4 0 -2.8399 0.0081
2 4 1 2.8090 0.0005
2 4 2 2.0740 -0.0019
2 4 3 -5.3584 0.0098
2 4 4 -10.0293 0.0081
2 4 5 -7.1323 0.0017
2 4 6 -1.3066 0.0035
2 4 7 1.1045 0.0001
2 4 8 -0.8318 -0.0011
2 4 9 -2.9524 -0.0004
2 4 10 -1.8604 0.0011
2 4 11 0.2758 0.0007
2 4 12 0.3798 0.0003
2 4 13 -0.1796 0.0022
2 5 0 4.2084 -0.0094
2 5 1 0.0185 -0.0045
2 5 2 -2.0590 0.0019
2 5 3 2.4968 -0.0011
2 5 4 8.0826 -0.0017
2 5 5 8.1371 0.0026
2 5 6 2.9125 -0.0021
2 5 7 -1.1318 -0.0013
2 5 8 -0.0812 0.0018
2 5 9 2.4533 0.0027
2 5 10 2.1431 0.0015
2 5 11 -0.0505 -0.0013
2 5 12 -0.5817 -0.0016
2 6 0 -3.7617 0.0068
2 6 1 -1.5266 0.0029
2 6 2 1.2157 -0.0020
2 6 3 -1.1633 -0.0050
2 6 4 -6.2302 -0.0037
2 6 5 -7.6463 -0.0039
2 6 6 -3.5911 -0.0009
2 6 7 0.9465 -0.0004
2 6 8 0.7781 -0.0012
2 6 9 -1.5872 -0.0018
2 6 10 -1.9502 -0.0031
2 6 11 -0.4154 -0.0001
2 6 12 0.4484 -0.0004
2 6 13 -0.0175 0.0010
2 7 0 2.5052 -0.0059
2 7 1 2.1742 0.0015
2 7 2 -0.0336 0.0009
2 7 3 0.2620 0.0006
2 7 4 3.7763 0.0018
2 7 5 5.7839 0.0013
2 7 6 3.5093 0.0003
2 7 7 -0.3765 0.0018
2 7 8 -1.0643 0.0012
2 7 9 0.7580 -0.0007
2 7 10 1.6511 0.0010
2 7 11 0.9742 -0.0003
2 7 12 -0.1017 0.0040
2 7 13 -0.2638 0.0074
2 8 0 -1.4782 0.0082
2 8 1 -2.4897 -0.0025
2 8 2 -1.3596 -0.0020
2 8 3 -0.0089 0.0041
2 8 4 -1.5123 0.0023
2 8 5 -3.8121 0.0002
2 8 6 -3.3838 0.0032
2 8 7 -0.5522 0.0014
2 8 8 0.9546 -0.0011
2 8 9 -0.0787 0.0002
2 8 10 -1.3241 -0.0002
2 8 11 -1.3141 0.0036
2 8 12 -0.2455 -0.0002
2 9 0 0.8095 -0.0070
2 9 1 2.1316 0.0010
2 9 2 2.0560 0.0041
2 9 3 0.3740 -0.0018
2 9 4 0.2599 -0.0031
2 9 5 2.2870 0.0008
2 9 6 2.9895 -0.0032
2 9 7 1.1007 -0.0042
2 9 8 -0.6645 0.0009
2 9 9 -0.2711 0.0011
2 9 10 0.9573 0.0017
2 9 11 1.2227 -0.0038
2 9 12 0.4019 -0.0079
2 10 0 -0.3926 0.0012
2 10 1 -1.2250 -0.0006
2 10 2 -1.5843 -0.0021
2 10 3 -0.5976 -0.0012
2 10 4 0.2305 0.0012
2 10 5 -0.9733 -0.0011
2 10 6 -1.9722 -0.0006
2 10 7 -0.8577 0.0009
2 10 8 0.4308 -0.0030
2 10 9 0.2019 -0.0001
2 10 10 -0.6346 0.0004
2 10 11 -0.7690 0.0000
2 11 1 0.4822 0.0007
2 11 2 0.7129 -0.0041
2 11 3 0.4277 -0.0020
2 11 4 -0.3835 0.0009
2 11 5 -0.0411 0.0002
2 11 6 0.8499 0.0024
2 11 7 0.3997 0.0031
2 11 8 -0.2715 0.0054
2 11 9 0.0200 -0.0007
2 11 10 0.3911 -0.0058
2 12 3 -0.2021 0.0078
2 12 4 0.2511 -0.0013
2 12 5 0.3757 -0.0001
2 12 6 -0.2487 -0.0001
2 12 7 -0.2873 -0.0015
2 12 8 0.0682 -0.0031
2 12 9 -0.1267 -0.0005
3 -11 0 -0.6107 0.0051
3 -10 0 0.9396 -0.0034
3 -10 1 0.0070 -0.0061
3 -9 0 -1.4812 0.0017
3 -9 1 -0.3559 0.0034
3 -9 2 0.0597 0.0048
3 -9 3 -0.4636 -0.0010
3 -9 4 -0.7023 -0.0037
3 -8 0 1.9726 -0.0067
3 -8 1 1.3331 0.0015
3 -8 2 0.1612 -0.0010
3 -8 3 0.0842 0.0005
3 -8 4 0.4779 0.0018
3 -8 5 0.5706 0.0037
3 -7 0 -1.8727 0.0181
3 -7 1 -2.3781 0.0019
3 -7 2 -0.4023 -0.0012
3 -7 3 0.7694 0.0000
3 -7 4 0.2615 -0.0005
3 -7 5 -0.6766 -0.0007
3 -7 6 -0.5108 -0.0020
3 -6 0 1.2496 -0.0221
3 -6 1 3.2511 -0.0087
3 -6 2 0.9903 -0.0007
3 -6 3 -1.3264 -0.0001
3 -6 4 -1.1351 0.0014
3 -6 5 0.3700 -0.0016
3 -6 6 0.6012 -0.0038
3 -6 7 -0.3566 -0.0051
3 -5 0 -0.5292 0.0113
3 -5 1 -4.3440 0.0065
3 -5 2 -2.3914 0.0024
3 -5 3 1.1184 0.0018
3 -5 4 2.0263 -0.0017
3 -5 5 0.7361 0.0006
3 -5 6 -0.1351 0.0040
3 -5 7 0.6650 0.0034
3 -5 8 0.6572 -0.0010
3 -4 0 -0.4756 -0.0003
3 -4 1 5.5205 0.0013
3 -4 2 4.8465 -0.0011
3 -4 3 0.2285 -0.0038
3 -4 4 -2.5362 0.0009
3 -4 5 -2.3254 0.0022
3 -4 6 -0.7495 0.0003
3 -4 7 -0.8168 0.0017
3 -4 8 -1.0168 0.0032
3 -4 9 -0.1988 0.0076
3 -3 0 2.2997 0.0028
3 -3 1 -5.4874 -0.0019
3 -3 2 -7.7716 0.0003
3 -3 3 -3.0635 0.0033
3 -3 4 1.8943 -0.0018
3 -3 5 3.5054 -0.0040
3 -3 6 1.6907 -0.0020
3 -3 7 0.7015 -0.0025
3 -3 8 1.2773 -0.0018
3 -3 9 0.6377 -0.0027
3 -3 10 0.1530 -0.0100
3 -2 0 -4.6412 -0.0109
3 -2 1 3.1476 -0.0029
3 -2 2 9.5631 -0.0029
3 -2 3 6.6112 -0.0028
3 -2 4 -0.2065 0.0037
3 -2 5 -3.9784 0.0043
3 -2 6 -2.7246 -0.0000
3 -2 7 -0.6081 -0.0004
3 -2 8 -1.1382 -0.0014
3 -2 9 -0.8990 -0.0025
3 -2 10 -0.2201 0.0046
3 -1 0 6.2408 0.0128
3 -1 1 0.7927 0.0031
3 -1 2 -8.9743 0.0037
3 -1 3 -9.3225 0.0041
3 -1 4 -1.7227 -0.0029
3 -1 5 3.8584 -0.0037
3 -1 6 3.7612 0.0013
3 -1 7 0.9343 0.0010
3 -1 8 0.5813 0.0020
3 -1 9 0.6353 0.0051
3 -1 10 -0.0968 0.0021
3 0 0 -6.0983 -0.0105
3 0 1 -4.3771 -0.0002
3 0 2 6.4765 0.0002
3 0 3 10.7278 -0.0033
3 0 4 4.0148 0.0006
3 0 5 -2.6374 0.0024
3 0 6 -4.0069 -0.0007
3 0 7 -1.5942 0.0006
3 0 8 -0.1281 -0.0000
3 0 9 -0.2492 -0.0042
3 0 10 0.2515 -0.0045
3 0 11 -0.0050 -0.0003
3 1 0 4.4235 0.0071
3 1 1 6.3011 0.0006
3 1 2 -3.3152 -0.0029
3 1 3 -11.0242 0.0010
3 1 4 -6.9360 -0.0001
3 1 5 0.0796 -0.0012
3 1 6 3.1137 0.0003
3 1 7 2.3077 -0.0005
3 1 8 0.3052 -0.0009
3 1 9 0.1785 0.0013
3 1 10 0.2354 0.0013
3 1 11 0.1523 0.0001
3 2 0 -2.2414 -0.0005
3 2 1 -6.4692 -0.0014
3 2 2 0.1382 -0.0001
3 2 3 9.4775 -0.0036
3 2 4 8.9321 -0.0006
3 2 5 2.5059 0.0011
3 2 6 -1.9797 -0.0001
3 2 7 -3.0979 -0.0004
3 2 8 -1.1444 -0.0005
3 2 9 -0.1522 -0.0004
3 2 10 -0.7419 0.0018
3 2 11 -0.5159 0.0024
3 2 12 -0.0401 0.0009
3 3 0 0.3523 -0.0056
3 3 1 5.1825 -0.0006
3 3 2 2.4447 0.0033
3 3 3 -5.8440 0.0090
3 3 4 -8.3681 0.0026
3 3 5 -3.8442 -0.0026
3 3 6 1.2192 -0.0008
3 3 7 3.7748 -0.0007
3 3 8 2.2130 0.0006
3 3 9 -0.0991 0.0020
3 3 10 0.4339 0.0001
3 3 11 0.8226 -0.0025
3 3 12 -0.0074 -0.0019
3 4 0 0.9726 0.0050
3 4 1 -2.9735 0.0017
3 4 2 -3.4981 -0.0016
3 4 3 2.1025 -0.0067
3 4 4 6.3587 -0.0011
3 4 5 4.5223 0.0056
3 4 6 -0.1879 0.0017
3 4 7 -3.6825 0.0016
3 4 8 -2.9141 0.0014
3 4 9 0.1925 -0.0019
3 4 10 0.3321 -0.0026
3 4 11 -0.9283 0.0003
3 4 12 -0.3814 0.0019
3 5 0 -1.5330 -0.0007
3 5 2 3.0166 -0.0019
3 5 3 -0.0889 -0.0017
3 5 4 -4.8467 -0.0035
3 5 5 -5.3235 -0.0068
3 5 6 -1.3718 -0.0016
3 5 7 2.7434 -0.0003
3 5 8 2.9536 -0.0016
3 5 9 0.1796 0.0005
3 5 10 -0.5992 0.0013
3 5 11 0.8650 0.0005
3 5 12 0.8213 -0.0005
3 6 0 1.1971 -0.0015
3 6 1 0.3483 -0.0002
3 6 2 -1.9956 0.0022
3 6 3 -0.8060 0.0037
3 6 4 3.4350 0.0028
3 6 5 5.3023 0.0025
3 6 6 2.3963 -0.0001
3 6 7 -1.7874 -0.0006
3 6 8 -2.6176 -0.0003
3 6 10 0.2941 -0.0001
3 6 11 -0.6030 0.0000
3 6 12 -0.8055 -0.0007
3 6 13 -0.0427 -0.0009
3 7 0 -0.3942 0.0028
3 7 1 -0.9012 0.0012
3 7 2 0.8604 -0.0008
3 7 3 1.4932 0.0014
3 7 4 -1.1455 0.0032
3 7 5 -3.5765 0.0033
3 7 6 -2.2217 0.0026
3 7 7 1.2452 0.0000
3 7 8 2.3134 0.0002
3 7 9 0.9497 0.0032
3 7 10 -0.0624 0.0014
3 7 11 0.1016 0.0007
3 7 12 0.3753 0.0010
3 8 0 -0.1441 -0.0039
3 8 1 1.2291 -0.0043
3 8 2 0.4944 0.0007
3 8 3 -1.3323 -0.0020
3 8 4 -0.8193 -0.0048
3 8 5 1.3510 -0.0024
3 8 6 1.5875 -0.0022
3 8 7 -0.6602 -0.0002
3 8 8 -1.9606 0.0013
3 8 9 -1.0537 -0.0005
3 8 10 0.1038 -0.0003
3 8 11 0.4259 -0.0020
3 8 12 0.0582 -0.0028
3 9 0 0.2121 0.0006
3 9 1 -1.2216 0.0051
3 9 2 -1.4244 -0.0006
3 9 3 0.1586 -0.0041
3 9 4 1.0096 -0.0004
3 9 5 -0.2066 -0.0032
3 9 6 -1.1856 -0.0021
3 9 7 -0.1226 0.0007
3 9 8 1.2734 -0.0005
3 9 9 1.0073 -0.0011
3 9 10 -0.1132 -0.0024
3 9 11 -0.6314 0.0011
3 9 12 -0.2197 0.0057
3 10 0 -0.1222 0.0057
3 10 2 1.1705 -0.0022
3 10 3 0.6287 0.0059
3 10 4 -0.2734 0.0036
3 10 5 -0.0517 0.0029
3 10 6 0.7463 0.0041
3 10 7 0.5236 0.0006
3 10 8 -0.4427 -0.0007
3 10 9 -0.6796 -0.0023
3 10 10 -0.0150 -0.0006
3 10 11 0.4432 -0.0001
3 11 0 0.0483 -0.0078
3 11 1 -0.2328 -0.0052
3 11 2 -0.2554 0.0055
3 11 3 -0.3105 0.0010
3 11 4 0.0572 -0.0011
3 11 5 0.3096 0.0041
3 11 6 -0.0724 0.0004
3 11 7 -0.2831 -0.0024
3 11 8 -0.0161 -0.0018
3 11 9 0.2359 0.0041
3 11 10 0.1324 0.0065
3 12 4 -0.2310 -0.0017
3 12 5 -0.4867 -0.0074
3 12 6 -0.3511 -0.0056
3 12 7 -0.0925 0.0023
3 12 8 -0.0122 0.0048
3 12 9 -0.0224 -0.0001
4 -10 0 -0.4637 -0.0041
4 -10 1 0.1377 0.0041
4 -9 0 0.3669 0.0018
4 -9 1 -0.6810 -0.0014
4 -9 2 -0.8943 -0.0048
4 -9 3 -0.3940 0.0051
4 -8 0 -0.0778 0.0019
4 -8 1 0.7710 -0.0024
4 -8 2 1.6522 -0.0004
4 -8 3 1.2872 -0.0042
4 -8 4 0.5667 -0.0067
4 -8 5 0.0450 0.0011
4 -7 0 -0.9127 -0.0012
4 -7 1 -0.5801 0.0020
4 -7 2 -2.3474 0.0032
4 -7 3 -2.8850 -0.0004
4 -7 4 -1.8299 0.0018
4 -7 5 -0.4853 0.0008
4 -7 6 0.0418 -0.0028
4 -6 0 2.9003 -0.0049
4 -6 1 0.6369 0.0003
4 -6 2 2.5040 -0.0029
4 -6 3 4.3113 0.0015
4 -6 4 3.3893 0.0019
4 -6 5 1.2748 -0.0014
4 -6 6 0.0855 0.0002
4 -6 7 0.2338 0.0052
4 -5 0 -5.3612 0.0104
4 -5 1 -1.0629 0.0010
4 -5 2 -1.8356 0.0023
4 -5 3 -4.6924 0.0013
4 -5 4 -4.8015 -0.0018
4 -5 5 -2.6587 0.0002
4 -5 6 -0.7593 0.0011
4 -5 7 -0.5425 -0.0012
4 -5 8 -0.5014 -0.0025
4 -4 0 7.6061 -0.0083
4 -4 1 1.9547 -0.0040
4 -4 2 0.8403 -0.0022
4 -4 3 4.0579 -0.0030
4 -4 4 5.7694 0.0007
4 -4 5 4.5338 0.0012
4 -4 6 2.0429 -0.0010
4 -4 7 0.9734 -0.0029
4 -4 8 0.8771 -0.0000
4 -4 9 0.2949 0.0001
4 -3 0 -9.2937 0.0001
4 -3 1 -3.5456 0.0022
4 -3 2 -0.1765 0.0010
4 -3 3 -2.6771 0.0019
4 -3 4 -5.8448 0.0001
4 -3 5 -6.1885 -0.0020
4 -3 6 -3.6320 -0.0008
4 -3 7 -1.4342 0.0019
4 -3 8 -1.1835 0.0006
4 -3 9 -0.7789 -0.0055
4 -2 0 10.0377 0.0046
4 -2 1 5.5092 0.0024
4 -2 2 -0.0858 0.0008
4 -2 3 0.6509 -0.0009
4 -2 4 4.8744 -0.0014
4 -2 5 7.1474 0.0018
4 -2 6 5.3740 0.0030
4 -2 7 2.1375 0.0018
4 -2 8 1.3353 -0.0005
4 -2 9 1.1824 0.0039
4 -2 10 0.6614 0.0037
4 -1 0 -9.3626 -0.0015
4 -1 1 -7.0209 -0.0030
4 -1 2 -0.0456 -0.0003
4 -1 3 1.4395 0.0013
4 -1 4 -3.4298 0.0023
4 -1 5 -7.4971 -0.0011
4 -1 6 -7.0793 -0.0035
4 -1 7 -3.3364 -0.0024
4 -1 8 -1.4014 0.0012
4 -1 9 -1.1900 0.0021
4 -1 10 -0.7087 -0.0006
4 0 0 7.2461 -0.0046
4 0 1 7.5988 0.0006
4 0 2 0.9015 -0.0017
4 0 3 -2.7372 -0.0021
4 0 4 1.7802 -0.0013
4 0 5 6.8045 0.0010
4 0 6 7.6908 0.0026
4 0 7 4.5098 0.0004
4 0 8 1.5234 -0.0017
4 0 9 0.9346 -0.0044
4 0 10 0.5006 -0.0036
4 0 11 0.2750 -0.0065
4 1 0 -4.2624 0.0101
4 1 1 -7.1591 0.0010
4 1 2 -2.3994 0.0016
4 1 3 3.0075 0.0021
4 1 4 0.5331 0.0001
4 1 5 -4.2157 -0.0011
4 1 6 -6.0801 -0.0015
4 1 7 -4.6560 0.0001
4 1 8 -1.6469 0.0005
4 1 9 -0.6646 0.0020
4 1 10 -0.5534 0.0040
4 1 11 -0.2590 0.0069
4 2 0 1.3088 -0.0151
4 2 1 5.6750 -0.0030
4 2 2 3.6985 0.0005
4 2 3 -2.4070 -0.0009
4 2 4 -3.0605 -0.0004
4 2 5 0.4564 -0.0000
4 2 6 3.0637 0.0001
4 2 7 3.8119 0.0002
4 2 8 1.7491 0.0009
4 2 9 0.2967 0.0006
4 2 10 0.6835 -0.0022
4 2 11 0.5700 -0.0032
4 3 0 0.7652 0.0155
4 3 1 -3.5112 0.0050
4 3 2 -4.0981 -0.0015
4 3 3 1.0509 -0.0001
4 3 4 4.1823 0.0015
4 3 5 2.1988 0.0011
4 3 6 -0.9410 0.0002
4 3 7 -3.2069 0.0003
4 3 8 -2.1371 -0.0001
4 3 9 0.1094 -0.0010
4 3 10 -0.2769 0.0002
4 3 11 -0.8262 -0.0007
4 3 12 -0.2992 -0.0008
4 4 0 -1.6845 -0.0093
4 4 1 1.4883 -0.0030
4 4 2 3.6557 0.0017
4 4 3 0.4743 -0.0009
4 4 4 -3.5124 -0.0024
4 4 5 -2.8426 -0.0005
4 4 6 0.5769 0.0024
4 4 7 3.4545 0.0010
4 4 8 2.9017 -0.0012
4 4 9 -0.0831 -0.0004
4 4 10 -0.4697 0.0004
4 4 11 0.6922 0.0013
4 4 12 0.4509 0.0030
4 5 0 1.8199 0.0040
4 5 1 -0.0718 -0.0007
4 5 2 -2.7244 -0.0030
4 5 3 -1.2990 0.0019
4 5 4 2.4031 0.0027
4 5 5 2.7325 -0.0009
4 5 6 -0.6520 -0.0045
4 5 7 -3.7663 -0.0036
4 5 8 -3.4584 0.0003
4 5 9 -0.4555 0.0013
4 5 10 0.7456 0.0010
4 5 11 -0.3839 0.0009
4 5 12 -0.5453 -0.0004
4 6 0 -1.5187 -0.0062
4 6 1 -0.8826 -0.0002
4 6 2 1.4748 0.0031
4 6 3 1.3452 -0.0005
4 6 4 -1.5157 -0.0015
4 6 5 -2.6780 0.0019
4 6 6 0.0531 0.0027
4 6 7 3.3091 0.0021
4 6 8 3.3031 0.0011
4 6 9 0.9057 0.0001
4 6 10 -0.4558 -0.0018
4 6 11 0.1649 -0.0028
4 6 12 0.4728 -0.0012
4 7 0 0.8491 0.0113
4 7 1 1.4210 0.0033
4 7 2 -0.0934 -0.0007
4 7 3 -1.0886 -0.0014
4 7 4 0.3816 -0.0008
4 7 5 2.0826 -0.0024
4 7 6 0.7975 -0.0002
4 7 7 -2.1878 0.0025
4 7 8 -2.7012 0.0004
4 7 9 -0.9565 -0.0013
4 7 10 0.2191 0.0004
4 7 11 0.0940 0.0023
4 7 12 -0.2073 0.0007
4 8 0 -0.0935 -0.0133
4 8 1 -1.3380 -0.0025
4 8 2 -0.9306 -0.0009
4 8 3 0.5976 0.0005
4 8 4 0.6600 0.0019
4 8 5 -0.8939 0.0015
4 8 6 -1.1688 -0.0001
4 8 7 0.9170 -0.0035
4 8 8 2.0680 -0.0020
4 8 9 0.9726 -0.0001
4 8 10 -0.1960 -0.0006
4 8 11 -0.4598 -0.0008
4 9 0 -0.2682 0.0132
4 9 1 0.8081 0.0010
4 9 2 1.1110 -0.0009
4 9 3 0.0426 0.0024
4 9 4 -0.7409 -0.0011
4 9 5 0.0327 0.0006
4 9 6 0.9534 0.0008
4 9 7 0.0552 0.0008
4 9 8 -1.3509 -0.0001
4 9 9 -1.1040 0.0004
4 9 10 0.0018 0.0023
4 9 11 0.6048 0.0001
4 10 0 0.1643 -0.0117
4 10 1 -0.3916 -0.0038
4 10 2 -0.5816 0.0034
4 10 3 -0.2515 -0.0037
4 10 4 0.2532 -0.0001
4 10 5 0.2532 -0.0002
4 10 6 -0.3016 -0.0025
4 10 7 -0.3411 0.0001
4 10 8 0.5248 0.0027
4 10 9 0.9633 0.0030
4 10 10 0.3758 -0.0004
4 10 11 -0.3330 0.0012
4 11 2 0.0488 -0.0035
4 11 3 -0.0799 0.0020
4 11 4 -0.1208 0.0009
4 11 5 -0.4358 -0.0040
4 11 6 -0.4593 0.0007
4 11 7 -0.0203 0.0014
4 11 8 0.0252 -0.0008
4 11 9 -0.4490 -0.0041
4 11 10 -0.5248 -0.0032
4 12 5 0.4661 0.0076
4 12 6 0.7273 0.0044
5 -9 0 -0.8163 -0.0061
5 -9 1 -0.0508 -0.0019
5 -8 0 0.8986 0.0008
5 -8 1 0.1497 0.0004
5 -8 2 -0.6516 0.0017
5 -8 3 -0.6804 0.0070
5 -7 0 -0.2520 -0.0063
5 -7 1 -0.4510 -0.0017
5 -7 2 1.0448 -0.0026
5 -7 3 1.6654 -0.0019
5 -7 4 1.0545 -0.0011
5 -7 5 0.2029 -0.0032
5 -6 0 -1.3283 0.0132
5 -6 1 0.4249 0.0025
5 -6 2 -1.0498 0.0011
5 -6 3 -2.5945 -0.0013
5 -6 4 -1.8806 -0.0040
5 -6 5 -0.3948 0.0007
5 -6 6 0.3526 0.0068
5 -5 0 3.3065 -0.0108
5 -5 1 0.0604 0.0002
5 -5 2 0.4338 0.0024
5 -5 3 2.7231 0.0003
5 -5 4 2.7636 0.0028
5 -5 5 1.0683 0.0009
5 -5 6 -0.2858 -0.0027
5 -5 7 -0.3819 -0.0005
5 -4 0 -4.7556 0.0037
5 -4 1 -0.7628 -0.0030
5 -4 2 0.4892 -0.0052
5 -4 3 -1.9717 0.0006
5 -4 4 -3.4563 -0.0000
5 -4 5 -2.3760 -0.0002
5 -4 6 -0.3231 0.0001
5 -4 7 0.5912 -0.0008
5 -4 8 0.2826 -0.0063
5 -3 0 5.3568 -0.0026
5 -3 1 1.7467 0.0024
5 -3 2 -1.0123 0.0044
5 -3 3 0.7628 -0.0003
5 -3 4 3.5255 0.0000
5 -3 5 3.7414 -0.0002
5 -3 6 1.4309 -0.0012
5 -3 7 -0.5990 0.0004
5 -3 8 -0.6311 0.0029
5 -3 9 -0.1624 0.0126
5 -2 0 -5.3354 0.0078
5 -2 1 -2.9863 0.0006
5 -2 2 1.0179 -0.0015
5 -2 3 0.8276 0.0007
5 -2 4 -2.5350 -0.0009
5 -2 5 -4.3958 -0.0012
5 -2 6 -2.7475 0.0026
5 -2 7 0.1979 0.0002
5 -2 8 1.0106 0.0005
5 -2 9 0.4541 -0.0043
5 -2 10 0.0311 -0.0107
5 -1 0 4.5809 -0.0117
5 -1 1 3.7955 -0.0027
5 -1 2 -0.9550 -0.0003
5 -1 3 -2.7154 -0.0018
5 -1 4 0.7406 0.0005
5 -1 5 4.2614 0.0024
5 -1 6 4.0321 -0.0026
5 -1 7 0.7573 -0.0014
5 -1 8 -1.1787 -0.0008
5 -1 9 -0.9020 -0.0035
5 -1 10 -0.1678 0.0032
5 0 0 -2.7057 0.0099
5 0 1 -3.5124 0.0018
5 0 2 0.8067 -0.0000
5 0 3 4.0513 0.0019
5 0 4 0.9898 -0.0005
5 0 5 -3.6403 -0.0025
5 0 6 -4.8672 0.0018
5 0 7 -2.0425 0.0029
5 0 8 0.8711 -0.0003
5 0 9 1.2008 0.0029
5 0 10 0.4712 -0.0015
5 1 0 -0.0326 -0.0049
5 1 1 2.2227 0.0016
5 1 2 -0.2334 0.0024
5 1 3 -3.9924 -0.0011
5 1 4 -2.2092 0.0013
5 1 5 2.3807 0.0023
5 1 6 4.5546 -0.0010
5 1 7 2.9295 -0.0025
5 1 8 -0.1919 0.0009
5 1 9 -1.1635 0.0006
5 1 10 -0.6370 0.0045
5 1 11 -0.0775 0.0093
5 2 0 2.5453 -0.0002
5 2 1 -0.4660 -0.0047
5 2 2 -0.4409 -0.0052
5 2 3 2.8127 0.0003
5 2 4 3.0227 -0.0008
5 2 5 -0.3910 -0.0017
5 2 6 -3.0239 0.0010
5 2 7 -2.9340 0.0011
5 2 8 -0.4118 -0.0010
5 2 9 1.0734 -0.0003
5 2 10 0.6498 -0.0025
5 2 11 0.1087 -0.0110
5 3 0 -3.8667 0.0049
5 3 1 -1.1382 0.0059
5 3 2 0.6192 0.0057
5 3 3 -1.4123 -0.0006
5 3 4 -3.2808 -0.0012
5 3 5 -1.4677 0.0007
5 3 6 1.3883 -0.0012
5 3 7 2.5600 -0.0006
5 3 8 0.8247 0.0011
5 3 9 -1.1728 -0.0010
5 3 10 -0.8623 -0.0027
5 3 11 -0.0367 0.0045
5 4 0 3.9870 -0.0072
5 4 1 2.0721 -0.0057
5 4 2 -0.4331 -0.0037
5 4 3 0.3005 0.0023
5 4 4 2.7623 0.0024
5 4 5 2.2746 -0.0008
5 4 6 -0.6444 0.0000
5 4 7 -2.5388 0.0003
5 4 8 -1.3024 -0.0009
5 4 9 1.1834 0.0000
5 4 10 1.3248 0.0030
5 4 11 0.1749 0.0016
5 5 0 -3.4836 0.0047
5 5 1 -2.3290 0.0038
5 5 2 0.2841 0.0020
5 5 3 0.4193 -0.0033
5 5 4 -1.8451 -0.0018
5 5 5 -2.2752 0.0022
5 5 6 0.3710 0.0005
5 5 7 2.6105 -0.0004
5 5 8 1.6930 0.0004
5 5 9 -0.9069 0.0008
5 5 10 -1.6398 0.0004
5 5 11 -0.5615 -0.0011
5 5 12 -0.0002 -0.0009
5 6 0 2.6260 -0.0013
5 6 1 2.3023 -0.0010
5 6 2 -0.0059 -0.0018
5 6 3 -0.7081 0.0015
5 6 4 0.9675 0.0013
5 6 5 2.0576 -0.0025
5 6 6 0.2801 0.0014
5 6 7 -2.0074 0.0030
5 6 8 -1.5229 0.0007
5 6 9 0.6622 0.0000
5 6 10 1.5915 -0.0014
5 6 11 0.8782 -0.0015
5 6 12 0.2673 0.0000
5 7 0 -1.4164 0.0026
5 7 1 -2.0491 0.0009
5 7 2 -0.5967 0.0015
5 7 3 0.5937 0.0011
5 7 4 -0.0882 -0.0021
5 7 5 -1.4586 0.0009
5 7 6 -1.0531 -0.0017
5 7 7 0.8169 -0.0047
5 7 8 0.9464 -0.0012
5 7 9 -0.5556 -0.0005
5 7 10 -1.2972 0.0002
5 7 11 -0.9064 0.0015
5 7 12 -0.3546 0.0013
5 8 0 0.2530 -0.0058
5 8 1 1.3620 -0.0048
5 8 2 1.0856 -0.0005
5 8 3 -0.1927 -0.0015
5 8 4 -0.6141 0.0023
5 8 5 0.4115 0.0014
5 8 6 1.1509 -0.0024
5 8 7 0.1121 0.0003
5 8 8 -0.6139 -0.0008
5 8 9 0.1661 0.0000
5 8 10 0.7778 0.0010
5 8 11 0.6825 -0.0001
5 9 0 0.3010 0.0035
5 9 1 -0.5156 0.0067
5 9 2 -0.9978 0.0003
5 9 3 -0.2613 -0.0003
5 9 4 0.6241 -0.0002
5 9 5 0.3354 -0.0036
5 9 6 -0.5888 0.0032
5 9 7 -0.3388 0.0051
5 9 8 0.6088 0.0037
5 9 9 0.5160 0.0006
5 9 10 -0.0568 -0.0027
5 9 11 -0.3113 -0.0015
5 10 1 0.0545 -0.0032
5 10 2 0.5099 -0.0016
5 10 3 0.4079 0.0022
5 10 4 -0.1240 -0.0020
5 10 5 -0.3412 0.0049
5 10 6 -0.0028 0.0043
5 10 7 0.1266 -0.0020
5 10 8 -0.4608 -0.0031
5 10 9 -0.7865 -0.0014
5 10 10 -0.4567 0.0035
5 11 5 0.1102 -0.0033
5 11 6 0.2932 -0.0115
5 11 7 0.1265 -0.0061
5 11 8 0.0877 -0.0013
6 -8 0 -1.4279 0.0046
6 -8 1 -0.8117 0.0095
6 -8 2 -0.2686 0.0078
6 -7 0 1.6719 -0.0005
6 -7 1 1.7941 -0.0055
6 -7 2 0.7969 -0.0061
6 -7 3 -0.0510 -0.0020
6 -7 4 -0.2761 -0.0070
6 -6 0 -1.2163 -0.0005
6 -6 1 -2.5296 0.0004
6 -6 2 -1.5029 0.0021
6 -6 3 -0.0547 -0.0000
6 -6 4 0.0701 0.0027
6 -6 5 -0.4002 0.0073
6 -5 0 0.1174 -0.0033
6 -5 1 2.5904 0.0002
6 -5 2 2.3123 -0.0007
6 -5 3 0.4860 0.0010
6 -5 4 0.0548 0.0022
6 -5 5 0.7462 -0.0007
6 -5 6 1.0217 -0.0017
6 -4 0 1.1369 0.0052
6 -4 1 -2.0343 0.0007
6 -4 2 -3.0782 0.0007
6 -4 3 -1.3327 0.0002
6 -4 4 -0.0083 -0.0021
6 -4 5 -0.4049 -0.0033
6 -4 6 -1.3586 0.0009
6 -4 7 -1.3704 0.0009
6 -3 0 -1.9527 -0.0027
6 -3 1 0.9667 0.0001
6 -3 2 3.3305 0.0010
6 -3 3 2.3024 0.0003
6 -3 4 0.0452 -0.0006
6 -3 5 -0.4729 0.0022
6 -3 6 1.0051 0.0005
6 -3 7 2.0680 -0.0016
6 -3 8 1.3550 0.0039
6 -2 0 2.0704 0.0009
6 -2 1 0.4632 0.0001
6 -2 2 -2.7820 -0.0018
6 -2 3 -3.1351 -0.0025
6 -2 4 -0.5417 0.0007
6 -2 5 1.2204 0.0008
6 -2 6 -0.0137 -0.0009
6 -2 7 -2.0049 0.0024
6 -2 8 -1.9650 -0.0023
6 -2 9 -0.8553 -0.0059
6 -1 0 -1.4738 -0.0017
6 -1 1 -1.5956 -0.0020
6 -1 2 1.8734 -0.0012
6 -1 3 3.8589 0.0016
6 -1 4 1.5852 0.0005
6 -1 5 -1.3773 -0.0017
6 -1 6 -1.1652 0.0011
6 -1 7 1.2610 -0.0018
6 -1 8 2.2210 -0.0022
6 -1 9 1.4869 0.0041
6 0 0 0.2276 0.0012
6 0 1 1.6793 0.0012
6 0 2 -1.1812 0.0033
6 0 3 -4.3129 0.0016
6 0 4 -2.7910 0.0001
6 0 5 0.9314 0.0005
6 0 6 2.0378 -0.0017
6 0 7 -0.2072 -0.0005
6 0 8 -2.1140 0.0038
6 0 9 -1.9778 0.0007
6 0 10 -0.9026 0.0030
6 1 0 1.2807 0.0016
6 1 1 -0.7810 0.0028
6 1 2 0.7181 -0.0006
6 1 3 4.0226 -0.0014
6 1 4 3.6210 -0.0010
6 1 5 -0.0216 0.0003
6 1 6 -2.2631 0.0017
6 1 7 -0.8566 0.0010
6 1 8 1.5513 -0.0022
6 1 9 2.0452 -0.0019
6 1 10 1.2668 -0.0071
6 2 0 -2.3732 -0.0017
6 2 1 -0.3726 -0.0051
6 2 2 -0.3342 -0.0027
6 2 3 -2.8965 -0.0012
6 2 4 -3.7783 0.0000
6 2 5 -1.1344 -0.0002
6 2 6 1.7680 -0.0011
6 2 7 1.6163 0.0005
6 2 8 -0.7437 0.0015
6 2 9 -1.8127 -0.0006
6 2 10 -1.3978 0.0034
6 3 0 2.7299 -0.0022
6 3 1 1.2717 0.0032
6 3 2 0.1537 0.0031
6 3 3 1.4779 0.0015
6 3 4 3.2137 0.0006
6 3 5 2.0483 -0.0001
6 3 6 -0.8656 0.0010
6 3 7 -1.8316 -0.0003
6 3 8 0.1459 -0.0014
6 3 9 1.7021 0.0014
6 3 10 1.4381 0.0025
6 4 0 -2.6444 0.0038
6 4 1 -1.8708 -0.0009
6 4 2 -0.2200 -0.0030
6 4 3 -0.3187 -0.0007
6 4 4 -2.0960 0.0012
6 4 5 -2.2563 0.0014
6 4 6 0.0321 -0.0004
6 4 7 1.5885 -0.0010
6 4 8 0.1583 -0.0001
6 4 9 -1.6921 -0.0003
6 4 10 -1.5306 -0.0025
6 5 0 2.3627 0.0003
6 5 1 2.2229 0.0020
6 5 2 0.3639 0.0039
6 5 3 -0.4025 0.0019
6 5 4 0.8809 -0.0028
6 5 5 1.8635 -0.0036
6 5 6 0.5581 -0.0005
6 5 7 -1.1039 0.0004
6 5 8 -0.3705 0.0006
6 5 9 1.3891 0.0001
6 5 10 1.5097 -0.0008
6 5 11 0.6313 0.0004
6 6 0 -1.6808 -0.0026
6 6 1 -2.2124 -0.0044
6 6 2 -0.5483 -0.0038
6 6 3 0.6783 -0.0021
6 6 4 0.0060 0.0019
6 6 5 -1.2841 0.0038
6 6 6 -0.9794 -0.0007
6 6 7 0.4550 -0.0002
6 6 8 0.4246 0.0016
6 6 9 -0.8367 -0.0002
6 6 10 -1.2081 0.0011
6 6 11 -0.6109 0.0024
6 7 0 0.6003 -0.0033
6 7 1 1.6687 0.0031
6 7 2 0.7741 0.0030
6 7 3 -0.5569 -0.0014
6 7 4 -0.5359 -0.0004
6 7 5 0.6142 -0.0010
6 7 6 1.1068 0.0027
6 7 7 0.2037 0.0026
6 7 8 -0.1929 -0.0026
6 7 9 0.4494 -0.0008
6 7 10 0.7618 0.0004
6 7 11 0.4797 -0.0011
6 8 0 0.2168 0.0105
6 8 1 -0.7660 0.0016
6 8 2 -0.8404 -0.0051
6 8 3 0.1807 0.0038
6 8 4 0.7676 0.0021
6 8 5 0.1204 -0.0014
6 8 6 -0.7684 -0.0008
6 8 7 -0.5459 -0.0027
6 8 8 -0.0835 0.0003
6 8 9 -0.2815 -0.0001
6 8 10 -0.3779 -0.0011
6 9 0 -0.2730 -0.0086
6 9 1 0.0774 -0.0037
6 9 2 0.6452 0.0097
6 9 3 0.2530 0.0002
6 9 4 -0.5710 -0.0063
6 9 5 -0.5191 0.0004
6 9 6 0.2434 -0.0030
6 9 7 0.4818 -0.0017
6 9 8 0.1503 0.0019
6 9 9 0.1174 0.0033
6 10 3 -0.4941 -0.0076
6 10 5 0.3551 0.0021
6 10 6 0.0184 0.0020
6 10 7 -0.2681 0.0040
6 10 8 -0.1140 -0.0017
7 -8 0 0.1588 0.0091
7 -7 0 -0.3924 -0.0075
7 -7 1 -0.3995 -0.0010
7 -7 2 -0.1759 0.0070
7 -6 0 0.1822 -0.0001
7 -6 1 1.0962 -0.0001
7 -6 2 0.6459 -0.0049
7 -6 3 -0.1783 0.0007
7 -5 0 0.6574 0.0065
7 -5 1 -1.3169 0.0008
7 -5 2 -1.1918 0.0003
7 -5 3 0.1755 -0.0017
7 -5 4 0.6354 -0.0090
7 -5 5 0.1448 -0.0067
7 -4 0 -1.7911 -0.0071
7 -4 1 0.8185 -0.0003
7 -4 2 1.6422 0.0021
7 -4 3 0.2708 -0.0005
7 -4 4 -0.8374 0.0026
7 -4 5 -0.5355 0.0048
7 -4 6 0.2642 -0.0020
7 -3 0 2.5757 0.0048
7 -3 1 0.2710 -0.0006
7 -3 2 -1.6501 -0.0024
7 -3 3 -1.0381 0.0025
7 -3 4 0.6474 0.0035
7 -3 5 1.0726 -0.0006
7 -3 6 -0.0972 0.0033
7 -3 7 -0.9891 0.0062
7 -2 0 -2.6298 -0.0037
7 -2 1 -1.5840 0.0005
7 -2 2 0.9858 0.0021
7 -2 3 1.7009 -0.0009
7 -2 4 -0.0118 -0.0024
7 -2 5 -1.4432 -0.0006
7 -2 6 -0.4977 -0.0023
7 -2 7 0.9931 -0.0056
7 -2 8 0.8554 -0.0004
7 -1 0 2.0143 0.0048
7 -1 1 2.5116 -0.0002
7 -1 2 0.0441 -0.0017
7 -1 3 -1.9732 -0.0003
7 -1 4 -0.7673 -0.0011
7 -1 5 1.5433 -0.0013
7 -1 6 1.3939 0.0001
7 -1 7 -0.3850 0.0019
7 -1 8 -0.8103 -0.0009
7 0 0 -0.9704 -0.0070
7 0 1 -2.5441 -0.0003
7 0 2 -0.8775 0.0013
7 0 3 1.8128 -0.0009
7 0 4 1.3685 0.0005
7 0 5 -1.3017 0.0022
7 0 6 -2.1123 0.0010
7 0 7 -0.3726 0.0011
7 0 8 0.7542 0.0029
7 0 9 0.5777 0.0038
7 1 0 -0.1795 0.0092
7 1 1 1.7860 0.0017
7 1 2 1.2987 -0.0012
7 1 3 -1.2571 0.0010
7 1 4 -1.6970 0.0013
7 1 5 0.5733 -0.0010
7 1 6 2.1751 0.0002
7 1 7 0.9815 0.0005
7 1 8 -0.6605 -0.0025
7 1 9 -0.8723 -0.0043
7 2 0 1.0221 -0.0096
7 2 1 -0.7841 -0.0032
7 2 2 -1.3774 0.0004
7 2 3 0.4664 0.0003
7 2 4 1.7481 0.0001
7 2 5 0.4864 0.0006
7 2 6 -1.5858 -0.0017
7 2 7 -1.4476 -0.0040
7 2 8 0.3028 -0.0011
7 2 9 0.9224 0.0023
7 3 0 -1.3333 0.0074
7 3 1 -0.1115 0.0024
7 3 2 1.1033 0.0004
7 3 3 0.2350 0.0011
7 3 4 -1.4439 -0.0014
7 3 5 -1.2927 -0.0019
7 3 6 0.7775 0.0009
7 3 7 1.6977 0.0034
7 3 8 0.1721 0.0021
7 3 9 -0.8837 0.0007
7 4 0 1.2540 -0.0032
7 4 1 0.8504 -0.0004
7 4 2 -0.5142 0.0001
7 4 3 -0.6138 -0.0036
7 4 4 0.7842 -0.0010
7 4 5 1.3939 0.0028
7 4 6 -0.1211 0.0009
7 4 7 -1.5504 -0.0001
7 4 8 -0.4724 0.0018
7 4 9 0.8952 0.0001
7 5 0 -0.9616 -0.0005
7 5 1 -1.3174 0.0004
7 5 2 -0.1116 -0.0004
7 5 3 0.6924 0.0023
7 5 4 -0.0419 0.0028
7 5 5 -0.9615 -0.0019
7 5 6 -0.3190 -0.0015
7 5 7 1.0323 0.0006
7 5 8 0.6059 -0.0032
7 5 9 -0.7026 -0.0037
7 5 10 -0.7194 0.0009
7 6 0 0.4560 0.0001
7 6 1 1.2881 -0.0021
7 6 2 0.4966 -0.0012
7 6 3 -0.5982 0.0010
7 6 4 -0.4528 -0.0003
7 6 5 0.4633 0.0010
7 6 6 0.5710 0.0022
7 6 7 -0.4243 -0.0031
7 6 8 -0.6500 -0.0023
7 6 9 0.2111 0.0025
7 6 10 0.5875 0.0004
7 7 0 0.1067 0.0049
7 7 1 -0.7604 0.0036
7 7 2 -0.5604 0.0019
7 7 3 0.4373 -0.0007
7 7 4 0.6681 -0.0021
7 7 5 -0.0614 -0.0011
7 7 6 -0.5440 -0.0034
7 7 7 0.0292 0.0012
7 7 8 0.5291 0.0068
7 7 9 0.1640 0.0032
7 8 1 0.1188 -0.0048
7 8 2 0.3709 0.0012
7 8 3 -0.2656 -0.0020
7 8 4 -0.7297 -0.0009
7 8 5 -0.3118 0.0002
7 8 6 0.2120 0.0020
7 8 7 0.0414 0.0024
7 8 8 -0.2785 -0.0039
7 8 9 -0.1342 -0.0045
7 9 5 0.5149 0.0024
7 9 6 0.1379 0.0020
7 9 7 0.0431 -0.0010
8 -6 0 0.6026 -0.0037
8 -6 1 -0.0009 -0.0001
8 -5 0 -1.4787 0.0003
8 -5 1 -0.2022 -0.0026
8 -5 2 0.2098 -0.0007
8 -5 3 -0.3539 0.0057
8 -4 0 2.0037 -0.0012
8 -4 1 0.5610 0.0019
8 -4 2 -0.3870 -0.0012
8 -4 3 0.2045 -0.0068
8 -4 4 0.9004 -0.0109
8 -3 0 -1.9038 0.0031
8 -3 1 -0.9354 0.0001
8 -3 2 0.3622 -0.0008
8 -3 3 0.2021 0.0001
8 -3 4 -0.9408 0.0019
8 -3 5 -1.1390 0.0028
8 -2 0 1.6557 -0.0030
8 -2 1 1.4472 -0.0012
8 -2 2 0.0883 0.0014
8 -2 3 -0.5438 0.0039
8 -2 4 0.4760 0.0026
8 -2 5 1.3980 0.0010
8 -2 6 0.7232 0.0052
8 -1 0 -1.5916 0.0022
8 -1 1 -2.0222 0.0019
8 -1 2 -0.8060 0.0013
8 -1 3 0.6529 -0.0016
8 -1 4 0.2390 -0.0002
8 -1 5 -1.2391 0.0008
8 -1 6 -1.2225 -0.0048
8 -1 7 -0.1987 -0.0079
8 0 0 1.2452 -0.0018
8 0 1 2.1334 -0.0018
8 0 2 1.3361 -0.0029
8 0 3 -0.5533 -0.0005
8 0 4 -0.7827 -0.0008
8 0 5 0.8401 -0.0031
8 0 6 1.5508 0.0009
8 0 7 0.6649 0.0036
8 1 0 -0.2124 0.0015
8 1 1 -1.4688 -0.0001
8 1 2 -1.4474 0.0008
8 1 3 0.2709 -0.0002
8 1 4 0.9423 -0.0019
8 1 5 -0.3158 0.0014
8 1 6 -1.4159 0.0013
8 1 7 -0.8607 0.0001
8 1 8 -0.0846 0.0027
8 2 0 -0.9277 -0.0019
8 2 1 0.4371 0.0008
8 2 2 1.2688 0.0012
8 2 3 0.1572 0.0001
8 2 4 -0.7837 0.0020
8 2 5 -0.2363 0.0012
8 2 6 0.8733 -0.0003
8 2 7 0.8640 -0.0002
8 2 8 0.0738 -0.0027
8 3 0 1.3257 0.0024
8 3 1 0.3608 0.0025
8 3 2 -0.9443 0.0012
8 3 3 -0.5799 0.0009
8 3 4 0.4342 0.0008
8 3 5 0.5702 -0.0007
8 3 6 -0.3416 -0.0012
8 3 7 -0.9054 -0.0003
8 3 8 -0.2577 0.0023
8 3 9 0.1974 0.0015
8 4 0 -1.0035 -0.0022
8 4 1 -0.7606 -0.0052
8 4 2 0.4947 -0.0046
8 4 3 0.8027 -0.0005
8 4 4 0.0087 -0.0007
8 4 5 -0.5027 -0.0014
8 4 6 0.0998 0.0010
8 4 7 0.9630 0.0004
8 4 8 0.5225 -0.0040
8 4 9 -0.1638 -0.0025
8 5 0 0.5644 0.0021
8 5 1 0.8755 0.0013
8 5 2 0.0048 0.0017
8 5 3 -0.7177 -0.0010
8 5 4 -0.3575 -0.0019
8 5 5 0.1920 0.0013
8 5 6 -0.0435 -0.0007
8 5 7 -0.8496 -0.0026
8 5 8 -0.6905 0.0039
8 6 1 -0.7294 0.0054
8 6 2 -0.3748 0.0065
8 6 3 0.3687 0.0015
8 6 4 0.3953 0.0013
8 6 5 0.0139 0.0003
8 6 6 -0.0260 0.0009
8 6 7 0.5392 0.0056
8 7 3 0.0065 -0.0007
8 7 4 -0.1785 0.0027
8 7 5 0.0113 -0.0012
8 7 6 0.1223 -0.0008
8 7 7 -0.2103 -0.0041
9 -3 0 0.6122 -0.0082
9 -3 1 0.6221 -0.0023
9 -3 2 -0.2329 -0.0002
9 -3 3 -0.7732 -0.0048
9 -2 0 -0.2740 0.0033
9 -2 1 -0.6254 -0.0005
9 -2 2 -0.1244 -0.0018
9 -2 3 0.6743 -0.0002
9 -1 0 0.0515 -0.0000
9 -1 1 0.5895 0.0038
9 -1 2 0.4798 0.0027
9 -1 3 -0.3084 0.0011
9 -1 4 -0.5103 -0.0001
9 0 0 0.1446 0.0030
9 0 1 -0.5197 -0.0019
9 0 2 -0.6710 -0.0011
9 0 3 0.0446 0.0005
9 0 4 0.5900 0.0008
9 0 5 0.2470 0.0014
9 1 0 -0.6135 -0.0068
9 1 1 0.2091 -0.0008
9 1 2 0.6627 0.0007
9 1 3 0.0219 -0.0013
9 1 4 -0.5842 0.0002
9 1 5 -0.3968 -0.0011
9 1 6 -0.0587 -0.0016
9 2 0 1.0271 0.0062
9 2 1 0.2246 -0.0002
9 2 2 -0.5431 -0.0029
9 2 3 -0.0461 0.0012
9 2 4 0.4444 -0.0003
9 2 5 0.3226 -0.0008
9 2 6 0.0730 0.0013
9 3 0 -0.8190 -0.0029
9 3 1 -0.4068 0.0010
9 3 2 0.4070 0.0031
9 3 3 0.1469 -0.0011
9 3 4 -0.2049 -0.0013
9 3 5 -0.1156 0.0015
9 3 6 -0.0000 0.0003
9 4 1 0.2935 0.0014
9 4 2 -0.2608 0.0012
9 4 3 -0.2748 0.0009
9 4 4 -0.0365 0.0008
9 4 5 -0.0487 -0.0009
9 4 6 -0.0553 -0.0010
0 0 0 0.0 0.0
;
_iucr_refine_fcf_details
;
data_exp_44
_computing_structure_refinement   'olex2.refine (Bourhis et al., 2015)'
_shelx_refln_list_code            4
loop_
  _space_group_symop_id
  _space_group_symop_operation_xyz
  1  x,y,z
  2  -x,-y,-z

_space_group_crystal_system       triclinic
_space_group_IT_number            2
_space_group_name_H-M_alt         'P -1'
_space_group_name_Hall            '-P 1'
_symmetry_space_group_name_H-M    'P -1'
_symmetry_space_group_name_Hall   '-P 1'
_symmetry_Int_Tables_number       2
_cell_length_a                    7.7110(5)
_cell_length_b                    10.5200(6)
_cell_length_c                    10.5887(6)
_cell_angle_alpha                 64.760(6)
_cell_angle_beta                  79.688(5)
_cell_angle_gamma                 86.397(5)
_cell_volume                      764.32(9)
loop_
  _refln_index_h
  _refln_index_k
  _refln_index_l
  _refln_F_squared_calc
  _refln_F_squared_meas
  _refln_F_squared_sigma
  _refln_F_squared_weight
  _refln_observed_status
-9 -2 1 2.579 1.664 0.408 245.213 o
-9 0 1 1.927 0.657 0.511 260.600 o
-9 0 2 1.375 0.647 0.557 252.896 o
-9 1 1 21.831 21.242 1.026 4.629 o
-9 1 2 1.454 0.309 0.557 257.183 o
-9 2 1 9.547 9.975 0.530 22.678 o
-9 2 2 2.318 2.410 0.597 158.607 o
-9 3 1 7.232 6.970 0.599 38.141 o
-8 -5 1 0.008 -0.052 0.376 646.530 o
-8 -4 1 0.040 0.708 0.530 322.312 o
-8 -4 2 18.337 19.526 1.403 5.720 o
-8 -3 1 4.864 3.443 0.460 93.213 o
-8 -3 2 18.137 14.720 1.505 6.624 o
-8 -2 1 0.689 0.765 0.662 199.792 o
-8 -2 2 14.023 18.877 1.437 7.725 o
-8 -2 3 41.554 30.570 0.997 1.567 o
-8 -1 1 49.100 70.890 2.205 0.694 o
-8 -1 2 49.561 47.424 1.593 0.934 o
-8 -1 3 0.002 1.414 0.449 435.423 o
-8 0 1 0.089 4.612 0.641 178.626 o
-8 0 2 0.256 1.194 0.414 497.184 o
-8 0 3 0.014 0.163 0.462 427.724 o
-8 0 4 32.649 33.138 0.815 2.093 o
-8 1 1 7.422 2.938 0.810 44.415 o
-8 1 2 0.198 -0.010 0.367 677.402 o
-8 1 3 2.401 2.662 0.403 223.144 o
-8 1 4 21.658 19.957 0.633 5.032 o
-8 1 5 0.051 1.680 0.400 527.002 o
-8 2 1 0.417 0.353 0.375 622.900 o
-8 2 2 1.916 0.914 0.367 389.972 o
-8 2 3 1.635 1.235 0.389 379.384 o
-8 2 4 65.785 60.394 1.714 0.549 o
-8 2 5 11.406 10.287 0.707 17.052 o
-8 3 1 59.232 56.591 1.357 0.663 o
-8 3 2 12.449 11.156 0.606 14.900 o
-8 3 3 8.054 5.420 0.471 40.134 o
-8 3 4 46.512 46.843 2.355 0.990 o
-8 3 5 1.120 1.718 0.443 343.785 o
-8 4 1 34.920 31.778 1.060 1.947 o
-8 4 2 17.276 16.640 0.692 7.549 o
-8 4 3 10.650 10.062 0.525 19.700 o
-8 4 4 21.258 22.901 0.783 4.663 o
-8 5 1 0.003 0.114 0.487 385.352 o
-8 5 2 41.376 42.644 1.407 1.274 o
-8 5 3 32.647 31.380 1.051 2.147 o
-8 6 1 1.068 0.765 0.359 551.199 o
-8 6 2 0.054 0.217 0.227 1753.930 o
-7 -7 1 0.027 0.139 0.250 1464.100 o
-7 -6 1 19.062 22.567 1.204 5.137 o
-7 -6 2 0.320 0.655 0.277 1084.890 o
-7 -5 1 6.055 5.585 0.840 43.657 o
-7 -5 2 2.681 2.240 0.601 148.018 o
-7 -5 3 10.926 9.529 0.863 17.877 o
-7 -4 1 21.851 23.827 1.469 4.082 o
-7 -4 2 21.932 25.713 1.102 4.028 o
-7 -4 3 1.689 2.191 0.561 202.207 o
-7 -4 4 29.378 31.619 1.259 2.416 o
-7 -3 1 0.646 0.486 0.453 417.452 o
-7 -3 2 121.792 123.946 4.428 0.148 o
-7 -3 3 45.364 46.684 1.237 1.071 o
-7 -3 4 0.943 1.002 0.326 638.435 o
-7 -2 1 34.040 30.755 1.277 2.032 o
-7 -2 2 61.142 65.643 1.809 0.571 o
-7 -2 3 173.132 185.097 3.510 0.072 o
-7 -2 4 2.572 3.371 0.298 222.871 o
-7 -2 5 0.003 1.546 0.625 228.329 o
-7 -1 1 346.686 378.868 8.608 0.018 o
-7 -1 2 43.581 37.428 0.904 1.311 o
-7 -1 3 0.927 1.464 0.423 402.133 o
-7 -1 4 8.328 7.593 1.351 20.629 o
-7 -1 5 0.964 1.887 0.605 212.353 o
-7 0 1 71.632 70.615 3.461 0.425 o
-7 0 2 29.809 25.441 0.885 2.779 o
-7 0 3 3.938 5.210 0.437 96.152 o
-7 0 4 12.590 14.617 0.605 12.363 o
-7 0 5 5.477 4.610 0.579 64.848 o
-7 0 6 1.808 0.969 0.337 442.882 o
-7 1 1 0.107 -0.078 0.406 556.008 o
-7 1 2 21.575 29.720 0.949 3.736 o
-7 1 3 31.951 26.964 0.880 2.443 o
-7 1 4 3.966 1.984 0.413 150.675 o
-7 1 5 13.025 10.462 0.949 13.411 o
-7 1 6 0.524 1.720 0.518 302.965 o
-7 2 1 49.098 48.836 1.196 0.939 o
-7 2 2 9.689 8.694 0.595 23.738 o
-7 2 3 32.292 29.186 1.054 2.278 o
-7 2 4 99.230 103.172 2.818 0.222 o
-7 2 5 0.034 0.781 0.419 511.601 o
-7 2 6 21.297 24.006 1.482 4.178 o
-7 2 7 24.831 19.993 0.990 4.061 o
-7 3 1 0.026 1.050 0.461 419.394 o
-7 3 2 0.758 0.620 0.414 477.985 o
-7 3 3 3.982 5.443 0.508 86.588 o
-7 3 4 26.608 25.266 0.814 3.265 o
-7 3 5 15.902 10.692 0.521 11.033 o
-7 3 6 20.118 20.107 1.254 5.156 o
-7 3 7 13.467 8.630 0.509 15.569 o
-7 4 1 65.666 60.874 1.515 0.550 o
-7 4 2 3.864 3.364 0.445 122.953 o
-7 4 3 11.753 14.228 0.623 13.629 o
-7 4 4 8.715 7.788 0.622 28.488 o
-7 4 5 0.521 0.133 0.408 531.499 o
-7 4 6 10.896 9.412 0.497 20.009 o
-7 5 1 14.340 16.113 0.806 9.568 o
-7 5 2 1.560 0.695 0.601 214.848 o
-7 5 3 0.000 0.308 0.485 388.252 o
-7 5 4 0.940 0.464 0.434 430.418 o
-7 5 5 6.337 8.710 0.963 30.934 o
-7 5 6 0.861 0.984 0.356 574.894 o
-7 6 1 70.709 78.540 3.002 0.409 o
-7 6 2 5.900 6.479 0.512 52.403 o
-7 6 3 8.557 9.334 0.567 26.681 o
-7 6 4 1.033 1.423 0.394 437.522 o
-7 6 5 3.281 2.164 0.619 126.921 o
-7 6 6 9.645 6.614 0.703 26.335 o
-7 7 1 3.422 2.141 0.449 163.253 o
-7 7 2 3.006 4.454 0.505 123.480 o
-7 7 3 1.481 1.561 0.333 453.704 o
-7 7 4 0.007 0.257 0.286 1112.770 o
-7 7 5 3.392 3.821 0.694 93.251 o
-7 8 1 5.981 5.834 0.695 48.417 o
-7 8 2 0.009 0.089 0.377 643.244 o
-7 8 3 0.261 0.188 0.400 563.742 o
-7 8 4 4.705 4.083 0.496 86.762 o
-6 -8 1 0.393 0.551 0.277 1079.580 o
-6 -7 1 12.571 15.565 1.064 10.773 o
-6 -7 2 2.016 2.136 0.361 305.523 o
-6 -6 1 35.186 37.514 1.865 1.658 o
-6 -6 2 17.389 14.931 1.057 7.566 o
-6 -6 3 4.279 3.910 0.419 105.656 o
-6 -5 1 56.542 66.215 2.827 0.607 o
-6 -5 2 0.063 0.462 0.599 254.271 o
-6 -5 3 10.897 10.529 0.916 16.696 o
-6 -5 4 2.185 2.403 0.451 224.675 o
-6 -4 1 23.026 17.812 1.462 4.517 o
-6 -4 2 9.161 7.421 0.666 27.012 o
-6 -4 3 24.909 29.226 1.609 3.016 o
-6 -4 4 23.911 25.203 0.945 3.722 o
-6 -4 5 0.591 2.150 0.521 285.652 o
-6 -3 1 90.053 90.512 2.107 0.277 o
-6 -3 2 3.939 4.169 0.454 107.539 o
-6 -3 3 38.055 46.758 1.380 1.327 o
-6 -3 4 0.112 0.303 0.444 461.701 o
-6 -3 5 3.085 3.256 0.525 136.522 o
-6 -3 6 15.105 13.989 0.741 9.917 o
-6 -2 1 29.619 27.474 0.902 2.674 o
-6 -2 2 45.637 48.509 1.228 1.036 o
-6 -2 3 56.553 66.446 1.810 0.625 o
-6 -2 4 6.206 6.281 0.601 47.814 o
-6 -2 5 4.729 6.582 0.543 63.624 o
-6 -2 6 3.080 2.510 0.425 177.765 o
-6 -1 1 192.991 201.247 3.349 0.059 o
-6 -1 2 253.803 242.299 3.433 0.036 o
-6 -1 3 115.188 120.119 2.322 0.166 o
-6 -1 4 9.775 9.821 0.698 21.186 o
-6 -1 5 9.302 6.423 0.466 30.509 o
-6 -1 6 18.604 19.528 1.845 5.169 o
-6 0 1 19.880 21.157 1.340 5.006 o
-6 0 2 705.432 727.544 10.886 0.004 o
-6 0 3 0.460 0.724 0.390 558.530 o
-6 0 4 39.619 39.282 1.064 1.440 o
-6 0 5 21.629 21.280 0.743 4.802 o
-6 0 6 1.204 1.287 0.546 255.236 o
-6 0 7 22.601 19.506 1.041 4.649 o
-6 1 1 410.282 365.067 5.914 0.015 o
-6 1 2 15.695 17.302 0.704 8.297 o
-6 1 3 123.721 128.192 3.299 0.143 o
-6 1 4 28.683 36.073 0.939 2.307 o
-6 1 5 0.007 0.322 0.415 528.918 o
-6 1 6 65.055 64.656 1.599 0.535 o
-6 1 7 26.647 23.664 1.303 3.267 o
-6 1 8 7.926 4.228 0.639 41.605 o
-6 2 1 409.624 425.496 6.144 0.013 o
-6 2 2 2.208 1.463 0.410 284.815 o
-6 2 3 54.308 53.477 1.525 0.769 o
-6 2 4 1.391 0.461 0.443 376.087 o
-6 2 5 33.547 21.272 1.014 2.562 o
-6 2 6 0.122 0.301 0.441 468.442 o
-6 2 7 1.105 0.758 0.681 181.834 o
-6 2 8 0.095 1.801 0.389 541.971 o
-6 3 1 92.295 87.194 2.674 0.273 o
-6 3 2 89.738 82.883 2.232 0.294 o
-6 3 3 8.309 9.188 0.604 27.533 o
-6 3 4 53.861 72.891 1.436 0.623 o
-6 3 5 1.264 2.938 0.473 257.032 o
-6 3 6 9.561 9.746 1.346 16.596 o
-6 3 7 17.181 18.499 1.566 6.156 o
-6 3 8 9.135 8.071 0.556 26.979 o
-6 4 1 57.113 50.446 1.665 0.743 o
-6 4 2 17.450 17.629 0.829 7.068 o
-6 4 3 39.332 38.651 1.214 1.461 o
-6 4 4 17.947 19.412 0.802 6.430 o
-6 4 5 0.006 0.871 0.427 493.615 o
-6 4 6 29.887 27.001 1.143 2.633 o
-6 4 7 0.117 -0.118 0.525 332.016 o
-6 4 8 1.190 1.957 0.616 197.779 o
-6 5 1 2.029 4.864 0.988 68.855 o
-6 5 2 98.360 92.662 2.055 0.243 o
-6 5 3 2.918 3.844 0.509 135.541 o
-6 5 4 137.612 119.353 2.247 0.131 o
-6 5 5 28.485 22.506 0.762 3.195 o
-6 5 6 44.781 43.862 1.427 1.128 o
-6 5 7 8.287 7.702 0.932 26.249 o
-6 5 8 12.293 9.919 0.561 16.331 o
-6 6 1 96.871 90.710 2.552 0.250 o
-6 6 2 0.107 0.276 0.435 481.102 o
-6 6 3 8.944 9.373 0.992 21.360 o
-6 6 4 8.443 13.477 0.662 20.183 o
-6 6 5 21.288 18.446 0.645 5.396 o
-6 6 6 7.570 5.754 0.550 40.817 o
-6 6 7 0.030 0.475 0.673 201.449 o
-6 6 8 31.488 35.856 1.486 2.007 o
-6 7 1 9.010 9.048 1.353 17.997 o
-6 7 2 1.331 2.350 0.452 289.973 o
-6 7 3 5.600 5.324 0.491 62.944 o
-6 7 4 3.393 3.856 0.418 135.088 o
-6 7 5 0.348 0.422 0.428 484.491 o
-6 7 6 9.845 11.785 0.688 18.772 o
-6 7 7 3.887 4.571 0.670 81.245 o
-6 8 1 6.394 11.239 1.058 24.838 o
-6 8 2 17.349 20.092 1.712 5.626 o
-6 8 3 0.898 2.357 0.770 136.610 o
-6 8 4 9.387 10.511 0.972 19.242 o
-6 8 5 2.450 1.235 0.476 232.278 o
-6 8 6 9.284 11.699 0.906 18.714 o
-6 8 7 4.027 3.831 0.501 104.175 o
-6 9 1 0.292 -0.080 0.532 322.025 o
-6 9 2 0.116 1.106 0.583 262.907 o
-6 9 3 0.049 0.309 0.530 324.983 o
-6 9 4 0.569 1.160 0.546 285.092 o
-5 -9 1 0.907 1.189 0.436 397.608 o
-5 -8 1 37.097 44.523 2.066 1.368 o
-5 -8 2 28.222 32.914 2.812 2.110 o
-5 -7 1 16.684 18.742 1.307 6.646 o
-5 -7 2 3.341 4.130 0.546 111.905 o
-5 -7 3 15.283 21.659 1.116 6.849 o
-5 -7 4 19.844 26.287 1.076 4.465 o
-5 -6 1 16.731 17.407 1.346 6.877 o
-5 -6 2 0.816 0.797 0.767 148.947 o
-5 -6 3 11.464 12.721 0.735 14.792 o
-5 -6 4 6.011 4.678 0.431 64.246 o
-5 -6 5 2.335 1.824 0.390 269.822 o
-5 -5 1 3.336 2.502 0.661 112.834 o
-5 -5 2 17.197 15.761 1.001 7.515 o
-5 -5 3 10.194 9.894 1.028 17.839 o
-5 -5 4 23.198 23.713 0.965 4.019 o
-5 -5 5 1.458 1.724 0.607 197.127 o
-5 -4 1 17.437 15.505 1.213 7.179 o
-5 -4 2 22.377 19.903 1.044 4.654 o
-5 -4 3 9.108 9.031 0.708 24.088 o
-5 -4 4 18.591 21.647 1.059 5.547 o
-5 -4 5 52.893 56.250 2.386 0.748 o
-5 -4 6 15.048 18.285 1.028 7.989 o
-5 -3 1 120.659 127.603 1.899 0.150 o
-5 -3 2 0.286 0.237 0.397 569.511 o
-5 -3 3 5.078 6.269 0.884 46.214 o
-5 -3 4 1.291 1.589 0.523 261.014 o
-5 -3 5 4.013 7.814 1.119 38.669 o
-5 -3 6 15.268 18.621 0.957 7.854 o
-5 -3 7 6.484 3.693 0.495 61.902 o
-5 -2 1 58.613 53.816 1.192 0.696 o
-5 -2 2 90.883 78.333 1.358 0.303 o
-5 -2 3 4.316 4.522 0.471 92.396 o
-5 -2 4 14.533 15.085 0.831 9.787 o
-5 -2 5 20.575 22.059 1.093 4.830 o
-5 -2 6 44.201 48.911 1.631 1.059 o
-5 -2 7 3.421 4.556 1.173 46.884 o
-5 -1 1 82.016 95.355 1.862 0.303 o
-5 -1 2 6.782 10.718 0.520 31.666 o
-5 -1 3 31.024 32.661 1.083 2.231 o
-5 -1 4 61.719 59.194 1.323 0.610 o
-5 -1 5 39.250 41.447 1.270 1.396 o
-5 -1 6 0.004 -0.104 0.431 493.688 o
-5 -1 7 0.376 0.511 0.338 755.926 o
-5 0 1 0.260 2.411 0.735 158.238 o
-5 0 2 1.151 0.792 0.395 461.043 o
-5 0 3 164.088 171.054 2.539 0.082 o
-5 0 4 4.204 5.572 0.446 85.788 o
-5 0 5 63.131 59.180 1.366 0.592 o
-5 0 6 47.435 47.695 1.276 0.996 o
-5 0 7 0.014 0.437 0.869 121.211 o
-5 0 8 20.514 17.706 1.014 5.596 o
-5 1 1 181.178 199.846 3.740 0.065 o
-5 1 2 13.467 12.722 0.658 12.334 o
-5 1 3 3.719 6.547 0.574 76.402 o
-5 1 4 257.544 196.379 2.887 0.041 o
-5 1 5 11.450 11.127 0.630 16.515 o
-5 1 6 9.676 11.004 0.812 19.253 o
-5 1 7 99.123 117.434 3.103 0.202 o
-5 1 8 23.239 20.897 1.147 4.260 o
-5 1 9 9.457 10.728 0.784 20.256 o
-5 2 1 47.489 54.300 1.355 0.908 o
-5 2 2 24.827 27.480 0.962 3.345 o
-5 2 3 61.880 75.617 1.382 0.513 o
-5 2 4 2.495 7.609 0.608 85.183 o
-5 2 5 13.734 14.168 0.595 11.360 o
-5 2 6 79.021 79.309 2.357 0.358 o
-5 2 7 64.392 66.143 2.062 0.529 o
-5 2 8 17.178 18.453 0.938 6.896 o
-5 2 9 1.638 3.853 0.441 217.548 o
-5 3 1 28.535 34.826 0.851 2.393 o
-5 3 2 150.794 164.464 2.757 0.094 o
-5 3 3 31.357 27.738 0.991 2.451 o
-5 3 4 3.942 6.025 0.508 81.887 o
-5 3 5 17.419 12.693 0.634 8.767 o
-5 3 6 30.590 29.271 0.926 2.460 o
-5 3 7 13.498 16.659 0.939 9.790 o
-5 3 8 2.327 1.460 0.566 188.282 o
-5 3 9 4.368 4.007 0.494 94.760 o
-5 4 1 0.044 0.250 0.351 739.348 o
-5 4 2 289.373 286.678 3.783 0.027 o
-5 4 3 61.279 65.960 1.238 0.574 o
-5 4 4 15.564 18.430 0.846 7.870 o
-5 4 5 12.231 7.314 0.861 17.508 o
-5 4 6 3.574 1.188 0.439 182.535 o
-5 4 7 2.462 1.135 0.446 252.928 o
-5 4 8 31.263 30.959 1.740 2.186 o
-5 4 9 17.092 11.526 0.914 9.044 o
-5 5 1 6.275 6.644 0.691 43.297 o
-5 5 2 11.702 10.607 0.514 16.936 o
-5 5 3 1.603 1.545 0.331 436.133 o
-5 5 4 7.552 11.450 0.560 26.554 o
-5 5 5 53.124 49.080 1.377 0.839 o
-5 5 6 1.104 1.767 0.446 340.627 o
-5 5 7 16.030 20.442 0.850 7.056 o
-5 5 8 3.014 1.992 0.452 186.739 o
-5 5 9 10.698 8.825 0.557 20.950 o
-5 6 1 0.126 0.491 0.587 263.417 o
-5 6 2 69.879 62.834 1.637 0.495 o
-5 6 3 19.289 22.603 1.146 5.100 o
-5 6 4 0.159 0.967 0.380 604.722 o
-5 6 5 101.848 93.231 2.381 0.230 o
-5 6 6 25.249 27.833 0.974 3.244 o
-5 6 7 1.229 3.185 0.415 292.164 o
-5 6 8 0.881 0.290 0.370 587.108 o
-5 6 9 21.865 22.866 0.797 4.499 o
-5 7 1 0.850 0.604 0.467 378.847 o
-5 7 2 2.973 4.102 0.541 123.562 o
-5 7 3 29.782 21.346 0.847 3.071 o
-5 7 4 30.500 21.488 0.631 2.988 o
-5 7 5 32.907 34.335 1.129 1.997 o
-5 7 6 33.708 29.295 1.191 2.130 o
-5 7 7 0.190 1.273 0.446 434.663 o
-5 7 8 1.606 0.949 0.319 512.945 o
-5 8 1 10.448 11.495 0.721 17.661 o
-5 8 2 4.173 4.882 0.743 68.842 o
-5 8 3 3.389 3.719 0.472 128.445 o
-5 8 4 2.606 1.430 0.337 295.858 o
-5 8 5 2.630 3.421 0.435 174.751 o
-5 8 6 22.513 22.085 2.478 3.500 o
-5 8 7 43.841 40.780 1.871 1.191 o
-5 8 8 6.337 9.877 0.748 32.457 o
-5 9 2 34.149 37.170 1.330 1.788 o
-5 9 3 0.151 0.910 0.468 405.323 o
-5 9 4 1.952 2.349 0.396 276.883 o
-5 9 5 10.195 11.126 0.884 17.619 o
-5 9 6 1.285 2.116 0.681 163.067 o
-5 9 7 16.234 15.632 0.964 8.165 o
-5 10 1 33.303 32.324 1.449 2.008 o
-5 10 2 7.205 12.001 0.630 26.175 o
-5 10 3 0.412 0.118 0.529 322.107 o
-5 10 4 0.002 0.127 0.301 1006.610 o
-5 10 6 8.934 6.332 0.620 30.642 o
-4 -10 1 2.440 1.996 0.787 110.309 o
-4 -9 1 6.062 6.112 0.799 43.266 o
-4 -9 2 0.319 0.470 0.342 747.398 o
-4 -8 1 52.359 55.658 3.828 0.710 o
-4 -8 2 1.346 1.000 0.418 389.436 o
-4 -8 3 5.122 7.546 0.450 56.879 o
-4 -7 1 6.897 10.644 1.182 22.591 o
-4 -7 2 9.196 9.897 1.068 19.486 o
-4 -7 3 7.744 7.151 0.598 34.736 o
-4 -7 4 5.551 6.379 0.603 53.183 o
-4 -7 5 9.797 5.378 0.596 29.281 o
-4 -6 1 11.685 11.967 2.344 8.288 o
-4 -6 2 1.684 1.787 0.834 112.422 o
-4 -6 3 1.530 3.307 0.791 113.710 o
-4 -6 4 1.295 1.900 0.473 291.946 o
-4 -6 5 11.517 11.833 0.601 15.883 o
-4 -6 6 0.692 0.993 0.343 641.403 o
-4 -5 1 26.941 29.500 1.019 2.866 o
-4 -5 2 5.264 6.372 0.632 54.852 o
-4 -5 3 30.986 34.098 1.421 2.127 o
-4 -5 4 61.245 68.067 1.990 0.554 o
-4 -5 5 17.281 17.062 1.223 6.862 o
-4 -5 6 8.923 8.361 1.835 14.257 o
-4 -4 1 0.134 0.893 0.666 203.365 o
-4 -4 2 19.108 22.667 0.891 5.302 o
-4 -4 3 0.560 0.710 0.498 347.953 o
-4 -4 4 89.710 105.482 2.909 0.248 o
-4 -4 5 9.743 9.303 1.368 16.483 o
-4 -4 6 51.628 50.789 1.583 0.848 o
-4 -4 7 12.932 18.502 1.022 9.348 o
-4 -3 1 84.672 88.216 2.058 0.306 o
-4 -3 2 98.361 88.668 1.630 0.251 o
-4 -3 3 61.926 56.108 1.921 0.620 o
-4 -3 4 50.969 62.113 1.638 0.749 o
-4 -3 5 143.128 136.938 3.637 0.113 o
-4 -3 6 47.860 54.514 2.305 0.867 o
-4 -3 7 1.253 0.819 0.620 211.417 o
-4 -3 8 17.739 17.699 0.884 6.857 o
-4 -2 1 9.625 19.822 0.846 12.204 o
-4 -2 2 96.039 87.008 2.098 0.261 o
-4 -2 3 18.096 19.833 0.686 6.348 o
-4 -2 4 83.142 88.060 2.059 0.314 o
-4 -2 5 346.858 370.903 27.828 0.016 o
-4 -2 6 1.488 1.571 0.643 180.982 o
-4 -2 7 16.798 17.527 0.936 7.328 o
-4 -2 8 0.002 0.762 0.495 370.262 o
-4 -1 1 429.957 439.420 8.999 0.012 o
-4 -1 2 61.784 78.636 1.945 0.494 o
-4 -1 3 9.086 8.075 0.584 26.903 o
-4 -1 4 203.182 203.220 3.756 0.055 o
-4 -1 5 226.578 265.596 8.651 0.039 o
-4 -1 6 18.802 20.271 0.858 5.860 o
-4 -1 7 4.469 5.286 0.516 78.534 o
-4 -1 8 2.181 1.219 0.455 265.284 o
-4 0 1 271.633 246.572 9.283 0.032 o
-4 0 2 3.644 4.786 0.494 102.642 o
-4 0 3 46.335 50.363 1.500 0.983 o
-4 0 4 69.145 61.139 1.197 0.514 o
-4 0 5 0.458 1.045 0.487 359.425 o
-4 0 6 9.402 12.308 0.691 19.151 o
-4 0 7 5.565 5.795 0.538 58.605 o
-4 0 8 0.618 0.327 0.364 637.451 o
-4 0 9 10.582 9.876 0.957 17.611 o
-4 1 1 4.784 4.076 0.569 79.554 o
-4 1 2 26.950 25.075 0.978 3.192 o
-4 1 3 58.981 63.205 2.832 0.595 o
-4 1 4 240.080 238.577 3.155 0.040 o
-4 1 5 3.972 4.986 0.538 88.641 o
-4 1 6 93.097 73.270 1.513 0.304 o
-4 1 7 0.388 1.153 0.652 207.100 o
-4 1 8 8.546 9.300 0.992 22.434 o
-4 1 9 10.870 11.782 0.519 17.392 o
-4 2 1 0.030 2.428 0.529 297.960 o
-4 2 2 247.190 285.705 4.632 0.034 o
-4 2 3 31.573 32.328 1.182 2.184 o
-4 2 4 135.970 126.338 2.822 0.128 o
-4 2 5 52.680 52.614 1.178 0.815 o
-4 2 6 34.231 24.197 0.676 2.371 o
-4 2 7 0.198 1.854 0.435 432.639 o
-4 2 8 7.100 4.406 0.494 51.365 o
-4 2 9 42.911 34.639 1.062 1.395 o
-4 3 1 259.991 257.799 4.641 0.034 o
-4 3 2 28.550 25.876 0.994 2.898 o
-4 3 3 82.728 62.532 1.705 0.391 o
-4 3 4 5.604 3.673 0.370 81.683 o
-4 3 5 230.930 239.446 2.869 0.042 o
-4 3 6 219.606 228.795 3.432 0.046 o
-4 3 7 63.858 57.687 1.102 0.594 o
-4 3 8 4.518 4.066 0.453 94.588 o
-4 3 9 6.225 4.201 0.447 63.929 o
-4 3 10 1.003 2.304 0.415 359.640 o
-4 4 1 0.061 0.530 0.383 616.340 o
-4 4 2 271.641 276.881 4.994 0.030 o
-4 4 3 20.471 23.934 0.711 4.765 o
-4 4 4 91.614 73.041 1.250 0.312 o
-4 4 5 146.903 143.159 2.159 0.107 o
-4 4 6 12.502 20.556 0.678 9.452 o
-4 4 7 7.047 10.980 0.470 30.358 o
-4 4 8 15.995 22.459 0.879 6.562 o
-4 4 9 1.434 3.720 0.456 228.355 o
-4 4 10 0.400 1.820 0.380 524.310 o
-4 5 1 279.670 279.684 8.227 0.029 o
-4 5 2 50.660 59.749 1.269 0.783 o
-4 5 3 4.291 3.045 0.344 127.346 o
-4 5 4 50.177 61.500 1.476 0.772 o
-4 5 5 0.369 1.124 0.470 388.018 o
-4 5 6 6.654 16.572 0.569 21.327 o
-4 5 7 0.535 1.271 0.347 631.537 o
-4 5 8 17.261 20.633 0.733 6.512 o
-4 5 9 41.939 39.981 0.958 1.325 o
-4 5 10 2.417 2.574 0.656 135.704 o
-4 6 1 54.035 52.736 1.341 0.784 o
-4 6 2 465.580 443.357 8.511 0.011 o
-4 6 3 0.423 1.799 0.437 412.702 o
-4 6 4 7.814 4.705 0.475 44.386 o
-4 6 5 5.412 3.867 0.486 76.564 o
-4 6 6 36.228 26.211 0.823 2.083 o
-4 6 7 0.309 0.382 0.422 502.665 o
-4 6 8 19.894 19.599 0.837 5.590 o
-4 6 9 53.911 53.556 1.437 0.777 o
-4 6 10 8.633 16.468 1.154 14.326 o
-4 7 1 12.026 15.893 1.154 10.869 o
-4 7 2 160.747 175.139 4.371 0.082 o
-4 7 3 21.781 20.805 0.957 4.736 o
-4 7 4 233.007 194.932 4.363 0.047 o
-4 7 5 44.094 39.137 1.315 1.241 o
-4 7 6 21.910 15.438 1.607 5.033 o
-4 7 7 0.000 1.058 0.387 590.913 o
-4 7 8 18.627 15.025 0.788 7.170 o
-4 7 9 23.538 26.666 0.811 3.688 o
-4 7 10 73.081 69.063 2.590 0.431 o
-4 8 1 0.006 1.608 0.563 278.353 o
-4 8 2 60.546 69.772 1.737 0.555 o
-4 8 3 18.058 16.722 0.952 6.876 o
-4 8 4 132.910 137.573 2.854 0.125 o
-4 8 5 0.250 0.606 0.417 510.916 o
-4 8 6 0.190 0.058 0.439 472.384 o
-4 8 7 12.448 12.673 0.621 13.749 o
-4 8 8 0.855 4.597 0.870 98.140 o
-4 8 9 2.080 4.307 0.754 103.257 o
-4 9 1 8.011 11.072 0.626 25.054 o
-4 9 2 1.361 1.578 0.424 349.713 o
-4 9 3 73.630 61.832 1.544 0.465 o
-4 9 4 97.665 109.310 2.323 0.219 o
-4 9 5 37.719 35.973 1.047 1.627 o
-4 9 6 13.248 17.679 1.172 9.112 o
-4 9 7 5.203 3.536 0.404 89.118 o
-4 9 8 4.892 1.092 0.387 135.460 o
-4 9 9 94.570 81.930 2.842 0.274 o
-4 10 1 2.825 4.208 0.761 90.561 o
-4 10 2 4.238 4.901 0.760 66.693 o
-4 10 3 22.702 20.156 1.338 4.382 o
-4 10 4 24.814 24.776 1.461 3.424 o
-4 10 5 1.298 1.420 0.432 354.789 o
-4 10 6 4.831 6.557 0.734 53.585 o
-4 10 7 0.350 0.899 0.338 729.600 o
-4 11 1 10.196 18.984 0.946 11.759 o
-4 11 2 19.593 23.233 1.169 4.900 o
-4 11 3 19.248 21.013 1.782 4.840 o
-4 11 4 2.449 3.161 0.394 206.265 o
-4 11 5 2.378 2.325 0.347 266.724 o
-4 11 6 0.278 0.888 0.400 540.838 o
-3 -10 1 0.025 0.001 0.475 404.886 o
-3 -10 2 2.456 2.323 0.787 107.514 o
-3 -9 1 6.219 5.914 0.880 40.313 o
-3 -9 2 21.485 26.700 1.015 4.050 o
-3 -9 3 0.004 0.101 0.526 330.381 o
-3 -8 1 0.001 -0.221 0.489 382.621 o
-3 -8 2 3.061 4.001 1.034 60.016 o
-3 -8 3 0.257 0.376 0.331 811.087 o
-3 -8 4 34.402 28.630 0.934 2.126 o
-3 -7 1 19.976 19.702 2.117 4.510 o
-3 -7 2 113.366 122.466 3.146 0.166 o
-3 -7 3 0.912 0.967 0.485 339.017 o
-3 -7 4 27.046 23.775 0.906 3.297 o
-3 -7 5 16.640 17.998 0.676 7.539 o
-3 -6 1 14.882 11.981 1.010 10.445 o
-3 -6 2 56.401 59.973 7.080 0.501 o
-3 -6 3 95.673 115.810 3.040 0.214 o
-3 -6 4 7.409 5.961 0.617 39.796 o
-3 -6 5 15.849 16.056 0.801 8.495 o
-3 -6 6 2.801 3.903 0.452 151.043 o
-3 -5 1 0.709 0.541 0.426 461.861 o
-3 -5 2 0.724 0.695 0.471 377.498 o
-3 -5 3 2.268 1.300 0.578 188.513 o
-3 -5 4 0.002 0.170 0.544 309.742 o
-3 -5 5 8.493 6.226 0.949 27.775 o
-3 -5 6 4.207 5.200 0.545 81.706 o
-3 -5 7 12.015 11.600 2.132 8.986 o
-3 -4 1 2.551 2.288 1.461 38.529 o
-3 -4 2 150.951 138.336 2.654 0.105 o
-3 -4 3 6.495 10.536 0.646 31.820 o
-3 -4 4 54.192 66.700 2.460 0.643 o
-3 -4 5 34.412 35.440 1.968 1.754 o
-3 -4 6 0.273 0.512 0.634 225.241 o
-3 -4 7 4.525 3.791 0.812 65.763 o
-3 -4 8 19.960 16.799 0.904 6.057 o
-3 -3 1 160.364 181.501 3.331 0.081 o
-3 -3 2 261.482 254.461 4.491 0.034 o
-3 -3 3 16.728 20.332 0.974 6.631 o
-3 -3 4 3.985 3.689 0.517 105.077 o
-3 -3 5 3.019 4.881 0.968 62.369 o
-3 -3 6 15.014 11.991 0.941 10.484 o
-3 -3 7 18.882 17.351 0.915 6.385 o
-3 -3 8 66.811 74.789 2.768 0.456 o
-3 -2 1 15.396 11.912 0.642 10.749 o
-3 -2 2 1100.420 1078.000 19.148 0.002 o
-3 -2 3 140.148 143.390 3.876 0.113 o
-3 -2 4 301.977 308.475 8.380 0.024 o
-3 -2 5 123.850 118.018 4.593 0.149 o
-3 -2 6 76.342 81.984 2.456 0.365 o
-3 -2 7 2.758 3.181 0.520 150.892 o
-3 -2 8 39.430 44.789 2.000 1.272 o
-3 -2 9 1.670 0.534 0.442 349.603 o
-3 -1 1 83.832 106.193 2.416 0.270 o
-3 -1 2 185.143 191.528 4.034 0.065 o
-3 -1 3 82.208 90.465 2.277 0.311 o
-3 -1 4 241.343 216.070 6.988 0.041 o
-3 -1 5 61.682 64.846 1.781 0.570 o
-3 -1 6 88.645 90.195 2.655 0.282 o
-3 -1 7 38.008 38.836 1.489 1.505 o
-3 -1 8 111.076 129.608 3.307 0.163 o
-3 -1 9 17.666 20.316 1.117 6.098 o
-3 0 1 8.064 11.635 1.484 16.263 o
-3 0 2 61.503 63.743 1.885 0.577 o
-3 0 3 47.534 59.403 1.701 0.840 o
-3 0 4 779.911 828.191 24.939 0.004 o
-3 0 5 0.002 1.308 0.310 883.163 o
-3 0 6 1.080 1.477 0.475 322.382 o
-3 0 7 41.928 39.548 1.031 1.332 o
-3 0 8 2.780 2.717 0.457 178.465 o
-3 0 9 0.226 0.262 0.416 522.499 o
-3 0 10 131.148 122.746 3.959 0.136 o
-3 1 1 535.639 544.583 8.578 0.008 o
-3 1 2 165.660 168.027 3.120 0.082 o
-3 1 3 433.677 461.222 11.053 0.011 o
-3 1 4 8.739 11.793 0.997 19.062 o
-3 1 5 49.081 66.110 1.351 0.752 o
-3 1 6 43.575 51.058 0.903 1.068 o
-3 1 7 9.833 10.814 0.588 20.455 o
-3 1 8 23.229 22.915 1.411 3.916 o
-3 1 9 59.190 67.680 1.979 0.580 o
-3 1 10 6.280 6.471 0.668 44.519 o
-3 2 1 16.266 21.749 1.024 6.472 o
-3 2 2 705.000 749.181 10.491 0.004 o
-3 2 3 680.670 707.210 11.180 0.005 o
-3 2 4 130.979 111.272 3.133 0.146 o
-3 2 5 557.524 556.051 10.131 0.007 o
-3 2 6 1.384 0.274 0.357 543.158 o
-3 2 7 1.117 2.203 0.451 315.021 o
-3 2 8 11.449 12.709 0.719 14.881 o
-3 2 9 132.639 132.656 3.441 0.128 o
-3 2 10 34.066 29.130 1.402 2.080 o
-3 3 1 1824.960 2001.450 34.283 0.001 o
-3 3 2 482.792 564.923 9.058 0.009 o
-3 3 3 86.017 82.857 1.894 0.313 o
-3 3 4 13.456 12.405 0.843 12.075 o
-3 3 5 8.859 6.649 0.509 31.587 o
-3 3 6 0.504 4.137 0.426 306.356 o
-3 3 7 8.825 3.172 0.441 43.158 o
-3 3 8 148.918 145.992 2.691 0.104 o
-3 3 9 15.769 14.505 0.596 9.364 o
-3 3 10 110.191 109.437 2.748 0.186 o
-3 3 11 0.850 0.579 0.404 491.752 o
-3 4 1 268.307 271.523 4.175 0.031 o
-3 4 2 244.152 287.763 4.931 0.034 o
-3 4 3 1.496 2.490 0.447 274.458 o
-3 4 4 22.072 29.448 2.126 3.202 o
-3 4 5 159.605 181.265 3.377 0.081 o
-3 4 6 3.075 13.342 0.501 47.197 o
-3 4 7 0.006 3.357 0.413 414.653 o
-3 4 8 379.799 389.064 7.271 0.015 o
-3 4 9 126.067 125.157 2.075 0.144 o
-3 4 10 9.530 11.347 0.840 19.017 o
-3 4 11 3.651 4.289 0.538 103.301 o
-3 5 1 64.585 67.577 3.811 0.491 o
-3 5 2 43.411 49.970 2.105 1.045 o
-3 5 3 2.180 1.911 0.472 230.020 o
-3 5 4 11.738 16.127 0.925 11.698 o
-3 5 5 82.063 72.341 1.175 0.366 o
-3 5 6 33.959 44.754 0.895 1.600 o
-3 5 7 89.028 72.323 1.778 0.325 o
-3 5 8 14.552 7.573 0.495 14.709 o
-3 5 9 14.294 20.696 0.731 8.080 o
-3 5 10 7.206 4.947 0.494 47.935 o
-3 5 11 4.006 6.276 0.635 69.857 o
-3 6 1 255.741 227.107 4.558 0.037 o
-3 6 2 52.997 48.856 1.439 0.843 o
-3 6 3 1.335 0.757 0.372 479.938 o
-3 6 4 110.489 111.593 2.241 0.184 o
-3 6 5 1.171 1.566 0.313 551.820 o
-3 6 6 0.506 1.032 0.335 698.798 o
-3 6 7 14.670 21.061 0.668 7.800 o
-3 6 8 6.242 10.004 0.523 36.308 o
-3 6 9 54.319 67.054 1.522 0.656 o
-3 6 10 3.553 3.405 0.420 137.100 o
-3 6 11 5.623 8.137 0.932 36.071 o
-3 7 1 180.804 160.582 4.395 0.074 o
-3 7 2 110.049 99.570 2.226 0.199 o
-3 7 3 14.741 17.660 1.797 6.985 o
-3 7 4 5.255 5.639 0.506 64.699 o
-3 7 5 47.335 38.116 1.113 1.150 o
-3 7 6 0.983 1.522 0.448 358.824 o
-3 7 7 76.614 77.695 2.070 0.379 o
-3 7 8 6.082 6.146 0.545 51.226 o
-3 7 9 1.709 0.914 0.502 273.089 o
-3 7 10 15.852 20.400 1.085 6.913 o
-3 7 11 5.330 8.005 0.834 40.805 o
-3 8 1 94.173 84.342 1.992 0.274 o
-3 8 2 30.716 35.483 1.344 2.102 o
-3 8 3 14.327 10.322 0.652 12.757 o
-3 8 4 76.527 66.922 1.657 0.420 o
-3 8 5 89.994 77.234 3.194 0.301 o
-3 8 6 0.564 0.954 0.719 170.569 o
-3 8 7 123.332 130.593 3.263 0.142 o
-3 8 8 78.839 81.253 3.177 0.347 o
-3 8 9 17.761 16.661 0.924 7.066 o
-3 8 10 15.659 20.857 5.530 2.145 o
-3 8 11 45.296 44.672 1.773 1.084 o
-3 9 1 16.796 20.690 0.833 6.638 o
-3 9 2 0.160 0.389 0.497 366.944 o
-3 9 3 10.300 7.589 0.588 23.607 o
-3 9 4 209.867 201.765 4.844 0.053 o
-3 9 5 12.067 10.432 0.820 15.303 o
-3 9 6 52.039 43.167 2.755 0.881 o
-3 9 7 5.347 5.941 0.846 47.048 o
-3 9 8 2.690 2.714 0.440 188.821 o
-3 9 9 2.602 5.115 0.929 68.488 o
-3 9 10 81.500 104.186 3.630 0.277 o
-3 10 1 2.288 3.740 0.424 187.773 o
-3 10 2 3.601 4.578 0.476 108.556 o
-3 10 3 37.767 43.828 1.208 1.413 o
-3 10 4 84.159 89.889 1.980 0.305 o
-3 10 5 0.889 2.526 0.797 127.457 o
-3 10 6 72.552 68.612 1.949 0.443 o
-3 10 7 0.419 0.150 0.573 275.302 o
-3 10 8 2.154 1.969 0.491 219.858 o
-3 10 9 0.211 -0.520 0.606 248.778 o
-3 11 1 6.287 9.258 0.812 32.964 o
-3 11 2 13.785 11.629 0.641 12.643 o
-3 11 3 1.069 0.297 0.534 293.672 o
-3 11 4 12.741 9.816 0.662 15.318 o
-3 11 5 1.214 3.005 0.990 82.435 o
-3 11 6 1.639 2.499 0.445 264.359 o
-3 11 7 4.348 5.128 0.625 73.860 o
-3 11 8 32.010 30.808 0.894 2.246 o
-3 12 3 7.914 10.254 0.699 26.068 o
-3 12 4 1.200 2.201 0.410 348.894 o
-3 12 5 0.554 0.485 0.269 1092.620 o
-2 -10 1 6.921 6.865 2.321 12.557 o
-2 -10 2 7.772 6.213 0.609 36.994 o
-2 -9 1 2.129 2.078 0.799 112.056 o
-2 -9 2 6.661 6.298 0.577 44.801 o
-2 -9 3 33.533 32.462 4.624 1.400 o
-2 -9 4 6.210 3.925 0.879 46.699 o
-2 -8 1 9.097 8.609 0.740 24.477 o
-2 -8 2 37.400 47.467 2.231 1.282 o
-2 -8 3 62.597 59.755 1.691 0.591 o
-2 -8 4 43.944 43.142 1.545 1.163 o
-2 -8 5 23.102 24.805 0.989 3.914 o
-2 -7 1 19.174 15.962 0.917 6.563 o
-2 -7 2 2.266 3.933 0.599 135.283 o
-2 -7 3 0.477 1.099 0.491 351.816 o
-2 -7 4 37.022 31.891 0.978 1.801 o
-2 -7 5 54.257 50.971 1.613 0.792 o
-2 -7 6 1.890 0.935 0.321 453.312 o
-2 -6 1 0.087 0.379 0.446 457.029 o
-2 -6 2 252.980 269.871 9.536 0.033 o
-2 -6 3 316.193 333.998 7.528 0.022 o
-2 -6 4 14.020 13.830 1.220 9.864 o
-2 -6 5 27.611 29.278 1.333 2.732 o
-2 -6 6 0.858 0.511 0.424 452.939 o
-2 -6 7 1.689 1.114 0.336 451.568 o
-2 -5 1 9.594 11.696 0.865 18.355 o
-2 -5 2 175.790 159.842 3.361 0.078 o
-2 -5 3 63.552 53.631 3.989 0.568 o
-2 -5 4 64.379 67.134 1.967 0.525 o
-2 -5 5 111.889 134.971 4.842 0.154 o
-2 -5 6 0.007 0.926 0.510 346.362 o
-2 -5 7 0.113 0.304 0.385 613.131 o
-2 -5 8 1.980 1.354 0.402 319.011 o
-2 -4 1 293.132 305.823 7.210 0.026 o
-2 -4 2 637.359 582.784 13.089 0.006 o
-2 -4 3 17.509 25.940 1.403 4.953 o
-2 -4 5 24.156 19.987 1.430 4.019 o
-2 -4 6 6.589 6.229 0.691 42.560 o
-2 -4 7 8.134 8.201 1.308 20.943 o
-2 -4 8 6.330 7.017 0.897 36.249 o
-2 -3 1 22.793 18.583 0.658 4.887 o
-2 -3 2 1305.720 1407.590 29.959 0.001 o
-2 -3 3 14.609 9.315 1.620 9.926 o
-2 -3 4 29.465 33.439 1.921 2.200 o
-2 -3 5 209.531 210.087 7.324 0.050 o
-2 -3 6 35.791 46.260 2.841 1.312 o
-2 -3 7 27.289 27.244 1.856 2.757 o
-2 -3 8 2.366 4.931 1.095 56.759 o
-2 -3 9 17.845 15.870 0.939 7.209 o
-2 -2 1 4.928 6.242 0.637 58.778 o
-2 -2 2 0.894 1.064 0.500 319.587 o
-2 -2 3 109.156 119.849 3.177 0.177 o
-2 -2 4 129.658 139.065 4.598 0.126 o
-2 -2 5 14.851 18.867 2.415 5.611 o
-2 -2 6 16.669 14.222 0.943 8.367 o
-2 -2 7 26.319 25.381 0.991 3.265 o
-2 -2 8 12.651 16.871 0.928 10.444 o
-2 -2 9 40.108 40.719 1.806 1.341 o
-2 -1 1 446.950 333.280 11.456 0.013 o
-2 -1 2 1665.640 1705.000 36.242 0.001 o
-2 -1 3 57.360 57.374 1.794 0.679 o
-2 -1 4 8.150 8.034 0.740 28.799 o
-2 -1 5 47.172 29.541 1.474 1.301 o
-2 -1 6 0.230 -0.026 0.361 698.176 o
-2 -1 7 15.543 12.781 0.697 10.130 o
-2 -1 8 0.261 0.840 0.577 268.638 o
-2 -1 9 37.765 38.626 1.807 1.496 o
-2 -1 10 10.942 10.631 0.748 17.407 o
-2 0 1 1645.610 1612.690 48.264 0.001 o
-2 0 2 142.664 103.230 2.515 0.135 o
-2 0 3 688.497 699.861 12.449 0.005 o
-2 0 4 33.823 22.803 1.048 2.444 o
-2 0 5 5.141 14.954 0.938 24.672 o
-2 0 6 4.901 10.003 0.427 47.551 o
-2 0 7 29.087 26.367 0.720 2.836 o
-2 0 8 7.378 5.733 0.497 43.326 o
-2 0 9 10.000 11.119 0.751 18.805 o
-2 0 10 24.770 19.614 1.058 4.092 o
-2 1 1 311.427 315.785 5.929 0.023 o
-2 1 2 187.755 195.432 7.054 0.061 o
-2 1 3 756.507 758.884 23.984 0.004 o
-2 1 4 27.216 27.479 0.899 2.989 o
-2 1 5 46.559 28.271 1.528 1.350 o
-2 1 6 27.069 13.538 0.519 4.439 o
-2 1 7 16.465 22.250 0.660 6.554 o
-2 1 8 79.254 69.280 1.220 0.394 o
-2 1 9 120.589 125.891 2.015 0.152 o
-2 1 10 2.417 1.738 0.524 196.114 o
-2 1 11 32.275 29.254 1.269 2.248 o
-2 2 1 186.257 178.492 4.972 0.067 o
-2 2 2 1579.370 1621.480 28.195 0.001 o
-2 2 3 1217.740 1258.530 17.063 0.002 o
-2 2 4 82.778 112.963 3.084 0.258 o
-2 2 5 71.839 53.070 2.263 0.517 o
-2 2 6 143.422 143.563 2.534 0.110 o
-2 2 7 101.759 89.938 1.699 0.237 o
-2 2 8 2.272 1.943 0.417 253.735 o
-2 2 9 133.061 141.221 2.912 0.123 o
-2 2 10 136.256 144.631 3.536 0.116 o
-2 2 11 0.022 0.475 0.499 365.395 o
-2 3 1 104.624 105.983 2.662 0.204 o
-2 3 2 1646.820 1857.210 32.136 0.001 o
-2 3 3 0.189 1.107 0.371 620.317 o
-2 3 4 1.871 2.044 0.503 227.687 o
-2 3 5 220.335 236.529 4.098 0.045 o
-2 3 6 47.665 27.164 1.158 1.346 o
-2 3 7 17.207 21.959 0.878 6.146 o
-2 3 8 10.019 14.057 0.880 15.411 o
-2 3 9 3.202 1.583 0.516 166.390 o
-2 3 10 108.375 120.306 2.237 0.180 o
-2 3 11 0.031 0.025 0.517 341.917 o
-2 4 1 170.831 166.021 3.049 0.079 o
-2 4 2 823.751 925.463 16.429 0.003 o
-2 4 3 184.108 148.777 3.665 0.076 o
-2 4 4 779.476 866.272 18.610 0.003 o
-2 4 5 454.517 490.841 11.507 0.010 o
-2 4 6 16.371 19.453 0.578 7.357 o
-2 4 7 104.710 90.997 1.702 0.227 o
-2 4 8 444.784 434.408 7.937 0.012 o
-2 4 9 184.333 188.886 3.312 0.066 o
-2 4 10 1.076 0.914 0.428 407.570 o
-2 4 11 7.916 8.515 1.060 24.357 o
-2 4 12 9.219 12.409 0.705 19.371 o
-2 5 1 457.709 442.157 8.227 0.011 o
-2 5 2 0.824 0.629 0.416 466.433 o
-2 5 3 398.302 380.534 8.503 0.015 o
-2 5 4 251.716 223.597 7.087 0.038 o
-2 5 5 33.852 33.108 1.616 1.916 o
-2 5 6 83.164 71.912 1.291 0.361 o
-2 5 7 748.201 745.478 9.290 0.004 o
-2 5 8 26.796 25.075 0.838 3.246 o
-2 5 9 169.990 186.580 3.747 0.073 o
-2 5 10 14.948 13.052 0.582 10.724 o
-2 5 11 14.526 13.835 0.835 10.318 o
-2 5 12 7.205 10.297 0.673 28.916 o
-2 6 1 226.943 270.742 6.112 0.039 o
-2 6 2 105.609 132.812 3.541 0.170 o
-2 6 3 80.333 86.906 3.147 0.324 o
-2 6 4 3.042 6.146 0.671 82.107 o
-2 6 5 4.962 2.422 0.391 110.271 o
-2 6 6 4.086 4.085 0.330 117.835 o
-2 6 7 669.560 668.929 10.253 0.005 o
-2 6 8 41.758 38.366 1.229 1.356 o
-2 6 9 2.955 1.185 0.562 169.700 o
-2 6 10 13.693 13.637 1.772 8.622 o
-2 6 11 17.508 27.510 2.886 3.561 o
-2 7 1 31.448 25.336 0.834 2.594 o
-2 7 2 246.541 220.113 5.102 0.040 o
-2 7 3 83.942 87.993 1.952 0.311 o
-2 7 4 46.965 50.251 1.287 0.973 o
-2 7 5 21.890 21.535 1.120 4.529 o
-2 7 6 155.539 171.029 3.360 0.088 o
-2 7 7 433.866 412.522 6.461 0.012 o
-2 7 8 104.901 127.156 2.693 0.179 o
-2 7 9 6.813 10.650 0.796 28.137 o
-2 7 10 10.037 13.849 3.359 5.582 o
-2 7 11 86.709 90.140 3.297 0.286 o
-2 8 1 0.374 0.705 0.439 452.597 o
-2 8 2 1.772 3.369 0.503 196.489 o
-2 8 3 542.890 539.669 9.676 0.008 o
-2 8 4 67.656 75.615 2.182 0.452 o
-2 8 5 39.161 39.512 1.453 1.434 o
-2 8 6 372.488 370.591 13.066 0.016 o
-2 8 7 37.367 37.817 1.374 1.573 o
-2 8 8 10.838 13.095 0.797 15.237 o
-2 8 9 42.332 34.940 1.884 1.364 o
-2 8 10 0.016 0.072 0.611 245.538 o
-2 8 11 16.079 13.510 0.993 8.927 o
-2 9 1 61.385 60.034 1.885 0.602 o
-2 9 2 15.233 12.109 0.686 10.737 o
-2 9 3 0.152 0.808 0.504 352.141 o
-2 9 4 151.300 158.754 3.224 0.096 o
-2 9 5 176.195 189.205 6.620 0.068 o
-2 9 6 2.751 2.295 0.570 153.790 o
-2 9 7 90.819 97.293 3.712 0.255 o
-2 9 8 7.728 6.333 0.602 37.036 o
-2 9 9 17.432 17.234 1.391 6.540 o
-2 9 10 10.437 10.657 0.870 17.692 o
-2 10 1 3.350 4.518 0.453 119.760 o
-2 10 2 0.893 0.144 0.397 526.640 o
-2 10 3 90.988 81.334 3.845 0.283 o
-2 10 4 96.765 101.664 2.226 0.233 o
-2 10 5 19.856 18.430 0.988 5.722 o
-2 10 6 5.072 3.077 0.616 79.145 o
-2 10 7 10.534 11.173 1.539 13.101 o
-2 10 8 0.772 0.062 0.572 270.555 o
-2 10 9 3.656 2.822 0.514 127.025 o
-2 10 10 0.838 -0.199 0.658 205.602 o
-2 11 1 4.595 5.644 0.807 56.191 o
-2 11 2 4.929 2.672 0.544 92.165 o
-2 11 3 71.658 67.758 1.543 0.457 o
-2 11 4 38.514 37.915 1.327 1.514 o
-2 11 5 1.499 0.717 0.516 279.651 o
-2 11 6 2.092 3.921 0.828 93.591 o
-2 11 7 0.157 0.176 0.392 591.500 o
-2 11 8 3.269 3.276 0.599 116.384 o
-2 11 9 0.018 0.149 0.334 821.387 o
-2 12 2 4.140 9.046 0.715 49.611 o
-2 12 3 5.744 6.508 0.439 56.077 o
-2 12 4 9.267 6.725 0.625 28.371 o
-2 12 5 5.377 4.603 0.445 73.449 o
-2 12 6 0.621 2.316 0.375 465.229 o
-2 12 7 15.052 13.422 0.818 10.073 o
-1 -11 1 20.484 18.466 1.247 5.306 o
-1 -10 1 23.471 22.391 1.939 3.643 o
-1 -10 2 21.727 18.359 2.384 4.039 o
-1 -10 3 5.202 6.750 0.957 41.155 o
-1 -9 1 39.586 37.510 1.086 1.484 o
-1 -9 2 29.813 28.190 1.676 2.469 o
-1 -9 3 0.210 0.973 0.603 245.767 o
-1 -9 4 0.111 0.190 0.604 250.623 o
-1 -8 1 3.246 5.859 0.673 80.920 o
-1 -8 2 30.250 31.914 1.279 2.312 o
-1 -8 3 13.527 15.155 1.122 9.977 o
-1 -8 4 56.837 65.167 2.828 0.610 o
-1 -8 5 0.737 1.050 0.650 203.230 o
-1 -7 1 84.948 80.156 2.034 0.325 o
-1 -7 2 30.054 27.479 1.138 2.587 o
-1 -7 3 108.339 100.522 2.205 0.203 o
-1 -7 4 1.091 0.535 0.499 325.052 o
-1 -7 5 22.352 19.869 1.525 4.389 o
-1 -7 6 1.897 1.678 0.399 313.011 o
-1 -6 1 0.822 0.429 0.394 525.203 o
-1 -6 2 57.008 42.906 1.146 0.827 o
-1 -6 3 306.895 322.226 6.831 0.023 o
-1 -6 4 5.224 6.283 0.557 58.876 o
-1 -6 5 3.935 4.192 0.620 88.757 o
-1 -6 6 2.821 1.950 0.596 149.595 o
-1 -6 7 1.077 0.165 0.349 629.696 o
-1 -5 1 70.274 86.930 2.672 0.386 o
-1 -5 2 277.326 258.486 6.230 0.031 o
-1 -5 3 101.088 104.691 2.183 0.216 o
-1 -5 4 482.679 470.022 8.920 0.010 o
-1 -5 5 8.661 6.060 0.828 29.386 o
-1 -5 6 21.922 24.354 1.030 4.213 o
-1 -5 7 0.035 3.893 0.540 253.129 o
-1 -5 8 4.148 7.842 0.544 62.988 o
-1 -4 1 24.492 35.366 1.758 2.637 o
-1 -4 2 1692.180 1705.200 36.059 0.001 o
-1 -4 3 135.538 113.755 3.112 0.137 o
-1 -4 4 10.281 7.695 0.602 23.409 o
-1 -4 5 230.624 259.319 8.488 0.038 o
-1 -4 6 9.970 11.820 1.031 16.505 o
-1 -4 7 1.070 0.968 0.534 279.055 o
-1 -4 8 5.291 7.710 0.678 47.028 o
-1 -4 9 0.000 0.384 0.427 500.234 o
-1 -3 1 1298.430 1250.630 26.693 0.001 o
-1 -3 2 195.259 194.028 4.633 0.059 o
-1 -3 3 744.318 709.433 15.549 0.004 o
-1 -3 4 0.842 1.448 0.488 324.668 o
-1 -3 5 106.092 99.646 7.325 0.188 o
-1 -3 6 29.860 43.730 1.392 1.849 o
-1 -3 7 24.332 31.447 2.273 2.717 o
-1 -3 8 0.246 0.985 0.915 108.029 o
-1 -3 9 0.942 0.412 0.720 169.076 o
-1 -2 1 5941.960 6850.060 116.225 0.000 o
-1 -2 2 184.343 172.377 6.326 0.068 o
-1 -2 3 175.433 194.943 3.864 0.068 o
-1 -2 4 117.675 112.878 2.940 0.167 o
-1 -2 5 198.203 174.699 7.015 0.061 o
-1 -2 6 62.968 80.234 7.263 0.379 o
-1 -2 7 39.301 33.688 1.403 1.578 o
-1 -2 8 11.330 18.299 1.022 10.770 o
-1 -2 9 0.245 0.444 0.525 327.584 o
-1 -2 10 8.545 11.646 0.798 21.259 o
-1 -1 1 5648.620 7402.370 125.417 0.000 o
-1 -1 2 1779.620 1900.480 40.104 0.001 o
-1 -1 3 264.819 237.519 5.886 0.035 o
-1 -1 4 19.739 8.788 0.475 8.653 o
-1 -1 5 35.398 31.954 1.285 1.885 o
-1 -1 6 64.725 65.406 1.574 0.535 o
-1 -1 7 12.217 9.209 0.736 16.429 o
-1 -1 8 45.804 41.821 3.870 0.973 o
-1 -1 9 2.891 2.851 0.613 129.410 o
-1 -1 10 1.004 1.742 0.612 209.366 o
-1 0 1 951.276 993.214 29.712 0.002 o
-1 0 2 430.881 377.491 6.914 0.013 o
-1 0 3 695.326 856.689 29.367 0.004 o
-1 0 4 857.139 776.745 11.805 0.003 o
-1 0 5 13.607 20.563 1.698 7.027 o
-1 0 6 83.489 78.131 2.482 0.335 o
-1 0 7 5.110 4.981 0.513 70.941 o
-1 0 8 99.817 86.059 1.620 0.251 o
-1 0 9 6.537 9.083 0.749 33.384 o
-1 0 10 6.545 7.909 2.379 12.012 o
-1 0 11 7.959 8.528 0.602 30.326 o
-1 1 1 2105.490 2164.770 31.977 0.001 o
-1 1 2 49.178 92.338 2.573 0.544 o
-1 1 3 379.220 393.039 12.966 0.015 o
-1 1 4 37.594 53.325 1.192 1.223 o
-1 1 5 526.166 555.123 8.797 0.008 o
-1 1 6 85.836 88.943 2.746 0.296 o
-1 1 7 26.221 36.007 0.680 2.598 o
-1 1 8 84.076 72.660 1.371 0.353 o
-1 1 9 0.071 -0.346 0.481 395.854 o
-1 1 10 34.542 34.072 1.230 1.876 o
-1 1 11 2.615 1.256 0.430 246.217 o
-1 2 1 55.053 65.651 1.164 0.660 o
-1 2 2 10.948 19.402 1.017 10.627 o
-1 2 3 668.152 631.944 14.008 0.005 o
-1 2 4 1037.610 1006.450 21.541 0.002 o
-1 2 5 2.711 4.057 0.637 113.620 o
-1 2 6 4.434 3.987 0.797 66.815 o
-1 2 7 4.310 4.799 0.391 96.003 o
-1 2 8 80.290 80.260 1.297 0.353 o
-1 2 9 38.745 32.767 0.840 1.673 o
-1 2 10 3.185 3.783 0.467 135.367 o
-1 2 11 6.625 8.664 0.996 29.282 o
-1 2 12 5.658 5.657 0.530 58.619 o
-1 3 1 270.629 369.472 7.636 0.024 o
-1 3 2 614.622 590.528 12.802 0.006 o
-1 3 3 417.091 388.622 8.755 0.014 o
-1 3 4 338.045 323.022 4.635 0.021 o
-1 3 5 39.298 42.968 1.146 1.366 o
-1 3 6 25.939 23.464 2.444 2.934 o
-1 3 7 1.340 1.100 0.362 470.740 o
-1 3 8 239.063 234.568 4.218 0.040 o
-1 3 9 0.035 -0.155 0.416 527.802 o
-1 3 10 0.018 0.082 0.554 298.069 o
-1 3 11 1.094 1.373 0.539 263.908 o
-1 3 12 0.443 0.474 0.420 495.305 o
-1 4 1 509.771 591.434 12.811 0.008 o
-1 4 2 46.198 24.117 1.585 1.457 o
-1 4 3 92.809 94.048 2.629 0.258 o
-1 4 4 49.240 44.545 0.985 0.996 o
-1 4 5 19.032 12.722 0.899 7.459 o
-1 4 6 81.308 66.668 2.222 0.384 o
-1 4 7 2.767 5.210 0.500 119.986 o
-1 4 8 190.136 197.360 3.611 0.061 o
-1 4 9 65.450 75.549 2.222 0.471 o
-1 4 10 8.451 8.404 1.741 15.580 o
-1 4 11 2.949 2.510 0.415 188.158 o
-1 4 12 11.303 11.766 0.594 16.338 o
-1 5 1 1.102 0.845 0.411 435.370 o
-1 5 2 62.475 60.330 3.399 0.558 o
-1 5 3 718.394 685.227 17.372 0.005 o
-1 5 4 65.153 88.023 1.875 0.425 o
-1 5 5 186.941 224.493 5.490 0.056 o
-1 5 6 18.686 25.825 1.247 4.742 o
-1 5 7 157.356 137.142 2.071 0.100 o
-1 5 8 47.889 46.777 0.999 1.002 o
-1 5 9 116.063 105.136 1.857 0.180 o
-1 5 10 7.227 9.301 0.883 27.842 o
-1 5 11 0.001 -0.193 0.408 550.764 o
-1 5 12 7.428 6.392 0.496 40.644 o
-1 6 1 248.645 291.248 8.345 0.032 o
-1 6 2 5.054 4.545 0.665 65.569 o
-1 6 3 401.024 398.162 12.183 0.014 o
-1 6 4 21.457 15.486 0.919 5.721 o
-1 6 5 7.920 9.345 1.471 18.375 o
-1 6 6 58.303 65.067 1.236 0.618 o
-1 6 7 225.092 225.117 2.889 0.045 o
-1 6 8 436.835 449.613 5.930 0.012 o
-1 6 9 0.016 0.448 0.448 453.878 o
-1 6 10 352.052 375.601 6.938 0.018 o
-1 6 11 59.702 60.526 1.306 0.629 o
-1 6 12 0.002 0.770 0.740 166.320 o
-1 7 1 8.990 3.903 0.415 39.791 o
-1 7 2 30.003 22.937 0.810 2.931 o
-1 7 3 100.421 118.090 2.409 0.200 o
-1 7 4 159.681 146.858 4.940 0.092 o
-1 7 5 2.034 2.094 0.486 226.193 o
-1 7 6 637.105 618.413 10.920 0.006 o
-1 7 7 225.724 204.652 3.845 0.047 o
-1 7 8 385.179 396.609 5.603 0.015 o
-1 7 9 27.409 32.076 1.347 2.588 o
-1 7 10 30.742 30.024 0.895 2.408 o
-1 7 11 8.018 10.201 0.618 26.601 o
-1 7 12 7.761 8.670 1.970 14.123 o
-1 8 1 19.285 20.403 0.933 5.607 o
-1 8 2 124.019 93.936 2.079 0.175 o
-1 8 3 0.636 1.231 0.457 386.603 o
-1 8 4 16.195 18.365 0.909 7.458 o
-1 8 5 6.853 7.157 0.986 31.492 o
-1 8 6 609.807 633.761 13.769 0.006 o
-1 8 7 538.270 573.059 10.176 0.008 o
-1 8 8 38.472 35.559 1.486 1.566 o
-1 8 9 27.113 32.060 1.067 2.675 o
-1 8 10 94.521 108.917 2.833 0.227 o
-1 8 11 36.429 40.782 1.412 1.541 o
-1 8 12 9.828 14.481 0.645 16.362 o
-1 9 1 9.959 7.782 0.571 24.502 o
-1 9 2 122.403 106.338 2.700 0.165 o
-1 9 3 177.730 168.978 3.397 0.074 o
-1 9 4 38.508 42.532 1.217 1.408 o
-1 9 5 91.850 102.358 2.811 0.246 o
-1 9 6 144.547 156.248 3.931 0.102 o
-1 9 7 424.045 452.434 11.089 0.012 o
-1 9 8 1.680 1.687 1.445 41.605 o
-1 9 9 18.732 18.829 0.934 6.121 o
-1 9 10 5.282 4.092 0.805 57.131 o
-1 9 11 37.927 38.168 1.470 1.527 o
-1 10 1 0.835 0.852 0.523 303.451 o
-1 10 2 45.367 49.758 1.326 1.023 o
-1 10 3 17.408 18.052 0.772 7.032 o
-1 10 4 38.395 49.631 2.037 1.218 o
-1 10 5 123.449 128.064 3.354 0.144 o
-1 10 6 61.781 80.776 3.355 0.465 o
-1 10 7 57.622 68.526 3.037 0.575 o
-1 10 8 0.847 1.676 0.713 163.764 o
-1 10 9 2.554 2.279 0.629 143.305 o
-1 10 10 3.106 1.948 0.343 221.310 o
-1 10 11 13.898 14.340 0.951 10.408 o
-1 11 1 0.629 1.904 0.712 166.114 o
-1 11 2 28.363 19.983 0.698 3.436 o
-1 11 3 0.726 1.764 0.376 487.826 o
-1 11 4 4.351 2.768 0.738 81.005 o
-1 11 5 6.764 9.908 0.755 30.407 o
-1 11 6 0.571 1.529 0.533 289.879 o
-1 11 7 15.410 11.418 1.039 10.162 o
-1 11 8 20.216 12.108 2.226 5.315 o
-1 11 9 6.628 7.448 0.690 38.445 o
-1 12 2 23.659 19.267 1.077 4.388 o
-1 12 3 4.210 2.904 0.689 87.599 o
-1 12 4 30.294 27.473 1.703 2.450 o
-1 12 5 8.927 13.257 0.689 19.168 o
-1 12 6 5.882 6.500 0.529 51.957 o
-1 12 7 6.425 5.354 0.464 54.238 o
-1 12 8 2.056 2.291 0.503 210.290 o
0 -11 1 0.431 -0.310 0.709 180.754 o
0 -10 1 1.610 2.346 0.566 199.636 o
0 -10 2 6.111 5.968 1.270 29.692 o
0 -10 3 4.592 1.254 0.813 79.954 o
0 -9 1 50.910 41.614 1.661 0.972 o
0 -9 2 58.994 56.922 1.769 0.658 o
0 -9 3 4.955 3.774 0.957 52.359 o
0 -9 4 0.118 0.407 0.521 335.502 o
0 -8 1 7.405 6.892 0.546 38.292 o
0 -8 2 48.751 55.273 1.936 0.852 o
0 -8 3 12.638 12.256 1.220 11.814 o
0 -8 4 20.143 19.764 1.220 5.227 o
0 -8 5 10.200 11.586 0.887 17.165 o
0 -7 1 77.973 65.711 1.477 0.415 o
0 -7 2 26.726 29.001 1.299 2.870 o
0 -7 3 15.919 15.449 0.897 8.521 o
0 -7 4 23.718 18.444 0.734 4.617 o
0 -7 5 14.824 18.835 0.847 8.199 o
0 -7 6 0.030 -0.095 0.356 722.601 o
0 -7 7 4.134 3.073 0.637 93.669 o
0 -6 1 101.045 116.574 2.910 0.199 o
0 -6 2 0.623 1.118 0.451 400.686 o
0 -6 3 0.937 1.035 0.340 597.899 o
0 -6 4 9.197 7.236 0.524 28.658 o
0 -6 5 6.296 6.499 0.674 44.144 o
0 -6 6 0.378 0.386 0.487 376.121 o
0 -6 7 0.795 1.701 0.452 362.184 o
0 -5 1 43.404 27.192 1.079 1.554 o
0 -5 2 1.927 6.718 0.736 88.215 o
0 -5 3 30.223 29.509 0.867 2.493 o
0 -5 4 276.996 268.837 6.222 0.030 o
0 -5 5 0.838 2.399 0.412 376.231 o
0 -5 6 11.216 14.163 1.017 13.102 o
0 -5 7 0.824 1.754 0.524 280.369 o
0 -5 8 12.044 12.381 0.749 14.146 o
0 -4 1 628.800 503.134 18.450 0.006 o
0 -4 2 634.763 542.727 11.859 0.006 o
0 -4 3 15.638 18.617 1.059 7.513 o
0 -4 4 13.179 11.986 0.676 13.094 o
0 -4 5 25.440 25.024 0.909 3.463 o
0 -4 6 0.153 1.095 0.563 281.543 o
0 -4 7 12.575 10.507 1.051 13.552 o
0 -4 8 92.713 89.724 2.085 0.269 o
0 -4 9 4.864 4.019 0.482 85.393 o
0 -3 1 891.926 779.301 18.755 0.003 o
0 -3 2 33.124 38.501 1.001 1.839 o
0 -3 3 134.629 126.403 3.060 0.130 o
0 -3 4 477.259 436.609 13.261 0.010 o
0 -3 5 67.312 74.827 2.354 0.457 o
0 -3 6 21.248 23.886 1.029 4.435 o
0 -3 7 5.542 5.782 0.689 52.632 o
0 -3 8 50.361 50.463 1.771 0.874 o
0 -3 9 18.378 21.566 0.999 5.681 o
0 -2 1 7079.850 9036.990 152.731 0.000 o
0 -2 2 15.912 12.209 0.586 10.216 o
0 -2 3 50.341 47.993 6.299 0.664 o
0 -2 4 527.583 462.284 11.620 0.009 o
0 -2 5 54.976 49.397 2.916 0.754 o
0 -2 6 43.285 26.563 1.287 1.564 o
0 -2 7 92.878 111.914 7.162 0.206 o
0 -2 8 6.133 8.117 1.370 24.584 o
0 -2 9 8.864 8.354 0.778 25.225 o
0 -2 10 1.528 0.736 0.484 307.098 o
0 -1 1 557.592 335.957 7.221 0.010 o
0 -1 2 782.768 711.062 12.421 0.004 o
0 -1 3 131.015 139.153 3.633 0.126 o
0 -1 4 1110.520 1106.720 43.645 0.002 o
0 -1 5 28.100 34.122 1.395 2.396 o
0 -1 6 32.412 33.872 0.996 2.067 o
0 -1 7 1.024 1.479 0.399 426.509 o
0 -1 8 3.480 4.942 0.880 65.194 o
0 -1 9 0.216 0.513 0.602 249.488 o
0 -1 10 3.082 2.778 0.723 104.222 o
0 -1 11 2.048 1.061 0.420 310.474 o
0 0 1 551.783 231.874 7.133 0.011 o
0 0 2 169.723 115.458 4.140 0.098 o
0 0 3 315.423 248.430 8.341 0.026 o
0 0 4 129.442 115.469 5.166 0.141 o
0 0 5 0.537 1.399 0.804 135.855 o
0 0 6 4.348 2.585 0.525 108.875 o
0 0 7 118.644 134.826 2.045 0.148 o
0 0 8 15.682 12.834 0.726 9.941 o
0 0 9 11.567 14.684 1.002 12.438 o
0 0 10 15.109 11.888 0.732 10.880 o
0 0 11 14.017 11.656 0.821 11.928 o
0 1 0 621.575 249.689 7.602 0.009 o
0 1 1 676.559 964.823 23.625 0.004 o
0 1 2 35.099 40.488 1.891 1.578 o
0 1 3 86.590 190.208 6.620 0.145 o
0 1 4 1477.600 1354.580 29.090 0.001 o
0 1 5 121.915 94.170 6.303 0.167 o
0 1 6 0.040 0.926 0.855 124.373 o
0 1 7 621.202 675.460 8.585 0.006 o
0 1 8 41.158 37.848 0.846 1.411 o
0 1 9 26.833 24.625 0.914 3.261 o
0 1 10 0.128 0.065 1.583 36.538 o
0 1 11 5.065 3.496 0.768 64.727 o
0 1 12 4.201 3.976 0.450 103.657 o
0 2 0 2942.190 3509.700 72.936 0.000 o
0 2 1 263.151 168.396 2.638 0.043 o
0 2 2 761.461 857.549 14.681 0.004 o
0 2 3 0.079 3.844 0.694 165.455 o
0 2 4 208.196 221.843 7.913 0.049 o
0 2 5 7.584 7.981 1.582 18.742 o
0 2 6 24.958 23.383 2.411 3.083 o
0 2 7 105.311 99.705 2.009 0.212 o
0 2 8 164.374 157.800 2.085 0.087 o
0 2 9 6.555 6.620 0.446 47.457 o
0 2 10 53.000 54.516 1.226 0.789 o
0 2 11 2.585 1.997 0.473 202.436 o
0 2 12 11.762 10.683 0.770 15.803 o
0 3 0 1350.120 1495.970 44.298 0.001 o
0 3 1 1299.720 1332.100 19.588 0.001 o
0 3 2 1066.240 1091.620 20.348 0.002 o
0 3 3 17.081 14.345 0.690 8.373 o
0 3 4 7.645 7.201 0.445 37.420 o
0 3 5 30.182 22.466 1.518 2.791 o
0 3 6 98.796 129.620 5.969 0.179 o
0 3 7 177.022 152.371 3.297 0.080 o
0 3 8 107.165 126.258 2.787 0.175 o
0 3 9 0.181 0.258 0.430 490.997 o
0 3 10 0.014 0.468 0.410 541.717 o
0 3 11 2.658 0.920 0.569 184.362 o
0 3 12 20.747 24.142 0.879 4.596 o
0 4 0 26.578 26.851 1.469 2.991 o
0 4 1 213.512 203.021 4.702 0.051 o
0 4 2 58.040 69.139 1.602 0.590 o
0 4 3 395.877 424.022 11.460 0.014 o
0 4 4 42.340 49.815 1.931 1.088 o
0 4 5 1.075 0.734 0.800 135.115 o
0 4 6 124.076 106.197 8.326 0.146 o
0 4 7 129.296 132.675 2.527 0.133 o
0 4 8 36.021 33.690 1.003 1.806 o
0 4 9 0.454 2.080 0.518 297.091 o
0 4 10 15.854 17.906 0.859 7.839 o
0 4 11 4.980 2.858 0.811 65.936 o
0 4 12 0.154 0.631 0.339 768.629 o
0 5 0 1153.820 1137.440 33.767 0.002 o
0 5 1 157.319 147.123 3.697 0.095 o
0 5 2 603.116 617.423 13.473 0.006 o
0 5 3 108.666 91.099 3.004 0.212 o
0 5 4 103.560 135.254 4.304 0.170 o
0 5 5 435.731 409.633 11.372 0.012 o
0 5 6 8.955 9.417 0.693 24.096 o
0 5 7 1.021 0.729 0.285 793.114 o
0 5 8 17.884 12.966 0.582 8.404 o
0 5 9 23.752 31.158 1.031 3.205 o
0 5 10 69.377 71.311 1.425 0.462 o
0 5 11 5.491 6.737 0.540 54.270 o
0 5 12 13.160 12.545 1.188 11.268 o
0 6 0 13.495 12.084 0.822 12.271 o
0 6 1 7.587 8.790 0.699 30.099 o
0 6 2 5.097 6.194 0.611 58.431 o
0 6 3 554.275 572.802 17.237 0.007 o
0 6 4 6.747 5.159 0.550 49.513 o
0 6 5 20.984 22.958 1.304 4.480 o
0 6 6 526.892 526.662 10.858 0.008 o
0 6 7 8.240 5.407 0.325 40.967 o
0 6 8 37.815 41.255 0.886 1.488 o
0 6 9 99.212 93.988 1.873 0.239 o
0 6 10 9.935 10.688 0.595 20.324 o
0 6 11 53.176 52.048 1.186 0.811 o
0 6 12 4.562 5.842 0.386 79.993 o
0 7 0 87.396 88.730 1.807 0.294 o
0 7 1 0.348 1.031 0.350 674.195 o
0 7 2 68.252 57.954 1.963 0.533 o
0 7 3 16.864 14.435 0.965 8.144 o
0 7 4 116.162 101.180 2.813 0.182 o
0 7 5 133.398 155.564 5.310 0.112 o
0 7 6 6.812 6.078 0.485 46.691 o
0 7 7 83.976 82.731 1.612 0.325 o
0 7 8 69.745 74.032 1.303 0.448 o
0 7 9 38.614 37.719 1.031 1.531 o
0 7 10 197.893 208.842 3.529 0.056 o
0 7 11 21.752 22.024 0.980 4.567 o
0 7 12 8.580 11.952 0.674 21.690 o
0 8 0 22.256 22.111 0.815 4.489 o
0 8 1 0.137 0.286 0.387 604.642 o
0 8 2 3.898 2.438 0.367 152.530 o
0 8 3 2.518 5.938 0.420 128.565 o
0 8 4 234.556 237.546 4.474 0.041 o
0 8 5 63.089 68.005 2.017 0.533 o
0 8 6 2.206 4.109 0.868 85.070 o
0 8 7 82.943 90.989 2.045 0.308 o
0 8 8 23.593 21.034 1.452 4.016 o
0 8 9 31.528 27.771 1.628 2.328 o
0 8 10 190.430 179.895 3.487 0.065 o
0 8 11 6.353 4.083 0.489 61.357 o
0 8 12 42.104 46.778 1.090 1.182 o
0 9 0 0.235 0.593 0.480 389.402 o
0 9 1 27.059 29.199 1.086 2.858 o
0 9 2 8.600 10.441 0.608 24.311 o
0 9 3 26.913 25.643 0.906 3.169 o
0 9 4 8.365 13.550 0.886 18.839 o
0 9 5 126.420 131.421 4.380 0.136 o
0 9 6 171.403 154.295 5.501 0.081 o
0 9 7 8.400 10.579 0.792 23.123 o
0 9 8 18.325 16.714 0.722 6.947 o
0 9 9 6.509 8.569 0.691 35.926 o
0 9 10 60.355 73.014 1.992 0.536 o
0 9 11 0.328 0.223 0.706 182.443 o
0 9 12 5.133 3.663 0.571 77.024 o
0 10 0 1.423 1.069 0.443 346.698 o
0 10 1 0.018 -0.167 0.459 433.575 o
0 10 2 27.078 27.479 0.916 3.006 o
0 10 3 3.686 5.608 0.527 89.166 o
0 10 4 20.072 24.109 0.882 4.786 o
0 10 5 745.524 801.620 17.269 0.004 o
0 10 6 405.337 444.294 9.886 0.013 o
0 10 7 28.979 36.652 1.924 2.105 o
0 10 8 36.964 42.621 1.442 1.466 o
0 10 9 0.549 0.573 0.666 200.943 o
0 10 10 6.954 7.634 0.531 39.044 o
0 10 11 5.336 9.232 0.545 44.494 o
0 11 0 0.078 -0.519 0.813 138.428 o
0 11 1 8.769 10.128 0.640 24.024 o
0 11 2 54.812 48.958 1.538 0.802 o
0 11 3 7.408 5.569 0.465 44.369 o
0 11 4 157.719 154.280 3.788 0.092 o
0 11 5 7.906 12.741 1.081 19.102 o
0 11 6 10.442 9.518 0.745 19.631 o
0 11 7 1.661 2.352 0.599 182.441 o
0 11 8 0.368 0.275 0.433 476.921 o
0 11 9 8.553 9.561 0.845 23.630 o
0 11 10 2.374 3.601 0.502 162.875 o
0 12 2 2.714 3.152 0.582 137.532 o
0 12 3 3.389 5.056 0.751 77.186 o
0 12 4 90.238 87.779 4.760 0.267 o
0 12 5 11.775 9.219 0.777 17.029 o
0 12 6 41.453 41.841 1.313 1.291 o
0 12 7 7.635 9.360 0.596 29.997 o
0 12 8 1.466 0.554 0.441 368.801 o
0 12 9 0.946 1.114 0.421 421.564 o
0 13 5 11.576 11.007 0.736 15.982 o
0 13 6 2.226 1.924 0.453 236.996 o
1 -11 0 10.103 8.405 0.719 22.036 o
1 -10 0 0.962 1.449 0.454 356.066 o
1 -10 1 6.799 6.879 0.671 39.555 o
1 -10 2 0.175 0.698 1.011 89.133 o
1 -10 3 2.436 0.866 0.756 127.590 o
1 -9 0 8.449 6.777 0.645 31.488 o
1 -9 1 22.826 21.647 0.908 4.369 o
1 -9 2 5.673 4.925 0.674 56.141 o
1 -9 3 1.673 2.284 0.701 144.824 o
1 -9 4 2.271 2.620 0.789 107.677 o
1 -8 0 77.619 79.786 1.854 0.368 o
1 -8 1 125.382 101.661 2.740 0.164 o
1 -8 2 0.169 0.320 0.498 366.601 o
1 -8 3 5.148 6.146 0.613 58.022 o
1 -8 4 1.610 0.736 0.909 102.116 o
1 -8 5 16.206 18.553 1.369 6.822 o
1 -7 0 182.486 173.412 4.161 0.070 o
1 -7 1 134.176 125.267 2.921 0.131 o
1 -7 2 4.741 2.780 0.518 97.745 o
1 -7 3 36.164 31.826 1.164 1.847 o
1 -7 4 0.871 0.757 0.605 232.617 o
1 -7 5 0.423 0.650 0.989 92.719 o
1 -7 6 46.788 53.133 2.611 0.893 o
1 -7 7 27.823 16.949 1.109 3.713 o
1 -6 0 2.337 1.637 0.551 190.534 o
1 -6 1 746.666 780.056 13.929 0.004 o
1 -6 2 68.850 67.509 1.752 0.481 o
1 -6 3 27.114 31.526 1.202 2.682 o
1 -6 4 9.166 5.370 0.508 33.234 o
1 -6 5 13.998 16.366 0.869 9.634 o
1 -6 6 3.937 5.317 0.573 83.102 o
1 -6 7 7.280 7.316 0.938 30.443 o
1 -5 0 12.707 11.335 0.845 13.630 o
1 -5 1 145.632 124.551 4.206 0.116 o
1 -5 2 0.204 1.592 0.543 292.633 o
1 -5 3 219.204 173.679 4.271 0.054 o
1 -5 4 1.094 3.961 0.576 183.043 o
1 -5 5 20.463 21.316 1.151 4.937 o
1 -5 6 5.641 6.005 0.670 51.523 o
1 -5 7 18.710 17.844 1.370 5.925 o
1 -5 8 0.171 0.406 0.418 516.927 o
1 -4 0 564.055 465.535 10.203 0.008 o
1 -4 1 16.710 19.435 1.023 6.799 o
1 -4 2 18.477 33.204 1.471 3.808 o
1 -4 3 24.715 16.203 0.982 4.553 o
1 -4 4 26.726 23.415 0.896 3.383 o
1 -4 5 0.077 -0.279 0.491 379.621 o
1 -4 6 113.044 109.824 3.209 0.179 o
1 -4 7 11.793 17.183 1.081 10.699 o
1 -4 8 3.815 3.729 0.757 79.862 o
1 -4 9 2.823 6.109 1.215 43.781 o
1 -3 0 1.172 7.804 0.407 146.905 o
1 -3 1 0.613 0.866 0.192 1622.380 o
1 -3 2 62.675 52.486 2.104 0.631 o
1 -3 3 838.187 755.945 16.182 0.003 o
1 -3 4 31.530 37.314 1.533 1.943 o
1 -3 5 25.316 23.706 1.168 3.531 o
1 -3 6 120.277 108.268 2.556 0.167 o
1 -3 7 3.047 2.654 0.641 121.916 o
1 -3 8 0.013 2.491 0.833 126.734 o
1 -3 9 0.814 0.779 0.566 264.461 o
1 -3 10 8.317 7.159 0.842 28.386 o
1 -2 0 2108.760 2093.550 44.882 0.001 o
1 -2 1 62.787 51.781 1.905 0.638 o
1 -2 2 79.238 82.276 3.137 0.342 o
1 -2 3 219.100 207.059 5.033 0.049 o
1 -2 4 52.949 47.210 1.246 0.866 o
1 -2 5 19.873 17.049 1.221 5.784 o
1 -2 6 14.677 15.852 0.831 9.367 o
1 -2 7 457.529 461.777 8.611 0.011 o
1 -2 8 23.281 20.552 0.996 4.357 o
1 -2 9 0.222 2.231 1.187 63.561 o
1 -2 10 0.582 1.476 0.957 96.652 o
1 -1 0 352.417 567.456 9.847 0.013 o
1 -1 1 212.834 172.738 5.354 0.057 o
1 -1 2 1152.190 1174.720 35.171 0.002 o
1 -1 3 2453.000 2482.690 73.776 0.000 o
1 -1 4 59.444 63.588 1.624 0.608 o
1 -1 5 2.283 1.975 0.695 136.115 o
1 -1 6 164.519 151.535 4.644 0.087 o
1 -1 7 47.229 42.943 1.367 1.067 o
1 -1 8 0.405 0.350 0.670 201.386 o
1 -1 9 22.620 34.744 1.635 2.943 o
1 -1 10 0.296 1.319 0.588 252.703 o
1 -1 11 10.914 12.856 0.832 15.160 o
1 0 0 222.229 60.274 2.148 0.081 o
1 0 1 1444.830 1596.010 47.157 0.001 o
1 0 2 2166.700 2212.830 37.773 0.000 o
1 0 3 2298.660 2261.920 75.691 0.000 o
1 0 4 258.021 229.772 5.233 0.037 o
1 0 5 9.069 17.045 0.885 14.567 o
1 0 6 355.331 352.307 10.015 0.018 o
1 0 7 78.562 69.237 1.714 0.397 o
1 0 8 8.555 4.235 0.435 41.341 o
1 0 9 1.570 2.119 0.431 296.208 o
1 0 10 23.425 20.071 0.826 4.447 o
1 0 11 37.587 34.096 1.564 1.649 o
1 1 0 613.729 446.685 13.524 0.007 o
1 1 1 490.844 405.034 12.165 0.011 o
1 1 2 782.165 679.361 13.149 0.004 o
1 1 3 2889.300 3051.380 90.377 0.000 o
1 1 4 3.108 2.697 0.520 146.728 o
1 1 5 46.772 46.399 1.386 1.029 o
1 1 6 444.802 502.315 17.165 0.010 o
1 1 7 5.807 4.645 0.615 58.939 o
1 1 8 0.420 0.041 0.415 521.952 o
1 1 9 1.045 0.927 0.425 414.215 o
1 1 10 3.225 5.046 0.513 107.614 o
1 1 11 81.406 77.052 2.048 0.352 o
1 2 0 2522.410 2589.040 76.189 0.000 o
1 2 1 1867.060 2100.910 61.885 0.001 o
1 2 2 3590.070 3788.380 63.906 0.000 o
1 2 3 1289.980 1229.370 37.119 0.001 o
1 2 4 61.512 69.884 3.399 0.517 o
1 2 5 1367.320 1444.180 30.430 0.001 o
1 2 6 674.429 658.273 21.760 0.005 o
1 2 7 111.096 92.526 5.226 0.196 o
1 2 8 4.695 5.805 0.551 68.826 o
1 2 9 0.021 0.335 0.363 690.977 o
1 2 10 0.533 0.114 0.363 663.474 o
1 2 11 86.841 85.678 1.881 0.303 o
1 2 12 37.461 32.736 2.315 1.610 o
1 3 0 250.955 205.073 4.837 0.041 o
1 3 1 890.355 829.803 14.459 0.003 o
1 3 2 341.668 311.735 7.211 0.021 o
1 3 3 802.285 695.944 15.365 0.004 o
1 3 4 182.708 166.642 3.435 0.072 o
1 3 5 205.777 193.043 5.707 0.055 o
1 3 6 349.728 421.619 14.728 0.016 o
1 3 7 15.372 25.212 2.639 4.385 o
1 3 8 65.115 63.462 1.544 0.541 o
1 3 9 0.047 0.334 0.325 857.965 o
1 3 10 42.636 46.718 1.733 1.138 o
1 3 11 6.021 7.687 0.449 47.399 o
1 3 12 103.493 102.428 2.517 0.212 o
1 4 0 2.451 9.020 0.966 51.030 o
1 4 1 55.481 58.494 2.663 0.680 o
1 4 2 430.620 312.428 7.089 0.015 o
1 4 3 9.836 9.526 1.081 18.463 o
1 4 4 1134.800 1305.990 22.608 0.002 o
1 4 5 17.160 13.112 0.729 8.693 o
1 4 6 777.507 891.018 28.619 0.003 o
1 4 7 27.864 17.784 1.629 3.432 o
1 4 8 106.781 108.547 2.983 0.195 o
1 4 9 5.175 2.857 0.500 89.286 o
1 4 10 52.312 46.955 1.339 0.881 o
1 4 11 96.646 88.940 2.467 0.254 o
1 4 12 0.298 -0.240 0.340 780.152 o
1 5 0 20.187 32.980 1.492 3.502 o
1 5 1 22.985 7.157 0.625 7.077 o
1 5 2 1075.510 1151.070 19.875 0.002 o
1 5 3 75.859 66.930 1.608 0.426 o
1 5 4 0.189 1.324 0.332 743.601 o
1 5 5 415.644 453.575 15.207 0.012 o
1 5 6 242.635 206.051 5.862 0.042 o
1 5 7 18.517 17.384 0.995 6.469 o
1 5 8 87.370 102.991 3.171 0.259 o
1 5 9 50.979 48.181 1.406 0.896 o
1 5 10 5.382 6.098 0.463 61.933 o
1 5 11 154.946 148.880 2.600 0.097 o
1 5 12 0.510 0.533 0.385 577.047 o
1 6 0 108.405 100.592 2.832 0.201 o
1 6 1 17.842 16.827 0.912 6.995 o
1 6 2 1.855 3.646 0.482 193.423 o
1 6 3 195.033 210.314 6.636 0.056 o
1 6 4 52.719 38.778 1.266 0.973 o
1 6 5 243.264 278.713 7.032 0.035 o
1 6 6 1.866 1.273 0.764 131.692 o
1 6 7 179.270 166.711 2.770 0.074 o
1 6 8 15.726 17.323 0.601 8.373 o
1 6 9 154.638 155.448 2.247 0.095 o
1 6 10 109.393 109.445 2.075 0.189 o
1 6 11 99.840 104.851 1.756 0.220 o
1 6 12 0.193 0.153 0.382 621.141 o
1 6 13 36.516 33.811 1.440 1.734 o
1 7 0 12.326 11.723 0.573 14.745 o
1 7 1 45.811 63.015 1.376 0.846 o
1 7 2 461.299 448.893 7.104 0.011 o
1 7 3 2.996 6.035 0.727 78.188 o
1 7 4 93.746 98.738 2.052 0.249 o
1 7 5 2.586 5.797 0.811 76.773 o
1 7 6 102.690 114.312 2.395 0.199 o
1 7 7 85.700 84.320 1.389 0.313 o
1 7 8 4.526 4.879 0.372 91.453 o
1 7 9 69.673 64.936 1.252 0.489 o
1 7 10 88.785 78.668 1.415 0.312 o
1 7 11 0.875 1.294 0.328 616.073 o
1 7 12 14.542 17.366 0.839 8.894 o
1 7 13 25.509 19.281 0.938 4.008 o
1 8 0 2.480 1.910 0.426 233.953 o
1 8 1 4.393 4.536 0.475 90.222 o
1 8 2 15.754 15.114 0.583 9.155 o
1 8 3 27.605 30.079 0.815 2.775 o
1 8 4 25.579 21.287 0.756 3.831 o
1 8 5 107.643 105.486 2.801 0.197 o
1 8 6 18.286 11.455 1.152 7.906 o
1 8 7 42.203 51.770 1.725 1.072 o
1 8 8 12.899 9.627 0.604 15.404 o
1 8 9 0.006 -0.074 0.387 612.110 o
1 8 10 25.300 27.947 0.972 3.228 o
1 8 11 48.530 53.503 1.596 0.886 o
1 8 12 23.255 25.423 0.927 3.837 o
1 9 0 48.790 47.412 1.302 0.962 o
1 9 1 3.262 3.516 0.604 112.569 o
1 9 2 4.335 2.728 0.596 98.147 o
1 9 3 32.999 30.103 0.854 2.191 o
1 9 4 22.852 22.858 0.733 4.272 o
1 9 5 30.702 37.833 1.431 1.998 o
1 9 6 1.051 1.390 0.584 231.707 o
1 9 7 17.020 21.275 1.485 5.792 o
1 9 8 46.492 41.989 1.645 1.094 o
1 9 9 30.568 27.490 1.151 2.527 o
1 9 10 2.402 3.996 0.558 139.723 o
1 9 11 21.617 22.753 0.845 4.562 o
1 9 12 3.468 4.319 0.628 95.632 o
1 10 0 2.512 3.652 0.646 121.656 o
1 10 1 25.380 20.111 0.860 3.969 o
1 10 2 10.063 7.000 0.690 24.438 o
1 10 3 27.388 28.323 0.934 2.901 o
1 10 4 0.729 0.956 0.402 488.849 o
1 10 5 47.772 39.962 2.012 1.069 o
1 10 6 16.433 18.718 0.996 7.142 o
1 10 7 0.523 1.223 0.588 248.074 o
1 10 8 38.185 44.561 1.879 1.336 o
1 10 9 34.622 37.411 1.169 1.763 o
1 10 10 0.919 2.050 0.437 354.977 o
1 10 11 3.692 3.284 0.305 152.902 o
1 11 0 3.185 2.501 0.950 73.092 o
1 11 1 2.886 3.087 0.545 141.635 o
1 11 2 5.794 5.548 0.556 56.702 o
1 11 3 41.950 42.265 1.423 1.258 o
1 11 4 72.830 84.663 2.687 0.377 o
1 11 5 293.015 307.690 6.955 0.025 o
1 11 6 7.114 9.320 0.731 30.520 o
1 11 7 1.049 4.648 0.602 161.981 o
1 11 8 21.428 17.169 1.178 5.261 o
1 11 9 18.185 13.049 1.946 6.253 o
1 11 10 8.184 7.571 0.679 30.439 o
1 12 2 36.712 34.014 1.409 1.718 o
1 12 3 0.043 -0.141 0.539 315.055 o
1 12 4 11.119 12.114 1.006 14.630 o
1 12 5 32.722 28.297 1.000 2.286 o
1 12 6 0.821 0.383 0.527 308.898 o
1 12 7 33.134 48.518 1.425 1.511 o
1 12 8 29.160 21.787 0.813 3.137 o
1 13 5 7.235 6.215 0.580 40.913 o
2 -11 0 1.120 0.862 0.469 348.420 o
2 -10 0 0.434 1.178 0.474 376.350 o
2 -10 1 35.066 36.001 1.286 1.770 o
2 -10 2 0.706 0.955 0.825 129.658 o
2 -9 0 34.562 35.385 0.983 1.849 o
2 -9 1 20.459 17.378 0.823 5.801 o
2 -9 2 0.064 0.141 0.481 394.343 o
2 -9 3 2.262 4.272 1.261 47.331 o
2 -9 4 11.488 8.481 1.091 16.381 o
2 -8 0 20.375 20.130 0.726 5.385 o
2 -8 1 10.297 8.076 0.672 22.299 o
2 -8 2 15.477 10.878 0.709 11.056 o
2 -8 3 6.487 8.369 0.649 37.433 o
2 -8 4 36.671 34.777 4.532 1.263 o
2 -8 5 14.899 15.197 2.128 6.768 o
2 -7 0 14.785 20.909 0.722 7.728 o
2 -7 1 25.767 22.910 0.763 3.631 o
2 -7 2 1.867 1.828 0.426 286.800 o
2 -7 3 1.416 1.307 0.538 250.662 o
2 -7 4 90.546 73.866 1.916 0.313 o
2 -7 5 23.024 22.169 1.759 3.850 o
2 -7 6 0.072 0.523 0.660 208.956 o
2 -6 0 145.682 99.341 2.107 0.134 o
2 -6 1 133.763 129.761 2.220 0.130 o
2 -6 2 6.312 5.479 0.498 53.719 o
2 -6 3 93.115 91.066 2.057 0.265 o
2 -6 4 5.744 8.716 0.683 40.142 o
2 -6 5 53.409 54.510 2.904 0.738 o
2 -6 6 34.484 33.289 1.522 1.876 o
2 -6 7 0.375 0.725 0.463 407.924 o
2 -5 0 789.719 772.469 17.092 0.004 o
2 -5 1 18.172 22.843 1.344 5.268 o
2 -5 2 115.712 120.599 7.175 0.152 o
2 -5 3 10.465 9.792 0.647 19.843 o
2 -5 4 2.414 2.408 0.428 220.119 o
2 -5 5 13.719 13.184 0.897 11.249 o
2 -5 6 38.566 37.644 1.814 1.480 o
2 -5 7 0.000 0.583 0.506 355.055 o
2 -5 8 1.716 2.410 0.402 292.285 o
2 -4 0 38.731 40.785 0.950 1.452 o
2 -4 1 347.290 362.954 8.293 0.018 o
2 -4 2 251.103 287.455 6.876 0.032 o
2 -4 3 33.949 37.771 1.670 1.746 o
2 -4 4 243.086 245.533 5.660 0.038 o
2 -4 5 0.255 1.871 0.584 249.753 o
2 -4 6 6.046 7.077 1.492 23.716 o
2 -4 7 3.476 2.816 0.616 113.863 o
2 -4 8 0.732 2.660 0.606 206.740 o
2 -4 9 0.568 0.302 0.400 540.182 o
2 -3 0 32.467 28.519 1.055 2.293 o
2 -3 1 1.506 4.794 1.071 64.590 o
2 -3 2 1003.250 822.761 22.548 0.003 o
2 -3 3 225.288 219.348 9.698 0.044 o
2 -3 4 363.787 368.949 11.284 0.017 o
2 -3 5 168.684 165.461 4.579 0.080 o
2 -3 6 241.927 223.821 4.574 0.041 o
2 -3 7 29.087 33.929 2.338 2.121 o
2 -3 8 10.293 7.192 1.336 17.555 o
2 -3 9 0.084 0.997 0.449 440.193 o
2 -3 10 5.495 3.172 0.425 85.404 o
2 -2 0 333.910 331.505 7.278 0.020 o
2 -2 1 7.873 13.363 1.442 15.661 o
2 -2 2 1127.200 1093.960 33.185 0.002 o
2 -2 3 1895.830 1709.750 29.260 0.001 o
2 -2 4 4.177 3.695 0.798 71.406 o
2 -2 5 12.504 9.949 1.004 14.217 o
2 -2 6 0.070 0.685 0.737 167.751 o
2 -2 7 17.882 18.226 1.156 6.405 o
2 -2 8 2.569 1.030 0.670 148.250 o
2 -2 9 0.464 0.694 0.680 192.993 o
2 -2 10 38.556 33.411 1.242 1.640 o
2 -1 0 659.331 601.886 10.659 0.006 o
2 -1 1 693.676 709.673 21.084 0.005 o
2 -1 2 228.225 258.061 17.522 0.036 o
2 -1 3 2823.230 3083.600 69.822 0.000 o
2 -1 4 78.183 67.865 1.970 0.403 o
2 -1 5 206.761 192.381 4.035 0.056 o
2 -1 6 36.993 42.151 1.227 1.490 o
2 -1 7 60.179 57.206 1.521 0.643 o
2 -1 8 57.242 49.230 2.042 0.743 o
2 -1 9 41.724 31.636 2.443 1.412 o
2 -1 10 122.468 124.149 4.930 0.145 o
2 -1 11 1.745 3.006 0.561 182.072 o
2 0 0 0.446 0.912 0.609 237.548 o
2 0 1 1341.620 1185.290 48.449 0.001 o
2 0 2 31.389 31.250 1.779 2.156 o
2 0 3 23.986 28.132 1.723 3.189 o
2 0 4 130.725 136.493 3.890 0.127 o
2 0 5 12.509 11.656 0.793 13.857 o
2 0 6 65.466 66.971 1.913 0.515 o
2 0 7 112.515 114.762 2.985 0.175 o
2 0 8 11.828 14.329 0.875 12.754 o
2 0 9 82.939 83.447 1.742 0.328 o
2 0 10 36.526 28.473 0.984 1.957 o
2 0 11 29.721 25.346 2.996 2.237 o
2 1 0 191.983 205.188 4.950 0.058 o
2 1 1 1471.840 1412.700 42.105 0.001 o
2 1 2 1450.680 1300.720 38.828 0.001 o
2 1 3 1136.460 1152.590 25.826 0.002 o
2 1 4 236.969 296.692 7.076 0.034 o
2 1 5 0.376 0.421 0.525 324.516 o
2 1 6 31.800 27.288 1.121 2.411 o
2 1 7 30.511 30.586 0.987 2.392 o
2 1 8 5.111 2.471 0.573 87.612 o
2 1 9 0.385 0.193 0.500 359.912 o
2 1 10 43.337 47.356 1.165 1.127 o
2 1 11 13.953 17.888 0.816 9.167 o
2 2 0 1.338 1.139 0.799 130.160 o
2 2 1 1323.950 1185.570 34.944 0.001 o
2 2 2 5390.380 5741.470 168.610 0.000 o
2 2 3 33.630 12.272 1.079 3.127 o
2 2 4 149.528 198.352 4.120 0.082 o
2 2 5 5.031 15.039 0.911 25.218 o
2 2 6 27.970 51.056 1.843 1.687 o
2 2 7 40.842 51.160 1.381 1.139 o
2 2 8 18.624 17.893 0.643 6.574 o
2 2 9 10.642 13.528 0.917 14.701 o
2 2 10 11.349 15.034 0.612 13.659 o
2 2 11 42.998 38.395 1.080 1.309 o
2 2 12 1.526 0.421 0.562 247.662 o
2 3 0 0.018 0.267 0.366 682.650 o
2 3 1 312.444 290.350 9.133 0.024 o
2 3 2 28.555 12.242 1.045 4.074 o
2 3 3 792.689 607.201 11.623 0.004 o
2 3 4 118.588 237.200 8.619 0.085 o
2 3 5 0.489 9.830 0.711 89.299 o
2 3 6 35.839 35.970 2.894 1.529 o
2 3 7 2.615 2.164 0.493 188.275 o
2 3 8 1.710 3.014 0.522 200.702 o
2 3 9 219.325 206.543 4.512 0.049 o
2 3 10 3.425 3.288 0.436 141.574 o
2 3 11 22.349 24.336 0.879 4.170 o
2 3 12 13.935 11.094 0.586 12.911 o
2 4 0 91.150 98.034 2.807 0.256 o
2 4 1 133.647 103.553 2.168 0.149 o
2 4 2 369.553 350.736 6.725 0.017 o
2 4 3 38.387 103.631 3.460 0.585 o
2 4 4 15.928 56.174 2.343 2.293 o
2 4 5 1496.100 1772.660 37.896 0.001 o
2 4 6 104.172 76.366 2.114 0.251 o
2 4 7 4.413 5.118 0.455 85.472 o
2 4 8 258.866 233.194 4.939 0.036 o
2 4 9 0.155 0.730 0.473 399.765 o
2 4 10 2.020 0.838 0.431 314.368 o
2 4 11 107.645 114.676 2.389 0.187 o
2 4 12 3.237 3.025 0.341 176.953 o
2 4 13 6.360 4.455 0.552 56.676 o
2 5 0 1.855 4.838 0.561 143.145 o
2 5 1 36.025 45.190 1.687 1.432 o
2 5 2 480.981 441.222 8.200 0.010 o
2 5 3 4.522 16.079 0.705 27.717 o
2 5 4 140.942 168.675 3.624 0.100 o
2 5 5 211.649 236.155 4.295 0.047 o
2 5 6 226.601 253.001 5.932 0.041 o
2 5 7 6.311 4.633 0.383 62.281 o
2 5 8 153.854 160.293 5.532 0.091 o
2 5 9 29.798 26.848 1.630 2.552 o
2 5 10 82.039 78.070 1.839 0.347 o
2 5 11 24.490 25.518 0.878 3.599 o
2 5 12 6.490 5.095 0.733 46.029 o
2 6 0 242.044 232.343 5.068 0.040 o
2 6 1 217.604 165.463 8.145 0.055 o
2 6 2 229.286 198.450 4.138 0.047 o
2 6 3 97.407 98.624 2.838 0.234 o
2 6 4 287.092 284.703 5.651 0.028 o
2 6 5 277.672 313.933 6.100 0.027 o
2 6 6 10.283 10.783 0.625 19.241 o
2 6 7 135.137 122.999 2.544 0.132 o
2 6 8 19.553 28.400 1.377 4.133 o
2 6 9 13.530 7.037 0.635 16.435 o
2 6 10 133.610 119.095 2.332 0.137 o
2 6 11 3.226 2.502 0.502 150.543 o
2 6 12 0.044 0.747 0.483 387.816 o
2 6 13 46.144 41.770 1.681 1.107 o
2 7 0 2.593 6.988 0.565 93.617 o
2 7 1 14.229 14.173 0.660 10.754 o
2 7 2 154.265 151.142 3.658 0.096 o
2 7 3 64.296 55.590 1.314 0.600 o
2 7 4 170.130 181.501 3.727 0.075 o
2 7 5 75.349 84.833 3.277 0.356 o
2 7 6 2.235 2.460 0.545 179.352 o
2 7 7 0.950 0.852 0.478 349.280 o
2 7 8 22.258 17.373 0.905 5.131 o
2 7 9 18.930 22.927 0.843 5.344 o
2 7 10 226.189 220.696 3.703 0.045 o
2 7 11 64.662 67.813 1.996 0.518 o
2 7 12 8.665 13.402 0.870 18.480 o
2 7 13 44.109 44.996 1.194 1.140 o
2 8 0 0.769 0.774 0.556 275.385 o
2 8 1 25.507 34.070 1.242 2.715 o
2 8 2 65.242 72.644 1.719 0.491 o
2 8 3 0.001 0.623 0.315 905.768 o
2 8 4 9.744 15.844 0.659 15.301 o
2 8 5 38.059 25.711 1.565 1.886 o
2 8 6 97.375 87.618 2.424 0.254 o
2 8 7 43.454 42.427 1.502 1.195 o
2 8 8 348.985 325.812 6.065 0.019 o
2 8 9 198.167 195.806 3.825 0.058 o
2 8 10 1.521 1.752 0.597 199.406 o
2 8 11 0.834 0.038 0.352 669.325 o
2 8 12 1.273 1.448 0.434 352.835 o
2 9 0 2.338 2.770 0.597 151.902 o
2 9 1 162.555 156.756 3.178 0.088 o
2 9 2 206.563 216.417 4.202 0.051 o
2 9 3 64.943 71.648 1.481 0.501 o
2 9 4 10.315 11.198 0.543 19.082 o
2 9 5 0.407 0.471 0.770 152.687 o
2 9 6 28.677 29.562 1.238 2.608 o
2 9 7 5.160 5.597 0.776 52.950 o
2 9 8 54.856 55.110 1.437 0.745 o
2 9 9 47.691 41.759 1.164 1.078 o
2 9 10 0.002 0.343 0.465 422.341 o
2 9 11 1.837 1.648 0.579 198.519 o
2 9 12 13.696 10.566 0.777 13.065 o
2 10 0 8.758 9.528 1.392 17.648 o
2 10 1 25.522 29.016 1.557 2.962 o
2 10 2 12.452 10.911 0.789 14.476 o
2 10 3 34.409 37.982 1.394 1.739 o
2 10 4 37.542 42.766 1.192 1.450 o
2 10 5 27.416 23.847 1.096 3.188 o
2 10 6 95.779 110.470 2.950 0.221 o
2 10 7 34.559 30.791 1.267 1.991 o
2 10 8 5.112 6.611 0.917 43.587 o
2 10 9 18.288 18.776 0.839 6.392 o
2 10 10 1.008 0.733 0.409 456.525 o
2 10 11 4.001 4.353 0.594 88.805 o
2 11 1 34.005 27.770 1.799 2.080 o
2 11 2 6.861 10.639 0.918 26.302 o
2 11 3 32.483 28.701 1.593 2.204 o
2 11 4 19.896 20.900 1.378 5.011 o
2 11 5 28.417 32.561 1.190 2.479 o
2 11 6 0.977 0.641 0.642 207.087 o
2 11 7 13.850 12.684 0.771 11.674 o
2 11 8 0.166 -0.410 0.443 464.720 o
2 11 9 0.090 0.465 0.525 330.111 o
2 11 10 1.361 1.589 0.502 273.887 o
2 12 3 4.812 4.460 0.581 75.113 o
2 12 4 2.878 3.834 0.682 104.720 o
2 12 5 3.322 3.956 0.740 87.500 o
2 12 6 55.989 61.773 1.673 0.668 o
2 12 7 78.272 84.251 2.132 0.349 o
2 12 8 16.469 20.931 0.777 6.781 o
2 12 9 0.844 2.591 0.484 289.619 o
3 -11 0 31.465 31.519 1.300 2.215 o
3 -10 0 1.574 1.121 0.669 173.254 o
3 -10 1 6.247 6.544 0.700 43.568 o
3 -9 0 24.700 23.484 1.745 3.434 o
3 -9 1 8.282 7.843 0.586 30.610 o
3 -9 2 5.464 5.016 0.451 68.666 o
3 -9 3 45.435 41.202 2.120 1.116 o
3 -9 4 15.346 11.833 0.932 10.279 o
3 -8 0 45.863 49.221 1.713 1.004 o
3 -8 1 2.819 2.024 0.440 201.576 o
3 -8 2 16.560 13.067 0.729 9.143 o
3 -8 3 27.928 27.096 1.172 2.865 o
3 -8 4 48.019 40.826 2.365 1.030 o
3 -8 5 0.534 0.554 0.773 150.303 o
3 -7 0 532.120 550.018 10.056 0.008 o
3 -7 1 0.832 0.400 0.401 508.694 o
3 -7 2 18.810 16.050 0.701 6.887 o
3 -7 3 0.938 0.413 0.409 480.464 o
3 -7 4 66.758 61.269 1.999 0.530 o
3 -7 5 15.220 13.880 1.190 9.023 o
3 -7 6 5.921 7.217 0.983 35.482 o
3 -6 0 2.589 3.299 0.566 143.162 o
3 -6 1 23.767 28.916 0.823 3.435 o
3 -6 2 15.234 23.372 0.779 6.786 o
3 -6 3 61.111 44.319 1.420 0.731 o
3 -6 4 41.211 43.774 1.413 1.258 o
3 -6 5 3.995 1.752 0.923 71.902 o
3 -6 6 0.067 1.061 1.132 71.079 o
3 -6 7 5.353 3.546 0.708 65.198 o
3 -5 0 83.979 77.118 3.014 0.332 o
3 -5 1 62.206 35.399 0.925 0.800 o
3 -5 2 1.225 6.194 0.447 172.127 o
3 -5 3 1.222 0.489 0.401 460.064 o
3 -5 4 52.112 65.301 1.663 0.702 o
3 -5 5 2.833 1.217 0.604 159.068 o
3 -5 6 10.502 7.571 0.684 22.349 o
3 -5 7 0.060 -0.111 0.445 462.128 o
3 -5 8 2.344 2.182 0.349 276.350 o
3 -4 0 0.333 1.643 0.557 274.320 o
3 -4 1 575.861 581.742 13.635 0.007 o
3 -4 2 3.436 11.831 0.743 43.463 o
3 -4 3 0.055 1.264 0.372 622.814 o
3 -4 4 13.645 21.184 0.749 8.320 o
3 -4 5 61.944 55.280 1.679 0.629 o
3 -4 6 83.754 85.174 2.237 0.317 o
3 -4 7 4.573 4.232 0.704 70.919 o
3 -4 8 2.516 2.160 0.497 192.048 o
3 -4 9 1.293 0.876 0.418 401.620 o
3 -3 0 237.168 231.319 4.788 0.041 o
3 -3 1 43.581 47.362 1.893 1.090 o
3 -3 2 26.292 32.119 2.141 2.510 o
3 -3 3 52.993 39.547 1.773 0.941 o
3 -3 4 45.017 34.535 1.252 1.298 o
3 -3 5 93.989 89.987 2.258 0.263 o
3 -3 6 38.232 32.626 1.272 1.679 o
3 -3 7 0.676 0.690 0.601 241.299 o
3 -3 8 0.002 0.923 0.619 236.880 o
3 -3 9 25.459 24.373 0.865 3.529 o
3 -3 10 12.433 8.206 0.862 16.335 o
3 -2 0 484.794 418.154 9.779 0.011 o
3 -2 1 156.701 149.241 4.951 0.094 o
3 -2 2 82.056 93.051 3.586 0.298 o
3 -2 3 367.223 430.784 34.304 0.013 o
3 -2 4 207.118 263.025 7.340 0.044 o
3 -2 5 245.590 239.014 5.430 0.038 o
3 -2 6 289.671 259.418 6.357 0.029 o
3 -2 7 22.289 26.784 1.366 3.737 o
3 -2 8 28.237 29.228 1.205 2.685 o
3 -2 9 47.944 42.715 1.303 1.051 o
3 -2 10 14.501 20.108 2.097 6.055 o
3 -1 0 445.639 431.013 8.047 0.012 o
3 -1 1 113.360 146.201 3.503 0.145 o
3 -1 2 628.918 651.858 20.711 0.006 o
3 -1 3 245.544 198.902 5.318 0.043 o
3 -1 4 1167.620 1221.960 31.110 0.002 o
3 -1 5 61.551 54.536 1.857 0.637 o
3 -1 6 149.055 149.656 2.319 0.102 o
3 -1 7 23.022 33.020 1.139 3.148 o
3 -1 8 0.379 0.641 0.603 246.076 o
3 -1 9 114.629 104.847 2.456 0.182 o
3 -1 10 49.380 31.597 2.148 1.142 o
3 0 0 158.542 154.861 4.149 0.091 o
3 0 1 435.789 481.311 10.792 0.011 o
3 0 2 2613.990 2662.190 77.046 0.000 o
3 0 3 151.649 139.615 8.750 0.097 o
3 0 4 64.666 67.279 2.884 0.508 o
3 0 5 191.681 167.586 5.418 0.066 o
3 0 6 62.179 77.454 1.848 0.496 o
3 0 7 1.588 1.552 0.401 352.071 o
3 0 8 353.675 358.263 6.448 0.018 o
3 0 9 163.209 193.022 7.454 0.073 o
3 0 10 2.029 7.928 0.618 89.750 o
3 0 11 82.987 77.996 6.016 0.304 o
3 1 0 30.183 35.226 1.303 2.164 o
3 1 1 11.790 4.683 0.882 21.155 o
3 1 2 563.774 475.364 15.163 0.008 o
3 1 3 636.121 768.037 29.685 0.005 o
3 1 4 27.710 27.328 3.387 2.185 o
3 1 5 0.001 -0.106 0.578 274.439 o
3 1 6 0.004 0.621 0.588 263.472 o
3 1 7 45.477 48.828 0.897 1.045 o
3 1 8 174.737 169.452 3.021 0.076 o
3 1 9 189.931 174.913 4.564 0.066 o
3 1 10 44.325 58.924 1.337 0.929 o
3 1 11 0.694 1.680 0.395 462.583 o
3 2 0 83.377 93.702 6.395 0.267 o
3 2 1 202.113 179.780 6.506 0.059 o
3 2 2 3.045 1.337 0.785 106.310 o
3 2 3 99.092 97.608 8.582 0.198 o
3 2 4 612.688 532.972 10.076 0.007 o
3 2 5 251.986 244.495 5.230 0.036 o
3 2 6 4.578 3.052 0.768 73.131 o
3 2 7 13.594 9.413 0.452 14.866 o
3 2 8 0.005 0.270 0.346 763.609 o
3 2 9 200.202 186.958 3.806 0.059 o
3 2 10 71.741 83.885 2.815 0.385 o
3 2 11 5.123 8.768 0.666 44.650 o
3 2 12 18.299 19.940 1.053 5.978 o
3 3 0 1.590 1.647 0.427 320.490 o
3 3 1 24.757 25.499 1.933 3.185 o
3 3 2 128.306 100.825 4.036 0.157 o
3 3 3 254.420 266.401 8.773 0.033 o
3 3 4 1073.310 982.658 17.543 0.002 o
3 3 5 806.249 661.199 15.549 0.004 o
3 3 6 23.800 27.802 2.699 2.812 o
3 3 7 256.276 256.090 3.265 0.035 o
3 3 8 68.711 87.083 1.867 0.402 o
3 3 9 58.544 68.184 1.511 0.591 o
3 3 10 30.883 30.530 1.101 2.343 o
3 3 11 45.296 39.962 1.490 1.174 o
3 3 12 0.002 1.718 0.631 222.234 o
3 4 0 103.958 101.036 3.686 0.209 o
3 4 1 273.933 275.879 9.468 0.029 o
3 4 2 5.328 6.770 0.982 39.564 o
3 4 3 167.342 166.508 4.388 0.081 o
3 4 4 733.598 721.357 16.709 0.004 o
3 4 5 45.153 75.531 4.205 0.654 o
3 4 6 100.503 84.226 2.377 0.249 o
3 4 7 72.216 68.193 1.184 0.452 o
3 4 8 0.010 3.980 0.423 365.720 o
3 4 9 53.663 49.050 1.593 0.823 o
3 4 10 4.221 5.134 0.932 54.268 o
3 4 11 22.811 24.189 1.046 4.023 o
3 4 12 3.098 4.567 0.680 93.640 o
3 5 0 38.959 46.068 3.446 1.142 o
3 5 2 8.303 10.823 1.056 20.533 o
3 5 3 27.034 38.125 2.195 2.149 o
3 5 4 126.089 117.529 3.977 0.147 o
3 5 5 470.087 371.500 8.388 0.012 o
3 5 6 47.617 34.059 1.109 1.212 o
3 5 7 3.667 6.360 0.534 81.814 o
3 5 8 0.019 -0.000 0.418 523.118 o
3 5 9 4.330 5.853 0.661 66.695 o
3 5 10 7.895 6.186 1.030 28.539 o
3 5 11 4.113 5.828 0.694 67.374 o
3 5 12 3.608 5.942 1.597 27.573 o
3 6 0 17.806 19.427 0.977 6.349 o
3 6 1 11.751 14.133 1.220 11.762 o
3 6 2 4.336 2.884 1.567 30.034 o
3 6 3 0.484 0.315 1.461 42.766 o
3 6 4 57.694 51.815 3.908 0.656 o
3 6 5 205.137 218.143 3.574 0.052 o
3 6 6 4.792 9.358 0.607 46.643 o
3 6 7 11.148 7.138 0.448 22.598 o
3 6 8 8.414 5.212 0.529 37.532 o
3 6 10 1.218 0.956 0.557 253.265 o
3 6 11 0.374 1.034 0.449 424.425 o
3 6 12 22.063 24.289 0.956 4.216 o
3 6 13 5.404 5.264 0.601 60.674 o
3 7 0 3.530 1.713 0.717 106.919 o
3 7 1 91.436 84.179 2.121 0.285 o
3 7 2 1.753 1.631 0.906 97.649 o
3 7 3 0.813 1.150 0.429 419.231 o
3 7 4 151.721 161.673 7.844 0.089 o
3 7 5 27.623 19.619 1.237 3.462 o
3 7 6 0.386 0.392 0.536 311.837 o
3 7 7 13.822 14.648 1.342 9.389 o
3 7 8 1.201 1.373 0.918 101.134 o
3 7 9 67.062 61.827 1.969 0.525 o
3 7 10 0.017 0.361 0.413 533.708 o
3 7 11 0.231 0.512 0.355 702.214 o
3 7 12 13.343 12.470 0.677 12.586 o
3 8 0 45.689 45.853 2.284 1.030 o
3 8 1 46.819 47.850 1.461 1.005 o
3 8 2 1.756 3.419 0.544 179.532 o
3 8 3 344.756 346.339 10.993 0.019 o
3 8 4 0.278 1.893 0.468 373.189 o
3 8 5 59.167 47.422 2.254 0.720 o
3 8 6 47.131 48.242 3.008 0.922 o
3 8 7 2.537 4.987 0.986 64.359 o
3 8 8 0.011 -0.095 0.778 151.309 o
3 8 9 71.037 66.231 1.625 0.468 o
3 8 10 1.348 0.352 0.269 806.195 o
3 8 11 16.736 22.821 0.755 6.247 o
3 8 12 19.295 20.952 1.710 4.900 o
3 9 0 7.699 6.123 0.992 30.086 o
3 9 1 5.634 6.926 1.058 35.350 o
3 9 2 65.097 67.110 1.996 0.517 o
3 9 3 51.200 52.031 1.691 0.841 o
3 9 4 49.476 58.311 1.469 0.817 o
3 9 5 6.526 10.431 0.604 32.508 o
3 9 6 70.803 62.955 2.768 0.473 o
3 9 7 81.075 74.340 2.682 0.358 o
3 9 8 192.698 197.574 3.854 0.060 o
3 9 9 106.169 103.050 2.296 0.205 o
3 9 10 15.444 13.653 0.781 9.711 o
3 9 11 8.711 10.950 0.617 23.131 o
3 9 12 34.287 33.699 1.419 1.887 o
3 10 0 0.854 3.178 0.544 227.690 o
3 10 2 84.559 89.951 6.844 0.265 o
3 10 3 0.780 2.863 0.553 233.382 o
3 10 4 4.323 3.958 0.596 86.292 o
3 10 5 9.117 8.529 0.535 26.379 o
3 10 6 54.412 49.512 2.277 0.785 o
3 10 7 29.723 31.578 1.238 2.387 o
3 10 8 146.367 158.382 3.856 0.100 o
3 10 9 1.813 1.257 0.428 316.633 o
3 10 10 3.343 4.487 0.363 133.349 o
3 10 11 1.230 0.670 0.298 692.038 o
3 11 0 2.211 3.231 0.757 109.806 o
3 11 1 1.180 1.887 0.865 110.485 o
3 11 2 47.409 52.161 2.456 0.897 o
3 11 3 0.182 0.520 0.416 518.476 o
3 11 4 1.470 1.740 0.688 160.281 o
3 11 5 2.305 2.596 0.759 113.565 o
3 11 6 1.415 1.819 0.476 283.658 o
3 11 7 1.182 1.128 0.446 361.463 o
3 11 8 64.048 66.902 1.907 0.530 o
3 11 9 0.420 0.249 0.360 677.893 o
3 11 10 2.015 0.979 0.453 288.824 o
3 12 4 4.642 3.815 0.546 86.269 o
3 12 5 2.911 2.743 0.582 137.783 o
3 12 6 14.236 14.428 1.664 8.361 o
3 12 7 13.916 16.008 0.854 9.874 o
3 12 8 3.597 3.192 0.354 151.377 o
3 12 9 2.303 3.284 0.431 197.807 o
4 -10 0 8.610 14.662 1.007 16.550 o
4 -10 1 5.057 5.439 0.606 63.451 o
4 -9 0 20.369 13.507 1.248 6.255 o
4 -9 1 12.643 12.585 0.697 13.347 o
4 -9 2 0.341 0.702 0.417 502.348 o
4 -9 3 19.740 20.647 1.114 5.289 o
4 -8 0 0.707 0.710 0.602 239.020 o
4 -8 1 63.930 59.691 1.572 0.576 o
4 -8 2 22.021 24.535 0.891 4.219 o
4 -8 3 49.373 63.996 2.787 0.730 o
4 -8 4 19.294 19.808 1.421 5.330 o
4 -8 5 17.416 14.151 0.914 7.962 o
4 -7 0 6.546 4.653 0.710 48.088 o
4 -7 1 16.220 15.606 0.712 8.504 o
4 -7 2 216.312 230.973 4.589 0.046 o
4 -7 3 94.451 108.649 2.511 0.229 o
4 -7 4 8.354 11.441 1.557 15.394 o
4 -7 5 14.663 13.098 2.097 7.385 o
4 -7 6 2.792 2.204 0.660 129.859 o
4 -6 0 97.747 112.000 2.729 0.214 o
4 -6 1 14.236 13.058 0.650 11.319 o
4 -6 2 51.650 55.951 1.551 0.795 o
4 -6 3 286.520 294.351 5.674 0.027 o
4 -6 4 65.151 66.457 1.947 0.521 o
4 -6 5 17.982 18.526 1.820 5.546 o
4 -6 6 0.864 1.022 0.951 97.612 o
4 -6 7 12.914 11.997 2.891 6.221 o
4 -5 0 1.165 2.035 0.660 176.057 o
4 -5 1 272.365 240.326 3.494 0.033 o
4 -5 2 5.088 4.921 0.459 74.826 o
4 -5 3 8.062 8.396 0.579 30.435 o
4 -5 4 117.613 132.453 5.071 0.146 o
4 -5 5 15.814 14.368 1.372 8.112 o
4 -5 6 0.019 2.050 1.359 49.056 o
4 -5 7 0.014 0.767 0.735 168.783 o
4 -5 8 0.868 0.716 0.529 298.638 o
4 -4 0 105.065 98.303 2.434 0.214 o
4 -4 1 73.112 57.531 1.465 0.490 o
4 -4 2 46.703 43.186 0.985 1.091 o
4 -4 3 1.922 1.812 0.433 277.612 o
4 -4 4 3.978 2.653 0.477 125.833 o
4 -4 5 54.543 47.710 1.774 0.814 o
4 -4 6 0.497 1.573 0.589 243.531 o
4 -4 7 12.033 13.814 0.786 13.086 o
4 -4 8 31.813 26.654 1.245 2.423 o
4 -4 9 6.215 5.239 0.791 45.468 o
4 -3 0 168.409 182.093 3.931 0.076 o
4 -3 1 122.701 120.907 3.959 0.150 o
4 -3 2 112.986 106.999 8.348 0.163 o
4 -3 3 48.389 41.580 0.925 1.065 o
4 -3 4 29.859 33.305 0.788 2.343 o
4 -3 5 136.615 147.210 3.961 0.114 o
4 -3 6 10.200 8.185 0.791 21.500 o
4 -3 7 7.142 6.736 0.746 36.325 o
4 -3 8 14.486 15.070 0.855 9.788 o
4 -3 9 4.474 3.545 0.710 76.468 o
4 -2 0 8.939 12.755 1.269 15.839 o
4 -2 1 2.942 3.717 1.300 43.580 o
4 -2 2 50.261 45.514 1.605 0.940 o
4 -2 3 71.913 48.512 1.785 0.546 o
4 -2 4 124.842 120.985 2.211 0.149 o
4 -2 5 0.251 0.260 0.368 663.535 o
4 -2 6 208.194 202.380 5.458 0.053 o
4 -2 7 18.516 22.501 1.704 4.907 o
4 -2 8 70.252 73.210 2.264 0.440 o
4 -2 9 35.166 37.640 1.153 1.723 o
4 -2 10 25.165 27.858 1.651 3.062 o
4 -1 0 82.894 94.600 3.097 0.294 o
4 -1 1 367.922 334.487 8.717 0.018 o
4 -1 2 4.042 6.341 1.373 32.578 o
4 -1 3 4.696 3.956 1.107 45.384 o
4 -1 4 236.368 203.739 11.644 0.042 o
4 -1 5 47.833 50.175 0.984 0.959 o
4 -1 6 1.224 1.376 0.374 447.030 o
4 -1 7 16.391 20.747 1.078 6.588 o
4 -1 8 2.356 3.820 0.678 116.889 o
4 -1 9 0.546 0.585 0.512 332.818 o
4 -1 10 59.909 63.550 2.954 0.579 o
4 0 0 8.539 5.308 0.898 30.176 o
4 0 1 748.938 776.862 14.244 0.004 o
4 0 2 1.740 7.786 0.858 70.386 o
4 0 3 163.723 199.809 10.060 0.068 o
4 0 4 43.801 30.094 1.433 1.439 o
4 0 5 29.432 19.384 0.846 3.278 o
4 0 6 158.642 179.868 2.993 0.083 o
4 0 7 97.936 88.029 1.519 0.254 o
4 0 8 123.533 119.984 2.501 0.151 o
4 0 9 67.974 67.682 1.798 0.488 o
4 0 10 56.802 55.445 1.734 0.704 o
4 0 11 4.841 4.797 0.808 57.753 o
4 1 0 235.000 250.048 5.397 0.039 o
4 1 1 583.906 643.780 16.591 0.006 o
4 1 2 2.166 1.100 0.691 150.462 o
4 1 3 94.952 116.043 3.767 0.213 o
4 1 4 0.186 2.722 0.773 142.962 o
4 1 5 60.040 65.912 2.506 0.572 o
4 1 6 86.655 94.417 1.595 0.285 o
4 1 7 5.950 6.367 0.400 55.725 o
4 1 8 17.474 22.602 0.785 5.970 o
4 1 9 188.296 198.348 4.048 0.062 o
4 1 10 37.489 43.556 2.539 1.329 o
4 1 11 30.583 38.917 1.221 1.990 o
4 2 0 68.622 67.165 2.190 0.481 o
4 2 1 1564.130 1608.060 48.731 0.001 o
4 2 2 14.097 14.860 1.585 8.515 o
4 2 3 294.539 284.611 7.421 0.027 o
4 2 4 32.038 38.985 2.339 1.738 o
4 2 5 30.580 18.063 1.166 3.129 o
4 2 6 1.695 11.063 0.537 75.212 o
4 2 7 352.776 387.510 4.475 0.017 o
4 2 8 483.275 494.601 6.745 0.010 o
4 2 9 10.839 17.725 1.077 11.359 o
4 2 10 22.622 21.756 1.787 3.955 o
4 2 11 11.578 16.199 0.827 12.096 o
4 3 0 30.583 37.882 1.291 2.022 o
4 3 1 377.169 359.053 9.129 0.016 o
4 3 2 437.660 472.254 15.543 0.011 o
4 3 3 97.824 91.357 4.033 0.239 o
4 3 4 67.594 50.547 2.235 0.578 o
4 3 5 71.788 79.110 3.490 0.394 o
4 3 6 0.386 18.758 0.755 40.426 o
4 3 7 37.254 21.463 0.736 2.207 o
4 3 8 1025.660 1012.820 14.041 0.002 o
4 3 9 71.368 62.800 1.451 0.482 o
4 3 10 2.920 1.332 0.565 167.017 o
4 3 11 0.112 0.407 0.623 234.723 o
4 3 12 38.867 45.270 1.817 1.298 o
4 4 0 271.483 269.322 5.106 0.031 o
4 4 1 78.115 78.151 2.756 0.364 o
4 4 2 35.872 28.629 2.120 1.858 o
4 4 3 481.122 459.483 11.112 0.010 o
4 4 4 420.491 361.844 13.189 0.014 o
4 4 5 228.164 182.679 5.840 0.050 o
4 4 6 28.046 47.976 1.172 1.849 o
4 4 7 33.380 31.789 0.885 2.083 o
4 4 8 217.647 221.645 3.337 0.047 o
4 4 9 197.702 215.987 4.662 0.054 o
4 4 10 10.798 11.701 0.946 15.723 o
4 4 11 21.273 17.832 0.855 5.406 o
4 4 12 25.985 32.066 1.531 2.714 o
4 5 0 1.249 1.236 0.441 356.641 o
4 5 1 28.957 23.705 1.383 2.904 o
4 5 2 22.887 27.636 1.280 3.578 o
4 5 3 61.117 66.977 2.978 0.545 o
4 5 4 16.913 18.720 0.990 6.909 o
4 5 5 140.644 147.565 4.650 0.109 o
4 5 6 122.527 106.242 2.634 0.165 o
4 5 7 623.762 608.965 9.115 0.006 o
4 5 8 25.047 26.505 1.112 3.352 o
4 5 9 15.183 15.600 0.590 9.400 o
4 5 10 6.865 7.551 1.064 29.108 o
4 5 11 2.155 2.821 0.754 115.144 o
4 5 12 0.867 0.379 0.372 579.272 o
4 6 0 195.468 203.890 4.440 0.057 o
4 6 1 37.761 39.520 1.320 1.512 o
4 6 2 0.015 0.921 0.533 317.319 o
4 6 3 0.172 0.528 0.423 501.714 o
4 6 4 181.037 179.411 3.801 0.069 o
4 6 5 4.171 2.248 0.482 125.264 o
4 6 6 0.003 0.271 0.360 703.465 o
4 6 7 0.107 1.336 0.371 616.032 o
4 6 8 20.726 15.530 0.669 6.153 o
4 6 9 0.811 0.583 0.553 279.120 o
4 6 10 8.312 7.454 1.169 23.216 o
4 6 11 6.321 6.986 0.519 46.189 o
4 6 12 0.143 0.642 0.400 559.344 o
4 7 0 239.497 259.014 8.571 0.037 o
4 7 1 0.992 1.811 0.737 150.803 o
4 7 2 15.873 17.337 1.915 6.368 o
4 7 3 12.529 12.022 1.006 12.853 o
4 7 4 239.707 240.555 6.905 0.039 o
4 7 5 127.063 106.314 6.026 0.149 o
4 7 6 9.298 8.396 0.796 23.646 o
4 7 7 0.893 0.705 0.498 332.388 o
4 7 8 0.001 0.028 0.461 431.391 o
4 7 9 37.157 37.549 2.119 1.523 o
4 7 10 7.066 8.035 0.705 34.143 o
4 7 11 32.547 30.353 1.844 2.086 o
4 7 12 2.056 3.797 0.433 196.625 o
4 8 0 6.526 5.700 0.987 36.095 o
4 8 1 51.871 54.350 2.516 0.780 o
4 8 2 1.570 3.241 0.578 177.790 o
4 8 3 2.279 4.184 0.854 85.580 o
4 8 4 226.863 222.596 5.169 0.044 o
4 8 5 21.882 18.155 1.341 4.860 o
4 8 6 0.801 0.109 0.536 304.442 o
4 8 7 8.250 7.717 1.052 24.659 o
4 8 8 16.254 15.207 0.939 8.323 o
4 8 9 43.315 42.116 1.494 1.206 o
4 8 10 0.626 1.085 0.311 754.967 o
4 8 11 44.192 49.397 1.167 1.068 o
4 9 0 73.425 84.971 3.245 0.367 o
4 9 1 8.393 10.861 1.099 19.885 o
4 9 2 0.134 0.225 0.437 476.044 o
4 9 3 70.761 85.653 2.361 0.390 o
4 9 4 2.033 2.229 0.533 199.019 o
4 9 5 20.302 18.482 1.642 5.027 o
4 9 6 11.671 11.258 1.110 13.971 o
4 9 7 0.467 0.160 0.498 361.380 o
4 9 8 11.990 6.789 0.670 19.660 o
4 9 9 5.478 5.373 0.582 60.079 o
4 9 10 10.727 12.560 0.545 16.831 o
4 9 11 19.078 21.477 0.793 5.571 o
4 10 0 0.025 -0.047 0.496 371.495 o
4 10 1 4.125 5.407 0.749 65.878 o
4 10 2 0.119 0.064 0.629 231.464 o
4 10 3 25.444 24.190 0.966 3.523 o
4 10 4 0.005 0.577 0.439 471.665 o
4 10 5 40.971 47.806 1.810 1.172 o
4 10 6 43.760 42.318 1.658 1.179 o
4 10 7 12.575 11.829 1.011 12.893 o
4 10 8 0.389 0.784 0.453 423.008 o
4 10 9 26.731 24.605 0.930 3.275 o
4 10 10 7.129 6.370 0.528 42.188 o
4 10 11 31.140 32.590 1.290 2.197 o
4 11 2 9.655 12.526 0.798 17.808 o
4 11 3 0.004 0.333 0.463 425.140 o
4 11 4 4.218 7.185 0.744 55.905 o
4 11 5 13.326 13.875 1.007 11.011 o
4 11 6 43.729 41.873 1.526 1.194 o
4 11 7 3.979 6.502 0.668 66.537 o
4 11 8 1.364 0.691 0.717 161.928 o
4 11 9 7.260 8.412 0.893 29.201 o
4 11 10 1.442 1.361 0.392 392.178 o
4 12 5 1.360 0.994 0.369 463.971 o
4 12 6 18.551 17.974 0.928 6.383 o
5 -9 0 0.690 0.265 0.609 239.431 o
5 -9 1 2.002 3.403 0.674 131.134 o
5 -8 0 11.221 12.345 1.237 13.249 o
5 -8 1 9.275 10.221 1.186 18.002 o
5 -8 2 61.580 78.334 4.949 0.447 o
5 -8 3 0.039 0.409 0.606 248.376 o
5 -7 0 54.381 64.414 2.858 0.647 o
5 -7 1 116.974 127.293 2.737 0.156 o
5 -7 2 11.695 13.175 0.702 14.228 o
5 -7 3 47.198 51.960 1.639 0.935 o
5 -7 4 0.605 1.023 0.847 123.652 o
5 -7 5 5.223 7.194 0.835 44.004 o
5 -6 0 42.491 45.109 2.297 1.137 o
5 -6 1 111.837 122.081 2.733 0.170 o
5 -6 2 41.150 54.364 2.193 1.042 o
5 -6 3 10.487 10.720 0.686 18.550 o
5 -6 4 26.880 13.155 16.608 0.310 o
5 -6 5 7.347 4.698 0.742 41.194 o
5 -6 6 0.079 0.159 0.438 476.807 o
5 -5 0 58.992 41.537 1.926 0.784 o
5 -5 1 788.531 847.600 13.370 0.003 o
5 -5 2 806.335 861.025 25.710 0.003 o
5 -5 3 0.001 1.098 0.508 347.715 o
5 -5 4 51.653 53.063 1.524 0.825 o
5 -5 5 6.166 7.561 1.029 32.496 o
5 -5 6 5.422 6.222 0.872 44.556 o
5 -5 7 0.053 -0.044 0.509 353.379 o
5 -4 0 556.304 557.820 6.949 0.007 o
5 -4 1 38.207 35.107 2.834 1.446 o
5 -4 2 196.780 202.761 4.038 0.057 o
5 -4 3 17.015 17.203 0.787 7.452 o
5 -4 4 5.660 6.283 0.647 50.992 o
5 -4 5 5.098 3.904 1.064 45.419 o
5 -4 6 5.528 6.919 1.562 23.619 o
5 -4 7 3.002 1.952 0.800 99.430 o
5 -4 8 12.029 12.378 0.745 14.183 o
5 -3 0 139.759 133.179 2.352 0.120 o
5 -3 1 217.540 209.342 3.479 0.049 o
5 -3 2 118.732 112.740 3.675 0.164 o
5 -3 3 0.050 0.569 0.508 351.928 o
5 -3 4 64.773 63.438 1.647 0.544 o
5 -3 5 39.332 34.734 1.262 1.558 o
5 -3 6 0.785 0.506 0.991 91.389 o
5 -3 7 1.566 1.283 0.843 114.825 o
5 -3 8 3.301 3.644 0.720 92.903 o
5 -3 9 46.355 47.682 2.270 0.987 o
5 -2 0 171.603 181.659 3.019 0.074 o
5 -2 1 85.918 94.931 2.990 0.281 o
5 -2 2 2.182 3.596 0.763 105.911 o
5 -2 3 70.569 69.429 1.741 0.458 o
5 -2 4 14.671 11.172 1.071 10.845 o
5 -2 5 0.025 -0.070 0.347 762.348 o
5 -2 6 32.919 27.084 1.373 2.274 o
5 -2 7 1.511 0.131 0.925 101.647 o
5 -2 8 1.232 1.397 0.809 127.075 o
5 -2 9 10.990 10.736 0.913 16.376 o
5 -2 10 0.128 0.577 0.492 373.613 o
5 -1 0 368.996 361.537 8.691 0.017 o
5 -1 1 6.575 8.006 1.244 25.884 o
5 -1 2 55.403 47.584 2.422 0.780 o
5 -1 3 35.359 34.307 1.021 1.829 o
5 -1 4 52.390 58.762 1.735 0.751 o
5 -1 5 41.559 56.472 1.647 1.025 o
5 -1 6 30.606 27.101 0.767 2.597 o
5 -1 7 7.401 5.501 0.523 43.485 o
5 -1 8 16.241 12.953 0.819 9.299 o
5 -1 9 5.685 6.745 0.900 40.360 o
5 -1 10 9.517 13.418 1.149 15.253 o
5 0 0 18.313 14.978 1.404 6.631 o
5 0 1 63.216 63.587 2.191 0.554 o
5 0 2 25.689 23.429 1.735 3.283 o
5 0 3 0.887 0.426 0.623 223.285 o
5 0 4 21.970 25.679 1.206 3.981 o
5 0 5 4.775 2.941 0.507 96.342 o
5 0 6 57.416 52.142 1.076 0.732 o
5 0 7 4.259 5.063 0.468 88.131 o
5 0 8 3.156 2.628 0.465 160.211 o
5 0 9 5.844 5.454 0.771 48.174 o
5 0 10 32.986 35.645 1.990 1.836 o
5 1 0 5.403 4.790 0.618 62.567 o
5 1 1 251.372 231.184 5.319 0.038 o
5 1 2 9.259 9.492 1.103 19.465 o
5 1 3 122.201 111.022 5.896 0.154 o
5 1 4 136.687 149.802 4.879 0.112 o
5 1 5 44.195 40.657 1.053 1.219 o
5 1 6 213.545 209.682 4.095 0.050 o
5 1 7 1.070 0.954 0.335 590.999 o
5 1 8 29.049 29.303 0.810 2.645 o
5 1 9 55.945 69.714 2.999 0.588 o
5 1 10 14.242 21.459 1.621 6.675 o
5 1 11 5.656 5.081 0.659 56.221 o
5 2 0 19.078 20.573 0.824 5.719 o
5 2 1 46.007 42.682 1.865 1.088 o
5 2 2 212.000 209.070 4.914 0.051 o
5 2 3 4.768 1.807 0.534 106.899 o
5 2 4 1.838 0.708 0.367 416.233 o
5 2 5 0.810 1.023 0.481 349.474 o
5 2 6 44.033 37.652 1.434 1.266 o
5 2 7 23.371 20.748 0.682 4.421 o
5 2 8 16.020 13.650 0.535 9.572 o
5 2 9 1.297 0.762 0.396 442.430 o
5 2 10 0.453 0.709 0.935 103.270 o
5 2 11 74.303 89.591 5.035 0.330 o
5 3 0 0.985 1.238 0.432 394.482 o
5 3 1 45.613 42.916 1.481 1.114 o
5 3 2 111.190 130.431 3.282 0.162 o
5 3 3 0.027 1.359 0.437 457.744 o
5 3 4 8.078 8.965 1.449 18.666 o
5 3 5 27.601 17.314 1.156 3.705 o
5 3 6 327.737 336.391 5.362 0.021 o
5 3 7 2.978 2.248 0.465 177.769 o
5 3 8 2.809 2.699 0.453 178.608 o
5 3 9 5.555 7.107 0.464 54.168 o
5 3 10 0.015 0.353 0.487 384.499 o
5 3 11 31.436 33.564 1.522 2.097 o
5 4 0 282.056 289.627 4.351 0.028 o
5 4 1 17.437 23.131 1.164 5.614 o
5 4 2 35.996 38.555 1.964 1.574 o
5 4 3 25.583 25.747 1.008 3.352 o
5 4 4 0.228 0.335 0.557 292.384 o
5 4 5 140.302 163.827 4.113 0.102 o
5 4 6 91.845 91.711 2.837 0.265 o
5 4 7 459.438 508.550 7.926 0.010 o
5 4 8 0.061 1.071 0.447 443.377 o
5 4 9 26.637 31.599 1.014 2.771 o
5 4 10 16.023 19.009 2.253 5.494 o
5 4 11 16.596 21.592 1.134 6.259 o
5 5 0 0.402 -0.282 0.839 129.481 o
5 5 1 2.407 3.625 1.049 64.659 o
5 5 2 3.576 2.909 0.511 128.826 o
5 5 3 94.036 87.743 2.530 0.266 o
5 5 4 38.092 40.613 1.407 1.462 o
5 5 5 1.431 3.759 0.580 172.236 o
5 5 6 199.519 174.594 4.328 0.062 o
5 5 7 797.955 819.138 11.781 0.004 o
5 5 8 118.810 116.141 2.398 0.163 o
5 5 9 12.985 16.161 0.676 10.969 o
5 5 10 18.545 20.695 1.336 5.507 o
5 5 11 3.501 5.296 0.684 80.249 o
5 5 12 2.161 2.171 0.550 186.813 o
5 6 0 26.132 23.566 1.248 3.376 o
5 6 1 50.331 44.888 2.067 0.930 o
5 6 2 0.369 0.382 0.564 282.432 o
5 6 3 150.488 149.165 2.679 0.101 o
5 6 4 14.124 10.416 0.595 13.082 o
5 6 5 228.465 223.100 6.097 0.044 o
5 6 6 660.469 643.915 11.416 0.005 o
5 6 7 71.827 66.797 2.014 0.456 o
5 6 8 0.200 1.834 0.431 440.873 o
5 6 9 3.760 3.216 0.494 120.986 o
5 6 10 7.767 6.378 0.981 29.558 o
5 6 11 17.420 18.341 1.179 6.558 o
5 6 12 0.087 -0.038 0.288 1099.930 o
5 7 0 1.107 1.033 0.789 136.614 o
5 7 1 13.425 13.551 1.289 10.267 o
5 7 2 3.902 1.962 0.645 109.014 o
5 7 3 54.703 55.462 3.220 0.698 o
5 7 4 6.797 7.694 0.684 36.893 o
5 7 5 0.310 -0.344 0.765 155.820 o
5 7 6 460.527 505.897 15.806 0.010 o
5 7 7 51.338 56.317 1.470 0.799 o
5 7 8 6.179 7.796 0.555 43.323 o
5 7 9 2.261 4.013 0.989 70.305 o
5 7 10 1.683 3.406 0.570 173.011 o
5 7 11 2.587 2.256 0.402 224.873 o
5 7 12 3.019 3.697 0.477 141.180 o
5 8 0 29.646 36.753 1.828 2.065 o
5 8 1 14.620 19.066 1.358 7.494 o
5 8 2 21.346 21.271 1.281 4.618 o
5 8 3 11.658 13.477 1.154 12.458 o
5 8 4 21.723 21.181 1.341 4.496 o
5 8 5 112.588 106.932 6.429 0.172 o
5 8 6 126.547 128.902 4.714 0.136 o
5 8 7 1.307 0.746 0.788 136.337 o
5 8 8 23.201 24.520 1.590 3.679 o
5 8 9 20.704 14.614 1.237 5.914 o
5 8 10 2.156 3.304 0.382 226.827 o
5 8 11 10.649 8.724 0.409 21.938 o
5 9 0 0.204 0.552 0.546 302.400 o
5 9 1 0.255 0.841 0.645 215.733 o
5 9 2 11.944 16.201 1.157 10.793 o
5 9 3 7.911 9.606 0.651 27.765 o
5 9 4 17.174 18.666 0.862 6.918 o
5 9 5 238.918 260.587 5.829 0.037 o
5 9 6 2.425 2.246 0.692 130.262 o
5 9 7 0.653 0.421 0.442 439.729 o
5 9 8 7.203 7.957 0.634 34.887 o
5 9 9 38.752 42.583 1.471 1.382 o
5 9 10 0.181 0.511 0.323 851.156 o
5 9 11 0.025 0.517 0.263 1298.280 o
5 10 1 1.211 1.363 0.474 317.240 o
5 10 2 0.218 0.404 0.516 339.489 o
5 10 3 37.178 45.608 1.876 1.357 o
5 10 4 15.811 23.206 1.401 5.974 o
5 10 5 27.839 29.778 1.519 2.633 o
5 10 6 0.098 0.124 0.505 358.986 o
5 10 7 3.048 4.805 0.502 117.419 o
5 10 8 0.379 0.677 0.399 542.721 o
5 10 9 4.674 5.258 0.336 86.291 o
5 10 10 4.518 3.551 0.467 99.270 o
5 11 5 15.911 12.620 0.782 9.750 o
5 11 6 39.773 41.752 1.693 1.341 o
5 11 7 0.094 0.470 0.432 484.504 o
5 11 8 2.207 1.327 0.339 350.507 o
6 -8 0 6.119 8.831 1.022 30.334 o
6 -8 1 1.130 0.831 0.641 201.678 o
6 -8 2 4.357 4.765 0.636 75.500 o
6 -7 0 1.082 1.367 0.846 118.640 o
6 -7 1 17.233 18.976 1.181 6.498 o
6 -7 2 9.986 8.527 0.665 22.595 o
6 -7 3 25.061 27.997 0.973 3.261 o
6 -7 4 2.613 1.757 0.501 195.554 o
6 -6 0 53.264 53.148 2.663 0.760 o
6 -6 1 5.486 4.585 0.824 52.170 o
6 -6 2 0.196 0.187 0.485 386.091 o
6 -6 3 29.947 40.441 1.354 1.966 o
6 -6 4 0.105 0.500 0.436 475.978 o
6 -6 5 32.328 46.228 1.964 1.565 o
6 -5 0 6.357 9.579 1.242 24.404 o
6 -5 1 5.738 3.704 0.648 63.372 o
6 -5 2 39.602 47.493 1.672 1.235 o
6 -5 3 19.225 19.627 1.005 5.722 o
6 -5 4 3.130 4.543 0.477 122.720 o
6 -5 5 20.157 29.622 1.822 3.653 o
6 -5 6 2.374 1.230 0.712 137.518 o
6 -4 0 281.509 297.334 6.292 0.027 o
6 -4 1 192.459 222.936 17.396 0.047 o
6 -4 2 11.027 11.602 0.901 15.661 o
6 -4 3 75.478 66.679 2.103 0.426 o
6 -4 4 0.970 2.538 0.413 352.984 o
6 -4 5 53.487 45.136 1.291 0.876 o
6 -4 6 5.783 5.647 0.808 46.480 o
6 -4 7 4.279 5.664 0.810 58.876 o
6 -3 0 178.995 180.726 3.177 0.070 o
6 -3 1 411.417 451.500 7.343 0.013 o
6 -3 2 2.307 3.164 0.532 165.889 o
6 -3 3 27.915 29.122 1.409 2.688 o
6 -3 4 57.279 67.167 2.031 0.607 o
6 -3 5 6.895 8.207 0.699 34.686 o
6 -3 6 19.806 20.464 0.960 5.397 o
6 -3 7 86.165 91.292 2.595 0.290 o
6 -3 8 4.644 3.658 0.523 89.897 o
6 -2 0 24.199 28.956 1.195 3.267 o
6 -2 1 230.347 256.339 5.167 0.040 o
6 -2 2 35.562 33.309 1.461 1.809 o
6 -2 3 24.214 28.750 1.051 3.320 o
6 -2 4 9.843 10.581 0.801 19.424 o
6 -2 5 33.983 28.298 0.926 2.177 o
6 -2 6 1.455 1.325 0.432 343.245 o
6 -2 7 2.486 2.198 0.763 112.876 o
6 -2 8 39.547 43.045 1.508 1.335 o
6 -2 9 3.815 2.319 0.643 107.206 o
6 -1 0 205.125 206.610 4.009 0.054 o
6 -1 1 1.720 1.555 0.479 269.190 o
6 -1 2 19.833 25.837 1.369 4.371 o
6 -1 3 3.673 4.984 0.579 90.599 o
6 -1 4 59.418 57.439 2.084 0.643 o
6 -1 5 40.088 35.099 1.493 1.494 o
6 -1 6 18.325 16.075 0.627 7.181 o
6 -1 7 5.954 7.316 0.503 48.304 o
6 -1 8 12.165 14.310 1.499 10.306 o
6 -1 9 20.737 22.031 0.949 4.863 o
6 0 0 58.922 59.912 2.393 0.626 o
6 0 1 0.119 -0.008 0.596 257.124 o
6 0 2 100.677 107.207 6.138 0.199 o
6 0 3 41.890 41.980 0.981 1.285 o
6 0 4 8.960 12.962 0.809 18.712 o
6 0 5 12.255 11.160 0.934 14.026 o
6 0 6 38.248 26.639 0.920 1.902 o
6 0 7 21.495 14.110 0.664 6.131 o
6 0 8 10.275 9.171 0.643 21.095 o
6 0 9 2.487 2.561 0.731 116.361 o
6 0 10 0.013 0.358 0.580 271.225 o
6 1 0 0.072 0.280 0.514 345.138 o
6 1 1 1.735 1.501 0.426 313.973 o
6 1 2 30.828 33.312 1.209 2.204 o
6 1 3 89.976 90.718 2.270 0.277 o
6 1 4 65.216 67.728 2.780 0.502 o
6 1 5 3.443 2.123 0.532 142.203 o
6 1 6 13.413 11.555 0.791 12.761 o
6 1 7 61.158 61.812 1.154 0.602 o
6 1 8 11.102 10.146 0.584 18.336 o
6 1 9 14.452 17.331 1.129 8.496 o
6 1 10 28.434 32.712 1.680 2.379 o
6 2 0 21.674 23.821 0.936 4.374 o
6 2 1 13.514 14.382 0.825 11.028 o
6 2 2 32.947 34.094 1.076 2.008 o
6 2 3 36.900 33.252 1.208 1.747 o
6 2 4 5.941 6.137 0.657 48.817 o
6 2 5 35.122 28.320 2.193 1.908 o
6 2 6 40.500 42.927 2.148 1.256 o
6 2 7 22.981 20.943 0.938 4.407 o
6 2 8 2.089 2.445 0.391 263.484 o
6 2 9 52.620 51.014 2.135 0.810 o
6 2 10 0.344 0.246 0.692 189.603 o
6 3 0 6.524 7.598 0.587 40.886 o
6 3 1 6.742 7.462 0.637 38.865 o
6 3 2 2.572 2.712 0.488 178.747 o
6 3 3 0.262 0.398 0.471 406.075 o
6 3 4 2.845 2.406 0.685 120.473 o
6 3 5 72.907 70.513 5.277 0.388 o
6 3 6 71.805 66.444 3.063 0.446 o
6 3 7 3.516 2.833 0.490 136.124 o
6 3 8 15.766 17.491 0.788 8.100 o
6 3 9 3.730 4.819 0.415 108.661 o
6 3 10 4.440 7.198 1.499 26.945 o
6 4 0 0.724 1.460 0.565 256.358 o
6 4 1 4.627 6.629 0.571 63.272 o
6 4 2 16.184 13.649 1.091 8.634 o
6 4 3 17.220 14.740 0.769 8.072 o
6 4 4 55.101 57.951 2.317 0.699 o
6 4 5 9.156 7.202 0.794 25.985 o
6 4 6 23.311 23.031 1.152 4.000 o
6 4 7 14.237 17.688 0.855 8.974 o
6 4 8 2.409 3.221 0.457 184.404 o
6 4 9 2.122 2.369 0.466 222.385 o
6 4 10 14.554 14.943 0.921 9.664 o
6 5 0 18.967 19.162 1.124 5.812 o
6 5 1 51.987 52.448 2.989 0.778 o
6 5 2 14.808 17.039 0.964 8.634 o
6 5 3 171.316 162.226 5.096 0.079 o
6 5 4 0.047 0.276 0.498 368.279 o
6 5 5 0.125 0.092 0.526 330.785 o
6 5 6 2.974 1.853 0.653 131.345 o
6 5 7 5.625 6.132 0.737 48.537 o
6 5 8 2.109 2.370 0.449 232.350 o
6 5 9 15.746 11.598 0.550 10.702 o
6 5 10 55.101 52.567 1.567 0.762 o
6 5 11 0.009 0.068 0.256 1391.660 o
6 6 0 5.481 6.897 1.129 33.996 o
6 6 1 61.706 69.856 2.248 0.535 o
6 6 2 14.844 16.776 1.035 8.583 o
6 6 3 49.937 48.166 1.694 0.913 o
6 6 4 26.462 27.218 0.938 3.111 o
6 6 5 61.065 61.942 2.811 0.578 o
6 6 6 241.720 264.164 4.995 0.036 o
6 6 7 57.656 59.977 1.526 0.659 o
6 6 8 61.497 65.760 1.643 0.568 o
6 6 9 14.204 21.999 0.794 7.678 o
6 6 10 13.561 12.021 1.026 11.643 o
6 6 11 5.571 6.459 1.084 35.882 o
6 7 0 5.079 7.701 0.928 40.176 o
6 7 1 6.232 7.609 0.978 33.331 o
6 7 2 0.626 0.632 0.729 167.449 o
6 7 3 126.658 135.063 4.780 0.132 o
6 7 4 14.084 17.059 1.945 7.110 o
6 7 5 3.701 3.320 0.790 80.700 o
6 7 6 14.765 12.973 1.193 9.685 o
6 7 7 59.808 54.325 1.773 0.665 o
6 7 8 4.767 3.448 0.465 94.876 o
6 7 9 107.413 106.746 3.935 0.193 o
6 7 10 1.958 5.693 0.699 101.901 o
6 7 11 0.135 0.748 0.389 587.276 o
6 8 0 2.778 2.294 0.601 144.247 o
6 8 1 1.506 1.123 0.627 194.970 o
6 8 2 6.677 5.903 0.823 39.359 o
6 8 3 11.530 12.439 0.846 14.494 o
6 8 4 37.741 36.851 1.712 1.551 o
6 8 5 74.234 74.334 6.176 0.354 o
6 8 6 2.193 1.805 0.484 226.018 o
6 8 7 37.527 44.196 1.445 1.402 o
6 8 8 50.978 53.754 2.519 0.802 o
6 8 9 0.201 0.431 0.431 483.894 o
6 8 10 12.708 9.573 0.910 14.602 o
6 9 0 0.282 0.565 0.336 774.324 o
6 9 1 4.544 5.712 0.616 67.679 o
6 9 2 3.323 4.285 0.618 100.264 o
6 9 3 5.668 6.545 0.710 47.542 o
6 9 4 0.984 0.847 0.357 562.435 o
6 9 5 99.601 110.728 3.876 0.207 o
6 9 6 24.011 21.948 1.120 3.978 o
6 9 7 2.817 2.309 0.391 211.414 o
6 9 8 39.710 35.421 1.619 1.495 o
6 9 9 0.404 0.727 0.263 1148.980 o
6 10 3 58.292 58.684 2.023 0.651 o
6 10 5 0.328 0.076 0.401 561.209 o
6 10 6 7.159 7.515 0.675 35.568 o
6 10 7 0.644 1.021 0.465 381.201 o
6 10 8 6.398 5.147 0.459 55.773 o
7 -8 0 25.129 25.544 1.224 3.386 o
7 -7 0 5.401 7.194 0.872 41.605 o
7 -7 1 0.287 1.011 0.625 227.584 o
7 -7 2 15.740 19.422 1.052 7.253 o
7 -6 0 8.121 10.392 1.125 20.718 o
7 -6 1 11.279 8.616 1.043 16.928 o
7 -6 2 1.336 1.865 0.697 158.522 o
7 -6 3 10.185 9.488 0.519 21.632 o
7 -5 0 11.103 15.577 1.452 10.831 o
7 -5 1 46.502 51.385 1.685 0.959 o
7 -5 2 0.246 0.718 0.397 558.221 o
7 -5 3 1.175 1.071 0.393 443.722 o
7 -5 4 2.031 2.067 0.470 235.860 o
7 -5 5 3.106 6.320 0.715 75.695 o
7 -4 0 5.217 6.237 0.545 59.741 o
7 -4 1 46.976 52.928 6.167 0.684 o
7 -4 2 151.951 176.224 5.064 0.087 o
7 -4 3 28.074 31.496 1.210 2.571 o
7 -4 4 3.233 4.941 0.643 92.332 o
7 -4 5 1.752 2.006 0.413 299.442 o
7 -4 6 3.360 6.351 0.764 68.200 o
7 -3 0 4.968 3.547 0.562 81.486 o
7 -3 1 79.233 89.719 3.261 0.322 o
7 -3 2 34.448 31.420 1.307 1.971 o
7 -3 3 29.499 37.687 1.496 2.091 o
7 -3 4 48.708 57.231 1.280 0.848 o
7 -3 5 0.005 0.618 0.415 524.995 o
7 -3 6 0.766 0.112 0.326 775.957 o
7 -3 7 0.826 0.979 0.484 345.678 o
7 -2 0 93.782 109.643 3.084 0.228 o
7 -2 1 17.089 20.906 1.154 6.179 o
7 -2 2 10.470 11.152 0.896 17.017 o
7 -2 3 11.834 15.228 0.699 12.692 o
7 -2 4 4.741 4.044 0.344 98.291 o
7 -2 5 24.256 21.148 0.872 4.100 o
7 -2 6 3.175 3.095 0.460 150.590 o
7 -2 7 1.206 0.861 0.808 130.575 o
7 -2 8 1.953 4.476 0.598 136.644 o
7 -1 0 391.859 429.237 7.881 0.014 o
7 -1 1 59.074 65.008 2.168 0.595 o
7 -1 2 5.149 6.776 0.646 53.435 o
7 -1 3 7.049 9.227 0.679 31.806 o
7 -1 4 103.813 103.000 2.973 0.209 o
7 -1 5 0.824 3.023 0.473 285.221 o
7 -1 6 42.693 41.498 1.315 1.249 o
7 -1 7 20.381 21.644 0.821 5.091 o
7 -1 8 0.128 0.986 0.694 187.271 o
7 0 0 227.764 228.574 5.482 0.043 o
7 0 1 3.338 1.942 0.523 151.785 o
7 0 2 12.947 13.368 0.772 12.292 o
7 0 3 0.005 0.279 0.621 237.383 o
7 0 4 69.669 68.009 2.170 0.468 o
7 0 5 2.721 2.939 0.903 81.190 o
7 0 6 0.857 1.082 0.371 531.504 o
7 0 7 36.926 30.389 0.917 1.863 o
7 0 8 2.607 2.909 0.409 198.808 o
7 0 9 2.761 7.716 0.810 63.817 o
7 1 0 0.504 0.323 0.699 184.340 o
7 1 1 46.636 49.524 1.415 0.988 o
7 1 2 74.803 85.313 2.512 0.364 o
7 1 3 1.262 0.803 0.610 217.217 o
7 1 4 85.461 87.078 2.544 0.303 o
7 1 5 16.468 11.925 1.446 8.296 o
7 1 6 0.442 0.744 0.524 319.563 o
7 1 7 0.153 0.241 0.322 873.364 o
7 1 8 2.654 3.339 0.500 157.300 o
7 1 9 9.113 8.395 0.714 25.014 o
7 2 0 13.129 15.445 1.061 10.339 o
7 2 1 23.999 24.776 1.166 3.677 o
7 2 2 13.710 11.153 0.711 12.860 o
7 2 3 33.625 31.186 1.332 2.042 o
7 2 4 1.931 1.530 0.638 170.898 o
7 2 5 42.213 38.585 2.027 1.283 o
7 2 6 49.957 48.108 2.535 0.882 o
7 2 7 2.113 2.414 0.448 230.718 o
7 2 8 4.120 4.360 0.385 107.185 o
7 2 9 26.657 30.085 0.987 2.871 o
7 3 0 30.456 31.873 0.930 2.340 o
7 3 1 6.053 6.668 0.812 41.125 o
7 3 2 22.030 22.485 0.898 4.468 o
7 3 3 0.441 -0.004 0.586 264.040 o
7 3 4 31.058 24.289 1.170 2.650 o
7 3 5 6.561 6.106 0.991 34.865 o
7 3 6 4.669 7.028 1.152 36.357 o
7 3 7 27.523 30.376 1.437 2.654 o
7 3 8 13.437 10.819 0.592 13.736 o
7 3 9 40.753 40.277 1.200 1.359 o
7 4 0 18.038 17.792 1.812 5.658 o
7 4 1 1.096 0.909 0.428 404.930 o
7 4 2 26.399 27.439 1.279 3.026 o
7 4 3 0.058 0.182 0.450 450.553 o
7 4 4 178.032 177.132 4.400 0.071 o
7 4 5 8.513 9.360 1.050 21.815 o
7 4 6 46.809 46.279 1.637 1.021 o
7 4 7 0.038 0.633 0.569 280.796 o
7 4 8 0.175 0.368 0.351 728.061 o
7 4 9 2.299 3.964 0.406 186.723 o
7 5 0 38.871 40.964 2.375 1.341 o
7 5 1 19.311 21.322 1.126 5.310 o
7 5 2 6.405 8.446 1.328 24.274 o
7 5 3 34.754 36.629 1.579 1.742 o
7 5 4 74.868 73.051 1.485 0.411 o
7 5 5 8.604 8.807 0.757 25.569 o
7 5 6 73.668 79.746 1.856 0.394 o
7 5 7 1.158 1.666 0.439 348.178 o
7 5 8 0.015 0.284 0.352 738.089 o
7 5 9 30.724 25.619 0.794 2.667 o
7 5 10 16.535 20.550 1.027 6.618 o
7 6 0 19.233 20.679 1.251 5.350 o
7 6 1 2.591 3.072 0.626 131.686 o
7 6 2 6.578 7.841 0.741 36.505 o
7 6 3 26.386 24.555 1.106 3.293 o
7 6 4 35.904 36.464 1.496 1.685 o
7 6 5 0.209 0.407 0.387 598.573 o
7 6 6 95.284 100.646 2.567 0.239 o
7 6 7 27.537 31.126 0.930 2.701 o
7 6 8 1.463 1.540 0.486 281.663 o
7 6 9 13.964 15.586 0.599 10.434 o
7 6 10 1.245 0.471 0.338 597.137 o
7 7 0 18.338 20.354 1.093 5.849 o
7 7 1 0.005 -0.081 0.552 300.494 o
7 7 2 2.964 2.603 0.675 117.435 o
7 7 3 20.819 21.756 1.250 4.713 o
7 7 4 9.535 8.457 0.788 22.949 o
7 7 5 7.328 6.734 0.788 34.479 o
7 7 6 0.236 1.055 0.648 212.646 o
7 7 7 14.187 13.952 0.785 10.671 o
7 7 8 79.854 76.135 2.940 0.358 o
7 7 9 7.156 5.664 0.528 44.610 o
7 8 1 4.476 6.463 0.578 65.853 o
7 8 2 4.628 4.743 0.594 74.780 o
7 8 3 5.047 4.848 0.613 66.931 o
7 8 4 4.072 3.717 0.392 117.549 o
7 8 5 9.101 7.916 0.712 25.870 o
7 8 6 10.867 9.438 0.798 18.472 o
7 8 7 11.018 8.036 0.502 21.433 o
7 8 8 2.862 3.217 0.385 181.727 o
7 8 9 9.122 8.018 0.431 28.159 o
7 9 5 3.174 1.880 0.395 200.218 o
7 9 6 0.831 0.809 0.409 470.525 o
7 9 7 0.006 0.214 0.372 661.818 o
8 -6 0 1.768 1.952 0.362 345.237 o
8 -6 1 2.572 2.369 0.541 168.430 o
8 -5 0 0.011 0.249 0.408 548.043 o
8 -5 1 2.516 1.989 0.440 221.899 o
8 -5 2 8.430 11.011 0.588 24.102 o
8 -5 3 31.701 38.319 1.461 1.902 o
8 -4 0 0.075 -0.047 0.353 735.744 o
8 -4 1 1.789 1.894 0.520 226.729 o
8 -4 2 0.122 -0.040 0.440 471.307 o
8 -4 3 2.334 4.815 0.748 95.407 o
8 -4 4 17.678 28.018 1.205 4.743 o
8 -3 0 134.594 138.754 3.584 0.122 o
8 -3 1 2.081 2.424 0.454 229.668 o
8 -3 2 24.100 28.032 0.756 3.468 o
8 -3 3 0.124 0.725 0.323 845.378 o
8 -3 4 1.335 2.292 0.603 193.534 o
8 -3 5 7.687 10.790 0.718 25.733 o
8 -2 0 10.088 8.135 0.504 23.988 o
8 -2 1 3.421 3.565 0.430 137.316 o
8 -2 2 2.871 3.994 0.505 135.371 o
8 -2 3 3.502 4.084 0.381 132.364 o
8 -2 4 14.894 15.302 0.639 9.693 o
8 -2 5 61.267 59.896 4.578 0.542 o
8 -2 6 7.267 5.549 0.543 43.862 o
8 -1 0 10.486 8.510 0.516 22.168 o
8 -1 1 61.496 61.931 1.823 0.589 o
8 -1 2 0.652 0.841 0.458 396.872 o
8 -1 3 20.418 20.619 0.830 5.239 o
8 -1 4 2.158 1.518 0.521 216.392 o
8 -1 5 3.247 4.713 0.546 106.943 o
8 -1 6 15.365 15.109 0.656 9.371 o
8 -1 7 2.501 4.140 0.429 164.665 o
8 0 0 0.653 0.587 0.741 162.044 o
8 0 1 11.133 12.001 0.676 16.128 o
8 0 2 2.908 2.596 0.488 165.531 o
8 0 3 35.298 36.422 1.143 1.753 o
8 0 4 0.056 0.182 0.440 471.369 o
8 0 5 34.547 37.607 1.315 1.749 o
8 0 6 3.563 2.809 0.607 113.435 o
8 0 7 22.132 21.773 0.775 4.581 o
8 1 0 11.380 8.207 0.755 18.944 o
8 1 1 11.583 14.388 0.704 13.536 o
8 1 2 3.146 5.103 0.666 89.742 o
8 1 3 12.819 11.320 0.688 13.989 o
8 1 4 11.307 10.692 0.663 17.050 o
8 1 5 30.509 30.226 0.981 2.411 o
8 1 6 2.575 2.779 0.438 194.088 o
8 1 7 0.144 0.407 0.409 540.943 o
8 1 8 0.422 0.408 0.284 1044.170 o
8 2 0 0.058 -0.085 0.443 467.206 o
8 2 1 0.214 0.411 0.485 383.625 o
8 2 2 3.536 3.725 0.482 121.905 o
8 2 3 0.578 0.331 0.436 458.403 o
8 2 4 4.546 3.119 0.610 88.453 o
8 2 5 14.355 15.736 0.902 9.542 o
8 2 6 0.002 0.345 0.642 221.516 o
8 2 7 10.054 9.393 0.860 19.868 o
8 2 8 1.679 3.068 0.399 266.862 o
8 3 0 10.602 5.597 0.649 25.330 o
8 3 1 0.376 0.857 0.429 467.879 o
8 3 2 4.013 4.282 0.669 81.732 o
8 3 3 1.787 1.421 0.595 196.938 o
8 3 4 65.893 67.115 1.624 0.513 o
8 3 5 8.980 10.191 0.622 23.417 o
8 3 6 7.047 8.605 0.705 32.842 o
8 3 7 21.819 24.540 1.081 4.194 o
8 3 8 0.577 0.760 0.341 691.575 o
8 3 9 6.172 5.389 0.527 54.624 o
8 4 0 0.381 0.814 0.865 120.657 o
8 4 1 1.674 1.303 0.511 256.610 o
8 4 2 0.033 0.158 0.256 1396.690 o
8 4 3 56.906 51.455 1.907 0.732 o
8 4 4 0.059 0.106 0.377 641.611 o
8 4 5 2.680 2.091 0.423 215.081 o
8 4 6 31.964 32.934 1.201 2.122 o
8 4 7 16.438 16.505 0.661 8.119 o
8 4 8 27.117 30.505 0.821 2.809 o
8 4 9 64.348 61.624 2.197 0.552 o
8 5 0 4.649 4.506 0.881 56.418 o
8 5 1 1.580 2.501 0.517 223.514 o
8 5 2 0.012 0.530 0.470 412.521 o
8 5 3 69.866 65.475 2.442 0.474 o
8 5 4 25.854 22.971 0.710 3.620 o
8 5 5 4.345 2.638 0.466 116.283 o
8 5 6 16.983 14.889 0.734 8.213 o
8 5 7 18.378 15.832 1.566 6.209 o
8 5 8 0.262 0.313 0.353 715.590 o
8 6 1 8.147 11.065 0.768 23.372 o
8 6 2 10.982 10.116 0.781 17.658 o
8 6 3 26.079 23.189 1.169 3.442 o
8 6 4 21.912 16.860 0.910 5.324 o
8 6 5 0.124 0.473 0.490 377.078 o
8 6 6 12.865 12.080 0.858 12.913 o
8 6 7 0.039 0.166 0.267 1283.150 o
8 7 3 9.390 7.557 0.560 26.948 o
8 7 4 42.023 29.277 1.231 1.562 o
8 7 5 15.951 13.034 0.835 9.466 o
8 7 6 14.241 10.037 0.771 12.736 o
8 7 7 1.001 1.401 0.465 341.638 o
9 -3 0 2.551 3.264 0.724 109.599 o
9 -3 1 0.254 0.822 0.313 867.495 o
9 -3 2 0.420 1.100 0.317 781.265 o
9 -3 3 29.396 34.075 1.312 2.286 o
9 -2 0 1.078 1.015 0.422 410.487 o
9 -2 1 0.017 0.281 0.283 1134.130 o
9 -2 2 0.165 0.835 0.294 991.979 o
9 -2 3 98.736 106.775 3.542 0.216 o
9 -1 0 0.541 0.404 0.458 417.218 o
9 -1 1 0.343 0.178 0.309 925.858 o
9 -1 2 64.874 66.495 1.474 0.528 o
9 -1 3 0.353 1.803 0.282 852.346 o
9 -1 4 24.074 18.582 0.563 4.553 o
9 0 0 3.255 2.668 0.353 183.491 o
9 0 1 14.621 15.365 1.294 8.705 o
9 0 2 1.856 2.806 0.443 237.993 o
9 0 3 3.053 5.100 0.428 123.482 o
9 0 4 0.009 0.486 0.376 642.895 o
9 0 5 1.149 1.715 0.340 488.450 o
9 1 0 2.945 2.927 0.512 150.636 o
9 1 1 24.596 27.651 1.093 3.336 o
9 1 2 1.214 0.873 0.334 571.249 o
9 1 3 0.091 0.499 0.331 817.796 o
9 1 4 3.612 5.304 0.650 81.739 o
9 1 5 6.883 6.604 0.485 44.037 o
9 1 6 0.113 0.987 0.428 481.607 o
9 2 0 0.632 0.482 0.376 591.559 o
9 2 1 24.377 22.444 1.697 3.603 o
9 2 2 37.713 35.873 2.004 1.550 o
9 2 3 0.008 -0.088 0.405 558.077 o
9 2 4 6.317 5.749 0.499 52.283 o
9 2 5 0.206 0.313 0.357 705.889 o
9 2 6 0.082 0.376 0.432 486.696 o
9 3 0 6.345 6.544 0.741 41.738 o
9 3 1 15.883 17.521 0.718 8.093 o
9 3 2 0.365 0.773 0.306 882.141 o
9 3 3 20.505 16.670 0.507 6.086 o
9 3 4 0.085 0.187 0.393 589.250 o
9 3 5 3.624 5.306 0.447 101.656 o
9 3 6 0.006 0.129 0.241 1572.450 o
9 4 1 0.000 0.456 0.292 1062.170 o
9 4 2 21.331 20.725 1.342 4.657 o
9 4 3 0.920 1.031 0.222 1066.310 o
9 4 4 2.851 3.397 0.376 179.665 o
9 4 5 0.073 0.336 0.277 1174.000 o
9 4 6 0.091 0.026 0.265 1298.920 o
;
_olex2_submission_special_instructions 'No special instructions were received'
_oxdiff_exptl_absorpt_empirical_details
;
Empirical correction (ABSPACK) includes:
- Absorption correction using spherical harmonics
- Frame scaling
;
_oxdiff_exptl_absorpt_empirical_full_max 1.957
_oxdiff_exptl_absorpt_empirical_full_min 0.722
loop_
_space_group_symop_id
_space_group_symop_operation_xyz
1 x,y,z
2 -x,-y,-z
loop_
_atom_site_label
_atom_site_type_symbol
_atom_site_fract_x
_atom_site_fract_y
_atom_site_fract_z
_atom_site_U_iso_or_equiv
_atom_site_adp_type
_atom_site_occupancy
_atom_site_refinement_flags_posn
O001 O 0.4102(2) 0.96602(16) 0.37114(16) 0.0354(4) Uani 1.000000 .
O002 O 0.2828(2) 0.92659(19) 0.09430(19) 0.0429(4) Uani 1.000000 .
N1 N 0.0385(3) 1.2332(2) 0.4582(2) 0.0353(5) Uani 1.000000 .
O004 O 0.4411(2) 1.10669(18) 0.07719(17) 0.0395(4) Uani 1.000000 .
O005 O 0.3663(2) 1.13110(17) 0.45284(17) 0.0384(4) Uani 1.000000 .
C006 C 0.1484(3) 1.0690(2) 0.2060(2) 0.0326(5) Uani 1.000000 .
C007 C -0.0105(3) 1.0774(3) 0.1619(2) 0.0388(5) Uani 1.000000 .
C008 C 0.1678(3) 1.1132(2) 0.3118(2) 0.0303(5) Uani 1.000000 .
C009 C 0.3230(3) 1.0742(2) 0.3814(2) 0.0303(5) Uani 1.000000 .
C010 C 0.0247(3) 1.1817(2) 0.3623(2) 0.0315(5) Uani 1.000000 .
C011 C -0.1358(3) 1.1907(3) 0.3113(2) 0.0366(5) Uani 1.000000 .
C012 C -0.1542(3) 1.1378(3) 0.2174(3) 0.0415(5) Uani 1.000000 .
C013 C 0.3061(3) 1.0331(2) 0.1225(2) 0.0337(5) Uani 1.000000 .
C014 C -0.1000(3) 1.2995(2) 0.5176(2) 0.0383(5) Uani 1.000000 .
C015 C -0.1414(3) 1.4479(3) 0.4198(3) 0.0443(6) Uani 1.000000 .
C016 C -0.2719(4) 1.5193(3) 0.4686(4) 0.0558(7) Uani 1.000000 .
C018 C -0.0523(6) 1.5173(3) 0.2824(3) 0.0672(9) Uani 1.000000 .
C019 C -0.3150(5) 1.6566(4) 0.3804(6) 0.0868(15) Uani 1.000000 .
C021 C -0.0914(9) 1.6523(4) 0.1952(5) 0.0972(16) Uani 1.000000 .
C1 C -0.2233(8) 1.7230(4) 0.2434(6) 0.0977(16) Uani 1.000000 .
H011 H -0.2314(3) 1.2340(3) 0.3431(2) 0.0440(6) Uiso 1.000000 R
H012 H -0.2629(3) 1.1417(3) 0.1896(3) 0.0498(7) Uiso 1.000000 R
H007 H -0.0230(3) 1.0435(3) 0.0959(2) 0.0465(6) Uiso 1.000000 R
H018 H 0.0371(6) 1.4709(3) 0.2480(3) 0.0806(11) Uiso 1.000000 R
H021 H -0.0287(9) 1.6958(4) 0.1036(5) 0.1166(19) Uiso 1.000000 R
H1a H -0.2506(8) 1.8143(4) 0.1849(6) 0.1173(19) Uiso 1.000000 R
H019 H -0.4053(5) 1.7030(4) 0.4138(6) 0.1041(18) Uiso 1.000000 R
H016 H -0.3321(4) 1.4761(3) 0.5610(4) 0.0669(9) Uiso 1.000000 R
H001 H 0.498(2) 0.953(2) 0.409(3) 0.0530(6) Uiso 1.000000 GR
H002 H 0.365(3) 0.924(2) 0.034(3) 0.0644(7) Uiso 1.000000 GR
H1 H 0.1387(3) 1.2253(2) 0.4856(2) 0.0424(5) Uiso 1.000000 R
H01a H -0.2064(3) 1.2423(2) 0.5476(2) 0.0460(6) Uiso 1.000000 R
H01b H -0.0679(3) 1.3008(2) 0.6016(2) 0.0460(6) Uiso 1.000000 R
loop_
_atom_site_aniso_label
_atom_site_aniso_U_11
_atom_site_aniso_U_22
_atom_site_aniso_U_33
_atom_site_aniso_U_12
_atom_site_aniso_U_13
_atom_site_aniso_U_23
O001 0.0389(8) 0.0388(9) 0.0394(9) 0.0095(6) -0.0125(6) -0.0259(7)
O002 0.0409(9) 0.0522(10) 0.0474(10) -0.0032(7) 0.0026(7) -0.0355(8)
N1 0.0376(9) 0.0403(10) 0.0351(10) 0.0088(8) -0.0083(7) -0.0228(8)
O004 0.0373(8) 0.0503(10) 0.0390(9) -0.0044(7) 0.0011(6) -0.0288(7)
O005 0.0451(9) 0.0386(8) 0.0452(9) 0.0113(7) -0.0192(7) -0.0275(7)
C006 0.0365(11) 0.0352(11) 0.0289(10) 0.0002(8) -0.0033(8) -0.0170(8)
C007 0.0397(11) 0.0521(13) 0.0303(11) -0.0034(9) -0.0035(9) -0.0233(10)
C008 0.0331(10) 0.0332(10) 0.0273(10) 0.0024(8) -0.0039(8) -0.0160(8)
C009 0.0340(10) 0.0321(10) 0.0287(10) 0.0040(8) -0.0034(8) -0.0177(8)
C010 0.0365(10) 0.0328(10) 0.0268(10) 0.0031(8) -0.0043(8) -0.0148(8)
C011 0.0329(10) 0.0454(12) 0.0316(11) 0.0054(9) -0.0030(8) -0.0178(9)
C012 0.0336(11) 0.0569(14) 0.0377(12) 0.0007(10) -0.0079(9) -0.0227(11)
C013 0.0374(11) 0.0401(11) 0.0294(10) -0.0000(9) -0.0049(8) -0.0203(9)
C014 0.0430(12) 0.0394(12) 0.0367(11) 0.0025(9) -0.0013(9) -0.0223(10)
C015 0.0477(13) 0.0419(13) 0.0513(14) 0.0070(10) -0.0141(11) -0.0259(11)
C016 0.0443(13) 0.0552(16) 0.087(2) 0.0125(12) -0.0225(14) -0.0449(16)
C018 0.099(3) 0.0499(16) 0.0511(16) 0.0017(16) -0.0180(16) -0.0177(13)
C019 0.074(2) 0.067(2) 0.170(5) 0.0365(18) -0.074(3) -0.082(3)
C021 0.169(5) 0.0475(19) 0.074(3) 0.007(2) -0.046(3) -0.0149(18)
C1 0.149(4) 0.0502(19) 0.105(3) 0.014(2) -0.077(3) -0.023(2)
loop_
_atom_type_symbol
_atom_type_scat_dispersion_real
_atom_type_scat_dispersion_imag
_atom_type_scat_Cromer_Mann_a1
_atom_type_scat_Cromer_Mann_a2
_atom_type_scat_Cromer_Mann_a3
_atom_type_scat_Cromer_Mann_a4
_atom_type_scat_Cromer_Mann_b1
_atom_type_scat_Cromer_Mann_b2
_atom_type_scat_Cromer_Mann_b3
_atom_type_scat_Cromer_Mann_b4
_atom_type_scat_Cromer_Mann_c
_atom_type_scat_source
_atom_type_scat_dispersion_source
H 0.00000 0.00000 0.49300 0.32291 0.14019 0.04081 10.51090 26.12570 3.14236
57.79970 0.0030380000826
'International Tables Volume C Table 6.1.1.4 (pp. 500-502)'
'Henke, Gullikson and Davis, At. Data and Nucl. Data Tables, 1993, 54, 2'
C 0.01920 0.00962 2.31000 1.02000 1.58860 0.86500 20.84390 10.20750 0.56870
51.65120 0.215599998832
'International Tables Volume C Table 6.1.1.4 (pp. 500-502)'
'Henke, Gullikson and Davis, At. Data and Nucl. Data Tables, 1993, 54, 2'
O 0.05239 0.03377 3.04850 2.28680 1.54630 0.86700 13.27710 5.70110 0.32390
32.90890 0.250800013542
'International Tables Volume C Table 6.1.1.4 (pp. 500-502)'
'Henke, Gullikson and Davis, At. Data and Nucl. Data Tables, 1993, 54, 2'
N 0.03256 0.01839 12.21260 3.13220 2.01250 1.16630 0.00570 9.89330 28.99750
0.58260 -11.5290002823
'International Tables Volume C Table 6.1.1.4 (pp. 500-502)'
'Henke, Gullikson and Davis, At. Data and Nucl. Data Tables, 1993, 54, 2'
loop_
_geom_angle_atom_site_label_1
_geom_angle_atom_site_label_2
_geom_angle_atom_site_label_3
_geom_angle
C014 N1 C010 125.53(19)
C008 C006 C007 121.3(2)
C013 C006 C007 117.23(19)
C013 C006 C008 120.82(19)
C012 C007 C006 119.3(2)
C009 C008 C006 120.60(18)
C010 C008 C006 119.18(19)
C010 C008 C009 119.78(18)
O005 C009 O001 121.07(19)
C008 C009 O001 115.00(17)
C008 C009 O005 123.78(18)
C008 C010 N1 121.9(2)
C011 C010 N1 120.87(19)
C011 C010 C008 117.19(19)
C012 C011 C010 122.1(2)
C011 C012 C007 120.7(2)
O004 C013 O002 124.11(19)
C006 C013 O002 114.80(18)
C006 C013 O004 120.90(19)
C015 C014 N1 115.40(19)
C016 C015 C014 119.1(3)
C018 C015 C014 123.1(2)
C018 C015 C016 117.7(3)
C019 C016 C015 120.7(4)
C021 C018 C015 122.3(4)
C1 C019 C016 120.1(4)
C1 C021 C018 120.0(5)
C021 C1 C019 119.2(3)
loop_
_geom_bond_atom_site_label_1
_geom_bond_atom_site_label_2
_geom_bond_distance
O001 C009 1.321(2)
O002 C013 1.307(3)
N1 C010 1.361(3)
N1 C014 1.437(3)
O004 C013 1.232(3)
O005 C009 1.243(2)
C006 C007 1.372(3)
C006 C008 1.417(3)
C006 C013 1.498(3)
C007 C012 1.405(3)
C008 C009 1.462(3)
C008 C010 1.428(3)
C010 C011 1.419(3)
C011 C012 1.360(3)
C014 C015 1.513(3)
C015 C016 1.376(4)
C015 C018 1.387(5)
C016 C019 1.403(5)
C018 C021 1.374(5)
C019 C1 1.387(8)
C021 C1 1.375(8)
loop_
_refln_index_h
_refln_index_k
_refln_index_l
_refln_F_squared_meas
_refln_F_squared_sigma
_refln_scale_group_code
0 0 -1 11121.8 342.124 8
0 0 -2 5335.58 194.733 18
0 0 -2 5732.77 198.047 8
0 0 -3 11915.9 400.072 8
0 0 -4 5280.64 227.95 8
0 0 -4 5776.18 228.917 17
0 0 -5 86.4324 55.5666 8
0 0 -5 48.5008 53.584 17
0 0 -6 119.22 64.6601 8
0 0 -6 141.62 31.6128 9
0 0 -6 82.8426 54.3069 17
0 0 -7 6897.31 239.325 22
0 0 -7 6090.22 226.112 24
0 0 -7 6382.4 227.095 9
0 0 -7 6682.05 227.756 15
0 0 -7 6787.07 324.095 8
0 0 -7 6098.99 302.99 17
0 0 -7 6526.6 232.319 27
0 0 -7 6245.55 223.555 14
0 0 -8 493.506 91.0647 17
0 0 -8 671.783 57.1651 24
0 0 -8 620.629 55.3535 9
0 0 -8 524.344 55.0968 15
0 0 -8 689.132 69.656 22
0 0 -9 764.677 56.9464 9
0 0 -9 774.6 62.3078 15
0 0 -9 567.564 68.7839 22
0 0 -9 638.856 59.4391 24
0 0 -10 583.467 50.8381 15
0 0 -10 557.54 48.4917 24
0 0 -11 559.058 39.3722 15
0 1 -11 50.9107 20.1567 15
0 1 -10 133.245 34.6903 15
0 1 -9 17.109 50.1095 22
0 1 -9 29.8879 35.3713 15
0 1 -8 198.904 44.3903 15
0 1 -8 283.331 58.3489 22
0 1 -7 99.6776 46.5553 22
0 1 -7 48.6595 35.3416 15
0 1 -7 111.388 61.7556 17
0 1 -7 52.4781 28.8285 9
0 1 -6 1617.42 80.648 15
0 1 -6 1658.49 127.262 17
0 1 -6 1774.99 138.323 8
0 1 -6 1566.05 76.6852 9
0 1 -5 1539.43 114.815 17
0 1 -5 1673.29 73.4707 9
0 1 -4 50924.5 1614.99 17
0 1 -4 55111.4 1628.2 8
0 1 -3 6721.25 247.051 17
0 1 -3 6627.51 245.828 8
0 1 -2 33626.4 1030.85 17
0 1 -2 35316.2 1032.18 5
0 1 -2 33307.7 1032.62 8
0 1 -1 16111.9 488.877 8
0 1 -1 16116.4 490.823 5
0 1 0 11976.3 364.63 1
0 -1 -1 47382.9 1369.36 18
0 -1 -1 45116.6 1369.55 8
0 -1 -2 1942.02 90.7052 18
0 -1 -3 9123.32 317.513 8
0 -1 -4 64068.9 1971.31 17
0 -1 -4 65855 1975.17 8
0 -1 -5 4211.81 208.73 17
0 -1 -5 4816.41 221.19 8
0 -1 -6 37.8245 59.4026 8
0 -1 -6 50.7253 56.7268 17
0 -1 -7 31504.6 996.651 27
0 -1 -7 33160.5 995.196 9
0 -1 -7 33242.1 989.608 15
0 -1 -7 32121.1 992.732 14
0 -1 -7 31396.9 1092.41 17
0 -1 -7 32689.2 996.455 24
0 -1 -8 1775.47 96.0103 24
0 -1 -8 1580.77 156.89 17
0 -1 -8 1900.74 91.4063 15
0 -1 -8 1813.43 96.0838 9
0 -1 -8 1923.38 99.6086 27
0 -1 -8 1740.87 86.7435 25
0 -1 -9 1162.69 72.4416 15
0 -1 -9 1193.25 79.1724 24
0 -1 -9 1189.88 76.5679 9
0 -1 -10 69.2395 35.2856 15
0 -1 -10 -82.5913 45.7496 24
0 -1 -11 130.81 28.9187 15
0 -1 -11 204.447 36.1091 24
0 -1 -12 190.72 21.5708 23
0 2 -10 54.9051 26.4941 15
0 2 -10 8.48194 36.2517 22
0 2 -9 421.743 62.3571 22
0 2 -9 387.914 46.5982 15
0 2 -8 389.314 65.721 22
0 2 -7 5675.35 219.9 22
0 2 -7 4988.3 229.099 30
0 2 -6 1238.72 75.7006 15
0 2 -6 1339.15 106.706 30
0 2 -5 2369.32 139.849 17
0 2 -4 21327.8 651.331 7
0 2 -4 23400.8 719.848 8
0 2 -4 21881.7 702.953 17
0 2 -3 1997.53 107.037 17
0 2 -3 2601.81 121.237 8
0 2 -2 546.189 45.5545 17
0 2 -2 578.007 51.8462 5
0 2 -2 631.826 49.2852 8
0 2 -1 427278 12686.5 8
0 2 -1 437837 12696.9 5
0 2 -1 435127 12682.2 17
0 -2 0 168111 4942.4 31
0 2 0 168574 4952.48 1
0 2 1 7771.33 251.449 1
0 -2 -1 8185.91 252.512 8
0 -2 -1 8373.95 266.047 31
0 -2 -1 8286.28 252.406 17
0 -2 -1 7732.47 262.35 3
0 -2 -2 42060.1 1229.31 8
0 2 2 40536.6 1203.45 1
0 -2 -2 40794.6 1226.85 18
0 -2 -3 194.883 47.9084 8
0 -2 -3 173.372 46.3277 18
0 -2 -4 10640.7 379.546 17
0 -2 -5 382.797 75.8839 8
0 -2 -6 1121.58 115.633 8
0 -2 -7 4591.04 254.723 17
0 -2 -7 4744.51 178.811 14
0 -2 -7 4894.09 180.475 9
0 -2 -7 4798.64 181.709 24
0 -2 -8 7236.17 263.402 14
0 -2 -8 7307.01 266.906 9
0 -2 -8 7920.9 270.182 27
0 -2 -8 7759.33 270.244 24
0 -2 -8 7405.92 254.41 15
0 -2 -8 8113.92 392.242 8
0 -2 -8 7647.94 365.938 17
0 -2 -8 7464.16 260.866 25
0 -2 -9 301.533 43.4112 15
0 -2 -9 340.153 55.4696 27
0 -2 -9 260.535 52.1534 24
0 -2 -9 351.156 52.3292 9
0 -2 -9 285.671 87.6267 17
0 -2 -9 332.869 46.2138 25
0 -2 -10 2499.47 110.715 25
0 -2 -10 2761.6 125.172 9
0 -2 -10 2590.94 110.814 15
0 -2 -10 2631.31 126.529 24
0 -2 -11 110.631 27.667 15
0 -2 -11 67.4526 39.6825 24
0 -2 -12 512.422 36.9099 24
0 3 -9 1061.52 61.0571 15
0 3 -9 987.783 77.2429 22
0 3 -8 2490.41 132.823 22
0 3 -8 2369.61 110.462 15
0 3 -7 248.049 59.8797 22
0 3 -7 297.638 46.5984 15
0 3 -7 260.907 75.4622 30
0 3 -6 1033.07 105.415 30
0 3 -6 1190.69 86.2708 22
0 3 -6 1160.84 73.3013 15
0 3 -5 3504.15 147.908 22
0 3 -5 3701.31 174.772 30
0 3 -4 20941.9 636.062 7
0 3 -3 6004.4 218.603 17
0 3 -3 6110.08 198 7
0 3 -2 1923.44 72.4713 7
0 3 -2 1805.24 77.6325 17
0 3 -2 1761.29 97.9598 5
0 -3 1 36476.7 1103.04 31
0 3 -1 38275.9 1126.39 5
0 -3 0 71754.1 2124.77 31
0 3 1 65202.6 1878.98 1
0 -3 -1 61689.5 1860.51 17
0 -3 -1 63012.7 1885.48 31
0 -3 -1 65572.4 1891.7 3
0 -3 -2 53376.1 1549.23 8
0 3 2 50249.5 1531.68 1
0 -3 -2 53373.8 1548.1 17
0 3 3 692.663 29.0445 1
0 -3 -3 739.49 62.3743 8
0 -3 -3 603.704 61.2646 17
0 -3 -4 370.378 59.1516 17
0 -3 -4 350.799 61.2895 8
0 3 4 339.722 24.6911 1
0 -3 -5 1063.16 101.962 17
0 -3 -5 1092.14 103.992 8
0 -3 -6 6217.22 286.28 17
0 -3 -7 7392.29 253.473 9
0 -3 -7 7509.39 344.11 17
0 -3 -7 7111.46 250.129 14
0 -3 -8 6583.34 342.255 8
0 -3 -8 6133.72 223.92 27
0 -3 -8 6248.43 224.453 9
0 -3 -8 5995.15 219.657 25
0 -3 -8 5577.66 219.291 14
0 -3 -9 4.38115 38.3359 25
0 -3 -9 21.6474 43.4454 27
0 -3 -9 56.3025 47.9642 24
0 -3 -9 -9.76586 79.488 17
0 -3 -9 -14.9309 42.6512 9
0 -3 -10 24.9923 42.5651 24
0 -3 -10 24.9047 42.738 27
0 -3 -10 -4.93701 39.0358 9
0 -3 -10 42.6238 34.6452 25
0 -3 -11 20.4586 46.2206 24
0 -3 -11 61.4121 33.8108 25
0 -3 -12 1145.57 56.5742 23
0 -3 -12 1173.02 63.1882 24
0 4 -9 201.523 27.9049 15
0 4 -9 170.038 41.2589 22
0 4 -8 4382.66 181.706 22
0 4 -8 4074.67 174.985 30
0 4 -8 4419.88 160.416 15
0 4 -7 392.072 80.1386 30
0 4 -7 459.357 66.609 22
0 4 -7 561.3 52.9982 15
0 4 -6 26.3164 50.2412 22
0 4 -6 105.679 70.5889 30
0 4 -6 44.1796 35.88 15
0 4 -5 1182.52 61.4352 7
0 4 -5 1172.26 72.7845 15
0 4 -5 1323.77 117.834 30
0 4 -4 596.426 48.8846 15
0 4 -4 556.768 43.3085 7
0 4 -3 892.954 50.8046 7
0 4 -2 26277.3 787.258 7
0 4 -2 25758.3 822.808 5
0 4 -1 23180.6 765.087 5
0 4 -1 24950.5 735.58 7
0 -4 0 1207.72 62.8583 31
0 4 0 1348.68 57.8194 7
0 4 1 9674.21 299.725 7
0 -4 -1 9819.71 342.371 3
0 -4 -2 3357.93 149.811 3
0 -4 -2 3384.12 125.285 17
0 -4 -2 3209.7 127.98 8
0 -4 -3 19779 641.786 17
0 -4 -3 20878.4 648.105 8
0 -4 -4 2448.62 130.176 17
0 -4 -4 2325.45 131.8 8
0 -4 -5 43.7425 59.5039 17
0 -4 -5 27.955 50.2441 8
0 -4 -6 5493.49 263.391 8
0 -4 -6 4694.8 243.235 17
0 -4 -7 6406.63 229.576 24
0 -4 -7 6271.8 310.929 17
0 -4 -7 6440.71 227.432 14
0 -4 -7 6291.53 226.833 9
0 -4 -8 1664 93.8822 24
0 -4 -8 1567.14 90.7574 14
0 -4 -8 1509.85 154.592 17
0 -4 -8 1775.62 174.885 8
0 -4 -8 1603.94 90.3973 25
0 -4 -9 108.736 44.0782 25
0 -4 -9 91.1799 43.8304 27
0 -4 -9 82.8385 47.8185 24
0 -4 -9 128.264 82.5971 17
0 -4 -10 900.391 71.0419 27
0 -4 -10 770.521 67.084 25
0 -4 -10 903.898 72.5867 9
0 -4 -11 24.3508 48.6356 24
0 -4 -11 189.254 43.3414 27
0 -4 -11 184.207 37.5447 23
0 -4 -11 79.5265 38.7244 25
0 -4 -12 24.0872 36.3445 24
0 -4 -12 12.3256 24.6922 23
0 -4 -12 54.4705 26.9507 25
0 5 -8 524.031 47.228 30
0 5 -8 568.167 56.6103 22
0 5 -8 650.712 42.0284 15
0 5 -7 73.8071 47.6745 22
0 5 -7 85.8878 33.7819 15
0 5 -7 94.1821 61.5611 30
0 5 -6 721.821 98.7359 30
0 5 -6 664.419 56.1314 15
0 5 -5 87.0509 36.237 15
0 5 -5 115.144 27.7636 7
0 5 -5 118.945 53.1749 22
0 5 -5 171.689 81.2374 30
0 5 -4 12720.5 419.988 7
0 5 -4 13067.8 424.192 15
0 -5 3 1410.57 72.1553 21
0 5 -3 1442.57 71.9803 15
0 5 -3 1392.21 71.8973 7
0 5 -2 322.233 35.2824 7
0 5 -1 1251.37 85.9179 5
0 5 -1 1332.55 64.7974 7
0 5 0 54557.1 1619.61 7
0 5 1 7048.85 227.405 7
0 -5 -1 7068.9 283.159 3
0 -5 -2 29544.5 943.607 3
0 5 2 29676.3 886.795 7
0 -5 -3 4534.01 171.015 17
0 5 3 4245.88 143.519 7
0 -5 -4 6995.4 266.44 8
0 -5 -4 6226.78 204.141 9
0 -5 -4 6380.21 248.149 17
0 -5 -5 19644.9 597.697 9
0 -5 -5 20777.9 681.03 8
0 -5 -5 18466.8 657.548 17
0 -5 -6 460.075 41.6939 9
0 -5 -6 417.328 73.2151 17
0 -5 -6 458.678 83.608 8
0 -5 -7 39.8192 34.5731 25
0 -5 -7 25.9598 26.5175 23
0 -5 -7 -13.6908 57.7913 17
0 -5 -7 50.8104 33.045 9
0 -5 -7 8.04932 71.4381 8
0 -5 -7 45.966 34.9406 24
0 -5 -7 56.3861 34.1671 14
0 -5 -8 619.872 60.0613 24
0 -5 -8 587.303 57.9174 9
0 -5 -8 606.74 59.4001 14
0 -5 -8 584.597 108.514 8
0 -5 -8 664.162 61.781 25
0 -5 -8 686.598 112.63 17
0 -5 -9 1338.61 90.4666 25
0 -5 -9 1443.1 92.7711 24
0 -5 -9 1534.81 163.716 17
0 -5 -9 1705.49 94.8335 9
0 -5 -9 1458.61 79.9022 23
0 -5 -10 3268.26 136.644 23
0 -5 -10 3381.72 152.043 9
0 -5 -10 3391.24 153.496 24
0 -5 -10 3757.62 151.183 25
0 -5 -10 3294.47 148.106 27
0 -5 -11 279.191 39.5457 23
0 -5 -11 335.707 50.0269 27
0 -5 -11 360.86 47.0369 25
0 -5 -12 536.212 45.434 25
0 -5 -12 650.155 43.0133 23
0 6 -7 68.1748 24.3641 15
0 6 -7 107.794 47.6905 30
0 6 -6 40.2248 30.3123 15
0 6 -6 12.7456 45.4267 22
0 6 -6 -18.1761 62.4404 30
0 6 -5 300.453 39.7576 15
0 6 -5 234.276 87.3686 30
0 6 -5 360.13 60.2519 22
0 6 -4 374.96 58.2116 22
0 6 -4 341.558 42.6527 15
0 6 -4 327.718 40.3183 7
0 6 -4 386.48 90.5836 30
0 6 -3 20.8474 28.5767 7
0 6 -3 35.1788 29.4598 15
0 -6 3 58.5679 33.2739 21
0 6 -3 105.57 45.5067 22
0 -6 2 48.9769 32.1129 21
0 6 -2 57.8692 29.2984 7
0 6 -1 5555.96 196.076 7
0 -6 1 5627.48 198.688 21
0 -6 0 567.512 86.126 3
0 6 0 582.702 44.3291 7
0 6 1 419.854 37.8796 7
0 -6 -1 427.941 72.1578 3
0 -6 -2 258.451 62.0948 3
0 6 2 306.416 33.2237 7
0 6 3 27474.4 826.774 7
0 6 4 247.47 26.3732 7
0 -6 -5 962.537 92.6793 8
0 -6 -5 1225.31 96.0426 17
0 -6 -5 1098.57 54.7358 9
0 -6 -6 26369 866.961 8
0 -6 -6 25096.2 767.421 9
0 -6 -6 24324.5 846.177 17
0 -6 -7 273.48 81.3707 8
0 -6 -7 281.996 73.742 17
0 -6 -7 267.617 37.4229 23
0 -6 -7 230.304 38.3195 29
0 -6 -7 284.5 40.2751 14
0 -6 -7 259.181 41.4373 24
0 -6 -7 236.847 39.1348 9
0 -6 -7 261.366 43.0304 25
0 -6 -8 1787.76 163.614 17
0 -6 -8 1982.12 101.29 24
0 -6 -8 1804.75 103.817 25
0 -6 -8 2006.55 92.9105 29
0 -6 -8 2109.3 101.777 9
0 -6 -8 2014.87 93.8442 23
0 -6 -9 4690.5 182.817 9
0 -6 -9 4357.57 183.841 25
0 -6 -9 4546.71 183.205 24
0 -6 -9 4433.69 170.065 23
0 -6 -10 470.22 56.2749 9
0 -6 -10 498.024 60.7846 24
0 -6 -10 522.975 50.3658 23
0 -6 -10 557.391 63.7602 27
0 -6 -11 2483.82 116.581 27
0 -6 -11 2361.83 117.31 24
0 -6 -11 2556.08 106.279 23
0 -6 -11 2559.26 116.069 25
0 -6 -12 249.622 38.9229 25
0 -6 -12 285.69 32.6024 23
0 -6 -12 268.977 42.1689 24
0 -6 -12 303.272 36.3835 27
0 7 -7 147.399 30.5495 22
0 7 -6 -8.88138 19.1002 15
0 7 -6 4.00517 38.062 22
0 7 -5 851.618 51.2626 15
0 7 -5 971.032 74.9977 22
0 7 -5 956.416 99.565 30
0 7 -4 962.697 78.7992 22
0 7 -4 893.969 56.7508 7
0 7 -4 831.801 54.6982 15
0 7 -3 677.938 56.1702 7
0 7 -3 805.949 72.2404 22
0 7 -3 795.609 110.959 30
0 -7 2 1459.95 80.7943 21
0 7 -2 1270.96 77.5758 7
0 -7 2 1250.61 135.578 3
0 7 -2 1493.28 88.4667 22
0 -7 1 3178.15 133.168 21
0 -7 1 3009.61 198.719 3
0 7 -1 3045.52 128.93 7
0 -7 1 3287.53 132.056 16
0 -7 0 4166.97 162.324 21
0 -7 0 4114.55 161.687 16
0 -7 0 4529.92 237.152 3
0 7 0 4339.94 159.893 7
0 -7 -1 73.6114 59.013 3
0 -7 -1 31.7348 30.3123 16
0 7 1 38.5273 29.0177 7
0 -7 -1 66.9783 31.8708 21
0 -7 -2 2683.78 173.057 3
0 7 2 2818.19 112.228 7
0 7 3 692.387 46.271 7
0 7 4 4978.65 168.888 7
0 -7 -4 4708.79 176.068 29
0 -7 -5 7461.62 254.672 16
0 -7 -6 308.139 42.4338 29
0 -7 -6 292.241 40.4584 25
0 -7 -6 275.6 38.3955 16
0 -7 -7 3921.44 150.915 9
0 -7 -7 4007.53 159.754 25
0 -7 -7 3908.86 155.773 29
0 -7 -7 4033.93 152.403 23
0 -7 -8 3621.1 142.62 23
0 -7 -8 3666.15 145.09 29
0 -7 -8 3617.37 152.237 25
0 -7 -8 3506.11 145.768 24
0 -7 -8 3350.19 217.267 17
0 -7 -8 3421.59 144.255 9
0 -7 -9 1651.37 94.9606 24
0 -7 -9 1715.46 86.4132 29
0 -7 -9 1908.23 92.2438 23
0 -7 -9 1927.32 98.0627 9
0 -7 -9 1834.93 102.049 25
0 -7 -10 9904.56 330.741 23
0 -7 -10 10101.3 341.039 24
0 -7 -10 9964.82 339.1 9
0 -7 -10 10103.6 343.487 25
0 -7 -11 927.043 70.8219 24
0 -7 -11 1146.09 63.1061 23
0 -7 -11 998.263 69.6716 27
0 -7 -11 1104.73 72.9544 25
0 -7 -12 600.727 43.8095 27
0 -7 -12 536.686 47.8266 24
0 8 -5 566.625 53.373 22
0 8 -5 535.668 70.392 30
0 8 -4 1023.67 101.544 30
0 8 -4 906.641 70.6041 22
0 8 -3 652.872 65.6997 22
0 8 -3 698.611 101.87 30
0 8 -3 515.373 46.4894 7
0 8 -2 2696.83 125.54 22
0 8 -2 2501.51 115.493 7
0 8 -2 2849.75 167.207 30
0 8 -1 340.973 81.4646 30
0 -8 1 320.765 47.8351 21
0 8 -1 348.605 51.6037 22
0 8 -1 320.977 44.8627 7
0 -8 0 1005.73 121.737 3
0 -8 0 1013.97 70.9023 16
0 -8 0 1093.94 73.3582 21
0 8 0 1089.34 70.3593 7
0 -8 -1 10.2148 33.9582 21
0 8 1 21.9093 31.7575 7
0 -8 -1 25.2761 36.3328 16
0 -8 -1 -14.5166 59.6341 3
0 -8 -2 116.65 32.2021 29
0 8 2 117.213 35.6467 7
0 -8 -2 108.688 37.5492 16
0 -8 -2 123.998 36.1481 21
0 -8 -3 281.523 40.8999 21
0 8 3 275.96 37.9804 7
0 -8 -3 319.069 44.3284 16
0 -8 -3 266.005 38.9311 29
0 8 4 11463.8 365.416 7
0 -8 -4 11026.5 372.266 29
0 -8 -4 11677.6 377.702 16
0 -8 -5 3291.23 136.163 29
0 -8 -5 3231.39 137.453 16
0 -8 -6 234.383 42.8001 29
0 -8 -6 151.119 38.1594 16
0 -8 -7 4313.43 172.583 29
0 -8 -7 4460.77 168.336 16
0 -8 -7 4312.64 168.737 25
0 -8 -8 1074.99 70.2412 29
0 -8 -8 935.681 68.9737 25
0 -8 -9 1259.15 73.6449 29
0 -8 -9 1415.37 83.5043 25
0 -8 -10 8564.29 281.321 29
0 -8 -10 8402.97 289.831 24
0 -8 -10 8923.89 298.635 25
0 -8 -11 182.282 42.7872 27
0 -8 -11 171.14 38.7422 24
0 -8 -11 226.321 40.6862 25
0 -8 -12 2240.54 92.758 25
0 -8 -12 2286.53 88.8794 24
0 -8 -12 2200.86 90.218 27
0 9 -4 16.9873 29.6565 22
0 9 -4 23.4369 46.2868 30
0 9 -3 114.161 64.5265 30
0 9 -3 205.99 40.6966 22
0 9 -2 2717.49 116.813 7
0 9 -2 2744.43 123.428 22
0 9 -1 1986.29 96.4067 7
0 9 -1 2016.66 141.424 30
0 9 0 24.0848 68.2149 30
0 -9 0 53.1772 36.3324 16
0 9 0 8.01869 33.0261 7
0 9 1 1364.32 79.905 7
0 -9 -1 1379.6 85.7443 16
0 9 1 1503.06 114.913 30
0 -9 -2 481.358 47.1183 29
0 -9 -2 524.064 57.0227 16
0 9 2 503.007 49.0131 7
0 -9 -3 1218.91 80.3881 16
0 9 3 1240.03 72.499 7
0 -9 -3 1228.64 73.7225 29
0 9 4 610.275 49.9937 7
0 -9 -4 695.227 57.016 29
0 -9 -5 6091.7 227.487 29
0 -9 -5 6511.92 233.231 16
0 -9 -6 7400.74 263.856 16
0 -9 -7 527.58 55.4686 29
0 -9 -7 488.105 52.1613 16
0 -9 -8 782.692 61.9537 29
0 -9 -8 825.737 60.5618 25
0 -9 -8 795.224 57.7659 16
0 -9 -9 422.857 48.4691 25
0 -9 -9 400.061 45.3788 29
0 -9 -10 3512.96 131.444 29
0 -9 -10 3489.93 139.1 25
0 -9 -11 43.9449 33.7014 27
0 -9 -11 -23.7753 34.9287 25
0 -9 -12 175.708 27.392 25
0 10 -3 60.1364 38.9911 30
0 10 -2 286.263 60.9114 30
0 10 -1 137.805 61.134 30
0 10 -1 101.293 30.3285 7
0 -10 0 18.3994 33.3279 16
0 10 0 77.4458 62.4455 30
0 10 0 68.7316 30.6851 7
0 10 1 -13.2155 31.0221 7
0 -10 -1 10.969 36.4627 16
0 10 1 -29.6841 61.1504 30
0 -10 -2 1251.84 69.397 29
0 -10 -2 1331.27 83.741 16
0 10 2 1381.3 77.1239 7
0 -10 -3 306.107 51.5348 16
0 10 3 246.703 40.3812 7
0 -10 -3 262.953 41.7203 29
0 -10 -4 1162.17 80.7904 16
0 10 4 1135.53 67.2077 7
0 -10 -4 1175.83 73.6172 29
0 -10 -5 39119 1175.35 16
0 -10 -5 37765.5 1167.53 29
0 -10 -6 21527.6 672.855 16
0 -10 -6 21091.9 668.406 29
0 -10 -7 1758.02 92.2933 16
0 -10 -8 2086.85 96.5914 16
0 -10 -8 1997.55 99.0525 29
0 -10 -9 27.4791 31.9313 29
0 -10 -10 338.075 36.407 25
0 -10 -10 389.05 35.2527 29
0 -10 -11 426.607 33.4698 25
0 -10 -11 465.943 41.8248 27
0 11 -1 -14.8481 34.0235 30
0 11 0 -24.8855 39.0028 30
0 11 1 480.346 41.9123 7
0 -11 -1 491.881 45.0135 16
0 11 2 2326.6 100.814 7
0 -11 -2 2372.77 108.248 16
0 11 3 255.234 36.4631 7
0 -11 -3 286.484 48.4367 16
0 -11 -3 266.784 34.6972 29
0 -11 -4 7542.34 263.944 16
0 -11 -4 7266.96 250.513 29
0 -11 -5 611.124 51.8679 29
0 -11 -6 422.283 53.2568 16
0 -11 -6 481.184 48.2164 29
0 -11 -7 80.7428 35.8929 16
0 -11 -7 138.195 36.1692 29
0 -11 -8 29.7898 31.261 29
0 -11 -8 -1.53486 27.7781 16
0 -11 -9 458.604 40.5235 29
0 -11 -10 172.698 24.0921 29
0 -12 -2 151.175 27.9041 16
0 -12 -3 242.499 36.0076 16
0 -12 -4 3992.95 142.883 29
0 -12 -4 4449.59 158.24 16
0 -12 -5 442.188 37.2632 29
0 -12 -6 2002.85 85.9947 29
0 -12 -6 2011.57 92.533 16
0 -12 -7 460.626 40.1684 29
0 -12 -7 436.302 40.7427 16
0 -12 -8 26.5708 21.1374 16
0 -12 -9 53.4303 20.1788 29
0 -13 -5 527.931 35.3182 16
0 -13 -6 92.2902 21.7462 16
1 -12 -8 109.908 24.1317 29
1 -12 -7 252.969 31.674 16
1 -12 -7 260.429 31.2191 29
1 -12 -6 329.248 38.3354 16
1 -12 -6 296.702 33.7973 29
1 -12 -5 639.099 43.6767 29
1 -12 -5 631.545 50.4746 16
1 -12 -4 1246.63 60.2183 29
1 -12 -4 1410.04 72.9547 16
1 -12 -3 139.308 33.0628 16
1 -12 -2 924.115 51.6672 16
1 -11 -9 357.237 33.0928 29
1 -11 -8 472.162 39.9451 16
1 -11 -8 685.674 47.319 29
1 -11 -7 547.648 49.8381 16
1 -11 -6 75.9789 34.6022 29
1 -11 -6 70.4835 37.9367 16
1 -11 -5 450.019 47.2961 29
1 -11 -5 506.901 56.2625 16
1 -11 -4 132.775 35.4204 29
1 -11 -3 116.458 40.9168 16
1 -11 -3 80.4004 29.9651 29
-1 11 3 67.263 27.1542 7
1 -11 -2 971.874 67.3814 16
-1 11 2 985.605 57.3592 7
1 -11 -2 926.17 52.2025 29
1 -11 -1 91.347 34.1417 16
1 -11 0 403.149 34.4671 16
1 -10 -11 687.803 45.6262 27
1 -10 -10 83.7348 25.3655 25
1 -10 -10 99.3526 21.6258 29
1 -10 -9 109.332 30.1915 29
1 -10 -8 80.3926 34.2048 29
1 -10 -7 3135.81 137.137 16
1 -10 -7 3427.12 138.162 29
1 -10 -6 3874.42 160.933 16
1 -10 -5 6033.96 231.02 16
1 -10 -5 6241.45 224.171 29
-1 10 4 2288.12 101.926 7
1 -10 -4 2483.53 112.086 29
-1 10 3 864.826 59.0041 7
1 -10 -3 843.365 61.9244 29
1 -10 -3 897.76 74.2532 16
1 -10 -2 2426.71 119.123 16
1 -10 -2 2317.97 104.883 29
-1 10 2 2423.17 107.869 7
-1 10 1 50.9769 31.6886 7
1 -10 -1 27.7332 41.0361 16
1 -10 0 72.9573 35.1266 16
-1 10 0 73.9824 31.734 7
-1 10 0 55.7056 57.6232 30
-1 10 -1 316.602 65.097 30
-1 10 -1 334.076 37.0459 7
-1 10 -2 33.4719 48.4941 30
-1 10 -3 41.5569 36.248 30
1 -9 -11 1752.98 86.0564 27
1 -9 -11 1893.96 80.6649 25
1 -9 -10 196.294 38.603 25
1 -9 -9 853.175 62.6143 25
1 -9 -9 942.74 58.6132 29
1 -9 -8 7.00612 36.5775 25
1 -9 -8 145.597 39.4209 29
1 -9 -7 21158.3 678.009 16
1 -9 -7 22222.1 680.939 29
1 -9 -6 7557.27 268.903 16
1 -9 -6 7432.64 264.437 29
1 -9 -5 4910.83 188.483 29
1 -9 -5 4908.26 193 16
1 -9 -4 2067.08 102.325 29
-1 9 4 2083.11 94.2467 7
1 -9 -4 1947.3 108.143 16
1 -9 -3 8348.54 291.552 16
-1 9 3 8013.32 275.94 7
1 -9 -3 7964.61 279.942 29
-1 9 2 5246.77 190.335 7
1 -9 -2 5202.15 190.194 29
1 -9 -2 4798.94 201.023 16
-1 9 1 403.626 45.8757 7
1 -9 -1 368.646 45.2846 29
1 -9 -1 332.706 52.0288 16
-1 9 0 268.217 79.5736 30
-1 9 0 325.514 45.4951 7
1 -9 0 341.978 49.7705 16
-1 9 -1 1032.56 66.0998 7
1 -9 1 997.742 68.1903 16
-1 9 -1 1144.25 109.801 30
-1 9 -2 234.025 78.1207 30
-1 9 -2 236.682 35.4953 7
-1 9 -3 129.791 39.4032 22
-1 9 -3 73.2226 64.4511 30
-1 9 -4 94.2126 33.4078 22
-1 9 -4 169.887 51.578 30
1 -8 -12 715.474 44.1895 27
1 -8 -12 673.219 43.3303 25
1 -8 -11 1940.01 98.3198 27
1 -8 -11 1970.44 93.381 25
1 -8 -10 5238.62 188.833 24
1 -8 -10 5208.58 195.677 25
1 -8 -9 1652.46 89.0061 25
1 -8 -9 1483.16 83.1284 24
1 -8 -9 1490.01 76.3554 29
1 -8 -8 1636.5 87.1106 29
1 -8 -8 1779.1 93.6628 25
1 -8 -7 26562.7 842.893 16
1 -8 -7 27502.7 844.776 25
1 -8 -7 28348.6 848.556 29
1 -8 -6 30185.3 933.956 16
1 -8 -6 30608.3 933.958 29
1 -8 -5 343.293 47.3038 16
1 -8 -4 838.195 66.8588 16
-1 8 4 909.964 57.5219 7
1 -8 -3 80.3293 34.6759 29
-1 8 3 41.6587 28.3034 7
1 -8 -2 4568.32 170.171 29
1 -8 -2 4599 179.387 16
-1 8 2 4353.06 169.093 7
1 -8 -1 804.554 115.919 3
-1 8 1 926.802 66.0767 7
1 -8 -1 1062.04 64.4688 29
1 -8 -1 979.244 71.5213 16
-1 8 0 3804.73 152.535 7
1 -8 0 3746.99 159.175 16
-1 8 0 3978.45 196.57 30
1 -8 0 3824.67 235.198 3
-1 8 -1 5210.12 237.269 30
-1 8 -1 4734.83 183.321 7
1 -8 1 4793.85 189.366 16
-1 8 -2 22.515 31.1897 7
-1 8 -2 29.0118 42.4846 22
-1 8 -2 -26.6211 76.2066 30
-1 8 -3 285.442 38.2167 7
-1 8 -3 352.734 87.3852 30
-1 8 -3 286.041 54.2806 22
-1 8 -4 6.48407 11.2376 7
-1 8 -4 145.537 71.1592 30
-1 8 -4 81.3062 45.2854 22
-1 8 -5 889.89 65.6846 22
1 -7 -12 310.404 37.3599 27
1 -7 -12 499.385 42.1767 24
1 -7 -11 559.511 54.0323 24
1 -7 -11 510.225 46.1163 23
1 -7 -11 468.261 54.3319 27
1 -7 -11 396.034 49.3798 25
1 -7 -10 1417.49 90.9829 27
1 -7 -10 1446.23 86.5806 25
1 -7 -10 1466.67 87.4791 24
1 -7 -10 1429.46 79.6027 23
1 -7 -9 1550.74 94.7803 24
1 -7 -9 1527.81 88.2501 23
1 -7 -8 19396.9 600.553 14
1 -7 -8 19301.2 595.981 29
1 -7 -8 18895.1 607.05 25
1 -7 -8 18833.1 599.26 23
1 -7 -8 18661.5 601.796 24
1 -7 -7 9359.69 321.57 14
1 -7 -7 10372.6 328.158 29
1 -7 -7 9880.41 331.315 25
1 -7 -7 9615.62 326.583 23
1 -7 -6 29559.8 906.436 25
1 -7 -6 29979.7 909.047 29
1 -7 -6 29443.5 906.057 16
1 -7 -5 91.8629 33.1791 29
1 -7 -5 108.086 32.7314 16
1 -7 -4 7285.03 244.669 16
-1 7 4 6811.11 232.581 7
-1 7 3 5620.2 196.727 7
1 -7 -3 5543.29 199.172 29
1 -7 -3 5831.77 204.885 16
1 -7 -2 1068.05 67.7338 16
-1 7 2 1046.28 62.4658 7
1 -7 -2 1178.98 65.1017 29
1 -7 -1 171.785 33.5008 29
1 -7 -1 130.848 64.8276 3
-1 7 1 215.165 36.2687 7
1 -7 -1 190.467 39.8444 16
-1 7 0 8066.26 281.425 7
1 -7 0 8935.89 375.887 3
1 -7 0 8512.52 289.562 16
1 -7 0 7999.52 276.625 29
1 -7 1 5957.61 304.636 3
-1 7 -1 5975.72 220.011 7
1 -7 1 6070 226.343 16
1 -7 2 112.16 72.3091 3
-1 7 -2 151.981 46.3356 22
-1 7 -2 106.026 35.0628 7
-1 7 -2 185.644 81.8855 30
-1 7 -3 1641.49 136.103 30
-1 7 -3 1458.11 93.6688 22
-1 7 -3 1531.54 80.8533 7
-1 7 -4 89.5338 83.0012 30
-1 7 -4 1.6123 25.8794 7
-1 7 -4 71.4727 50.2233 22
-1 7 -5 31.201 47.4195 22
-1 7 -6 2679.29 131.313 30
-1 7 -6 2428.86 119.608 22
-1 7 -7 812.961 53.199 22
1 -6 -12 69.7991 25.0538 23
1 -6 -12 -1.19946 29.1018 25
1 -6 -11 2807.77 128.437 27
1 -6 -11 2859.14 128.655 24
1 -6 -11 2874.05 125.513 25
1 -6 -11 3039.1 119.119 23
1 -6 -10 18037.9 579.395 24
1 -6 -10 17992 582.949 27
1 -6 -10 18016.7 567.246 23
1 -6 -9 2.44527 55.2244 24
1 -6 -9 55.3162 43.5826 14
1 -6 -9 22.281 44.8907 25
1 -6 -9 5.75011 35.0204 23
1 -6 -8 21635.7 674.286 23
1 -6 -8 21810 681.176 14
1 -6 -8 21302.3 684.585 25
1 -6 -8 21708 682.361 9
1 -6 -8 20481.6 793.748 17
1 -6 -8 22110.6 684.013 24
1 -6 -7 10830.1 356.267 14
1 -6 -7 10773.1 362.098 25
1 -6 -7 10678.2 358.413 24
1 -6 -7 10646.2 449.781 17
1 -6 -7 10812.6 358.49 9
1 -6 -7 10904.6 352.163 29
1 -6 -7 10872.9 353.937 23
1 -6 -6 3327.65 125.695 23
1 -6 -6 2953.8 182.137 17
1 -6 -6 3027.02 124.004 29
1 -6 -6 3118.26 124.178 9
1 -6 -6 3069.81 127.616 25
1 -6 -5 448.235 70.5431 17
-1 6 4 742.764 44.0846 7
-1 6 3 19097.8 584.339 7
-1 6 2 217.998 31.8869 7
-1 6 1 13628.9 431.664 7
1 -6 -1 14429.4 515.859 3
1 -6 0 56.565 53.3424 3
-1 6 0 91.025 30.4149 7
1 -6 1 37810.5 1227.75 3
1 -6 1 36652.5 1127.48 21
-1 6 -1 37819.5 1124.84 7
1 -6 2 3140.85 132.363 21
-1 6 -2 3424.21 142.634 22
-1 6 -2 3164.89 129.048 7
-1 6 -3 1682.18 129.933 30
-1 6 -3 1492.61 94.6857 22
-1 6 -3 1457.04 76.5527 7
-1 6 -4 276.572 37.8512 7
-1 6 -4 252.955 38.4165 15
-1 6 -4 214.415 56.7434 22
-1 6 -5 800.257 55.4789 15
-1 6 -5 670.002 106.11 30
-1 6 -5 807.101 78.6594 22
-1 6 -6 321.237 78.1387 30
-1 6 -6 229.275 33.7239 15
-1 6 -6 277.007 59.6986 22
-1 6 -7 387.75 56.5635 22
-1 6 -7 297.558 31.1054 15
-1 6 -7 451.644 61.7476 30
1 -5 -12 300.994 32.0077 23
1 -5 -12 313.186 35.528 25
1 -5 -11 -14.2351 40.6082 27
1 -5 -11 -28.7048 45.3862 24
1 -5 -11 -34.8903 42.8204 25
1 -5 -11 27.4814 31.9801 23
1 -5 -10 317.231 61.0234 24
1 -5 -10 406.376 47.4964 23
1 -5 -10 534.35 58.2829 25
1 -5 -10 482.77 64.4774 27
1 -5 -9 5138.5 199.283 14
1 -5 -9 4751.67 203.106 27
1 -5 -9 5139.92 188.953 23
1 -5 -9 5164.65 204.658 24
1 -5 -9 4979.26 201.069 9
1 -5 -8 2229.35 111.84 14
1 -5 -8 2238.39 113.44 25
1 -5 -8 2339.92 115.494 24
1 -5 -8 2137.75 111.478 9
1 -5 -8 2264.17 186.679 17
1 -5 -8 2259.86 103.067 23
1 -5 -7 6704.71 227.29 23
1 -5 -7 6541.01 324.04 17
1 -5 -7 6757.96 236.059 9
1 -5 -7 6149.13 234.557 25
1 -5 -7 6522.12 235.252 24
1 -5 -7 6728.73 233.748 14
1 -5 -6 1300.18 121.917 17
1 -5 -6 1217.84 68.661 9
1 -5 -5 10795.2 343.464 9
1 -5 -5 10728.4 410.22 17
1 -5 -4 4227.89 144.077 9
-1 5 4 4081.25 140.63 7
1 -5 -4 4456.99 193.943 17
-1 5 3 31990.1 1017.69 1
-1 5 3 33656.6 990.727 7
-1 5 2 3012.3 107.756 7
-1 5 2 2686.27 134.61 1
1 -5 -1 4.10195 49.8331 3
-1 5 1 44.8129 25.0754 7
-1 5 1 63.8621 41.5257 1
-1 5 0 543.682 40.554 7
-1 5 -1 5974.07 201.733 7
-1 5 -2 76.3601 26.0537 7
-1 5 -3 8774.56 298.354 22
1 -5 3 7941.32 278.33 21
-1 5 -3 8294.61 276.9 7
-1 5 -4 141.228 32.7842 7
-1 5 -4 200.884 36.5206 15
-1 5 -4 247.601 54.7178 22
-1 5 -5 1097.16 116.154 30
-1 5 -5 944.292 63.9443 15
-1 5 -5 1103.67 86.6034 22
-1 5 -6 272.85 84.2099 30
-1 5 -6 289.553 41.3298 15
-1 5 -6 292.607 64.2529 22
-1 5 -7 817.886 55.9875 15
-1 5 -7 949.301 94.5581 30
-1 5 -8 17.9656 23.324 15
-1 5 -8 21.9536 39.1878 30
1 -4 -12 560.888 35.6997 25
1 -4 -12 570.275 47.2691 24
1 -4 -11 111.202 37.6316 25
1 -4 -11 78.5147 48.2858 24
1 -4 -11 98.2455 33.5402 23
1 -4 -11 179.759 44.788 27
1 -4 -10 478.918 60.5494 27
1 -4 -10 311.937 53.5844 25
1 -4 -9 3400.6 159.937 24
1 -4 -9 3831.75 156.546 25
1 -4 -9 3602.56 162.596 27
1 -4 -8 9397.62 438.858 17
1 -4 -8 9216.39 324.269 25
1 -4 -8 9683.76 329.974 24
1 -4 -8 9532.16 325.347 14
1 -4 -7 259.455 44.0467 9
1 -4 -7 266.227 44.9767 24
1 -4 -7 240.498 42.2326 14
1 -4 -7 194.836 76.8046 17
1 -4 -6 3246.69 128.435 9
1 -4 -6 3083.51 191.104 17
1 -4 -5 675.879 86.1424 17
1 -4 -5 589.602 45.0707 9
1 -4 -4 2223.99 85.3154 11
1 -4 -4 2044.27 83.9538 9
-1 4 4 2180.45 97.1939 1
1 -4 -4 2058.64 126.305 17
-1 4 3 4572.8 170.571 1
1 -4 -3 4434.27 187.186 17
-1 4 2 1103.37 50.5174 7
-1 4 2 1255.46 73.2319 1
-1 4 1 28495.7 849.437 7
-1 4 1 28226.6 889.999 1
-1 4 0 22037.5 667.547 7
-1 4 0 22659.1 719.554 1
-1 4 -1 932.201 49.0877 7
-1 4 -2 1592.61 70.5372 7
-1 4 -3 777.182 47.0873 7
-1 4 -4 1061.37 62.7262 15
-1 4 -4 1146.09 104.057 30
-1 4 -4 1283.36 80.5463 22
-1 4 -4 1070.29 56.8877 7
-1 4 -5 -3.60881 30.7964 15
-1 4 -5 -43.8694 42.033 22
-1 4 -5 16.9034 73.9526 30
-1 4 -6 5272.63 196.382 15
-1 4 -6 5259.87 247.856 30
-1 4 -7 824.917 61.0823 15
-1 4 -7 822.3 98.2182 30
-1 4 -8 250.316 59.6112 22
-1 4 -8 173.88 35.3963 15
-1 4 -8 101.249 53.5765 30
-1 4 -9 321.366 32.2423 15
-1 4 -9 204.788 45.4271 22
1 -3 -12 22.7523 20.1565 23
1 -3 -11 84.0775 44.1515 24
1 -3 -11 52.6548 31.8959 25
1 -3 -10 38.8221 46.5929 27
1 -3 -10 -3.94781 39.9071 25
1 -3 -10 -26.5186 55.303 24
1 -3 -9 -25.5646 41.8123 9
1 -3 -9 47.8132 44.8052 14
1 -3 -9 6.67315 39.0065 25
1 -3 -9 -77.5543 58.1656 24
1 -3 -9 -5.30751 45.4833 27
1 -3 -8 10949.1 379.947 9
1 -3 -8 11390.5 375.296 25
1 -3 -8 11796.8 384.639 27
1 -3 -8 10836.5 375.27 14
1 -3 -7 46.9304 70.5202 17
1 -3 -7 76.5724 35.8464 25
1 -3 -7 53.8777 37.0284 24
1 -3 -7 34.3736 33.9277 14
1 -3 -7 50.1296 36.733 9
1 -3 -6 1125.45 117.219 17
-1 3 5 1936.4 101.993 1
1 -3 -5 2006.64 138.918 17
1 -3 -5 2119.63 88.5548 9
1 -3 -5 2322.43 152.311 8
1 -3 -5 2010.31 87.8542 11
1 -3 -4 14971.2 469.774 11
1 -3 -4 15361.2 469.798 9
1 -3 -4 16433.6 540.255 8
1 -3 -4 15567.4 527.391 17
-1 3 4 15298.8 490.821 1
1 -3 -3 18730.6 607.207 17
-1 3 3 18556.6 581.366 1
-1 3 2 28007.6 864.155 1
1 -3 -2 28640.8 872.736 17
1 -3 -1 18260.1 547.445 12
1 -3 -1 16923.8 545.991 10
-1 3 1 17939.4 559.05 1
-1 3 0 356.693 55.1075 1
1 -3 0 360.641 29.7575 4
1 -3 0 391.032 29.2593 12
-1 3 -1 26.0073 16.5769 5
1 -3 1 48.468 19.8197 4
-1 3 -1 21.268 42.7152 1
-1 3 -1 48.6138 18.8694 18
-1 3 -1 56.0823 21.2694 7
-1 3 -2 2699.47 93.0598 7
-1 3 -2 2411.02 102.825 8
-1 3 -2 2377.72 101.21 18
-1 3 -3 35677.9 1109.49 17
-1 3 -3 36798.7 1086.19 7
-1 3 -4 1789.76 73.5286 7
-1 3 -5 1172.64 105.015 30
-1 3 -5 1122.29 66.2069 15
-1 3 -6 5066.87 192.449 15
-1 3 -6 5402.5 214.352 22
-1 3 -6 5112 237.261 30
-1 3 -7 173.823 74.6944 30
-1 3 -7 106.877 41.2065 15
-1 3 -7 119.834 58.719 22
-1 3 -8 95.2232 59.3888 22
-1 3 -8 72.9087 37.3854 15
-1 3 -8 218.223 65.9217 30
-1 3 -9 42.0989 32.2107 15
-1 3 -9 29.9286 50.4565 22
-1 3 -10 288.258 39.8247 22
-1 3 -10 369.035 30.7285 15
1 -2 -12 271.314 25.442 23
1 -2 -11 415.589 47.77 24
1 -2 -10 167.207 31.9248 15
1 -2 -10 187.19 50.912 24
1 -2 -10 197.055 39.9899 25
1 -2 -9 1561.45 98.9682 27
1 -2 -9 1576.93 79.0654 15
1 -2 -9 1643.26 92.8293 14
1 -2 -9 1503.78 86.0344 25
1 -2 -9 1574.5 98.4035 24
1 -2 -8 3568.34 240.122 17
1 -2 -8 3798.39 145.211 15
1 -2 -8 3817.71 158.208 14
1 -2 -8 3944.34 162.714 9
1 -2 -8 3914.37 165.744 27
1 -2 -8 4043.25 163.57 24
1 -2 -8 3715.39 153.975 25
1 -2 -7 239.928 47.1048 27
1 -2 -7 276.842 41.2286 25
1 -2 -7 167.697 38.8753 14
1 -2 -7 268.275 46.0841 24
1 -2 -7 193.939 40.4516 9
1 -2 -7 171.53 78.2385 17
1 -2 -6 191.236 38.2451 9
1 -2 -5 183.767 34.3793 9
1 -2 -5 227.614 66.8866 8
1 -2 -4 48213.9 1432.47 11
1 -2 -4 48339.8 1491.74 17
1 -2 -3 30815.8 954.718 8
1 -2 -3 29799.1 945.711 17
1 -2 -2 1031.97 69.1646 12
-1 2 2 895.38 55.6185 1
1 -2 -2 994.207 71.2426 17
1 -2 -2 792.758 67.2882 10
1 -2 -1 3065.17 124.224 10
1 -2 -1 3153.49 124.361 4
1 -2 -1 3282.34 126.394 3
-1 2 1 2987.32 123.122 1
1 -2 -1 3247.72 126.095 12
-1 2 0 102535 2957.42 1
1 -2 0 98229.5 2941.39 4
-1 2 -1 2554.46 99.3565 18
-1 2 -1 2371.68 120.427 1
-1 2 -2 3946.34 150.443 18
-1 2 -3 9855.67 340.296 18
-1 2 -3 10007.3 342.542 8
-1 2 -4 2402.66 126.259 8
-1 2 -4 2276.48 122.754 17
-1 2 -4 2195.98 81.4587 7
-1 2 -5 828.561 84.3817 8
-1 2 -5 807.46 81.3516 17
-1 2 -6 799.463 71.3229 22
-1 2 -6 738.435 57.0186 15
-1 2 -6 747.694 89.5435 30
-1 2 -7 22578.1 696.494 15
-1 2 -7 21361.9 732.265 30
-1 2 -7 22411.8 718.824 22
-1 2 -8 889.418 89.8071 30
-1 2 -8 1039.04 71.3337 15
-1 2 -8 983.706 92.0471 22
-1 2 -9 106.992 56.9247 22
-1 2 -10 70.779 45.9119 22
1 -1 -11 60.239 20.6192 15
1 -1 -10 1698.19 88.0116 24
1 -1 -10 1580.15 78.0769 15
1 -1 -9 21.8571 30.8867 15
1 -1 -9 -18.3912 35.3212 25
1 -1 -9 -74.173 48.2741 24
1 -1 -8 3387.55 150.706 24
1 -1 -8 3843.28 158.283 27
1 -1 -8 3601.04 146.773 14
1 -1 -8 3438.55 139.813 15
1 -1 -8 3381.96 140.794 25
1 -1 -8 3393.09 148.686 9
1 -1 -8 3170.97 224.078 17
1 -1 -7 1894.5 84.5465 15
1 -1 -7 1679.46 85.3917 25
1 -1 -7 1594.07 149.752 17
1 -1 -7 1683.37 91.0335 24
1 -1 -7 1703.34 88.0115 14
1 -1 -7 1668.55 84.2674 28
1 -1 -7 1680.25 97.0442 27
1 -1 -7 1783.92 91.0758 9
1 -1 -6 4400.61 235.794 17
1 -1 -6 4202.26 158.816 9
1 -1 -5 26961.3 805.556 11
1 -1 -5 25838.3 879.394 17
1 -1 -5 27494.6 897.082 8
1 -1 -5 26199.2 805.704 9
1 -1 -4 2501.49 97.2157 9
1 -1 -4 2535.54 142.827 17
1 -1 -4 2578.08 96.3205 11
1 -1 -4 2662.04 152.082 8
1 -1 -3 18852.1 621.934 8
1 -1 -2 4455.89 175.94 17
1 -1 -2 4402.6 173.176 10
1 -1 -1 103237 3068.73 10
1 -1 -1 104825 3069.18 17
-1 1 1 104407 3063.85 1
1 -1 -1 102837 3068.23 4
-1 1 0 27755.3 821.885 1
1 -1 0 26548.4 817.472 4
1 -1 0 27327.9 814.911 3
-1 1 -1 8285.34 256.812 31
-1 1 -2 56345.5 1686.98 18
-1 1 -3 119082 3538.65 18
-1 1 -4 2936.29 106.28 2
-1 1 -4 3245.67 154.308 8
-1 1 -4 3071.01 149.474 18
-1 1 -5 91.1129 45.069 17
-1 1 -5 98.6844 49.4699 8
-1 1 -6 7393.43 319.42 8
-1 1 -6 7145.95 310.733 17
-1 1 -7 1862.48 147.445 17
-1 1 -7 2113.4 94.5897 9
-1 1 -7 2086.82 115.63 22
-1 1 -8 41.0429 39.6153 15
-1 1 -8 -16.8632 54.9052 22
-1 1 -9 1725.22 91.554 15
-1 1 -9 1568.39 112.813 22
-1 1 -10 77.1837 34.0298 15
-1 1 -10 42.6051 50.4721 22
-1 1 -11 616.65 39.8985 15
1 0 -11 409.043 28.8871 15
1 0 -10 471.704 42.3644 24
1 0 -10 243.454 36.9189 15
1 0 -9 462.464 49.6767 15
1 0 -9 401.934 51.9503 24
1 0 -8 3777.14 243.895 17
1 0 -8 4256.25 162.537 14
1 0 -8 4197.32 166.892 24
1 0 -8 4197.05 162.601 15
1 0 -8 3993.79 164.053 28
1 0 -7 175.155 43.7826 24
1 0 -7 305.248 42.1481 15
1 0 -7 282.435 44.7579 9
1 0 -7 186.329 39.0367 14
1 0 -7 283.402 55.8379 27
1 0 -7 153.118 74.1111 17
1 0 -7 173.275 44.1282 28
1 0 -6 3769.35 144.407 9
1 0 -6 3700.38 210.375 17
1 0 -5 859.772 99.569 17
1 0 -5 1022.63 58.1895 9
1 0 -4 36876.3 1099.96 9
1 0 -4 38947.1 1176.79 8
1 0 -4 36324.7 1098.6 11
1 0 -4 36967.9 1161.19 17
1 0 -3 42463.7 1269.98 8
1 0 -3 39646.5 1258.84 17
1 0 -2 18087.8 572.323 10
1 0 -2 17550.9 573.654 12
1 0 -2 18653.5 577.144 17
1 0 -1 47639.4 1425.12 5
1 0 0 2891.03 103.005 5
-1 0 -1 76552.7 2261.89 1
-1 0 -2 106615 3134.94 31
-1 0 -2 106998 3142.46 18
-1 0 -2 104778 3136.77 1
-1 0 -3 112013 3217.67 18
-1 0 -3 104752 3207.75 1
-1 0 -4 11485.8 391.794 8
-1 0 -4 11152.1 388.859 18
-1 0 -4 10551.9 333.724 2
-1 0 -5 773.802 47.3538 2
-1 0 -5 847.868 89.6262 8
-1 0 -5 923.559 90.6674 18
-1 0 -6 17373.5 613.678 8
-1 0 -6 16412.8 602.993 17
-1 0 -7 3183.08 132.337 15
-1 0 -7 3495.29 205.089 17
-1 0 -7 3339.51 149.803 22
-1 0 -7 3421.89 210.418 8
-1 0 -8 176.709 41.9041 24
-1 0 -8 252.147 77.5532 17
-1 0 -8 245.045 42.1582 9
-1 0 -8 152.745 56.4386 22
-1 0 -8 188.065 43.8574 15
-1 0 -8 175.973 78.9098 8
-1 0 -9 107.561 36.1155 9
-1 0 -9 122.075 42.6673 15
-1 0 -9 79.4448 38.2536 24
-1 0 -9 98.09 54.6195 22
-1 0 -10 1026.61 84.0054 22
-1 0 -10 940.997 65.225 15
-1 0 -10 944.405 61.9274 24
-1 0 -11 1635.43 75.035 15
1 1 -10 83.5413 29.3625 15
1 1 -9 159.156 39.4829 15
1 1 -9 103.131 44.1019 22
1 1 -8 2169 103.604 15
1 1 -8 1797.77 106.561 22
1 1 -7 345.156 78.1586 17
1 1 -7 553.728 59.9058 22
1 1 -7 441.228 51.3404 15
1 1 -7 331.426 46.8396 24
1 1 -7 475.436 57.0609 28
1 1 -6 3427.53 193.634 17
1 1 -6 2996.53 125.537 9
1 1 -6 3090 134.164 28
1 1 -6 3181.9 130.983 15
1 1 -5 1575.67 117.589 17
1 1 -5 1515.75 72.4005 9
1 1 -4 435.977 36.3617 9
1 1 -4 385.582 62.4966 17
1 1 -4 418.366 33.0954 11
1 1 -3 11296.7 395.04 17
1 1 -3 11491 403.643 5
1 1 -2 89237.4 2724.07 5
1 1 -2 92987.8 2716.7 17
1 1 -1 355394 10417.5 4
1 1 -1 355976 10418 10
1 1 -1 353783 10422.6 12
1 1 0 21425.2 648.683 4
-1 -1 -1 19427.4 583.511 1
-1 -1 -2 32642.1 981.127 18
-1 -1 -2 31230.5 958.827 1
-1 -1 -2 33849.6 984.94 31
-1 -1 -3 146359 4334.94 31
-1 -1 -4 129.368 24.9592 2
-1 -1 -5 2211.78 141.759 8
-1 -1 -5 2207.23 138.78 18
-1 -1 -5 2238.48 89.5334 2
-1 -1 -6 24093.5 823.298 8
-1 -1 -7 158.899 67.6466 17
-1 -1 -7 256.16 79.1751 8
-1 -1 -7 231.064 36.0142 15
-1 -1 -8 -8.0722 64.4505 17
-1 -1 -8 -19.1025 33.8358 15
-1 -1 -8 24.9532 34.7952 9
-1 -1 -8 9.26464 73.2424 8
-1 -1 -8 2.95637 49.9086 22
-1 -1 -9 77.3365 41.026 24
-1 -1 -9 28.7526 35.9424 9
-1 -1 -9 29.2323 52.2623 22
-1 -1 -9 41.632 38.545 15
-1 -1 -10 237.562 42.695 9
-1 -1 -10 263.137 43.1577 24
-1 -1 -10 223.012 42.0726 15
-1 -1 -11 3647.69 138.842 15
-1 -1 -11 3742.77 139.008 24
1 2 -10 558.585 38.2576 15
1 2 -9 32.6924 31.8187 15
1 2 -9 6.5342 41.187 22
1 2 -8 915.617 66.0426 15
1 2 -8 826.285 73.1048 22
1 2 -7 1604 101.277 22
1 2 -7 1625.07 90.0181 15
1 2 -6 3488.95 155.954 28
1 2 -6 4185.73 165.474 22
1 2 -5 8379.4 336.494 17
1 2 -4 5511.43 231.233 17
1 2 -4 5354.93 177.968 7
1 2 -3 9543.76 350.268 5
1 2 -3 9352.5 332.923 17
1 2 -3 9212.17 289.315 7
1 2 -2 8268.05 303.422 5
1 2 -1 330196 9647.19 10
1 2 -1 328135 9650.5 12
1 2 -1 327337 9669.52 5
1 2 0 124183 3654.42 4
-1 -2 -1 100770 2968.31 3
-1 -2 -2 179491 5283.41 1
-1 -2 -2 182058 5329.67 31
-1 -2 -2 183560 5314.64 18
-1 -2 -3 58966.8 1780.4 18
-1 -2 -4 3351.96 163.043 18
-1 -2 -5 70669.4 2104.56 8
-1 -2 -5 67921 2025.91 2
-1 -2 -6 31574 1043.71 8
-1 -2 -7 4186.2 241.078 17
-1 -2 -7 4687.51 253.916 8
-1 -2 -8 250.856 87.0775 17
-1 -2 -8 299.968 92.9438 8
-1 -2 -8 274.85 41.2899 25
-1 -2 -8 283.115 40.9777 15
-1 -2 -9 -1.93582 34.2903 25
-1 -2 -9 106.218 85.6349 8
-1 -2 -9 11.6065 33.0847 15
-1 -2 -9 -19.5658 43.3218 24
-1 -2 -9 8.98356 65.092 17
-1 -2 -9 37.6778 39.9295 9
-1 -2 -10 4.68365 41.4805 24
-1 -2 -10 -9.36997 32.9951 15
-1 -2 -10 4.58651 38.2876 9
-1 -2 -10 20.1971 29.9312 25
-1 -2 -11 4251.02 161.184 24
-1 -2 -11 4093.08 158.127 9
-1 -2 -11 3994.07 150.194 15
-1 -2 -12 1449.7 68.2196 24
-1 -2 -12 1671.76 67.2672 23
1 3 -9 19.7729 34.5222 22
1 3 -8 47.2568 43.9011 22
1 3 -7 1597.98 99.9352 22
1 3 -7 1379.89 111.183 30
1 3 -6 2136.26 103.974 15
1 3 -6 2069.08 113.912 22
1 3 -6 2069.98 135.107 30
1 3 -5 4392.15 186.488 28
1 3 -5 5094.85 181.221 15
1 3 -4 69.474 23.4167 7
1 3 -3 33713.8 1089.53 5
1 3 -3 34300.1 1023.08 7
1 3 -2 9360.81 343.464 5
1 3 -2 9267.1 291.395 7
1 3 -1 58859.6 1833.76 5
1 3 -1 61020 1788.43 7
1 3 0 10063.4 305.182 10
1 3 0 9599.43 304.425 4
-1 -3 -1 39332.7 1219.36 31
-1 -3 -1 38989.5 1185.25 18
-1 -3 -1 41027.3 1199.87 3
-1 -3 -2 14664 501.725 31
-1 -3 -2 15204.1 477.405 18
-1 -3 -3 33247.3 1051.38 31
-1 -3 -3 33508.9 1033.34 18
-1 -3 -4 7669.78 302.859 18
-1 -3 -4 8030.8 307.128 8
-1 -3 -4 8182.55 255.31 2
-1 -3 -5 9919.5 361.615 8
-1 -3 -5 8847.42 289.432 2
-1 -3 -5 9170.04 352.463 18
-1 -3 -6 20222.9 706.434 18
-1 -3 -7 1209.31 126.567 17
-1 -3 -8 3127.13 128.301 27
-1 -3 -8 3304.89 224.174 8
-1 -3 -8 2937.73 119.039 15
-1 -3 -8 2981.17 130.754 25
-1 -3 -9 23.901 36.1165 25
-1 -3 -9 -9.37773 71.8795 17
-1 -3 -9 -12.3381 36.2084 27
-1 -3 -9 26.7669 41.7076 9
-1 -3 -9 11.2001 92.0179 8
-1 -3 -9 24.2247 28.6979 15
-1 -3 -9 35.5058 45.898 24
-1 -3 -10 2410.2 115.054 9
-1 -3 -10 2317.66 117.234 24
-1 -3 -10 1975.57 96.0919 15
-1 -3 -10 2305.29 107.084 25
-1 -3 -11 339.71 36.3779 15
-1 -3 -11 335.983 47.443 9
-1 -3 -11 367.444 40.5779 25
-1 -3 -11 448.694 53.3225 24
-1 -3 -12 4967.82 175.737 24
-1 -3 -12 4862.85 166.148 23
1 4 -9 18.4395 20.4821 15
1 4 -8 390.215 42.1373 15
1 4 -8 334.707 51.1501 22
1 4 -7 41.3163 35.4084 15
1 4 -7 63.9342 60.9088 30
1 4 -7 39.6702 46.7696 22
1 4 -6 577.114 70.7736 22
1 4 -6 411.282 80.8876 30
1 4 -6 610.965 55.8684 15
1 4 -5 12438.2 407.143 15
1 4 -4 371.227 43.514 15
1 4 -4 367.398 38.5647 7
1 4 -3 5515.9 188.885 7
1 4 -3 5354.01 243.652 5
1 4 -2 82069.1 2479.43 5
1 4 -2 81523.6 2413.89 7
1 4 -1 1815.47 114.731 5
1 4 -1 1646.84 70.4035 7
-1 -4 0 502.935 64.8612 31
1 4 0 410.303 33.0305 7
-1 -4 -1 2991.2 142.867 31
-1 -4 -1 2491.41 91.7744 18
-1 -4 -1 2451.06 92.0995 8
1 4 1 3120.73 97.71 7
-1 -4 -1 3282.49 134.774 3
1 4 1 2738.25 93.8715 4
-1 -4 -2 15723.1 510.829 31
-1 -4 -2 14458.4 484.54 3
-1 -4 -2 14807.7 469.007 18
-1 -4 -3 370.749 51.5496 8
-1 -4 -3 409.851 71.5249 31
-1 -4 -3 543.763 54.7004 18
-1 -4 -4 62064.2 1841.73 2
-1 -4 -4 64249.8 1899.86 8
-1 -4 -4 61588.7 1894.78 18
-1 -4 -5 611.097 43.8909 2
-1 -4 -5 666.459 79.8979 18
-1 -4 -5 647.841 84.0561 8
-1 -4 -6 42737.6 1372.73 8
-1 -4 -7 779.348 108.723 8
-1 -4 -7 919.658 112.369 17
-1 -4 -8 5280.73 198.047 25
-1 -4 -8 4874.62 283.312 17
-1 -4 -8 5379.38 302.804 8
-1 -4 -9 95.3986 76.265 17
-1 -4 -9 107.453 39.8111 27
-1 -4 -9 202.387 51.7773 24
-1 -4 -9 122.075 42.169 25
-1 -4 -10 2150.07 106.765 27
-1 -4 -10 2365.38 112.655 25
-1 -4 -10 2241.41 114.659 9
-1 -4 -11 4246.23 171.063 9
-1 -4 -11 4284.01 163.831 25
-1 -4 -12 -38.5314 28.1632 25
-1 -4 -12 14.2112 22.998 23
-1 -4 -12 -18.0032 40.7124 24
1 5 -8 383.017 44.5907 22
1 5 -8 372.451 32.1862 15
1 5 -7 183.579 57.6816 30
1 5 -7 174.981 35.7107 15
1 5 -7 207.958 49.7078 22
1 5 -6 1104.8 70.4114 15
1 5 -6 1265.77 112.831 30
1 5 -6 1196.6 87.9913 22
1 5 -5 298.478 82.7325 30
1 5 -5 288.225 45.2773 15
1 5 -4 21612.4 693.74 7
1 5 -4 23267.5 699.993 15
-1 -5 4 22704.7 694.798 21
1 5 -3 5163.85 183.065 15
1 5 -3 4907.06 180.57 7
-1 -5 3 4990.68 180.571 21
1 5 -2 12447.4 456.735 5
1 5 -2 12361.2 395.084 7
1 5 -1 4259.59 150.429 7
1 5 -1 4003.23 198.278 5
1 5 0 1581.9 71.5713 7
-1 -5 -1 343.742 59.3048 3
-1 -5 -1 435.493 61.4068 31
1 5 1 308.696 31.6122 7
1 5 2 53686.9 1611.14 7
-1 -5 -2 55608.4 1678.33 31
-1 -5 -2 56377.1 1666.44 3
1 5 3 3158 110.308 7
-1 -5 -3 3416.02 176.974 31
-1 -5 -3 3158.39 136.038 8
-1 -5 -4 53.0513 19.3066 2
-1 -5 -4 73.4377 41.0507 18
-1 -5 -4 75.185 38.7172 8
-1 -5 -5 21755.7 729.387 8
-1 -5 -6 9969.32 399.293 8
-1 -5 -6 9797.02 395.96 17
-1 -5 -7 817.257 111.829 8
-1 -5 -7 714.811 99.9194 17
-1 -5 -7 876.153 62.1574 25
-1 -5 -8 4977.85 279.646 17
-1 -5 -8 4923.88 181.228 29
-1 -5 -9 2536.57 118.291 9
-1 -5 -9 2304.11 118.134 24
-1 -5 -9 2266.11 114.812 25
-1 -5 -9 2034.03 184.674 17
-1 -5 -9 2181.86 101.457 23
-1 -5 -9 2532.44 217.66 8
-1 -5 -10 266.74 41.5218 23
-1 -5 -10 258.418 48.1735 27
-1 -5 -10 321.859 54.4443 9
-1 -5 -10 294.134 52.8173 25
-1 -5 -10 333.976 56.0175 24
-1 -5 -11 7083.81 258.638 24
-1 -5 -11 6907.19 244.134 27
-1 -5 -11 7314.93 253.954 25
-1 -5 -11 7249.64 242.156 23
-1 -5 -12 13.2046 23.1245 23
-1 -5 -12 41.9387 30.5952 25
1 6 -7 19.3713 40.1573 30
1 6 -7 13.7933 34.6978 22
1 6 -7 -1.97398 21.6803 15
1 6 -6 94.5974 32.0442 15
1 6 -6 91.4313 63.5034 30
1 6 -5 188.533 81.1474 30
1 6 -5 183.892 39.2502 15
1 6 -5 233.851 55.1711 22
-1 -6 4 295.76 42.0713 21
1 6 -4 246.423 59.0534 22
1 6 -4 328.222 42.7476 15
1 6 -3 16131.8 493.012 7
-1 -6 3 15228.6 490.841 21
1 6 -3 14968.6 488.538 15
1 6 -2 2116.06 97.8786 7
-1 -6 2 2106.96 96.8836 21
1 6 -2 1956.47 91.3237 15
1 6 -1 15.0194 44.0777 5
-1 -6 1 26.4161 31.1128 21
1 6 -1 18.8388 28.2534 7
1 6 0 4742.36 167.596 7
-1 -6 0 4975.61 231.976 3
1 6 1 809.18 50.8188 7
-1 -6 -1 801.178 85.9979 3
-1 -6 -2 218.492 56.2891 31
-1 -6 -2 157.513 53.4515 3
1 6 2 164.608 28.8448 7
1 6 3 10087.7 318.277 7
1 6 4 1839.69 74.2131 7
-1 -6 -4 1899.81 105.609 8
-1 -6 -5 13321.7 475.274 17
-1 -6 -5 13415.5 478.709 8
-1 -6 -6 64.9675 54.1682 17
-1 -6 -6 57.4386 49.7745 8
-1 -6 -7 7758.73 261.873 23
-1 -6 -7 7776.67 351.666 17
-1 -6 -7 7968.81 276.519 25
-1 -6 -7 8016.3 269.989 29
-1 -6 -7 8660.32 372.92 8
-1 -6 -8 769.315 120.967 8
-1 -6 -8 704.576 107.524 17
-1 -6 -8 780.234 67.6062 25
-1 -6 -8 827.849 56.3225 23
-1 -6 -8 950.609 66.2512 9
-1 -6 -8 807.068 58.8672 29
-1 -6 -9 7773.95 271.405 24
-1 -6 -9 7411.74 254.211 23
-1 -6 -9 7755.57 269.185 9
-1 -6 -9 7347.63 387.841 8
-1 -6 -9 7226.54 365.027 17
-1 -6 -9 7127.64 254.19 29
-1 -6 -9 7391.12 270.738 25
-1 -6 -10 5253.41 204.95 24
-1 -6 -10 5403.25 204.061 9
-1 -6 -10 5314.86 200.384 27
-1 -6 -10 5045.25 188.271 23
-1 -6 -11 5034.11 192.953 9
-1 -6 -11 5157.74 195.047 24
-1 -6 -11 4934.17 191.097 25
-1 -6 -11 5044.26 185.4 27
-1 -6 -11 4981.28 178.756 23
-1 -6 -12 3.0309 29.8805 25
-1 -6 -12 36.7643 24.1263 23
-1 -6 -12 -36.6975 40.987 24
-1 -6 -13 1621.76 69.0667 24
1 7 -6 44.3911 47.076 30
1 7 -6 120.679 39.3818 22
1 7 -6 75.5348 21.3065 15
1 7 -5 1111.6 100.443 30
1 7 -5 860.316 53.106 15
1 7 -5 1012.06 74.4159 22
1 7 -4 12.4738 70.9627 30
1 7 -4 26.4344 30.3711 15
1 7 -4 33.0309 46.424 22
1 7 -3 4949.21 186.471 7
1 7 -3 4664.35 178.361 15
-1 -7 3 4855.99 185.167 21
1 7 -2 1316.07 76.8487 7
-1 -7 2 1320.04 77.5433 21
-1 -7 1 3785.07 152.618 21
1 7 -1 3850.82 153.552 7
-1 -7 1 3955.86 225.002 3
-1 -7 0 488.336 88.9439 3
1 7 0 565.654 50.8534 7
-1 -7 0 529.599 47.9953 16
-1 -7 0 611.371 51.4373 21
-1 -7 -1 3147.73 123.651 16
1 7 1 2956.54 121.64 7
-1 -7 -1 3095.52 180.661 3
-1 -7 -1 2921.09 123.153 21
1 7 2 21883.2 662.915 7
-1 -7 -2 21501.9 740.358 3
-1 -7 -2 21207.9 666.657 16
-1 -7 -2 21511.4 664.741 21
1 7 3 289.452 34.8543 7
-1 -7 -4 4770.54 175.444 16
-1 -7 -4 4747.32 172.5 29
1 7 4 4694.87 164.1 7
-1 -7 -5 278.037 38.8992 29
-1 -7 -6 5616.85 198.456 16
-1 -7 -6 5541.92 199.362 25
-1 -7 -6 5277.78 199.129 29
-1 -7 -7 4291.08 237.251 8
-1 -7 -7 4036.45 150.291 23
-1 -7 -7 4257.99 156.493 16
-1 -7 -7 3906.17 160.619 25
-1 -7 -7 4027.28 158.736 29
-1 -7 -7 3863.19 150.608 9
-1 -7 -8 286.987 80.9086 8
-1 -7 -8 260.66 43.8541 29
-1 -7 -8 148.639 71.3096 17
-1 -7 -8 252.996 48.6161 25
-1 -7 -8 206.125 37.9649 9
-1 -7 -8 190.864 43.8982 24
-1 -7 -8 257.855 39.7946 23
-1 -7 -9 3213.8 143.541 25
-1 -7 -9 3210.6 135.775 9
-1 -7 -9 3100.36 131.842 29
-1 -7 -9 2923.25 135.472 24
-1 -7 -9 3119.16 126.386 23
-1 -7 -10 3799.63 161.503 25
-1 -7 -10 3719.53 154.36 9
-1 -7 -10 3787.34 157.831 24
-1 -7 -10 3782.3 144.438 23
-1 -7 -10 3777.74 143.506 29
-1 -7 -11 25.0301 35.0134 27
-1 -7 -11 61.7846 41.9308 25
-1 -7 -11 81.7304 29.3115 23
-1 -7 -11 82.4567 40.6328 24
-1 -7 -11 58.3668 33.4654 9
-1 -7 -12 814.277 55.3812 25
-1 -7 -12 852.877 58.5583 24
-1 -7 -13 924.833 44.9736 25
1 8 -5 25.5125 32.5088 22
1 8 -5 87.8409 48.985 30
1 8 -4 3125.71 135.648 22
1 8 -3 699.766 98.8836 30
1 8 -3 737.729 64.1154 22
1 8 -2 1542.56 86.4181 7
-1 -8 2 1518.59 87.1245 21
-1 -8 1 293.528 47.4362 21
1 8 -1 269.302 44.0795 7
-1 -8 0 74.0323 37.6314 21
-1 -8 0 71.3571 35.4148 16
1 8 0 121.884 39.4187 7
-1 -8 0 107.367 63.5721 3
-1 -8 -1 170.06 69.1426 3
-1 -8 -1 218.759 43.347 21
-1 -8 -1 265.111 41.6606 16
1 8 1 163.675 40.6161 7
-1 -8 -2 753.818 58.5007 16
1 8 2 727.956 56.5976 7
-1 -8 -2 680.771 52.1944 29
-1 -8 -2 742.371 57.0696 21
1 8 3 1528.7 77.7398 7
-1 -8 -3 1463.44 77.9556 29
-1 -8 -3 1440.42 77.2088 21
-1 -8 -3 1315.43 80.0125 16
1 8 4 998.284 59.9058 7
-1 -8 -4 1077.14 66.6673 29
-1 -8 -4 992.617 62.3491 21
-1 -8 -5 5012.65 188.577 29
-1 -8 -5 5107.1 191.396 16
-1 -8 -6 549.453 55.2596 16
-1 -8 -7 2600.51 113.246 16
-1 -8 -7 2536.17 116.162 29
-1 -8 -7 2302.59 110.972 25
-1 -8 -8 472.984 54.323 25
-1 -8 -8 442.269 51.1734 29
-1 -8 -8 468.58 46.1584 16
-1 -8 -9 -27.2833 26.2019 9
-1 -8 -9 -2.3126 38.2633 25
-1 -8 -9 28.0455 36.1146 29
-1 -8 -10 1370.1 66.6306 29
-1 -8 -10 1410.83 80.3354 25
-1 -8 -10 1242.73 70.3831 24
-1 -8 -11 2399.99 110.021 27
-1 -8 -11 2639.34 115.32 25
-1 -8 -11 2651.72 110.793 24
-1 -8 -12 1177.69 61.0584 24
-1 -8 -12 1263.35 64.8871 25
1 9 -4 9.12256 28.9591 22
1 9 -3 30.9454 33.4797 22
1 9 -3 73.6258 57.5068 30
1 9 -2 1455.51 113.798 30
1 9 -2 1294.71 79.9791 22
1 9 -1 2036.15 138.803 30
1 9 -1 1761.35 90.4476 7
1 9 -1 1719.59 93.7862 22
-1 -9 1 1792.56 93.287 21
-1 -9 0 2230.86 105.744 16
1 9 0 2351.49 108.881 7
-1 -9 0 2237.78 110.086 21
-1 -9 -1 189.771 42.6581 16
1 9 1 144.967 39.5065 7
-1 -9 -2 104.521 40.2766 21
-1 -9 -2 184.504 43.2439 16
1 9 2 89.5451 37.1975 7
-1 -9 -3 1441.62 87.4345 16
-1 -9 -3 1371.85 78.0908 29
1 9 3 1542.8 81.535 7
-1 -9 -3 1414.1 81.5838 21
-1 -9 -4 1104.14 77.0601 16
-1 -9 -4 1017.38 70.0487 29
1 9 4 1129.35 66.9496 7
-1 -9 -4 1123.84 68.2738 21
-1 -9 -5 1767.44 94.6413 29
-1 -9 -5 1864.28 99.6638 16
-1 -9 -6 54.0207 38.4753 29
-1 -9 -6 80.0851 40.838 16
-1 -9 -7 1020.47 71.2256 16
-1 -9 -8 2172.83 98.8676 16
-1 -9 -8 1964.14 103.531 29
-1 -9 -8 1887.89 95.3832 25
-1 -9 -9 1348.18 77.778 29
-1 -9 -9 1286.98 78.3994 25
-1 -9 -10 173.559 35.0917 29
-1 -9 -10 212.211 41.3312 25
-1 -9 -11 996.89 62.8927 27
-1 -9 -11 1105.75 52.0084 29
-1 -9 -11 1154.48 63.7812 25
-1 -9 -12 207.166 30.1186 25
1 10 -3 323.77 45.9208 30
1 10 -2 1033.41 80.9157 30
1 10 -2 804.688 50.3288 22
1 10 -1 1073.97 93.0256 30
1 10 0 166.174 68.5456 30
1 10 0 177.87 34.7672 7
1 10 1 976.952 64.285 7
1 10 1 992.933 93.6455 30
-1 -10 -1 936.347 65.7716 16
-1 -10 -2 330.506 49.0706 16
1 10 2 339.994 44.8211 7
-1 -10 -3 1420.32 84.6324 16
-1 -10 -3 1330.93 72.6712 29
1 10 3 1335.09 76.7356 7
-1 -10 -4 50.7365 40.298 16
1 10 4 64.5202 30.3583 7
-1 -10 -4 22.4928 31.7409 29
-1 -10 -5 1916.8 96.5204 29
-1 -10 -6 850.549 65.8498 29
-1 -10 -6 945.151 69.463 16
-1 -10 -7 51.526 39.6815 29
-1 -10 -7 65.8669 40.1397 16
-1 -10 -8 2222.34 101.812 16
-1 -10 -8 2042.11 103.332 29
-1 -10 -9 1679.93 80.7524 16
-1 -10 -9 1910.7 89.7193 29
-1 -10 -9 1801.48 81.7356 25
-1 -10 -10 115.969 30.839 29
-1 -10 -10 77.8896 28.5404 25
-1 -10 -11 170.602 30.0826 27
-1 -10 -11 164.535 21.3274 29
-1 -10 -11 129.425 26.9717 25
1 11 -1 885.709 59.8183 30
1 11 0 119.977 45.5728 30
-1 -11 -1 154.484 30.8698 16
1 11 1 131.008 49.2886 30
1 11 2 260.578 35.9088 7
-1 -11 -2 272.612 39.8534 16
1 11 3 1963.35 90.7517 7
-1 -11 -3 2099.86 100.085 16
-1 -11 -4 4197.14 163.808 16
-1 -11 -4 3939.34 149.868 29
-1 -11 -5 15034.2 476.915 16
-1 -11 -5 14484 466.793 29
-1 -11 -6 429.494 47.4181 29
-1 -11 -6 466.585 52.1498 16
-1 -11 -7 231.023 41.3446 29
-1 -11 -7 214.601 40.4052 16
-1 -11 -8 823.484 56.5044 16
-1 -11 -9 535.155 40.8144 16
-1 -11 -9 721.799 48.7276 29
-1 -11 -10 363.126 32.5579 29
-1 -12 -2 1631.47 67.5631 16
-1 -12 -3 -6.74313 25.8539 16
-1 -12 -4 581.058 48.2668 16
-1 -12 -5 1389.28 74.2153 16
-1 -12 -5 1333.28 62.9026 29
-1 -12 -6 18.3485 25.297 29
-1 -12 -7 2365.28 99.1123 16
-1 -12 -7 2291.52 94.3751 29
-1 -12 -8 1079.71 55.2865 29
-1 -12 -8 1008.17 55.0614 16
-1 -13 -5 298.095 27.7969 16
2 -12 -7 643.779 39.2131 29
2 -12 -6 127.971 26.7469 16
2 -12 -6 92.0126 24.1214 29
2 -12 -5 234.669 33.1067 16
2 -12 -5 209.684 27.9482 29
2 -12 -4 322.57 29.9947 29
2 -12 -3 324.925 35.4497 16
2 -12 -3 304.695 26.2161 29
2 -12 -2 433.874 34.2941 16
2 -11 -9 7.1291 16.002 29
2 -11 -8 157.116 28.7188 29
2 -11 -7 -1.40365 27.5872 29
2 -11 -7 17.5775 25.7001 16
2 -11 -6 188.068 39.7333 16
2 -11 -5 27.7523 37.2312 16
2 -11 -5 40.3013 33.1015 29
2 -11 -4 1804.44 94.3134 16
2 -11 -4 1830.24 86.2467 29
2 -11 -3 3347.85 138.119 16
2 -11 -3 3202.58 125.552 29
-2 11 3 3214.89 122.414 7
2 -11 -2 159.063 40.0782 16
2 -11 -2 106.918 27.2336 29
2 -11 -1 270.727 38.7086 16
2 -11 0 41.3567 22.4961 16
2 -10 -10 -9.56036 31.5541 27
2 -10 -9 135.341 24.6587 29
2 -10 -8 2.96367 27.4237 29
2 -10 -7 610.16 53.4248 29
2 -10 -7 462.533 46.236 16
2 -10 -6 138.95 41.1071 29
2 -10 -6 155.803 42.5391 16
2 -10 -5 853.16 68.658 16
2 -10 -5 910.221 65.4397 29
-2 10 4 4876.77 175.778 7
2 -10 -4 4755.13 194.039 16
2 -10 -4 4982.29 186.229 29
-2 10 3 3718.52 147.517 7
2 -10 -3 4087.38 156.144 29
2 -10 -2 41.8408 43.1587 16
-2 10 2 -3.5038 28.9857 7
2 -10 -2 -7.0713 31.0627 29
2 -10 -1 219.322 47.7903 16
-2 10 1 234.863 35.6866 7
2 -10 -1 196.242 33.3911 29
2 -10 0 54.7748 36.3072 16
-2 10 0 57.9048 29.1552 7
2 -10 1 1760.03 80.0695 16
-2 10 -1 1675.89 96.7223 30
-2 10 -2 45.8073 39.5865 30
2 -9 -10 458.954 51.8714 27
2 -9 -10 542.373 43.6152 25
2 -9 -9 766.744 47.6708 29
2 -9 -9 900.182 57.2363 25
2 -9 -8 327.553 41.1895 29
2 -9 -8 276.584 40.435 25
2 -9 -7 4666.64 178.059 29
2 -9 -6 113.773 39.379 16
2 -9 -6 106.532 38.0104 29
2 -9 -5 9075.19 317.536 16
-2 9 4 7623.78 259.154 7
2 -9 -4 7602.03 268.507 29
2 -9 -4 7617.44 276.608 16
2 -9 -3 54.348 37.7714 29
-2 9 3 25.7785 31.5101 7
2 -9 -2 633.5 66.7012 16
-2 9 2 570.09 53.1145 7
2 -9 -2 552.76 53.8621 29
2 -9 -1 2663.34 134.233 16
-2 9 1 3040.76 126.184 7
2 -9 -1 2885.59 123.171 29
2 -9 0 1704.8 97.3761 16
2 -9 0 1656.19 82.0755 29
-2 9 0 1762 89.152 7
-2 9 0 1648.58 119.329 30
-2 9 -1 863.514 59.2133 7
2 -9 1 836.589 65.4622 16
-2 9 -1 746.588 90.1899 30
-2 9 -2 27.1481 61.0588 30
-2 9 -2 -1.55849 24.9477 7
-2 9 -3 204.91 60.4881 30
-2 9 -4 406.792 52.3324 30
2 -8 -11 647.986 47.6231 25
2 -8 -10 -4.26247 45.147 27
2 -8 -10 10.0171 38.48 25
2 -8 -9 1675.87 90.3734 25
2 -8 -8 656.52 51.5865 29
2 -8 -8 589.503 56.9225 25
2 -8 -7 1829.06 93.143 29
2 -8 -7 1798.41 93.2916 25
2 -8 -6 17128.3 563.447 16
2 -8 -6 18381.7 565.041 29
2 -8 -5 1956.32 97.2925 29
2 -8 -5 1826.16 99.8687 16
2 -8 -4 3582.83 156.185 16
-2 8 4 3661.99 141.012 7
2 -8 -3 25373.3 811.337 16
2 -8 -3 25794.9 802.577 29
-2 8 3 26447.1 797.857 7
2 -8 -2 135.963 47.7493 16
2 -8 -2 188.932 41.5599 29
-2 8 2 148.249 37.876 7
2 -8 -1 54.3673 35.0858 29
2 -8 -1 15.3222 41.583 16
-2 8 1 28.9921 34.0452 7
2 -8 0 961.495 63.055 29
-2 8 0 973.172 65.9092 7
2 -8 0 961.591 74.6172 16
-2 8 0 970.843 101.632 30
2 -8 0 956.588 123.164 3
2 -8 1 339.943 52.2916 16
-2 8 -1 442.082 90.3119 30
-2 8 -1 402.765 45.9728 7
-2 8 -2 525.837 49.0916 7
2 -8 2 505.022 54.1641 16
-2 8 -2 554.794 96.0472 30
-2 8 -3 395.664 82.2114 30
-2 8 -3 384.494 40.987 7
-2 8 -3 434.952 58.8568 22
-2 8 -4 1920.42 121.505 30
-2 8 -4 1485.62 90.8672 22
-2 8 -5 839.669 71.6046 30
-2 8 -5 635.552 57.2151 22
2 -7 -11 4482.42 165.069 27
2 -7 -11 4166.11 158.406 25
2 -7 -10 803.374 63.5098 24
2 -7 -10 481.121 56.3902 25
2 -7 -9 546.291 60.5053 24
2 -7 -9 544.7 53.6726 14
2 -7 -9 418.103 57.5524 25
2 -7 -8 6019.27 227.132 25
2 -7 -8 6098.62 220.351 14
2 -7 -8 6174.94 223.856 24
2 -7 -7 20452.1 625.885 25
2 -7 -7 19492.6 617.427 29
2 -7 -7 19371.7 618.51 24
2 -7 -7 19811.5 617.33 14
2 -7 -6 8087.87 279.678 25
2 -7 -6 8525.17 281.098 29
2 -7 -6 7985.05 276.697 13
2 -7 -5 979.551 65.7528 29
2 -7 -5 1086.97 69.7031 16
2 -7 -4 2332.28 108.4 29
-2 7 4 2389.81 100.824 7
2 -7 -4 2512.69 112.624 16
2 -7 -3 4182.93 167.909 16
2 -7 -3 4150.4 160.944 29
-2 7 3 4317.89 158.028 7
-2 7 2 10464.4 344.497 7
2 -7 -2 10651.1 347.749 29
2 -7 -1 1217.35 70.7392 29
2 -7 -1 1231.99 79.3271 16
2 -7 -1 1069.97 119.265 3
-2 7 1 1244.51 71.4576 7
-2 7 0 1031.29 101.59 30
2 -7 0 960.69 62.5661 29
2 -7 0 1012.45 74.2203 16
-2 7 0 1008.5 65.4961 7
2 -7 0 1065.82 122.906 3
-2 7 -1 1157.68 113.644 30
2 -7 1 1063.62 65.4018 29
2 -7 1 1048.99 77.203 16
2 -7 1 1107.18 126.84 3
-2 7 -1 1148.49 69.7632 7
2 -7 2 137.384 71.7568 3
-2 7 -2 96.2783 79.6113 30
-2 7 -2 89.0964 33.2951 7
-2 7 -2 73.788 44.8476 22
2 -7 2 66.5929 39.5163 16
-2 7 -3 77.8201 32.1869 7
-2 7 -3 40.1419 50.2142 22
-2 7 -3 60.8244 84.0445 30
-2 7 -4 3642.42 195.468 30
-2 7 -4 3549.8 135.136 7
-2 7 -4 3459.78 163.26 22
-2 7 -5 1063.35 84.3932 22
-2 7 -6 49.2694 48.5756 30
-2 7 -6 4.3147 41.7818 22
2 -6 -11 1171.51 76.3905 27
2 -6 -11 1448.39 79.2555 24
2 -6 -10 568.938 62.2543 25
2 -6 -10 738.883 70.7908 24
2 -6 -9 56.5385 50.0695 24
2 -6 -9 14.4214 47.2663 25
2 -6 -9 96.0317 43.4225 14
2 -6 -8 1792.53 104.049 24
2 -6 -8 1930.79 99.0227 14
2 -6 -8 1780.48 103.485 25
2 -6 -7 32477.3 982.535 14
2 -6 -7 31570.5 987.099 25
2 -6 -7 32299.2 985.334 24
2 -6 -7 31976 979.221 23
2 -6 -6 198.283 35.1149 29
2 -6 -6 200.269 40.9419 25
2 -6 -6 232.111 40.309 23
2 -6 -6 163.386 39.9397 24
2 -6 -6 162.865 36.5252 14
2 -6 -6 206.705 41.5004 13
2 -6 -5 125.498 31.5283 29
2 -6 -5 95.4314 31.8784 25
2 -6 -5 123.522 34.1513 23
-2 6 4 294.803 32.1801 7
-2 6 3 4168.46 150.941 7
-2 6 2 6410.99 218.411 7
-2 6 2 6307.06 270.218 1
2 -6 -1 13644.7 497.659 3
-2 6 1 12578.3 474.811 1
-2 6 1 12808.7 409.88 7
-2 6 0 4708.1 236.551 1
2 -6 0 4824.4 181.792 16
-2 6 0 4754.07 173.777 7
2 -6 0 4736.99 245.013 3
2 -6 1 6058.33 214.554 29
-2 6 -1 6491.28 261.058 30
-2 6 -1 6231.44 217.32 7
2 -6 1 6347.29 227.762 16
2 -6 1 5930.63 296.916 3
2 -6 2 348.023 82.6095 3
-2 6 -2 350.408 83.8419 30
2 -6 2 251.093 44.4114 16
-2 6 -2 237.598 47.9599 22
-2 6 -2 233.834 38.2636 7
-2 6 -3 4627.42 224.717 30
-2 6 -3 4358.95 184.209 22
-2 6 -3 4249.62 162.583 7
2 -6 3 4314.54 253.071 3
-2 6 -4 434.986 95.484 30
-2 6 -4 411.322 41.0142 7
-2 6 -4 426.676 66.251 22
-2 6 -5 2614.58 139.275 22
-2 6 -6 1501.96 72.6592 15
-2 6 -6 1625.23 106.381 22
-2 6 -6 1783.22 120.622 30
-2 6 -7 73.0745 46.1016 30
-2 6 -7 8.69709 18.2024 15
-2 6 -7 64.7142 49.6328 22
2 -5 -12 493.903 32.2763 23
2 -5 -11 661.4 58.1045 27
2 -5 -11 665.577 55.2933 25
2 -5 -10 575.755 62.8406 25
2 -5 -10 614.137 66.0425 27
2 -5 -10 635.817 53.8535 23
2 -5 -10 636.28 61.6797 14
2 -5 -10 666.191 72.014 24
2 -5 -9 9107.71 304.593 23
2 -5 -9 8701.04 316.88 24
2 -5 -9 9014.05 312.901 14
2 -5 -8 1115.22 86.2859 24
2 -5 -8 1272.32 84.2906 25
2 -5 -8 1255.71 73.6263 23
2 -5 -8 1138.8 79.1226 14
2 -5 -7 36630.3 1092.92 14
2 -5 -7 36866.6 1085.39 23
2 -5 -7 35091 1094.17 25
2 -5 -7 35434.2 1096.19 24
2 -5 -7 35352.6 1087.11 28
2 -5 -7 35061.4 1093.19 13
2 -5 -6 3522.08 133.921 23
2 -5 -6 3279.59 139.607 25
2 -5 -6 3479.99 141.931 24
2 -5 -6 3445.87 137.782 14
2 -5 -6 3502.35 139.459 13
2 -5 -5 1588.03 77.5326 11
2 -5 -4 10724.8 339.945 11
-2 5 3 18378.2 604.176 1
2 -5 -3 18145.5 552.806 11
-2 5 2 39.5856 23.5405 7
-2 5 2 15.1561 37.6644 1
-2 5 1 21179.4 705.862 1
2 -5 -1 21809.8 712.249 3
-2 5 1 20721.1 639.721 7
-2 5 0 37776.5 1200.28 1
-2 5 0 36393.2 1122.41 7
-2 5 -1 1027.1 58.4096 7
2 -5 1 1199.05 109.021 3
-2 5 -1 1197.27 109.169 1
-2 5 -2 6185.59 246.331 30
-2 5 -2 5497.27 196.538 7
-2 5 -3 502.283 58.7301 22
-2 5 -3 454.989 86.1165 30
-2 5 -3 455.917 40.374 7
-2 5 -4 114.251 33.8979 15
-2 5 -4 127.048 49.7066 22
-2 5 -4 110.84 30.1724 7
-2 5 -5 651.217 52.5009 15
-2 5 -5 589.779 75.0481 22
-2 5 -6 1686.28 87.2707 15
-2 5 -6 1998.77 142.563 30
-2 5 -6 1862.29 119.289 22
-2 5 -7 56.6575 59.5066 30
-2 5 -7 25.5336 30.5611 15
-2 5 -7 6.27654 54.0206 22
-2 5 -8 109.45 40.139 30
-2 5 -8 105.196 24.5539 15
-2 5 -8 151.99 49.3315 22
2 -4 -12 595.176 33.819 23
2 -4 -11 359.142 39.3838 23
2 -4 -11 460.852 46.0134 25
2 -4 -10 20.436 34.1869 23
2 -4 -10 61.3658 49.8676 27
2 -4 -10 24.3108 40.8504 25
2 -4 -10 79.3425 43.8318 14
2 -4 -9 9359.11 328.41 27
2 -4 -9 9135.7 316.869 25
2 -4 -9 8654.58 319.616 24
2 -4 -9 9075.21 307.026 23
2 -4 -8 20626.4 665.481 24
2 -4 -8 20641.6 650.907 28
2 -4 -8 21234.1 662.132 25
2 -4 -7 4219.63 164.753 28
2 -4 -7 4458.42 177.992 24
2 -4 -7 4206.32 172.192 13
2 -4 -7 4559.89 173.405 14
2 -4 -7 4399.18 261.733 17
2 -4 -6 1001.34 65.1311 11
2 -4 -6 846.762 115.805 17
2 -4 -6 936.918 63.7004 25
2 -4 -6 833.41 64.9224 24
2 -4 -6 980.419 63.3711 14
2 -4 -6 918.458 62.4367 13
2 -4 -5 24024.8 729.342 11
2 -4 -5 22920.9 809.717 17
2 -4 -4 41422.9 1240.88 11
-2 4 4 41686.8 1284.98 1
2 -4 -3 7115.13 229.993 11
-2 4 3 7165.36 272.657 1
2 -4 -2 44978.9 1364.17 10
2 -4 -2 45067.8 1365.27 12
-2 4 2 43064.1 1365.1 1
2 -4 -1 7856 281.324 10
-2 4 1 7758.63 301.118 1
2 -4 -1 8074.68 305.512 3
2 -4 -1 8146.6 284.185 12
2 -4 0 1955.06 93.1059 12
2 -4 0 1932.13 92.3309 4
2 -4 0 1964.68 93.0876 10
-2 4 0 1943.71 122.927 1
2 -4 0 1996.54 121.849 3
-2 4 -1 17764.1 604.026 1
-2 4 -1 17127 528.6 7
-2 4 -2 13711.9 513.641 1
-2 4 -2 13840.5 430.16 7
-2 4 -3 1811.7 80.1163 7
-2 4 -4 11724.6 386.559 15
-2 4 -4 11827.5 381.352 7
-2 4 -5 55.0072 35.2276 15
-2 4 -5 129.032 55.9632 22
-2 4 -5 113.016 82.1537 30
-2 4 -6 503.647 94.5572 30
-2 4 -6 238.575 44.1799 15
-2 4 -6 378.043 68.8938 22
-2 4 -7 75.6111 69.3311 30
-2 4 -7 153.022 37.6872 15
-2 4 -7 149.006 65.6611 22
-2 4 -8 109.349 53.1589 30
-2 4 -8 136.691 34.7157 15
-2 4 -9 8.20835 21.738 15
-2 4 -9 26.3754 40.9737 22
2 -3 -11 1.2146 24.8174 23
2 -3 -10 5848.46 222.082 27
2 -3 -10 5684.61 216.192 24
2 -3 -10 5842.45 212.306 14
2 -3 -10 5708.45 208.514 25
2 -3 -9 42.0473 46.3417 25
2 -3 -9 40.6314 52.6295 24
2 -3 -9 79.8114 55.8548 27
2 -3 -9 136.588 45.5057 14
2 -3 -8 694.562 59.0007 28
2 -3 -8 572.796 64.0225 25
2 -3 -8 731.476 64.289 14
2 -3 -7 1086.43 131.663 17
2 -3 -7 1007.58 67.8076 28
2 -3 -7 1175.52 74.7115 25
2 -3 -7 962.715 69.955 14
2 -3 -6 1244.08 77.3186 24
2 -3 -6 1355.17 76.0337 11
2 -3 -5 11589.3 367.088 11
2 -3 -5 11489.4 367.985 9
2 -3 -5 11185.7 444.908 17
-2 3 5 10978.3 407.606 1
-2 3 4 95.1993 40.0107 1
2 -3 -4 99.9598 30.2665 11
-2 3 3 93.8531 40.0506 1
2 -3 -3 30.9591 24.4197 11
2 -3 -3 30.1181 45.1592 10
2 -3 -3 73.9398 52.41 12
-2 3 2 87324.3 2663.73 1
2 -3 -2 89949.8 2670.92 10
2 -3 -2 89928.8 2674.66 12
2 -3 -1 5037.54 200.146 10
2 -3 -1 5266.96 199.734 4
-2 3 1 4664.78 200.815 1
2 -3 -1 5319.83 204.816 12
-2 3 0 1431.61 97.1234 1
2 -3 0 1378.93 79.7957 4
2 -3 0 1295.04 88.5209 3
2 -3 1 258.276 43.1135 4
-2 3 -1 155.56 56.6938 1
-2 3 -2 41756.9 1242.49 1
-2 3 -2 39006.8 1160.92 7
-2 3 -2 37625.3 1190.48 18
-2 3 -3 9992.4 366.959 18
-2 3 -3 10922.7 334.459 7
-2 3 -4 17696.6 541.253 7
-2 3 -5 8124.99 316.81 30
-2 3 -5 7503.83 266.033 15
-2 3 -5 8246.99 289.447 22
-2 3 -6 10782 406.342 30
-2 3 -6 10546.7 355.627 15
-2 3 -6 10906.6 383.002 22
-2 3 -7 1470.89 127.419 30
-2 3 -7 1695.13 89.9673 15
-2 3 -8 263.887 67.96 30
-2 3 -8 404.848 48.8139 15
-2 3 -8 214.021 71.1114 22
-2 3 -9 53.3522 31.4956 15
-2 3 -9 12.1952 34.7562 30
-2 3 -9 95.6144 56.2111 22
-2 3 -10 150.07 24.1457 15
-2 3 -10 157.023 38.0049 22
2 -2 -11 22.8008 23.951 23
2 -2 -10 7038.98 245.788 24
2 -2 -10 6842.08 234.272 25
2 -2 -9 6296.53 237.786 25
2 -2 -9 7073.61 259.144 27
2 -2 -9 6870.22 248.888 24
2 -2 -9 6867.85 244.459 14
2 -2 -8 158.82 54.7434 27
2 -2 -8 81.1283 44.67 25
2 -2 -8 81.8948 51.0782 24
2 -2 -8 72.5791 40.1015 14
2 -2 -8 85.6323 38.8838 28
2 -2 -7 4391.27 169.191 28
2 -2 -7 4359.04 170.546 25
2 -2 -7 4208.7 169.456 14
2 -2 -7 4203.83 176.15 24
2 -2 -7 4496.77 265.241 17
2 -2 -6 6792.42 242.715 9
2 -2 -6 7066.34 246.649 27
2 -2 -6 6567.87 242.654 24
2 -2 -6 7092.2 240.298 13
2 -2 -5 2545.49 108.542 9
2 -2 -4 5409.62 184.878 11
2 -2 -4 5433.56 246.634 17
2 -2 -3 59379.2 1844.71 17
2 -2 -3 60609.6 1845.86 10
2 -2 -3 60156 1784.97 11
-2 2 3 60845.6 1827.55 1
2 -2 -3 60819.2 1849.59 12
2 -2 -2 77801.7 2344.8 10
2 -2 -2 76952 2348.63 12
-2 2 2 78542.4 2333.77 1
2 -2 -1 8796.28 304.836 4
-2 2 1 8319.31 300.898 1
-2 2 0 16028.2 519.539 1
2 -2 0 16498.2 511.278 4
2 -2 0 15144.8 502.727 3
-2 2 -1 640.969 69.1608 1
-2 2 -2 52471.7 1591.72 18
-2 2 -3 81982.6 2438.38 18
-2 2 -3 83738.6 2468.29 1
-2 2 -3 80344.4 2387.97 7
-2 2 -4 189.909 24.1884 7
-2 2 -4 113.362 46.5783 8
-2 2 -5 491.005 68.4393 18
-2 2 -5 462.847 67.7737 8
-2 2 -6 81.9163 73.3688 30
-2 2 -6 11.2461 32.3357 15
-2 2 -7 1002.63 101.456 30
-2 2 -7 854.722 66.494 15
-2 2 -7 786.813 88.7203 22
-2 2 -8 41.1399 38.9818 15
-2 2 -8 -3.45356 58.5722 30
-2 2 -8 124.555 67.4295 22
-2 2 -9 45.6281 38.8021 15
-2 2 -9 14.0938 60.2689 22
-2 2 -10 1643.12 76.1204 15
-2 2 -10 1533.98 95.6569 22
2 -1 -11 1403.17 60.8864 23
2 -1 -10 83.3531 25.1472 15
2 -1 -9 5996.81 217.965 28
2 -1 -9 5758.71 210.451 25
2 -1 -9 6083.03 210.576 15
2 -1 -9 6276.9 223.569 24
2 -1 -9 6081.94 218.908 14
2 -1 -8 3361.05 156.695 27
2 -1 -8 3257.48 143.106 28
2 -1 -8 3391.92 134.835 15
2 -1 -8 3296.52 138.538 25
2 -1 -8 3342.82 147.943 24
2 -1 -8 3285.56 141.642 14
2 -1 -7 1150.49 71.6733 14
2 -1 -7 966.491 70.967 28
2 -1 -7 1030.1 70.9984 25
2 -1 -7 961.721 76.18 24
2 -1 -7 1068.43 81.9727 27
2 -1 -7 1164.31 66.5282 15
2 -1 -6 694.566 99.803 17
2 -1 -6 572.263 51.8514 25
2 -1 -6 584.422 56.9859 24
2 -1 -6 701.069 53.6822 14
2 -1 -6 723.137 56.1709 28
2 -1 -6 627.873 54.3243 11
2 -1 -5 1424.67 70.4636 11
2 -1 -5 1278.13 71.1029 9
2 -1 -4 1206.82 110.016 17
2 -1 -4 1354.4 65.9222 11
2 -1 -4 1317.17 66.6784 9
2 -1 -3 36399.8 1150.41 12
2 -1 -2 9373.86 338.357 10
2 -1 -1 14837.8 496.358 4
-2 1 1 15326.6 492.17 1
2 -1 -1 15259.7 489.201 5
2 -1 0 28942.2 875.036 5
-2 1 0 29256.3 891.494 1
2 -1 0 28395 890.302 4
2 -1 1 34039.4 1011.31 5
-2 1 -2 11534.7 391.325 31
-2 1 -2 13215.6 417.525 1
-2 1 -3 144488 4383.92 18
-2 1 -3 151186 4395.04 1
-2 1 -4 3209.66 113.932 2
-2 1 -4 3351.1 169.097 1
-2 1 -5 9045.67 292.955 2
-2 1 -5 9104.83 362.071 18
-2 1 -5 9616.04 367.314 8
-2 1 -6 2012.69 140.707 18
-2 1 -6 2022.72 144.99 8
-2 1 -6 2049.66 94.7885 15
-2 1 -6 1986.78 112.118 22
-2 1 -7 2686.26 176.926 17
-2 1 -7 2843.02 148.31 22
-2 1 -7 2797.58 153.077 30
-2 1 -7 2664.92 121.387 15
-2 1 -8 2385.05 133.395 30
-2 1 -8 2332.89 144.334 22
-2 1 -9 1517.42 117.177 22
-2 1 -10 5954.8 236.451 22
-2 1 -11 144.187 26.9306 15
2 0 -10 940.771 50.7704 15
2 0 -9 557.199 54.2113 28
2 0 -9 512.755 48.2359 15
2 0 -8 286.434 54.0047 28
2 0 -8 289.538 44.6452 14
2 0 -8 223.888 41.7813 15
2 0 -8 306.698 54.2076 24
2 0 -7 1265.85 82.5261 28
2 0 -7 1202.15 74.3874 14
2 0 -7 1335.62 75.6445 15
2 0 -7 1208.01 73.5597 25
2 0 -7 1312.32 81.3242 24
2 0 -6 437.905 44.385 15
2 0 -6 519.293 54.9507 28
2 0 -6 411.514 45.2332 25
2 0 -6 465.232 53.8099 24
2 0 -6 522.495 46.9542 14
2 0 -6 539.943 61.909 27
2 0 -5 718.669 51.3176 11
2 0 -5 712.503 93.6051 17
2 0 -4 1088.98 57.5198 11
2 0 -4 1108.85 103.437 17
2 0 -3 33056.5 994.657 11
2 0 -3 32957.8 1052.4 10
2 0 -3 34710 1059.39 12
2 0 -2 4997.98 211.097 5
2 0 -2 5000.98 205.902 10
2 0 -2 4850.88 209.974 12
2 0 -1 77352.6 2315 5
2 0 0 42.1568 37.1794 5
2 0 0 45.762 47.2213 4
-2 0 -1 59125.6 1665.6 1
2 0 1 54477.9 1634.08 3
-2 0 -2 1498.9 85.3503 1
-2 0 -3 1475.34 98.9756 18
-2 0 -3 1401.97 85.9869 31
-2 0 -3 1177.3 83.6532 1
-2 0 -4 6499.25 269.114 18
-2 0 -4 6590.34 258.915 1
-2 0 -5 565.195 42.6888 2
-2 0 -5 534.136 83.8137 18
-2 0 -6 3116.77 187.529 18
-2 0 -6 3342 197.342 8
-2 0 -6 3199.32 124.407 2
-2 0 -7 5212.16 275.92 17
-2 0 -7 5438.44 196.72 19
-2 0 -7 5189.71 197.887 15
-2 0 -7 5916.66 227.907 22
-2 0 -7 5850.63 289.89 8
-2 0 -8 661.408 103.418 17
-2 0 -8 674.674 61.6891 15
-2 0 -8 681.995 86.0729 22
-2 0 -8 761.522 114.433 8
-2 0 -9 4141.06 157.964 9
-2 0 -9 4015.28 163.754 15
-2 0 -9 4001.1 159.048 24
-2 0 -9 3753.36 194.731 22
-2 0 -10 1347.82 79.077 15
-2 0 -10 1414.11 72.2334 24
-2 0 -10 1291.86 101.474 22
-2 0 -11 1334.99 64.9738 15
-2 0 -11 1047.55 68.3345 22
2 1 -10 509.933 35.8997 15
2 1 -9 1852.71 86.6599 15
2 1 -8 51.445 43.4487 28
2 1 -8 31.1046 35.8643 15
2 1 -7 619.275 56.9947 15
2 1 -7 708.003 61.1175 24
2 1 -7 496.761 57.7762 22
2 1 -7 599.041 66.5631 28
2 1 -6 -3.75194 32.4924 15
2 1 -6 6.84998 39.5479 28
2 1 -6 18.1079 39.672 24
2 1 -6 -19.6169 29.9204 14
2 1 -5 1416.94 70.7196 11
2 1 -4 385.339 35.4758 11
2 1 -3 2758.35 101.207 11
2 1 -3 2735.12 163.402 5
2 1 -2 80328.2 2454.98 10
2 1 -2 83189.9 2461.77 12
2 1 -1 15428.3 518.745 4
2 1 -1 16527.3 529.186 5
2 1 0 9929.54 334.123 4
2 1 0 9750.7 337.461 5
-2 -1 -1 67760 2019.54 1
-2 -1 -2 62388.8 1862.39 1
-2 -1 -3 53999 1692.93 31
-2 -1 -3 56476.5 1668.22 1
-2 -1 -4 14032.9 469.103 1
-2 -1 -4 14442 491.657 31
-2 -1 -5 22.9906 28.3197 2
-2 -1 -5 14.7407 55.212 18
-2 -1 -6 1299.22 68.9995 2
-2 -1 -6 1239.28 118.6 18
-2 -1 -6 1405.09 124.268 8
-2 -1 -7 1668.87 141.952 18
-2 -1 -7 1526.68 141.191 8
-2 -1 -7 1341.57 97.0777 22
-2 -1 -7 1546.3 80.7843 19
-2 -1 -7 1333.97 75.8521 15
-2 -1 -7 1502.7 78.6627 2
-2 -1 -8 129.71 76.8165 8
-2 -1 -8 74.3144 63.3863 17
-2 -1 -8 129.847 39.1829 15
-2 -1 -8 133.193 62.9205 22
-2 -1 -9 4.41502 35.9361 9
-2 -1 -9 13.0895 37.3112 15
-2 -1 -9 11.3183 63.9699 22
-2 -1 -10 2225.91 129.541 22
-2 -1 -10 2379.17 107.339 9
-2 -1 -10 2202.91 107.254 15
-2 -1 -10 2255.58 107.277 24
-2 -1 -11 819.674 55.6548 15
-2 -1 -11 892.454 55.0563 24
2 2 -9 1953.08 86.6302 15
2 2 -8 837.486 61.4798 15
2 2 -8 775.613 64.4786 22
2 2 -7 1290.99 79.2422 15
2 2 -7 1113.38 86.0652 28
2 2 -7 1220.22 82.1952 22
2 2 -6 697.804 60.8455 15
2 2 -6 661.763 67.5811 28
2 2 -5 768.174 68.1589 28
2 2 -5 999.802 64.7387 15
2 2 -4 6670.26 220.533 11
2 2 -3 5928.55 264.195 5
2 2 -3 5654.52 186.516 11
2 2 -2 61.8843 55.3694 5
2 2 -2 40.0067 35.6063 10
2 2 -2 55.5473 40.1136 12
2 2 -1 284.321 63.2489 5
2 2 -1 304.088 48.1558 10
2 2 -1 303.194 50.6202 4
2 2 0 54.6081 38.3311 4
-2 -2 -1 56865.6 1676.06 3
-2 -2 -2 275389 8087.35 1
-2 -2 -3 608.309 71.335 18
-2 -2 -3 565.024 75.2409 31
-2 -2 -4 9597.35 364.111 31
-2 -2 -4 9400.78 312.438 1
-2 -2 -4 9578.78 357.655 18
-2 -2 -5 657.163 89.9317 18
-2 -2 -5 738.984 49.9862 2
-2 -2 -6 2545.03 171.116 8
-2 -2 -6 2411.94 103.242 2
-2 -2 -7 2480.29 109.799 2
-2 -2 -7 2275.89 172.683 18
-2 -2 -7 2660.41 186.872 8
-2 -2 -7 2415.97 109.849 19
-2 -2 -8 677.347 107.945 17
-2 -2 -8 864.213 124.099 8
-2 -2 -8 929.792 67.457 19
-2 -2 -8 860.624 61.2875 25
-2 -2 -8 799.844 81.1743 22
-2 -2 -8 867.415 61.6138 15
-2 -2 -9 578.197 116.058 8
-2 -2 -9 522.189 106.432 17
-2 -2 -9 688.55 55.3177 25
-2 -2 -9 706.457 58.4407 15
-2 -2 -9 503.661 78.2128 22
-2 -2 -10 723.561 60.9008 9
-2 -2 -10 759.615 53.6618 25
-2 -2 -10 660.613 57.8013 15
-2 -2 -10 728.453 63.9427 24
-2 -2 -11 1822.93 90.2428 9
-2 -2 -11 1855.58 87.0158 15
-2 -2 -11 1845.05 92.194 24
-2 -2 -12 -12.3124 27.6348 24
-2 -2 -12 41.6138 18.1912 23
2 3 -9 761.228 45.0598 15
2 3 -8 272.745 39.148 15
2 3 -8 167.749 42.2802 22
2 3 -7 1306.78 89.021 22
2 3 -6 2074.02 119.532 28
2 3 -6 2346.51 119.36 22
2 3 -5 10076.8 351.311 28
2 3 -4 1603.92 92.1273 28
2 3 -3 446.813 77.6933 5
2 3 -2 67863.9 2074.25 5
2 3 -2 67189.9 1992.61 7
2 3 -1 907.468 65.4749 10
2 3 -1 828.22 89.2642 5
2 3 -1 874.368 47.6482 7
2 3 -1 941.733 70.0535 12
2 3 0 32.3535 33.5333 4
2 3 0 0.77907 20.577 7
-2 -3 -1 13926.6 438.073 3
-2 -3 -2 664.971 86.5862 31
-2 -3 -2 564.744 42.8525 1
-2 -3 -3 29313.6 932.357 31
-2 -3 -3 30149.7 907.322 18
-2 -3 -3 27973.7 855.952 1
-2 -3 -4 11377.3 413.402 18
-2 -3 -5 525.166 80.3097 18
-2 -3 -5 442.244 42.0541 2
-2 -3 -5 512.821 84.9582 31
-2 -3 -6 1725.29 138.822 18
-2 -3 -7 152.646 69.4939 18
-2 -3 -7 80.9026 34.4262 19
-2 -3 -7 102.386 36.8679 2
-2 -3 -8 169.349 76.6532 8
-2 -3 -8 159.079 42.3498 25
-2 -3 -8 123.481 33.9212 15
-2 -3 -9 9543.88 455.725 17
-2 -3 -9 9445.31 463.421 8
-2 -3 -9 10448 339.988 25
-2 -3 -9 9772.94 331.091 15
-2 -3 -10 153.079 43.7062 9
-2 -3 -10 145.301 39.9247 25
-2 -3 -10 141.204 49.9257 24
-2 -3 -10 176.81 36.8043 15
-2 -3 -11 1037.66 71.635 9
-2 -3 -11 1262.03 66.0175 25
-2 -3 -11 1124.24 76.5653 24
-2 -3 -11 1191.94 64.7794 15
-2 -3 -12 546.886 35.0378 23
-2 -3 -12 503.182 47.0156 24
2 4 -8 336.566 43.0247 22
2 4 -7 439.162 47.411 15
2 4 -7 313.717 52.8546 22
2 4 -6 294.938 48.4434 15
2 4 -6 287.406 75.0666 30
2 4 -6 309.926 57.0041 22
2 4 -5 958.673 68.6074 15
2 4 -3 1206.75 119.944 5
2 4 -3 1260.68 81.2583 28
2 4 -2 27972.4 935.163 5
2 4 -2 27937.4 847.091 7
2 4 -1 14722 455.648 7
2 4 -1 14595.8 531.176 5
2 4 0 4829.2 180.05 10
2 4 0 4559.9 185.157 12
2 4 1 5052.65 165.565 7
2 4 1 5053.57 187.208 4
-2 -4 -1 4749.91 190.83 3
-2 -4 -2 16699.3 537.139 18
2 4 2 16341.7 500.38 7
-2 -4 -2 17586.5 589.999 31
-2 -4 -3 4828.45 191.432 18
-2 -4 -3 5160.33 228.553 31
-2 -4 -4 2676.49 147.853 18
-2 -4 -4 2718.51 172.984 31
-2 -4 -5 83853.7 2610.33 18
-2 -4 -5 86099.7 2532.57 2
-2 -4 -6 3701.86 208.161 18
-2 -4 -6 3609.55 138.981 2
-2 -4 -6 3742.07 211.371 8
-2 -4 -7 215.449 41.0202 19
-2 -4 -7 299.577 80.1924 8
-2 -4 -7 253.014 41.2894 2
-2 -4 -7 252.291 40.8369 25
-2 -4 -7 224.367 77.9392 18
-2 -4 -8 11664.1 372.192 19
-2 -4 -8 11290.6 371.834 25
-2 -4 -8 10741.7 478.978 17
-2 -4 -8 11819.1 494.202 8
-2 -4 -8 10478.1 354.789 15
-2 -4 -9 33.0979 39.0342 25
-2 -4 -9 16.5495 29.9032 15
-2 -4 -9 87.0984 78.0266 17
-2 -4 -10 42.0475 30.1155 15
-2 -4 -10 34.9595 39.5984 9
-2 -4 -10 43.0671 40.7225 25
-2 -4 -11 5554.69 199.8 25
-2 -4 -11 5545.7 207.464 9
-2 -4 -11 5411.8 189.364 23
-2 -4 -12 138.851 27.6371 25
-2 -4 -12 125.249 23.1043 23
-2 -4 -12 188.433 37.5907 24
-2 -4 -13 213.681 26.4612 24
2 5 -8 64.9525 19.2749 15
2 5 -7 13.8935 39.0088 30
2 5 -7 2.65995 26.0561 15
2 5 -7 31.3501 35.2336 22
2 5 -6 31.9768 32.9005 15
2 5 -6 36.9339 60.775 30
2 5 -6 67.4706 45.8952 22
2 5 -5 6473.89 232.231 15
2 5 -4 3275.06 137.349 15
-2 -5 4 3169.37 129.795 21
2 5 -3 2295.03 169.5 5
-2 -5 3 2677.66 112.79 21
2 5 -2 7870.85 340.593 5
2 5 -2 7775.36 259.296 7
-2 -5 2 7429.52 258.411 21
2 5 -1 607.909 85.965 5
2 5 -1 545.098 47.3858 7
2 5 0 272.914 68.0206 5
-2 -5 0 246.043 66.3606 31
2 5 0 216.279 32.663 7
-2 -5 -1 2141.51 147.051 31
2 5 1 2056.12 87.2061 7
-2 -5 -1 2373.46 122.279 3
-2 -5 -2 21362.2 728.11 31
2 5 2 21306.7 642.956 7
-2 -5 -2 20820.1 680.641 3
-2 -5 -3 809.73 67.9362 18
2 5 3 763.02 42.6989 7
-2 -5 -3 729.345 96.1556 31
-2 -5 -4 8245.36 260.343 2
-2 -5 -4 7897.51 311.543 18
-2 -5 -4 8041.97 352.689 31
-2 -5 -5 11574.1 463.249 31
-2 -5 -5 11352.9 425.933 18
-2 -5 -5 11307.7 427.123 8
-2 -5 -5 11171.8 355.543 2
-2 -5 -6 12006.8 385.871 2
-2 -5 -6 11681.3 463.958 18
-2 -5 -6 12760.1 477.416 8
-2 -5 -7 199.649 35.6283 32
-2 -5 -7 223.604 39.6088 2
-2 -5 -7 154.202 69.9575 8
-2 -5 -7 259.264 40.4841 19
-2 -5 -7 228.352 43.2154 25
-2 -5 -7 214.265 73.0319 18
-2 -5 -8 7785.19 379.14 8
-2 -5 -8 7593.24 371.433 17
-2 -5 -9 1226.1 67.204 23
-2 -5 -9 1163.86 145.144 17
-2 -5 -9 1465.13 88.6652 25
-2 -5 -9 1109.14 144.672 8
-2 -5 -10 3741.89 160.131 9
-2 -5 -10 3681.28 140.808 23
-2 -5 -10 3825.92 159.896 25
-2 -5 -11 1215.96 62.7639 23
-2 -5 -11 1216.36 76.9997 25
-2 -5 -11 1246.93 84.1449 24
-2 -5 -12 244.357 35.1441 25
2 6 -7 53.3232 19.374 15
2 6 -7 53.6194 29.0837 22
2 6 -6 44.9754 52.9163 30
2 6 -6 32.8971 27.0566 15
2 6 -6 -1.96133 38.0503 22
2 6 -5 1365.59 76.4831 15
2 6 -5 1486.7 116.38 30
2 6 -4 722.756 57.9872 15
-2 -6 4 605.705 52.3126 21
2 6 -3 15739.2 510.223 15
-2 -6 3 16292.5 511.013 21
2 6 -2 12472.3 419.59 7
-2 -6 2 13387.1 421.005 21
-2 -6 1 50.2073 34.4958 21
2 6 -1 -26.24 55.8587 5
2 6 -1 14.0563 31.2511 7
2 6 0 10985.3 355.241 7
-2 -6 0 11728.1 421.499 3
-2 -6 0 10855.7 356.201 21
-2 -6 -1 7451.08 331.772 31
2 6 1 8232.38 272.333 7
2 6 2 9324.95 304.815 7
-2 -6 -2 9852.01 356.338 3
-2 -6 -2 9417.38 385.104 31
-2 -6 -3 4762.88 246.259 31
2 6 3 4716.07 163.348 7
-2 -6 -4 13491.5 471.162 8
-2 -6 -4 13711.2 533.079 31
2 6 4 13750.9 423.072 7
-2 -6 -5 14680.2 528.927 18
-2 -6 -5 15045.3 465.303 2
-2 -6 -5 15441.8 535.552 8
-2 -6 -6 380.201 71.9347 18
-2 -6 -6 526.077 48.4936 32
-2 -6 -6 526.305 44.8767 2
-2 -6 -6 575.235 52.1063 25
-2 -6 -6 430.644 75.1152 8
-2 -6 -7 5772.22 209.012 19
-2 -6 -7 5879.87 290.363 17
-2 -6 -7 6080.5 296.333 8
-2 -6 -7 5945.23 218.186 25
-2 -6 -8 1453.93 146.84 8
-2 -6 -8 1349 141.28 17
-2 -6 -8 1332.32 86.7699 25
-2 -6 -9 265.243 87.912 17
-2 -6 -9 371.155 45.1303 29
-2 -6 -9 316.941 54.0728 25
-2 -6 -9 296.129 92.8473 8
-2 -6 -10 5503.09 200.403 29
-2 -6 -10 5558.15 196.151 23
-2 -6 -10 6021.3 220.798 24
-2 -6 -10 5815.01 215.927 9
-2 -6 -11 125.711 39.156 9
-2 -6 -11 127.211 41.5467 25
-2 -6 -11 104.98 44.9594 24
-2 -6 -12 51.161 30.7646 25
-2 -6 -12 18.2708 35.1528 24
-2 -6 -13 2003.49 80.645 24
2 7 -6 25.848 34.7836 30
2 7 -6 53.8052 17.1814 15
2 7 -5 2541.41 133.662 30
2 7 -5 2545.09 114.478 22
2 7 -5 2313.52 95.6208 15
2 7 -4 1492.24 76.3166 15
2 7 -4 1546.64 94.5348 22
-2 -7 4 1554.67 76.4793 21
-2 -7 3 76.3433 36.8037 21
2 7 -3 33.0135 30.6899 15
-2 -7 2 202.272 42.9038 21
2 7 -2 175.909 38.6288 15
-2 -7 1 780.13 61.3045 21
2 7 -1 749.64 63.0874 7
-2 -7 0 360.23 44.434 21
-2 -7 0 244.886 64.9214 3
2 7 0 299.281 76.4538 5
2 7 0 351.164 47.2859 7
-2 -7 -1 545.583 80.8855 3
-2 -7 -1 741.233 52.4455 16
2 7 1 661.683 53.4816 7
-2 -7 -1 674.254 56.4853 21
2 7 2 7114.85 247.763 7
-2 -7 -2 7380.12 248.495 21
-2 -7 -3 2547.1 108.185 29
2 7 3 2683.74 108.573 7
-2 -7 -3 2764 110.763 21
-2 -7 -4 8505.31 288.348 29
2 7 4 8694.36 281.574 7
-2 -7 -4 9066.03 387.651 31
-2 -7 -5 4069.01 157.171 29
-2 -7 -6 90.3607 37.0087 25
-2 -7 -6 139.824 36.9257 29
-2 -7 -7 68.4305 36.5122 29
-2 -7 -7 28.1972 36.5564 25
-2 -7 -7 20.5842 49.7297 8
-2 -7 -8 853.651 117.502 8
-2 -7 -8 893.423 65.3332 29
-2 -7 -8 750.812 66.8652 25
-2 -7 -9 1093.25 71.4008 29
-2 -7 -9 1223.84 73.3362 9
-2 -7 -9 973.814 73.1984 24
-2 -7 -9 1076.16 79.6881 25
-2 -7 -10 10699 355.57 9
-2 -7 -10 10416.6 347.684 29
-2 -7 -10 10736.4 357.339 24
-2 -7 -10 10490.1 360.86 25
-2 -7 -11 3159.03 132.933 9
-2 -7 -11 3347.8 137.948 24
-2 -7 -12 683.544 50.5513 25
-2 -7 -12 600.096 48.4911 24
-2 -7 -13 2126.98 80.2447 25
-2 -7 -13 2189.68 81.7197 24
2 8 -5 1196.38 73.227 30
2 8 -5 1184.94 62.2331 22
2 8 -4 2012.84 94.2281 22
2 8 -4 2154.99 120.07 30
2 8 -3 2764.74 109.332 15
2 8 -3 3059.34 132.459 22
-2 -8 3 2816.64 116.663 21
-2 -8 2 2276.75 107.023 21
2 8 -1 397.414 48.0059 7
-2 -8 1 430.174 52.7055 21
-2 -8 0 51.5843 38.1619 21
2 8 0 22.9726 37.2278 7
-2 -8 -1 1732.76 87.8468 16
2 8 1 1501.08 86.8069 7
-2 -8 -1 1655.18 89.2582 21
2 8 2 3341.51 140.485 7
-2 -8 -2 3640.99 145.222 21
-2 -8 -2 3467.6 142.815 16
-2 -8 -3 20.1142 29.5677 21
-2 -8 -3 32.3608 30.3604 29
-2 -8 -3 40.385 33.5722 16
2 8 3 28.0772 28.1723 7
2 8 4 756.847 52.0751 7
-2 -8 -4 671.282 58.8927 16
-2 -8 -4 861.108 59.694 29
-2 -8 -4 733.83 54.7081 21
-2 -8 -5 1233.22 75.0649 29
-2 -8 -6 4286.39 167.511 29
-2 -8 -6 4121.66 161.465 25
-2 -8 -7 2042.42 101.79 16
-2 -8 -7 2027.53 101.93 25
-2 -8 -8 15910.4 505.017 29
-2 -8 -8 15753.8 500.66 16
-2 -8 -8 15196.7 505.928 25
-2 -8 -9 9211.38 309.362 16
-2 -8 -9 9481.03 319.76 29
-2 -8 -9 9492.91 324.9 25
-2 -8 -10 14.0295 15.1314 9
-2 -8 -10 155.659 35.682 29
-2 -8 -10 138.045 37.3663 24
-2 -8 -10 81.1444 41.2009 25
-2 -8 -11 2.42179 24.2932 29
-2 -8 -11 -22.2447 36.1947 25
-2 -8 -11 21.61 30.8228 24
-2 -8 -12 89.1203 30.2888 25
-2 -8 -12 50.7749 28.6944 24
2 9 -4 240.588 41.7361 30
2 9 -4 156.248 26.3058 22
2 9 -3 1819.96 105.407 30
2 9 -3 1376.37 75.9915 22
-2 -9 2 303.828 39.365 21
2 9 -2 277.9 75.3903 30
2 9 -2 307.739 45.3668 22
-2 -9 1 99.6743 38.3268 21
-2 -9 0 146.921 43.4394 21
2 9 0 119.647 38.0652 7
-2 -9 -1 7539.82 262.047 16
2 9 1 7760.58 265.904 7
-2 -9 -1 7240.65 264.186 21
-2 -9 -2 10338.5 348.526 16
2 9 2 10454.2 349.576 7
-2 -9 -2 10348.1 349.057 21
-2 -9 -3 3366.42 135.637 29
2 9 3 3441.58 141.816 7
-2 -9 -3 3394.05 147.949 16
-2 -9 -3 3545.05 143.837 21
-2 -9 -4 510.665 52.5902 29
-2 -9 -4 555.495 57.7741 16
2 9 4 531.913 49.2816 7
-2 -9 -4 550.64 49.9771 21
-2 -9 -5 22.6065 36.9122 29
-2 -9 -6 1428.41 84.7369 16
-2 -9 -6 1407.69 83.2247 29
-2 -9 -7 223.872 48.2017 29
-2 -9 -7 298.355 45.5517 16
-2 -9 -8 2719.24 123.905 29
-2 -9 -8 2671.3 118.218 16
-2 -9 -8 2543.19 116.477 25
-2 -9 -9 2030.85 92.7611 16
-2 -9 -9 2009.59 99.5402 29
-2 -9 -9 1963.9 98.334 25
-2 -9 -10 31.2295 33.5629 25
-2 -9 -10 3.29199 29.8473 29
-2 -9 -11 54.6463 24.6856 29
-2 -9 -11 110.19 34.0303 25
-2 -9 -12 506.812 37.2495 25
2 10 -2 339.375 54.3638 30
2 10 -2 280.941 31.7374 22
2 10 -1 474.78 70.6862 30
2 10 -1 252.174 37.4979 22
2 10 0 388.282 43.7669 22
-2 -10 0 521.799 49.2686 21
-2 -10 -1 1391.73 74.6816 16
-2 -10 -2 559.035 53.1795 16
-2 -10 -2 483.319 52.3748 21
-2 -10 -3 1845.29 97.3437 16
-2 -10 -3 1800.3 91.948 21
-2 -10 -4 2090.11 95.5567 29
-2 -10 -4 2128.45 107.159 16
-2 -10 -4 1941.77 95.7298 21
-2 -10 -5 1171.32 78.2373 16
-2 -10 -5 1120.19 70.9329 29
-2 -10 -6 5175.68 196.632 29
-2 -10 -6 5424.71 203.791 16
-2 -10 -7 1457.98 85.5205 29
-2 -10 -7 1495.72 86.3762 16
-2 -10 -8 317.111 43.9802 16
-2 -10 -9 906.234 56.2579 16
-2 -10 -9 984.446 62.4234 29
-2 -10 -9 819.296 54.0538 25
-2 -10 -10 33.5734 28.7295 29
-2 -10 -10 36.5915 26.8017 25
-2 -10 -11 238.349 29.524 25
-2 -10 -11 181.397 24.786 29
2 11 1 1331.96 86.2938 30
-2 -11 -2 510.283 44.0427 16
-2 -11 -3 1376.62 76.403 16
-2 -11 -4 1002.45 66.101 16
-2 -11 -5 1595.82 85.2574 16
-2 -11 -5 1533.02 76.8565 29
-2 -11 -6 30.7679 30.7913 29
-2 -11 -7 610.579 51.1863 29
-2 -11 -7 605.944 53.4598 16
-2 -11 -8 -19.0927 29.6647 16
-2 -11 -8 -20.2308 30.4905 29
-2 -11 -9 22.304 25.1745 16
-2 -11 -10 76.2011 24.0625 29
-2 -12 -3 213.931 27.8549 16
-2 -12 -4 183.882 32.7251 16
-2 -12 -5 189.73 35.4735 16
-2 -12 -6 2889.51 108.604 29
-2 -12 -6 3046.72 119.165 16
-2 -12 -7 3951.54 141.395 29
-2 -12 -7 4134.92 148.04 16
-2 -12 -8 1012.16 51.5488 29
-2 -12 -8 994.772 53.9389 16
-2 -12 -9 124.294 23.2366 29
3 -12 -5 15.2218 18.4997 29
3 -12 -5 31.1479 18.0411 16
3 -12 -4 86.6815 18.6827 29
3 -12 -4 126.031 23.4353 16
3 -12 -3 491.848 33.523 16
3 -11 -8 1454.02 58.278 29
3 -11 -8 1504.79 63.3431 27
3 -11 -7 245.951 29.9577 29
3 -11 -6 96.7128 26.4025 16
3 -11 -6 139.394 29.0942 29
3 -11 -5 179.172 32.9764 29
3 -11 -5 84.2385 31.1337 16
3 -11 -4 444.498 42.596 29
3 -11 -4 500.202 47.706 16
3 -11 -3 14.2474 25.6226 29
3 -11 -2 553.046 39.6752 29
3 -11 -2 564.776 48.7023 16
3 -11 -1 444.063 38.9264 16
3 -11 0 1511.82 62.3781 16
3 -10 -9 -24.9212 29.065 27
3 -10 -8 94.4336 23.5595 29
3 -10 -7 7.21598 27.4781 29
3 -10 -6 3327.5 132.266 29
3 -10 -6 3253.68 132.116 16
3 -10 -5 121.139 38.2488 16
3 -10 -4 4490.89 167.646 29
3 -10 -4 4223.05 172.78 16
-3 10 4 4219.99 154.649 7
3 -10 -3 2054.51 98.559 29
3 -10 -3 2238.42 110.547 16
-3 10 3 2040.19 92.2552 7
3 -10 -2 215.723 38.7817 29
3 -10 -2 263.949 48.6122 16
-3 10 2 191.934 34.6952 7
3 -10 -1 188.117 33.8324 29
3 -10 -1 183.622 42.0583 16
-3 10 1 167.866 32.0454 7
3 -10 0 53.7724 32.0812 16
3 -10 1 313.88 33.583 16
3 -9 -10 4997.27 174.091 27
3 -9 -9 245.324 44.5713 27
3 -9 -8 118.723 28.2944 29
3 -9 -8 142.18 31.7046 28
3 -9 -7 284.958 40.5876 29
3 -9 -6 2197.3 101.132 29
3 -9 -6 1933.04 98.7563 16
3 -9 -5 528.916 54.4074 29
3 -9 -5 464.935 56.8688 16
3 -9 -4 9428.98 337.601 16
-3 9 4 9890.99 320.259 7
3 -9 -3 343.865 49.4264 29
3 -9 -3 353.257 55.4606 16
-3 9 3 384.352 43.8261 7
3 -9 -2 16.3403 34.712 29
-3 9 2 20.8445 32.8256 7
3 -9 -1 1029.66 79.4677 16
3 -9 -1 921.604 65.6024 29
-3 9 1 1029.86 65.2083 7
3 -9 0 1219.86 81.1611 16
3 -9 0 1052.43 67.0854 29
-3 9 -1 388.165 64.3668 30
3 -9 1 371.123 47.8585 16
-3 9 -1 374.785 41.2168 7
-3 9 -2 253.152 56.1251 30
3 -9 2 191.72 33.5586 16
-3 9 -2 269.717 32.7587 7
-3 9 -3 1976.27 101.697 30
-3 9 -4 567.556 44.7124 30
3 -8 -11 2142.71 85.0204 27
3 -8 -10 678.526 57.6017 27
3 -8 -10 1209.02 61.9025 25
3 -8 -9 762.909 66.0852 27
3 -8 -9 826.475 59.7459 25
3 -8 -8 3743.43 149.048 28
3 -8 -8 4048.23 153.536 25
3 -8 -7 6156.8 220.661 29
3 -8 -7 6368.71 222.051 25
3 -8 -6 45.7819 34.5023 29
3 -8 -5 3849.42 152.834 29
3 -8 -5 3543.02 154.823 16
3 -8 -4 3215.98 140.073 29
-3 8 4 3288.22 130.634 7
3 -8 -4 3103.43 143.313 16
-3 8 3 481.576 49.0054 7
3 -8 -3 535.555 55.2569 29
3 -8 -3 461.143 59.7555 16
3 -8 -2 1676.18 92.4414 29
-3 8 2 1725.69 90.005 7
3 -8 -1 4025.32 162.517 29
-3 8 1 4151.58 160.757 7
3 -8 -1 3938.01 174.022 16
3 -8 0 2332.51 109.99 29
3 -8 0 2395.72 123.53 16
3 -8 1 99.314 35.3751 29
-3 8 -1 73.7187 69.8708 30
3 -8 1 71.405 43.8029 16
-3 8 -1 125.431 37.1682 7
3 -8 2 602.303 56.6796 16
-3 8 -2 638.919 51.2533 7
-3 8 -2 646.818 89.1862 30
-3 8 -3 1281.92 102.235 30
-3 8 -3 1307.21 67.2624 7
-3 8 -4 1958.23 113.434 30
-3 8 -5 26.5807 37.0727 30
3 -7 -11 383.966 39.9861 27
3 -7 -10 921.784 68.4156 27
3 -7 -10 1025.82 65.9345 25
3 -7 -9 21.6308 48.0112 27
3 -7 -9 48.871 45.0759 25
3 -7 -9 56.2191 35.3514 14
3 -7 -8 313.873 50.9106 25
3 -7 -8 312.421 43.5707 28
3 -7 -8 258.136 42.6075 14
3 -7 -7 3524.27 141.549 29
3 -7 -7 3923.38 155.922 25
3 -7 -7 3748.65 146.731 14
3 -7 -6 85.1582 35.5948 29
3 -7 -6 42.7639 39.4777 25
3 -7 -6 88.6737 36.9934 13
3 -7 -5 1834.53 92.9081 29
3 -7 -5 1777.49 94.3367 16
3 -7 -5 1866.71 90.3424 13
3 -7 -4 307.02 45.8136 29
3 -7 -4 215.998 44.6717 16
-3 7 4 273.319 37.2207 7
-3 7 3 917.908 61.5833 7
3 -7 -3 745.557 66.4475 16
3 -7 -2 4967.83 183.845 29
3 -7 -2 4573.79 190.982 16
-3 7 2 4756.23 180.508 7
3 -7 -1 7383.07 278.721 16
3 -7 -1 7818.7 270.132 29
-3 7 1 7144.33 340.508 1
-3 7 1 8169.36 270.213 7
-3 7 0 25572 854.129 30
3 -7 0 27223.3 820.281 29
3 -7 0 26231.4 832.809 16
3 -7 1 7.81443 65.9625 3
-3 7 -1 63.6563 73.5048 30
3 -7 1 25.6639 34.9713 29
3 -7 1 -2.67484 42.4011 16
-3 7 -1 15.7742 33.1445 7
3 -7 2 806.806 59.1852 29
-3 7 -2 639.512 101.513 30
3 -7 2 771.922 69.142 16
-3 7 -2 766.384 58.3968 7
3 -7 3 -8.3761 33.4426 16
-3 7 -3 39.4408 74.9499 30
-3 7 -3 18.3462 49.8951 22
-3 7 -3 38.0221 29.8139 7
-3 7 -4 2783.25 143.277 22
-3 7 -4 2917.57 113.577 7
-3 7 -4 3168.84 167.88 30
-3 7 -5 615.093 67.9242 22
-3 7 -5 729.24 82.8112 30
-3 7 -6 346.171 47.1334 22
3 -6 -11 390.277 44.6963 27
3 -6 -10 116.295 45.7414 27
3 -6 -10 184.876 47.6383 25
3 -6 -10 172.996 35.0523 23
3 -6 -10 163.006 37.1177 14
3 -6 -9 2986.62 126.372 28
3 -6 -9 3088.53 146.478 27
3 -6 -9 3364.47 131.605 23
3 -6 -9 3193.56 141.181 25
3 -6 -9 3417.92 138.08 14
3 -6 -8 525.62 67.5367 27
3 -6 -8 507.397 51.7291 28
3 -6 -8 468.886 60.6317 25
3 -6 -8 486.841 52.8871 23
3 -6 -8 410.701 52.4254 14
3 -6 -7 1035.66 72.9412 28
3 -6 -7 873.761 70.9408 13
3 -6 -7 973.454 76.0623 25
3 -6 -7 1072.58 68.5444 23
3 -6 -7 1060.38 70.6578 14
3 -6 -6 23.5641 29.3661 29
3 -6 -6 58.801 43.2507 25
3 -6 -6 56.5091 34.6952 14
3 -6 -6 102.192 40.659 23
3 -6 -6 18.9115 36.8722 13
3 -6 -5 107.531 33.9761 29
3 -6 -5 71.928 30.7129 14
3 -6 -5 20.2382 36.0468 25
3 -6 -5 100.335 32.6718 11
3 -6 -5 68.9552 35.3191 13
3 -6 -4 5296.3 188.313 29
-3 6 4 5257.1 182.031 7
3 -6 -4 5504.27 188.309 13
3 -6 -3 29.2833 34.146 16
3 -6 -3 53.366 31.0205 29
-3 6 3 26.5484 28.3886 7
3 -6 -2 2189.84 110.062 16
-3 6 2 2375.36 155.16 1
-3 6 2 2450.61 103.369 7
3 -6 -1 11090.1 359.015 29
-3 6 1 10770.1 436.152 1
-3 6 1 10776 355.704 7
3 -6 0 172.164 36.5518 29
3 -6 0 207.183 47.1069 16
-3 6 0 40.8298 58.6177 1
3 -6 0 150.497 65.9991 3
3 -6 1 1321.11 88.6886 16
3 -6 1 1529.6 79.3079 29
-3 6 -1 1288.6 134.214 1
-3 6 -1 1270.13 76.6508 7
3 -6 1 1375.49 133.399 3
-3 6 -1 1474.41 116.344 30
-3 6 -2 1130.7 113.433 30
3 -6 2 1139.47 69.7351 29
3 -6 2 1076.11 79.3814 16
-3 6 -2 1096.97 68.3438 7
3 -6 2 1231.77 129.333 3
-3 6 -3 2045.34 150.932 30
3 -6 3 2300.96 109.593 16
-3 6 -3 2174.17 98.6123 7
-3 6 -3 1949.36 122.708 22
3 -6 3 1925.03 164.195 3
-3 6 -4 2176.68 152.16 30
-3 6 -4 2085.64 128.93 22
-3 6 -4 2076.49 93.5469 7
-3 6 -5 122.091 76.5776 30
-3 6 -5 57.1212 54.2276 22
-3 6 -6 50.8933 54.3003 22
-3 6 -7 197.023 43.4437 30
-3 6 -7 129.086 43.6913 22
3 -5 -11 301.028 30.4572 23
3 -5 -10 145.787 49.9807 27
3 -5 -10 277.062 50.2491 25
3 -5 -10 253.858 37.4799 23
3 -5 -10 220.99 43.9215 14
3 -5 -9 984.992 64.5557 23
3 -5 -9 925.914 63.952 28
3 -5 -9 1081.1 82.5426 27
3 -5 -9 1008.51 74.0138 14
3 -5 -8 288.331 61.8762 27
3 -5 -8 380.293 52.3035 14
3 -5 -8 369.668 49.8894 28
3 -5 -8 316.3 57.7077 25
3 -5 -8 401.291 47.5308 23
3 -5 -7 3635.33 148.185 28
3 -5 -7 3162.47 148.485 25
3 -5 -7 3683.24 155.131 24
3 -5 -7 3622.42 140.377 23
3 -5 -7 3425.07 148.756 14
3 -5 -7 3209.05 148.555 13
3 -5 -6 2155.83 105.601 11
3 -5 -6 2294.74 105.417 14
3 -5 -6 2122.59 108.372 25
3 -5 -6 2206.97 109.611 24
3 -5 -6 2116.87 98.3795 23
3 -5 -6 1964.1 104.866 13
3 -5 -5 3622.69 139.438 11
3 -5 -5 3340.34 131.264 29
3 -5 -5 3507.57 141.454 25
3 -5 -5 3610.51 142.396 24
3 -5 -5 3486.71 133.749 23
3 -5 -5 3234.76 140.835 13
3 -5 -4 768.803 52.2437 11
-3 5 4 785.443 84.0465 1
-3 5 3 117.678 48.1706 1
3 -5 -3 78.0005 25.6767 11
-3 5 2 2474.31 152.105 1
3 -5 -2 2332.1 134.957 10
-3 5 1 3241.33 182.796 1
-3 5 0 3809.85 209.689 1
3 -5 0 3592.43 199.611 3
-3 5 -1 1592.97 138.411 1
3 -5 1 1713.84 84.1633 29
3 -5 1 1672.72 91.5118 16
-3 5 -1 1647.84 83.1837 7
3 -5 1 1921.47 140.274 3
-3 5 -2 321.807 80.6602 30
3 -5 2 255.417 45.7475 16
3 -5 2 338.056 75.8738 3
-3 5 -2 268.498 80.7768 1
-3 5 -2 287.142 40.3895 7
3 -5 2 319.803 40.6769 29
-3 5 -3 13.2733 74.6949 30
3 -5 3 58.6989 40.0737 16
3 -5 3 48.403 64.6834 3
-3 5 -3 -9.06474 50.1105 22
-3 5 -3 9.90544 28.1205 7
-3 5 -4 3030.29 182.183 30
-3 5 -4 3227.65 125.279 7
-3 5 -4 2994.74 157.015 22
3 -5 4 3218.45 209.158 3
-3 5 -5 62.3137 33.1152 15
-3 5 -5 51.21 59.8506 22
-3 5 -6 424.466 85.3621 30
-3 5 -6 359.242 41.3333 15
-3 5 -6 321.922 69.4338 22
-3 5 -7 44.2638 52.1656 30
-3 5 -7 -16.8044 25.3238 15
-3 5 -7 -34.8136 59.315 22
-3 5 -8 111.048 20.5141 15
-3 5 -8 79.3298 45.5994 22
-3 5 -8 104.307 37.3177 30
3 -4 -11 205.714 25.7909 23
3 -4 -10 633.862 56.8716 25
3 -4 -10 512.009 44.2109 23
3 -4 -10 495.269 51.5948 14
3 -4 -9 5952.31 233.202 27
3 -4 -9 6020.72 215.997 28
3 -4 -9 6045.65 213.263 23
3 -4 -9 6151.02 224.591 25
3 -4 -9 5822.06 227.481 24
3 -4 -8 18915.1 594.123 28
3 -4 -8 19249.6 607.896 27
3 -4 -8 17396.9 598.827 24
3 -4 -8 18971.2 586.072 23
3 -4 -7 164.313 41.3305 28
3 -4 -7 112.518 50.9342 27
3 -4 -7 94.6802 50.8209 25
3 -4 -7 281.316 61.3308 24
3 -4 -7 145.703 36.4981 23
3 -4 -7 149.111 45.0097 14
3 -4 -6 658.507 60.3824 11
3 -4 -6 524.151 61.2163 25
3 -4 -6 597.998 66.3768 24
3 -4 -6 647.38 49.915 23
3 -4 -6 649.667 59.2564 13
3 -4 -6 714.872 60.1137 28
3 -4 -5 9283.5 294.428 11
3 -4 -5 7992.48 291.481 25
-3 4 5 8905.74 348.46 1
3 -4 -5 8968.72 295.05 24
3 -4 -5 8490.01 282.344 23
3 -4 -5 8502.42 292.505 13
-3 4 4 1550.35 111.493 1
3 -4 -4 1346.42 71.9148 11
3 -4 -3 127.563 29.4161 11
3 -4 -3 141.378 57.952 10
-3 4 3 124.543 51.9473 1
3 -4 -3 72.54 53.5238 12
3 -4 -2 13585 424.975 11
-3 4 2 14487.9 498.917 1
3 -4 -2 13782.2 490.264 10
3 -4 -2 13401.4 490.221 12
3 -4 -1 12948.6 400.189 6
3 -4 -1 12780.9 456.876 10
3 -4 -1 13498.1 457.883 4
-3 4 1 12474.8 472.575 1
3 -4 -1 13361.7 463.606 12
3 -4 0 99.2637 50.705 3
-3 4 0 75.4796 53.4193 1
3 -4 0 65.5523 38.8466 4
-3 4 -1 28036.1 936.879 1
3 -4 1 27775.7 913.319 3
3 -4 2 529.82 78.6125 3
-3 4 -2 554.635 89.7125 1
-3 4 -2 581.57 44.64 7
3 -4 3 54.7477 34.8005 16
-3 4 -3 86.6433 68.5211 30
-3 4 -3 35.1889 57.8495 1
-3 4 -3 43.9982 43.8419 22
-3 4 -3 77.6928 27.9672 7
-3 4 -4 917.785 62.3391 15
-3 4 -4 931.698 107.749 30
3 -4 4 1041.91 66.6518 16
-3 4 -4 1032.28 57.3261 7
-3 4 -4 1150.4 90.586 22
-3 4 -5 2714.92 117.483 15
-3 4 -5 2582.98 147.106 22
-3 4 -5 2605.18 167.589 30
-3 4 -6 4143.32 209.842 30
-3 4 -6 4060.9 159.602 15
-3 4 -6 4069.96 200.364 22
-3 4 -7 297.621 75.6152 30
-3 4 -7 159.864 38.2932 15
-3 4 -7 197.506 73.1451 22
-3 4 -8 92.3092 48.4036 30
-3 4 -8 99.6551 30.6147 15
-3 4 -8 126.492 61.1053 22
-3 4 -9 42.0114 20.0463 15
3 -3 -11 27.7956 19.3681 23
3 -3 -10 5132.22 182.366 23
3 -3 -10 5371.28 190.706 14
3 -3 -9 684.094 59.885 28
3 -3 -9 781.013 75.4512 27
3 -3 -9 758.303 67.1435 25
3 -3 -9 585.618 53.1417 23
3 -3 -9 711.776 63.5149 14
3 -3 -8 6771.18 255.296 25
3 -3 -8 7070.81 253.075 28
3 -3 -8 6787.23 253.532 14
3 -3 -8 7382 267.264 27
3 -3 -7 145.628 43.8877 28
3 -3 -7 176.227 55.6171 27
3 -3 -7 101.8 48.0321 25
3 -3 -7 193.641 46.6647 14
3 -3 -7 130.917 44.6132 13
3 -3 -6 184.226 42.1778 28
3 -3 -6 167.831 47.033 27
3 -3 -6 194.249 43.8409 11
3 -3 -6 225.26 53.6651 24
3 -3 -6 217.264 43.9764 13
3 -3 -5 334.957 43.1049 11
3 -3 -5 311.308 45.4669 25
3 -3 -5 323.697 49.4282 24
-3 3 5 285.08 63.7027 1
3 -3 -4 608.732 47.888 11
-3 3 4 557.679 75.4889 1
3 -3 -3 3802.36 142.902 11
3 -3 -3 4257.82 209.688 10
-3 3 3 3990.03 194.215 1
3 -3 -3 4005.56 209.042 12
3 -3 -2 27016.6 888.299 10
-3 3 2 26482.9 882.267 1
3 -3 -2 27633 895.212 12
3 -3 -2 27221.9 817.084 6
3 -3 -1 94366.3 2803.76 6
-3 3 1 96843.7 2875.67 1
3 -3 -1 96823.3 2866.58 4
3 -3 0 11511.2 397.459 4
3 -3 0 10795.3 385.454 3
-3 3 0 10963.3 411.801 1
3 -3 1 2252.93 128.267 4
3 -3 1 2290.22 128.494 3
3 -3 2 1454.55 100.861 4
-3 3 -2 1659.98 126.935 1
-3 3 -3 1779.31 115.567 18
-3 3 -3 1949.37 80.8346 7
-3 3 -4 1631.97 73.5208 7
-3 3 -4 1703.39 103.996 22
-3 3 -5 4231.6 210.111 30
-3 3 -5 4410.4 166.161 15
-3 3 -5 4254.42 194.778 22
-3 3 -6 1606.33 87.2291 15
-3 3 -6 1603.31 129.048 30
-3 3 -6 1454.14 113.742 22
-3 3 -7 4.04835 68.0491 30
-3 3 -7 29.2219 35.9377 15
-3 3 -7 69.699 68.3036 22
-3 3 -8 43.7357 54.5726 30
-3 3 -8 44.6101 35.3519 15
-3 3 -9 1154.01 63.1689 15
-3 3 -9 1262.12 94.3094 22
-3 3 -9 1133.14 67.7516 30
-3 3 -10 393.585 41.3557 22
3 -2 -10 1397.23 67.2676 23
3 -2 -9 6002.18 226.584 28
3 -2 -9 6463.9 227.061 25
3 -2 -9 6601.34 231.045 14
3 -2 -8 566.2 62.3164 25
3 -2 -8 778.573 72.6036 24
3 -2 -8 592.006 58.9808 14
3 -2 -8 513.61 60.4717 28
3 -2 -8 590.651 71.9415 27
3 -2 -7 89.2692 52.2991 27
3 -2 -7 124.942 45.3545 28
3 -2 -7 111.222 43.3991 14
3 -2 -7 66.5679 46.3142 25
3 -2 -7 141.028 58.5753 24
3 -2 -6 -22.7159 43.5026 25
3 -2 -6 14.72 35.6568 28
3 -2 -6 4.78879 44.1512 27
3 -2 -6 26.6238 45.266 24
3 -2 -6 19.9022 37.2346 13
-3 2 6 38.4985 51.7312 1
-3 2 5 26726.5 897.161 1
3 -2 -5 27470.7 819.539 25
3 -2 -5 25779.4 815.526 13
-3 2 4 5355.27 245.455 1
3 -2 -4 5326.23 190.06 11
3 -2 -3 33442.5 1095.56 10
-3 2 3 33687.8 1080.53 1
3 -2 -3 33539.4 1015.61 11
3 -2 -3 35053.7 1105.33 12
3 -2 -2 35636.9 1069.29 6
3 -2 -2 35807.5 1142.05 10
3 -2 -2 36894.6 1141.09 4
3 -2 -2 37124.8 1152.03 12
-3 2 2 34156.8 1127.6 1
3 -2 -1 1080.97 53.3849 6
3 -2 -1 1069.54 92.0208 4
-3 2 1 898.95 85.6818 1
-3 2 0 20156.1 665.827 1
3 -2 0 19957.9 660.818 4
-3 2 -1 7427.83 288.819 1
3 -2 1 7418.91 278.633 4
3 -2 1 6680.82 255.42 3
-3 2 -2 4463.2 171.992 31
-3 2 -3 18970.2 675.442 18
-3 2 -3 22261 711.115 1
-3 2 -4 11989.7 457.393 18
-3 2 -4 13393.5 490.329 1
-3 2 -4 12526 389.589 7
-3 2 -5 12178.4 412.002 30
-3 2 -5 10950 432.459 18
-3 2 -5 12073.9 444.585 8
-3 2 -5 11483.6 396.459 22
-3 2 -5 10716.9 366.052 15
-3 2 -6 12166.5 415.008 15
-3 2 -6 12752.3 449.451 22
-3 2 -7 1340.71 112.82 30
-3 2 -7 1254.19 80.476 15
-3 2 -8 1453.85 107.299 30
-3 2 -8 1390.26 83.9152 15
-3 2 -8 1357.18 119.315 22
-3 2 -9 2112.34 132.13 22
-3 2 -9 2077.66 104.231 30
-3 2 -9 1986.58 96.7801 15
-3 2 -10 1026.13 54.8947 15
-3 2 -10 824.931 74.0413 22
3 -1 -10 310.374 32.0527 23
3 -1 -9 3272.9 136.647 28
3 -1 -9 3220.98 132.008 14
3 -1 -8 1024.45 77.4162 28
3 -1 -8 954.049 59.5331 15
3 -1 -8 1316.09 79.4427 25
3 -1 -8 1250.18 88.3889 24
3 -1 -8 1010.28 71.4175 14
3 -1 -7 451.704 59.2525 28
3 -1 -7 632.516 70.6122 27
-3 1 7 352.923 83.5903 1
3 -1 -7 542.167 46.874 15
3 -1 -7 539.571 60.3812 25
3 -1 -7 549.433 69.229 24
3 -1 -7 456.418 53.7236 14
3 -1 -6 2561.83 114.362 11
3 -1 -6 2518.62 124.063 27
3 -1 -6 2622.44 118.358 28
3 -1 -6 2434.82 103.657 15
3 -1 -6 2299.86 113.828 25
3 -1 -6 2268.98 119.753 24
3 -1 -6 2408.44 111.805 13
3 -1 -5 3045.11 128.939 11
3 -1 -5 3368.4 133.609 28
3 -1 -5 3294.37 138.102 27
3 -1 -5 3273.77 132.36 25
3 -1 -5 2941.01 134.008 24
3 -1 -5 3080.96 127.517 13
3 -1 -4 565.632 47.8432 11
-3 1 3 22410.7 741.048 1
3 -1 -3 21812 758.725 12
3 -1 -2 7888.59 257.724 6
3 -1 -2 8114.1 321.699 10
3 -1 -2 8307.93 321.863 4
-3 1 2 8011.51 312.031 1
3 -1 -1 26108.7 784.241 6
3 -1 -1 25869.6 829.622 5
3 -1 -1 25973.2 842.411 4
-3 1 1 26529 839.316 1
3 -1 0 20471.7 654.34 5
3 -1 0 20645.9 676.98 4
-3 1 0 20910.8 674.988 1
3 -1 1 7106.79 240.311 5
3 -1 1 6919.94 234.992 3
-3 1 -2 31266.3 993.405 1
-3 1 -3 9538.55 379.168 18
-3 1 -3 9541.76 344.706 31
-3 1 -4 57085.6 1816.24 18
-3 1 -4 60070 1821.91 1
-3 1 -5 2720.16 168.402 18
-3 1 -5 2572.98 104.939 2
-3 1 -6 7106.54 245.211 19
-3 1 -6 7128.37 279.677 30
-3 1 -6 6870.84 323.185 18
-3 1 -6 7399.4 330.921 8
-3 1 -6 7594.81 245.487 2
-3 1 -6 6868.93 249.256 15
-3 1 -7 1656.71 82.9631 19
-3 1 -7 1648.71 115.734 30
-3 1 -7 1408.87 86.4041 15
-3 1 -7 1649.65 120.424 22
-3 1 -8 39.3756 57.6622 30
-3 1 -8 22.6448 38.2379 15
-3 1 -8 35.0378 68.7326 22
-3 1 -9 5147.8 196.559 30
-3 1 -9 4880.69 191.401 15
-3 1 -9 5069.91 230.167 22
-3 1 -10 1515.54 103.037 22
3 0 -10 5887.48 189.886 23
3 0 -9 8.89358 35.9079 28
3 0 -9 15.0403 23.989 15
3 0 -8 124.063 47.194 28
3 0 -8 126.698 32.9338 15
3 0 -8 138.614 37.4451 14
3 0 -7 1824.66 92.0526 15
3 0 -7 1891.88 106.202 28
3 0 -7 2060.23 105.243 24
3 0 -7 1828.73 94.4208 14
3 0 -6 77.6681 37.2962 11
3 0 -6 28.5083 43.7579 28
3 0 -6 124.764 54.8572 27
3 0 -6 14.4227 30.6162 15
3 0 -6 125.288 43.3865 25
3 0 -6 184.116 54.7023 24
3 0 -6 7.82608 32.5635 14
3 0 -5 55.7863 34.248 11
3 0 -5 55.8413 37.2513 28
3 0 -5 96.2276 45.2059 27
3 0 -5 76.3856 38.2201 25
3 0 -5 97.4366 44.6332 24
3 0 -5 21.1301 27.9681 13
3 0 -4 39724.1 1196.22 11
3 0 -3 2828.29 110.875 11
3 0 -3 2845.61 168.583 10
3 0 -3 2902.29 172.149 12
3 0 -2 2975.13 112.357 6
3 0 -2 3301.16 172.394 5
3 0 -2 2726.31 162.568 10
3 0 -2 3143.97 165.429 4
3 0 -2 3217.65 176.522 12
3 0 -1 558.079 71.2016 5
3 0 0 7458.92 276.973 5
3 0 0 7394.55 286.091 4
3 0 1 22985.8 724.855 5
-3 0 -1 23189.5 739.502 1
3 0 2 123911 3773.02 3
3 0 2 131302 3795.45 5
-3 0 -3 7107.26 272.254 31
-3 0 -3 6267.86 261.265 1
-3 0 -4 3132.55 158.164 31
-3 0 -4 3540.17 185.422 18
-3 0 -4 3047.67 163.638 1
-3 0 -5 7760.46 339.335 18
-3 0 -5 8280.19 327.116 1
-3 0 -6 3846.35 145.561 2
-3 0 -6 3577.61 145.843 15
-3 0 -6 3709.31 173.89 22
-3 0 -7 77.3352 35.652 19
-3 0 -7 60.2131 60.1351 18
-3 0 -7 78.5399 34.3024 2
-3 0 -7 23.5853 64.6278 8
-3 0 -7 114.354 67.0139 22
-3 0 -7 87.0297 54.9713 30
-3 0 -8 16883.2 660.21 17
-3 0 -8 16783.9 663.103 8
-3 0 -8 17867.6 570.282 30
-3 0 -8 16961.1 596.53 22
-3 0 -9 9258.26 357.517 22
-3 0 -10 359.84 39.5958 24
-3 0 -10 428.223 49.0187 15
-3 0 -10 322.931 69.2077 22
-3 0 -11 3994.08 137.732 15
-3 0 -11 3416.92 144.184 22
3 1 -9 974.446 53.5975 15
3 1 -8 6255.03 231.692 28
3 1 -8 6182.37 217.671 15
3 1 -7 1806.76 107.468 28
3 1 -7 2006.76 96.1844 15
3 1 -7 1759.75 89.8113 14
3 1 -6 4376.37 181.146 28
3 1 -6 4548.2 170.556 15
3 1 -6 4058.16 162.093 14
3 1 -5 2947.37 124.996 11
3 1 -5 3304.37 142.218 28
3 1 -5 3104.83 133.539 24
3 1 -4 10363.8 335.173 11
3 1 -3 4450.61 155.892 11
3 1 -3 4105.72 211.945 10
3 1 -3 4349.44 221.449 12
3 1 -2 8841.4 357.832 10
3 1 -2 9564.35 368.965 12
3 1 -2 9161.12 294.23 6
3 1 -1 5034.48 169.126 6
3 1 -1 5006.38 227.415 5
3 1 -1 5270.51 222.512 4
3 1 0 1646.29 109.179 5
-3 -1 0 1764.8 104.938 1
3 1 0 1644.23 110.857 4
3 1 1 264.38 53.1313 5
-3 -1 -1 179.812 46.4913 1
-3 -1 -2 22800.8 727.305 1
-3 -1 -3 35326.2 1176.4 31
-3 -1 -3 38173.9 1148.87 1
-3 -1 -4 1118.68 102.281 31
-3 -1 -4 1443.61 96.6063 1
-3 -1 -5 29.035 47.4806 31
-3 -1 -5 22.8423 61.2427 18
-3 -1 -5 -53.321 41.0704 1
-3 -1 -6 61.4506 66.5522 18
-3 -1 -6 15.0018 31.1355 2
-3 -1 -7 2369.33 107.896 2
-3 -1 -7 2460.79 110.788 19
-3 -1 -7 2475.6 183.062 18
-3 -1 -7 2470.22 185.309 8
-3 -1 -7 2431.36 103.116 25
-3 -1 -7 2130.46 104.791 15
-3 -1 -7 2278.25 113.809 30
-3 -1 -7 2204.34 135.068 22
-3 -1 -8 8527.58 286.874 19
-3 -1 -8 7785.93 381.994 18
-3 -1 -8 8239.12 394.669 8
-3 -1 -8 7908.02 283.609 15
-3 -1 -8 8032.52 319.983 22
-3 -1 -9 8449.55 293.485 15
-3 -1 -9 8313.36 328.625 22
-3 -1 -10 2889.49 121.419 9
-3 -1 -10 2779.41 123.008 24
-3 -1 -10 2779.12 124.341 15
-3 -1 -10 2863.16 149.719 22
-3 -1 -11 83.4664 28.9182 24
-3 -1 -11 86.633 32.4655 15
-3 -1 -11 69.2921 39.5172 22
3 2 -9 25.6333 21.1887 15
3 2 -8 2148.29 95.916 15
3 2 -7 122.418 52.4447 28
3 2 -7 155.038 38.8259 15
3 2 -7 167.741 41.5274 22
3 2 -6 3877.53 172.079 28
3 2 -6 3979.5 161.644 15
3 2 -5 5660.7 220.285 28
3 2 -4 15174.2 465.589 11
3 2 -4 14370.3 480.699 26
3 2 -3 6944.89 321.498 5
3 2 -3 6843.45 227.847 11
3 2 -2 52106 1611.3 10
3 2 -2 50727.2 1620.8 12
3 2 -2 52202.4 1543.73 11
3 2 -1 572.259 37.6095 6
3 2 -1 608.768 71.4357 4
3 2 -1 509.388 80.8385 5
3 2 0 4158.69 206.112 5
3 2 0 4772.15 200.825 4
-3 -2 -1 8623.12 312.044 1
-3 -2 -2 64.1093 37.6473 1
-3 -2 -3 5164.5 237.811 31
-3 -2 -3 4341.27 183.119 1
-3 -2 -4 24705.7 848.539 18
-3 -2 -4 26018.7 859.212 31
-3 -2 -4 25900.9 806.301 1
-3 -2 -5 12101.3 457.15 31
-3 -2 -5 11380.1 452.474 18
-3 -2 -5 11694.6 400.872 1
-3 -2 -6 146.382 36.8231 2
-3 -2 -7 424.845 50.2388 19
-3 -2 -7 522.108 51.2679 2
-3 -2 -7 466.785 47.2203 15
-3 -2 -7 411.006 98.3289 18
-3 -2 -7 328.994 85.2834 8
-3 -2 -7 450.999 47.1527 25
-3 -2 -7 384.788 68.9462 22
-3 -2 -8 26.7604 68.3711 18
-3 -2 -8 29.4828 39.6889 19
-3 -2 -8 41.2573 37.5325 2
-3 -2 -8 27.6657 72.1724 8
-3 -2 -8 -17.7094 35.0625 25
-3 -2 -8 -2.0318 35.4119 15
-3 -2 -8 -3.67141 60.3273 22
-3 -2 -9 9000.09 303.755 25
-3 -2 -9 9181.74 309.898 15
-3 -2 -9 8654.87 338.027 22
-3 -2 -10 4140.98 161.902 15
-3 -2 -10 3870.93 178.436 22
-3 -2 -11 395.136 42.4585 9
-3 -2 -11 449.659 48.4755 24
-3 -2 -12 956.426 50.4985 24
3 3 -8 3587.23 132.783 15
3 3 -7 869.697 60.8712 15
3 3 -7 787.443 63.3008 22
3 3 -6 536.989 72.315 28
3 3 -6 597.033 57.7228 15
3 3 -5 234.126 46.4501 15
3 3 -4 168.562 52.5952 28
3 3 -4 180.728 47.334 26
-3 -3 4 178.336 34.9197 21
3 3 -3 927.229 112.518 5
3 3 -3 1001.12 70.9482 28
3 3 -3 965.863 74.4022 26
3 3 -2 11877.9 435.757 10
3 3 -2 12628.9 485.833 5
3 3 -2 12289.6 380.057 11
3 3 -2 12053.4 441.684 12
3 3 -1 8662.31 327.21 10
3 3 -1 8872.17 363.221 5
3 3 -1 8646.03 334.231 12
3 3 -1 8679.04 274.14 6
3 3 0 66.7451 22.733 6
3 3 0 104.315 47.0382 4
3 3 1 1223.07 92.7335 4
-3 -3 -2 4836.06 193.581 1
-3 -3 -3 12777.9 420.787 1
-3 -3 -4 47636.6 1495.25 31
-3 -3 -4 47870.5 1474.18 18
-3 -3 -4 45971.3 1407.22 1
-3 -3 -5 30968.9 1059.06 31
-3 -3 -5 32415 1050.41 18
-3 -3 -6 1333.54 129.45 18
-3 -3 -7 12209.7 511.575 18
-3 -3 -7 12460.5 403.628 2
-3 -3 -7 12416 404.838 25
-3 -3 -7 12070.2 395.657 15
-3 -3 -7 12212.1 404.176 19
-3 -3 -7 11495.6 416.798 22
-3 -3 -7 12929.1 394.19 32
-3 -3 -8 4384.12 170.048 2
-3 -3 -8 4499.71 270.114 8
-3 -3 -8 4091.57 165.383 25
-3 -3 -8 4034.39 160.779 15
-3 -3 -8 4039.27 184.743 22
-3 -3 -9 3213.13 144.912 19
-3 -3 -9 2805.89 226.876 8
-3 -3 -9 3391.49 139.065 15
-3 -3 -9 3330.73 141.616 25
-3 -3 -9 3292.23 158.372 22
-3 -3 -10 1436.63 79.4426 25
-3 -3 -10 1564.33 83.3283 15
-3 -3 -10 1368.02 90.2183 22
-3 -3 -11 1978.03 84.8821 25
-3 -3 -11 1753.67 93.1776 9
-3 -3 -11 1995.56 98.7503 24
-3 -3 -12 82.4279 30.2879 24
3 4 -8 805.77 43.3402 15
3 4 -7 181.841 38.9437 22
3 4 -6 33.525 53.7725 30
3 4 -6 18.4075 36.8388 22
3 4 -5 1699.87 94.3795 15
3 4 -4 3061.23 150.886 28
-3 -4 4 3297.2 131.886 21
3 4 -3 469.806 62.6495 28
3 4 -3 423.215 93.514 5
3 4 -3 539.724 65.5413 26
-3 -4 3 522.402 47.6639 21
3 4 -2 6595.56 249.481 26
3 4 -2 6618.43 320.443 5
3 4 -2 6427.66 240.746 28
-3 -4 2 6856.66 231.562 21
3 4 -1 109.757 70.0573 5
3 4 0 4688.58 202.317 10
3 4 0 4575.06 239.79 5
3 4 0 5167.49 204.706 4
3 4 1 13232.5 454.131 4
-3 -4 -2 324.72 47.0963 1
-3 -4 -3 8003.92 320.556 18
-3 -4 -3 7973.33 279.05 1
-3 -4 -4 34665.4 1115.72 18
-3 -4 -4 34529.6 1152.01 31
-3 -4 -5 3622.85 201.67 18
-3 -4 -6 4050.35 230.107 18
-3 -4 -6 4027.16 155.875 2
-3 -4 -6 4059.08 243.519 31
-3 -4 -7 3547.87 138.697 2
-3 -4 -7 3317.02 130.969 32
-3 -4 -7 3318.29 139.985 25
-3 -4 -7 3242.34 216.199 8
-3 -4 -7 3184.82 136.449 19
-3 -4 -7 3046.99 140.081 22
-3 -4 -7 3029.95 209.943 18
-3 -4 -8 199.303 45.2884 19
-3 -4 -8 143.893 79.9986 18
-3 -4 -8 223.369 82.1194 8
-3 -4 -8 166.021 36.3972 32
-3 -4 -8 216.237 47.2611 25
-3 -4 -8 195.87 48.2114 22
-3 -4 -9 2265.71 197.187 17
-3 -4 -9 2314.17 117.781 19
-3 -4 -9 2417.33 116.575 25
-3 -4 -10 246.273 44.6794 25
-3 -4 -11 1175.55 73.1486 9
-3 -4 -11 1146.28 68.9638 25
-3 -4 -12 193.621 26.9434 25
-3 -4 -12 258.873 38.9526 24
3 5 -7 637.56 40.4085 15
3 5 -7 433.058 41.0597 22
3 5 -6 259.247 56.9888 30
3 5 -6 265.694 39.3119 15
3 5 -6 217 44.2687 22
3 5 -5 298.632 45.5408 15
-3 -5 4 -16.1575 34.5909 21
3 5 -4 35.983 39.5277 15
-3 -5 3 96.0827 37.8196 21
3 5 -3 32.8916 66.3246 5
3 5 -3 39.1725 51.7263 28
-3 -5 2 11.2567 34.7957 21
3 5 -2 -24.146 65.5169 5
3 5 -2 50.1877 45.1601 28
3 5 -2 89.6358 49.525 26
3 5 -1 40.9333 39.2914 28
3 5 -1 31.2567 43.3968 26
3 5 -1 7.39662 64.0605 5
-3 -5 1 19.1517 31.9944 21
3 5 0 2209.66 165.279 5
3 5 2 509.054 59.5937 4
-3 -5 -2 543.564 96.0445 31
-3 -5 -3 1958.8 157.241 31
-3 -5 -3 1748.2 116.783 18
-3 -5 -4 5527.68 250.779 18
-3 -5 -4 5781.04 293.806 31
-3 -5 -5 18795.8 677.33 31
-3 -5 -5 17641.5 626.893 18
-3 -5 -5 17266.4 545.591 2
-3 -5 -6 1598.16 136.794 18
-3 -5 -6 1602.49 81.7333 2
-3 -5 -6 1675.24 81.5077 32
-3 -5 -7 344.337 45.2395 2
-3 -5 -7 127.507 69.5562 8
-3 -5 -7 336.399 44.269 32
-3 -5 -7 257.332 43.8798 19
-3 -5 -7 280.188 80.691 18
-3 -5 -7 328.098 49.2327 25
-3 -5 -8 35.7705 41.525 19
-3 -5 -8 -4.33829 37.1768 2
-3 -5 -8 -35.2237 72.3471 18
-3 -5 -8 -27.2251 73.8646 8
-3 -5 -8 3.84168 35.2222 32
-3 -5 -9 253.852 39.7624 32
-3 -5 -9 317.243 51.8288 25
-3 -5 -10 296.715 49.4144 25
-3 -5 -11 268.087 44.0911 25
-3 -5 -11 293.326 50.6966 24
-3 -5 -12 341.576 39.9041 25
-3 -5 -12 188.371 38.7444 24
3 6 -6 185.589 27.1534 15
3 6 -6 189.951 36.0885 22
3 6 -5 869.839 86.5958 30
3 6 -5 764.311 54.73 15
3 6 -5 712.669 63.7077 22
-3 -6 4 276.928 39.8486 21
3 6 -4 296.31 44.2731 15
3 6 -3 5503.11 207.678 15
-3 -6 3 5604.23 204.805 21
3 6 -2 2372.54 192.079 5
-3 -6 2 3051.7 128.391 21
3 6 -1 576.107 103.607 5
-3 -6 1 574.245 54.7801 21
3 6 0 899.751 118.235 5
3 6 0 917.072 82.2658 26
-3 -6 0 949.944 65.1254 21
3 6 1 712.685 109.427 5
-3 -6 -1 709.005 54.4679 21
-3 -6 -1 495.559 97.4491 31
-3 -6 -2 138.318 75.1472 31
-3 -6 -3 15.0868 70.0569 31
-3 -6 -4 2485.31 187.457 31
-3 -6 -5 11076.5 416.922 8
-3 -6 -5 10578.8 461.917 31
-3 -6 -5 9801.67 403.234 18
-3 -6 -5 10424.9 334.472 2
-3 -6 -5 10447.8 342.906 32
-3 -6 -6 489.835 45.676 2
-3 -6 -6 397.542 78.305 18
-3 -6 -6 404.771 81.344 8
-3 -6 -6 427.086 50.7807 25
-3 -6 -7 375.708 47.7043 32
-3 -6 -7 332.361 43.9789 19
-3 -6 -7 333.464 80.9396 18
-3 -6 -7 311.943 42.7072 2
-3 -6 -7 313.513 81.2645 8
-3 -6 -7 366.905 52.7399 25
-3 -6 -8 230.751 44.7463 32
-3 -6 -8 277.734 44.4892 19
-3 -6 -8 215.202 49.3023 25
-3 -6 -8 286.247 85.9534 8
-3 -6 -10 56.7999 33.4721 29
-3 -6 -10 31.3766 44.3618 25
-3 -6 -11 48.094 33.7857 9
-3 -6 -11 30.1847 37.9414 25
-3 -6 -11 72.5084 41.328 24
-3 -6 -12 1164.82 63.2503 25
-3 -6 -12 1165.26 66.537 24
-3 -6 -13 252.479 28.8108 24
3 7 -5 946.874 72.5417 30
3 7 -5 818.38 45.9899 15
3 7 -5 872.37 58.1664 22
3 7 -4 1103.84 62.8564 15
-3 -7 4 1171.88 60.1906 21
-3 -7 3 41.0249 33.3971 21
3 7 -3 51.6187 32.4471 15
3 7 -2 5836.38 211.266 15
-3 -7 2 5912.86 215.66 21
3 7 -1 790.5 113.829 5
-3 -7 1 993.604 71.5872 21
-3 -7 0 100.269 39.4422 21
3 7 0 49.9092 70.2599 5
-3 -7 -1 4053.87 155.643 16
3 7 1 3966.37 244.802 5
-3 -7 -1 4050.46 160.845 21
-3 -7 -2 109.202 34.7816 21
-3 -7 -2 22.3214 60.0403 31
-3 -7 -3 59.6348 33.2005 21
-3 -7 -3 39.7896 64.1794 31
-3 -7 -3 58.2156 28.7376 29
-3 -7 -4 7240.44 368.662 31
-3 -7 -4 7992.93 263.704 21
-3 -7 -5 886.978 63.002 25
-3 -7 -5 1021.27 66.5179 32
-3 -7 -5 823.584 122.411 31
-3 -7 -6 18.5542 36.5203 32
-3 -7 -6 19.0236 36.2313 25
-3 -7 -7 702.609 64.3715 25
-3 -7 -8 65.8505 44.0096 25
-3 -7 -9 2948.52 136.671 25
-3 -7 -9 2980.92 130.712 29
-3 -7 -10 5.47346 31.4066 29
-3 -7 -10 32.3264 32.6597 9
-3 -7 -10 13.9645 41.0634 25
-3 -7 -11 18.246 25.3738 29
-3 -7 -11 39.0512 30.171 9
-3 -7 -11 16.3851 35.4961 24
-3 -7 -12 612.632 46.6494 25
-3 -7 -12 583.803 45.2826 24
3 8 -4 1344.68 57.4404 15
3 8 -4 1415.39 71.6217 22
-3 -8 3 4.1002 27.1256 21
3 8 -3 30.355 23.4291 15
3 8 -3 17.516 35.4925 22
-3 -8 2 239.586 40.6657 21
3 8 -2 140.359 32.371 15
-3 -8 1 -2.05001 37.0293 21
3 8 -1 -17.6417 30.3255 15
-3 -8 0 2199.32 109.572 21
3 8 1 2236.74 183.627 5
-3 -8 -1 2305.05 104.442 16
-3 -8 -1 2304.53 110.272 21
-3 -8 -2 100.196 38.0315 21
-3 -8 -2 200.504 39.7637 16
3 8 2 174.489 78.158 5
-3 -8 -3 16612.1 527.267 21
-3 -8 -4 97.38 33.2046 21
-3 -8 -4 128.456 77.8239 31
-3 -8 -4 68.2761 33.0421 29
-3 -8 -5 2274.61 108.114 29
-3 -8 -6 2165.82 107.461 25
-3 -8 -6 2454.36 111.395 29
-3 -8 -7 283.128 48.1835 29
-3 -8 -7 188.524 42.217 25
-3 -8 -8 -4.56229 37.3088 25
-3 -8 -9 3120.16 135.748 29
-3 -8 -9 3149.1 129.477 16
-3 -8 -9 3265.91 140.354 25
-3 -8 -10 55.0852 32.9463 29
-3 -8 -10 3.26572 12.7826 9
-3 -8 -10 35.8304 39.3611 25
-3 -8 -10 -1.68227 32.4147 24
-3 -8 -11 1067.81 58.56 29
-3 -8 -11 1160.31 69.674 25
-3 -8 -11 1068.68 61.362 24
-3 -8 -12 1089.92 57.0122 25
-3 -8 -12 925.872 50.7046 24
3 9 -3 4.82799 25.2462 22
3 9 -2 1282.93 72.6903 22
-3 -9 2 1278.81 65.6012 21
-3 -9 1 283.67 42.1992 21
-3 -9 0 293.712 47.5812 21
-3 -9 -1 332.196 50.7249 21
-3 -9 -2 3185.44 133.697 16
-3 -9 -2 3253.41 137.171 21
-3 -9 -3 2537.4 116.025 16
-3 -9 -3 2454.34 113.477 21
-3 -9 -4 2727.69 119.024 29
-3 -9 -4 2880.37 128.389 16
-3 -9 -4 2790.37 119.47 21
-3 -9 -5 547.509 52.3955 29
-3 -9 -5 467.053 55.2284 16
-3 -9 -5 482.319 44.8263 21
-3 -9 -6 3019.65 132.77 29
-3 -9 -7 3534.4 149.9 29
-3 -9 -7 3838.22 151.643 16
-3 -9 -7 3323.71 140.821 25
-3 -9 -8 9754.78 322.923 29
-3 -9 -8 9559.35 320.768 16
-3 -9 -8 9104.95 316.876 25
-3 -9 -9 5049.87 181.111 16
-3 -9 -9 4700.7 184.059 25
-3 -9 -9 5060.79 186.906 29
-3 -9 -10 671.051 51.8365 29
-3 -9 -10 636.259 54.1433 25
-3 -9 -11 505.882 39.654 29
-3 -9 -11 547.614 44.4168 25
-3 -9 -12 1616.37 68.0621 25
3 10 -2 111.442 37.7307 30
3 10 -1 2.36663 48.2113 30
3 10 -1 -1.20535 25.8867 22
-3 -10 0 174.552 34.7361 21
3 10 0 122.364 33.8923 22
-3 -10 -2 3976.88 158.071 16
-3 -10 -2 4633.42 165.839 21
-3 -10 -3 123.356 38.0978 21
-3 -10 -3 148.216 36.8898 16
-3 -10 -4 201.721 37.6155 21
-3 -10 -4 170.719 43.9197 16
-3 -10 -5 404.52 43.395 29
-3 -10 -5 364.625 50.966 16
-3 -10 -5 436.711 40.827 21
-3 -10 -6 2374.86 109.212 29
-3 -10 -7 1471.41 82.5223 29
-3 -10 -7 1558.48 85.5329 16
-3 -10 -8 7678.05 262.08 16
-3 -10 -8 7514.35 261.109 29
-3 -10 -9 72.8414 30.7851 16
-3 -10 -9 49.0294 27.5475 25
-3 -10 -10 253.385 34.641 29
-3 -10 -10 202.798 26.3887 16
-3 -10 -10 192.947 31.1428 25
-3 -10 -11 35.593 19.7445 29
-3 -10 -11 28.5367 20.7078 25
3 11 0 154.977 36.3193 30
3 11 1 90.4939 41.496 30
3 11 2 2501.89 117.781 30
-3 -11 -3 5.51099 26.2408 21
-3 -11 -3 45.4224 27.7243 16
-3 -11 -4 83.447 33.0181 16
-3 -11 -5 91.1685 25.8385 29
-3 -11 -5 163.933 37.6527 16
-3 -11 -6 71.6959 29.0686 29
-3 -11 -6 106.944 36.9105 16
-3 -11 -7 60.6533 28.5178 29
-3 -11 -7 46.679 32.3761 16
-3 -11 -8 3297.72 124.688 29
-3 -11 -8 3114.81 124.783 16
-3 -11 -9 23.4295 26.9124 29
-3 -11 -9 2.31984 22.5385 16
-3 -11 -10 46.9677 21.7427 29
-3 -12 -4 183.009 26.2061 16
-3 -12 -5 131.564 27.9047 16
-3 -12 -6 626.837 35.3916 29
-3 -12 -6 786.478 47.7268 16
-3 -12 -7 767.826 40.9621 29
-3 -12 -8 150.613 22.7709 29
-3 -12 -8 156.114 25.4844 16
-3 -12 -9 157.522 20.6899 29
4 -11 -6 42.6153 19.1862 29
4 -11 -5 100.332 21.896 16
4 -11 -5 123.92 25.6081 29
4 -11 -4 158.562 27.3504 16
4 -11 -4 144.656 26.1338 29
4 -11 -3 922.179 50.8998 29
4 -11 -3 1093.16 55.278 16
4 -11 -2 1114.37 56.0942 16
4 -11 -1 910.561 45.3632 16
4 -10 -7 40.799 21.6984 29
4 -10 -7 45.6995 24.3624 28
4 -10 -6 314.496 35.2271 29
4 -10 -5 57.1366 28.9999 16
4 -10 -5 79.3019 29.5748 29
4 -10 -4 1188.36 70.0892 16
4 -10 -3 1025.52 62.1804 29
4 -10 -3 897.162 63.3211 16
4 -10 -2 235.056 36.4485 29
4 -10 -1 201.855 36.493 16
4 -10 0 703.264 48.2931 16
4 -10 1 260.892 29.0818 16
4 -9 -9 3929.74 136.297 27
4 -9 -8 46.7902 23.9413 28
4 -9 -8 59.2435 29.4607 27
4 -9 -7 155.811 35.54 27
4 -9 -7 175.16 29.7226 29
4 -9 -7 174.306 36.7821 28
4 -9 -6 847.985 56.2334 29
4 -9 -5 1733.45 87.3333 29
4 -9 -5 1673.65 87.8222 16
4 -9 -5 1764.75 85.8143 26
4 -9 -4 5358.81 195.73 29
4 -9 -4 5163.35 199.758 16
-4 9 4 5204.51 184.542 7
4 -9 -3 2945.92 128.533 29
4 -9 -3 2953.4 135.675 16
-4 9 3 2993.05 121.697 7
4 -9 -2 87.3681 37.1611 29
4 -9 -2 45.7072 40.1374 16
-4 9 2 88.8243 30.5005 7
4 -9 -1 504.872 58.586 16
4 -9 -1 524.892 51.2262 29
-4 9 1 552.161 47.7717 7
4 -9 0 647.844 59.8785 16
4 -9 1 618.066 50.4255 16
-4 9 -1 591.805 44.6002 7
-4 9 -2 38.3009 31.9216 30
4 -9 2 29.9635 25.6424 16
-4 9 -3 990.319 53.4181 30
4 -8 -9 206.574 36.1498 27
4 -8 -8 247.908 37.1401 28
4 -8 -8 164.494 43.2162 27
4 -8 -7 571.943 57.2872 27
4 -8 -7 593.101 44.3251 29
4 -8 -7 659.63 56.4167 28
4 -8 -6 8.71204 29.5437 29
4 -8 -6 -3.23616 30.0542 13
4 -8 -5 7.89989 33.7872 29
4 -8 -5 52.7972 36.6877 26
4 -8 -5 28.4057 33.6567 16
4 -8 -4 6691.4 239.572 29
4 -8 -4 6323.09 241.863 16
-4 8 4 6747.84 230.258 7
4 -8 -3 832.122 70.9872 16
-4 8 3 779.491 59.5967 7
4 -8 -2 3329.72 143.072 29
4 -8 -2 3170.34 151.191 16
-4 8 2 3497.68 139.364 7
4 -8 -1 66.69 38.6242 29
-4 8 1 87.3479 37.7977 7
4 -8 0 55.485 37.2736 29
4 -8 0 7.79325 45.7489 16
4 -8 1 2948.21 131.921 16
-4 8 -1 2693.54 140.243 30
-4 8 -1 2907.88 121.658 7
4 -8 2 1234.22 73.5078 16
-4 8 -2 1099.97 87.6694 30
-4 8 -2 1168.99 65.6638 7
-4 8 -3 3220.23 143.949 30
4 -8 3 2952.92 121.273 16
-4 8 -4 950.111 68.1463 30
-4 8 -5 678.74 43.828 30
4 -7 -10 3312.58 124.215 27
4 -7 -9 1275.96 63.6951 28
4 -7 -9 1271.88 76.0521 27
4 -7 -9 1287.18 64.2982 14
4 -7 -8 743.733 51.2355 14
4 -7 -8 691.113 55.9668 28
4 -7 -7 75.7552 39.0977 28
4 -7 -7 18.9813 41.4617 27
4 -7 -7 37.7466 31.3339 14
4 -7 -7 71.9993 39.396 13
4 -7 -6 667.514 53.2227 29
4 -7 -6 821.653 62.2753 13
4 -7 -5 1742.45 92.2812 29
4 -7 -5 1988.16 98.2056 26
4 -7 -5 1899.18 94.2703 13
4 -7 -4 9299.52 319.493 29
4 -7 -4 8620.96 320.65 16
-4 7 4 9686 313.351 7
4 -7 -4 9684.46 315.519 13
4 -7 -3 1096.3 72.1132 29
4 -7 -3 977.089 76.3986 16
-4 7 3 922.41 63.5235 7
4 -7 -2 8413.7 302.64 16
-4 7 2 8388.38 290.694 7
4 -7 -1 702.489 62.9294 29
-4 7 1 813.174 62.4612 7
4 -7 0 235.945 44.4402 29
4 -7 0 201.896 53.0455 16
-4 7 -1 711.586 86.9319 30
4 -7 1 839.474 65.2224 29
4 -7 1 734.106 70.6725 16
-4 7 -1 686.719 58.6204 7
-4 7 -2 10851.9 404.014 30
4 -7 2 11364.1 378.216 16
-4 7 -2 10986.6 364.544 7
4 -7 3 5424.72 196.924 16
-4 7 -3 5199.18 186.854 7
-4 7 -3 4925.95 223.94 30
-4 7 -4 548.767 74.7004 30
-4 7 -5 735.123 67.6174 30
-4 7 -5 533.945 54.1236 22
-4 7 -6 105.721 31.6477 30
4 -6 -10 789.881 55.3599 27
4 -6 -9 2428.39 104.745 28
4 -6 -9 2638.97 119.07 27
4 -6 -9 2650.7 109.785 14
4 -6 -8 952.079 68.0933 28
4 -6 -8 991.652 75.3574 27
4 -6 -8 883.353 66.113 14
4 -6 -7 -9.40963 37.6583 28
4 -6 -7 100.541 52.1827 25
4 -6 -7 -14.0034 36.2732 14
4 -6 -7 47.1932 42.1941 13
4 -6 -7 -12.705 49.1248 27
4 -6 -6 1262.66 81.6048 25
4 -6 -6 1227.78 76.1196 14
4 -6 -6 1257.19 81.9292 13
4 -6 -6 1281.05 76.7042 11
4 -6 -5 143.388 36.9799 29
4 -6 -5 210.904 40.1539 11
4 -6 -5 196.815 45.3285 13
4 -6 -4 232.713 41.1935 29
4 -6 -4 183.181 40.4739 16
-4 6 4 246.665 37.0007 7
4 -6 -3 100.359 37.4355 29
4 -6 -3 62.859 40.2358 16
-4 6 3 93.0446 32.4808 7
4 -6 -2 21382.9 664.958 29
4 -6 -2 19870.7 670.256 16
-4 6 2 21807.4 662.279 7
-4 6 2 22040 766.004 1
4 -6 -1 2506.71 117.36 29
4 -6 -1 2442.92 123.496 16
-4 6 1 2348.84 181.129 1
-4 6 1 2685.17 116.235 7
4 -6 0 5591.01 204.268 29
4 -6 0 5176.51 211.254 16
-4 6 0 5266.67 288.869 1
-4 6 -1 527.025 84.4104 30
4 -6 1 631.606 59.2017 29
4 -6 1 634.056 66.8025 16
-4 6 -1 696.759 109.362 1
-4 6 -1 632.687 58.1968 7
-4 6 -2 2820.54 161.594 30
4 -6 2 2780.48 132.048 16
-4 6 -2 2603.11 118.941 7
4 -6 2 2482.64 180.072 3
4 -6 3 14633.4 466.377 16
-4 6 -3 13833.5 500.928 30
-4 6 -3 13840.4 450.945 7
4 -6 4 3036.1 133.288 16
-4 6 -4 3184.73 121.328 7
-4 6 -4 3429.44 176.823 30
-4 6 -5 977.891 93.6119 30
-4 6 -5 803.322 82.9214 22
-4 6 -6 48.9999 45.6109 22
-4 6 -7 690 48.529 30
-4 6 -7 412.701 44.7258 22
4 -5 -10 123.476 31.4759 14
4 -5 -9 2076.95 102.716 27
4 -5 -9 1852.14 83.9296 23
4 -5 -9 1862.68 94.0999 14
4 -5 -9 1906.85 89.8187 28
4 -5 -8 998.577 78.78 27
4 -5 -8 1016.83 63.3772 23
4 -5 -8 932.345 70.7944 14
4 -5 -8 1001.32 70.8124 28
4 -5 -7 86.6489 41.9836 28
4 -5 -7 26.2387 46.8766 27
4 -5 -7 139.036 53.6352 25
4 -5 -7 72.626 32.3135 23
4 -5 -7 24.5875 36.9381 14
4 -5 -7 30.8965 42.88 13
4 -5 -6 816.881 65.1078 11
4 -5 -6 846.917 70.943 28
4 -5 -6 778.597 72.4288 27
4 -5 -6 770.129 72.9198 25
4 -5 -6 845.623 57.7743 23
4 -5 -6 663.035 66.3139 13
4 -5 -5 36.8958 33.6373 11
4 -5 -5 67.6747 45.2599 25
4 -5 -5 62.2215 40.8524 13
4 -5 -4 3049.36 126.991 20
-4 5 4 2660.1 181.143 1
4 -5 -4 2803.31 121.175 29
4 -5 -4 3058.14 127.97 25
4 -5 -4 3013.63 124.375 11
4 -5 -3 134.818 33.3289 20
4 -5 -3 195.401 33.9852 11
-4 5 3 97.0661 58.4716 1
4 -5 -3 139.599 35.2967 29
4 -5 -3 102.402 34.8721 16
4 -5 -2 2815.05 121.697 29
4 -5 -2 2849.38 126.579 16
-4 5 2 3077.71 188.863 1
4 -5 -2 2887.82 113.832 11
4 -5 -2 2756.23 169.082 12
4 -5 -1 13151.4 427.796 29
4 -5 -1 12968.7 435.261 16
-4 5 1 14379.2 529.243 1
4 -5 0 90.8869 35.3837 29
-4 5 0 110.997 70.7402 1
-4 5 -1 11320.6 409.956 30
4 -5 1 11177.1 389.12 16
4 -5 1 11705.2 382.257 29
-4 5 -1 11883.1 487.03 1
4 -5 1 11596.3 450.682 3
-4 5 -1 11572.7 376.051 7
4 -5 2 276.549 67.7486 3
-4 5 -2 203.378 72.6285 30
4 -5 2 237.724 43.408 29
4 -5 2 211.082 48.1304 16
-4 5 -2 233.647 82.6797 1
-4 5 -2 243.949 42.6722 7
4 -5 3 405.489 82.2419 3
-4 5 -3 334.228 82.4103 30
4 -5 3 427.644 55.7355 16
-4 5 -3 428.068 46.1501 7
-4 5 -3 324.032 69.2558 22
-4 5 -4 6131.23 270.84 30
4 -5 4 6838.94 231.881 16
-4 5 -4 6028.88 212.592 7
-4 5 -5 719.758 98.4232 30
-4 5 -5 662.254 88.5037 22
-4 5 -6 98.3444 65.1824 22
-4 5 -7 35.5294 48.3366 30
-4 5 -7 38.0992 51.4653 22
-4 5 -8 34.3588 25.3717 30
4 -4 -10 85.2032 22.1652 23
4 -4 -10 91.1901 31.9296 14
4 -4 -9 160.784 37.9754 28
4 -4 -9 224.511 49.7287 27
4 -4 -9 164.915 31.7545 23
4 -4 -8 1130.76 76.3689 28
4 -4 -8 1054.21 81.7498 27
4 -4 -8 1050.54 64.4329 23
4 -4 -7 515.926 60.8938 28
4 -4 -7 483.658 63.0536 27
4 -4 -7 574.469 69.9257 25
4 -4 -7 517.707 59.1294 14
4 -4 -7 515.672 48.6146 23
4 -4 -7 534.557 61.6001 13
4 -4 -7 552.002 61.1627 11
4 -4 -6 986.139 73.9469 11
4 -4 -6 970.099 74.0434 28
4 -4 -6 1091.97 80.8571 27
4 -4 -6 862.089 79.2778 25
4 -4 -6 993.774 60.9889 23
4 -4 -5 7164.61 248.557 11
4 -4 -5 6523.1 247.561 27
-4 4 5 6745.04 315.578 1
4 -4 -5 6901.94 249.539 25
4 -4 -5 7030.61 233.494 23
4 -4 -5 6731.33 247.872 13
4 -4 -4 3612.24 144.542 20
4 -4 -4 3540.64 142.117 26
-4 4 4 3580.93 205.264 1
4 -4 -4 3297.56 143.253 25
4 -4 -4 3331.56 128.955 23
4 -4 -4 3702.07 143.834 11
4 -4 -3 1112.95 68.017 20
4 -4 -3 1106.48 65.9186 11
4 -4 -3 1177.56 118.971 10
-4 4 3 962.831 109.353 1
4 -4 -3 1280.49 72.9499 25
4 -4 -3 1142.96 118.965 12
-4 4 2 13525.9 509.301 1
4 -4 -2 13053.1 418.146 11
4 -4 -2 13126.8 501.024 10
4 -4 -2 13514.7 508.544 12
-4 4 1 18.6898 53.5051 1
4 -4 -1 20.8126 49.7072 4
4 -4 -1 48.3345 47.6629 10
4 -4 -1 16.6986 27.0672 6
4 -4 -1 28.4541 49.6971 12
4 -4 0 4638.81 163.278 6
4 -4 0 4798.25 223.874 4
-4 4 0 4785.02 250.824 1
4 -4 1 2755.11 118.226 29
4 -4 1 2692.24 125.696 16
4 -4 1 2788.23 157.311 3
-4 4 -1 2874.72 191.003 1
4 -4 2 2025.18 98.5224 29
-4 4 -2 2200.95 132.239 30
4 -4 2 2035.97 105.481 16
-4 4 -2 2041.59 165.521 1
-4 4 -2 2037.47 94.6765 7
4 -4 2 2161.42 141.183 3
4 -4 3 57.0308 53.0288 3
-4 4 -3 95.5499 69.5777 30
4 -4 3 78.0835 40.8096 16
-4 4 -3 28.698 58.1781 22
-4 4 -3 131.052 34.1206 7
-4 4 -4 94.6392 76.4414 30
4 -4 4 160.948 43.8632 16
-4 4 -4 99.9569 70.9211 22
-4 4 -4 124.205 31.2696 7
-4 4 -5 2325.55 105.18 15
-4 4 -5 2214.65 144.699 22
-4 4 -6 72.4525 74.7977 30
-4 4 -6 82.7438 33.6694 15
-4 4 -6 62.6859 71.9651 22
-4 4 -7 668.137 49.9045 15
-4 4 -7 593.874 82.6846 22
-4 4 -7 703.631 80.3397 30
-4 4 -8 1288.9 79.0955 30
-4 4 -8 1264.32 91.076 22
-4 4 -9 251.279 37.9486 22
4 -3 -10 110.531 19.8909 23
4 -3 -9 212.858 31.7491 23
4 -3 -9 159.019 39.0914 28
4 -3 -9 218.893 43.4097 14
4 -3 -8 149.449 44.2667 28
4 -3 -8 263.139 56.2729 27
4 -3 -8 188.025 34.5388 23
4 -3 -8 181.945 46.8018 14
4 -3 -7 2838.55 132.686 28
4 -3 -7 2756.46 135.93 27
4 -3 -7 2708.84 134.465 25
4 -3 -7 2772.77 115.267 23
4 -3 -7 2516.68 128.48 14
4 -3 -7 2981.87 134.075 13
4 -3 -6 11131.1 371.587 11
4 -3 -6 11050.9 372.134 28
4 -3 -6 10919.9 375.282 27
4 -3 -6 10572.4 352.312 23
4 -3 -6 11214.4 370.383 13
4 -3 -5 11479.2 383.346 11
4 -3 -5 11391.6 384.537 20
4 -3 -5 11774.2 385.251 28
4 -3 -5 11843 386.076 27
4 -3 -5 11285 383.305 25
4 -3 -5 11258.2 364.735 23
-4 3 5 11232.8 462.041 1
4 -3 -5 11537 383.447 13
-4 3 4 198.303 63.7441 1
4 -3 -4 174.967 40.4544 11
4 -3 -4 151.549 40.4632 20
4 -3 -4 106.878 37.5538 27
4 -3 -4 145.296 36.2694 26
4 -3 -4 265.91 48.1793 25
4 -3 -3 2847.92 121.703 11
4 -3 -3 3187.49 196.825 10
-4 3 3 3175.46 185.203 1
4 -3 -3 2965.9 192.535 12
4 -3 -2 1299.66 119.421 10
-4 3 2 1139.39 112.844 1
4 -3 -2 1226.81 123.251 12
4 -3 -2 1258.48 66.5917 6
4 -3 -1 12136.3 388.689 6
4 -3 -1 12453 469.799 10
-4 3 1 12028.1 471.854 1
4 -3 -1 12905.6 469.298 4
-4 3 0 9035.08 367.03 1
4 -3 0 8712.72 282.399 6
4 -3 0 8475.87 350.041 4
-4 3 -1 5860.06 277.388 1
4 -3 1 5744.63 260.567 4
4 -3 2 5542.45 241.898 4
4 -3 2 4741.64 218.299 3
-4 3 -3 2010.36 127.019 30
4 -3 3 2097.65 100.785 16
-4 3 -3 1716.97 132.086 18
-4 3 -3 2029.26 160.566 1
-4 3 -3 1803.11 120.042 22
-4 3 -3 2067.03 89.8146 7
4 -3 3 2049.58 131.349 3
-4 3 -4 1744.46 122.826 30
4 -3 4 1575.29 88.7892 16
-4 3 -4 1545.15 148.897 1
-4 3 -4 1568.71 82.2884 15
-4 3 -4 1655.46 76.7077 7
-4 3 -4 1407.11 111.956 22
4 -3 4 1624.03 124.516 3
-4 3 -5 7160.25 250.042 15
-4 3 -5 6920.45 292.266 22
-4 3 -6 375.635 82.5329 30
-4 3 -6 357.748 48.7571 15
-4 3 -6 491.948 88.8941 22
-4 3 -7 300.63 75.2792 30
-4 3 -7 325.172 46.8469 15
-4 3 -7 340.431 81.8799 22
-4 3 -8 814.818 74.6275 30
-4 3 -8 685.21 52.2304 15
-4 3 -8 678.38 86.8674 22
-4 3 -9 170.058 34.0348 30
4 -2 -9 1538.19 84.1391 28
4 -2 -9 1715.49 73.2427 23
4 -2 -9 1700.2 83.2327 14
4 -2 -8 201.156 46.7545 28
4 -2 -8 233.093 34.4964 23
4 -2 -8 171.353 45.3495 14
4 -2 -7 128.063 48.7492 28
4 -2 -7 54.4721 30.8325 23
4 -2 -7 95.9456 43.9948 14
4 -2 -7 97.8353 56.8678 27
-4 2 6 1083.79 125.666 1
4 -2 -6 1172.13 81.1814 11
4 -2 -6 1080.08 79.8075 28
4 -2 -6 1171.32 85.289 27
4 -2 -6 1321.05 89.2847 25
4 -2 -6 1045.4 61.8586 23
4 -2 -6 1261.22 79.584 13
-4 2 5 2524.39 176.815 1
4 -2 -5 2566.62 120.185 28
4 -2 -5 2483.96 121.296 27
4 -2 -5 2539.98 119.321 20
4 -2 -5 2502.37 116.517 13
4 -2 -4 6193.18 220.712 11
4 -2 -4 6202.02 221.663 27
4 -2 -4 5761.09 222.006 25
4 -2 -3 1587.37 140.941 10
-4 2 3 1697.75 133.589 1
4 -2 -3 1503.4 80.9287 11
4 -2 -3 1471.22 138.363 12
4 -2 -2 13589.3 431.295 6
4 -2 -2 13449.4 518.849 10
4 -2 -2 14026.8 518.606 4
-4 2 2 13295 505.816 1
4 -2 -2 14209.9 531.26 12
4 -2 -1 105.181 31.5042 6
4 -2 -1 138.605 66.1834 4
-4 2 1 120.049 56.0698 1
-4 2 0 603.871 87.5838 1
4 -2 0 618.968 84.6015 4
4 -2 1 178.291 62.3713 4
4 -2 2 2354.33 151.726 4
4 -2 2 2067.51 110.844 3
-4 2 -2 2203.03 150.926 1
-4 2 -3 2147.17 152.9 18
-4 2 -3 2497.91 170.715 1
4 -2 3 2339.46 126.269 3
-4 2 -4 5742.9 276.858 18
-4 2 -4 5416.09 207.491 15
-4 2 -4 6153.42 299.591 1
-4 2 -4 5990.48 245.557 22
-4 2 -4 5875.1 200.412 7
-4 2 -5 -3.75001 63.5846 30
-4 2 -5 -19.1616 54.852 18
-4 2 -5 3.05667 27.8701 2
-4 2 -5 22.5958 57.7313 1
-4 2 -5 39.0897 35.4388 15
-4 2 -5 27.7604 63.638 22
-4 2 -6 10276 370.081 30
-4 2 -6 9416.05 327.462 15
-4 2 -6 9456.34 372.174 22
-4 2 -7 1275.71 106.188 30
-4 2 -7 980.651 72.7547 15
-4 2 -7 1027.55 115.885 22
-4 2 -8 3610.31 166.551 30
-4 2 -8 3434.76 143.205 15
-4 2 -9 1730.82 90.773 30
-4 2 -9 1888.04 86.4121 15
-4 2 -9 1763.96 118.31 22
-4 2 -10 1336.23 79.2073 22
4 -1 -9 564.664 51.7062 28
4 -1 -9 540.671 36.6411 23
4 -1 -9 598.793 45.0139 14
4 -1 -8 493.84 59.6548 28
4 -1 -8 364.422 37.856 23
4 -1 -8 518.592 51.5982 14
4 -1 -7 40.8573 46.2404 28
4 -1 -7 68.5457 42.4913 14
4 -1 -6 3629.64 150.798 11
-4 1 6 3352.47 231.544 1
4 -1 -6 3329.01 155.036 28
4 -1 -6 3516.85 158.195 27
4 -1 -6 3617.54 147.9 13
4 -1 -5 239.884 45.1548 11
4 -1 -5 259.284 54.7172 27
-4 1 5 188.737 75.5302 1
4 -1 -5 240.645 44.6917 13
4 -1 -4 11584.5 378.116 11
-4 1 4 11062.4 464.509 1
4 -1 -4 11602.5 380.124 28
4 -1 -4 11697.1 381.424 27
4 -1 -4 11237.9 379.264 20
4 -1 -4 11558 379.173 25
4 -1 -4 11063.6 479.725 12
-4 1 3 3042.42 186.631 1
4 -1 -3 3019.39 198.098 12
-4 1 2 1278.96 112.579 1
4 -1 -2 1157.69 65.2927 6
4 -1 -2 1149.55 119.225 10
4 -1 -2 1299.21 119.177 4
4 -1 -1 213.809 35.4954 6
-4 1 1 154.167 56.7115 1
4 -1 -1 175.712 64.6399 4
4 -1 0 4455.41 197.208 5
4 -1 0 4640.75 225.768 4
4 -1 1 15202.7 516.812 5
-4 1 -1 16552.1 566.225 1
4 -1 1 16468.2 568.758 4
-4 1 -2 304.167 65.8556 1
-4 1 -3 242.557 63.4148 1
-4 1 -3 136.364 50.2382 31
-4 1 -4 9196.81 396.235 18
-4 1 -4 10313.8 406.996 1
-4 1 -5 2278.43 99.0484 32
-4 1 -5 2493.83 134.607 30
-4 1 -5 2452.59 171.948 18
-4 1 -5 2521.54 107.454 19
-4 1 -5 2487.93 167.174 1
-4 1 -5 2308.77 107.884 15
-4 1 -5 2415.49 141.5 22
-4 1 -6 68.111 34.552 19
-4 1 -6 116.546 63.8186 30
-4 1 -6 37.2876 60.1541 18
-4 1 -6 61.6449 33.0058 2
-4 1 -6 65.0659 40.076 15
-4 1 -6 50.751 69.0351 22
-4 1 -7 1029.03 66.6236 19
-4 1 -7 1082.61 93.2765 30
-4 1 -7 1043.52 63.8522 2
-4 1 -7 806.851 69.8368 15
-4 1 -8 132.845 58.3453 30
-4 1 -8 207.691 44.9755 15
-4 1 -8 185.424 79.6411 22
-4 1 -9 50.8796 40.8555 30
-4 1 -9 15.3611 34.8905 15
-4 1 -9 15.3595 65.2542 22
-4 1 -10 3048.17 141.701 22
4 0 -9 473.687 45.9033 28
4 0 -8 8.68297 42.7326 28
4 0 -8 1.26873 24.4078 15
4 0 -8 39.0372 30.8887 14
4 0 -7 305.932 56.5366 28
4 0 -7 256.773 38.7361 15
4 0 -7 284.285 43.6671 14
4 0 -6 653.838 57.4069 11
4 0 -6 569.938 66.2507 28
4 0 -6 541.795 51.449 15
-4 0 5 51.4266 67.7753 1
4 0 -5 49.4555 35.7209 11
4 0 -5 50.1106 34.752 13
4 0 -4 2960.47 124.873 11
4 0 -4 2776.16 129.549 28
4 0 -4 3210.77 134.885 27
4 0 -4 2696.74 130.576 26
4 0 -4 2991.3 126.931 20
-4 0 4 3087.46 199.321 1
4 0 -4 2860.28 120.716 13
4 0 -3 2506.44 106.654 11
4 0 -3 2247.27 166.434 10
-4 0 3 2268.07 164.601 1
4 0 -3 2490.43 176.017 12
4 0 -2 203.069 71.3436 5
4 0 -2 227.213 69.764 10
4 0 -2 278.811 76.554 4
-4 0 2 167.161 61.6848 1
4 0 -2 196.55 35.4981 6
4 0 -2 359.134 81.2152 12
4 0 -1 11826.8 445.28 5
4 0 0 213.626 58.3703 5
-4 0 0 290.611 63.8232 1
4 0 1 37944.7 1167.12 5
-4 0 -1 37499.8 1187.69 1
4 0 1 36263.2 1195.8 4
4 0 2 358.441 51.4486 5
-4 0 -2 397.554 68.6327 1
-4 0 -3 9075.92 377.481 31
-4 0 -3 10041 376.711 1
-4 0 -4 1356.68 109.591 31
-4 0 -4 1520.47 133.55 18
-4 0 -4 1473.84 117.638 1
-4 0 -5 1046.68 118.82 18
-4 0 -5 898.05 59.8961 15
-4 0 -5 910.736 98.6781 1
-4 0 -5 789.31 87.1775 22
-4 0 -5 1027.4 80.1414 30
-4 0 -6 8810.27 317.363 30
-4 0 -6 7847.37 382.693 18
-4 0 -6 8904.21 295.875 2
-4 0 -6 8560.23 284.328 32
-4 0 -6 8953.45 297.559 19
-4 0 -6 8334.51 294.026 15
-4 0 -7 4389.56 169.748 19
-4 0 -7 4256.62 185.692 30
-4 0 -7 4376.35 166.125 2
-4 0 -7 4005.24 251.488 18
-4 0 -7 4280.35 260.426 8
-4 0 -7 3985.44 168.133 15
-4 0 -7 4106.47 211 22
-4 0 -8 5664.78 224.584 30
-4 0 -8 5696.38 216.674 15
-4 0 -8 6232.62 262.745 22
-4 0 -8 5550.34 209.575 19
-4 0 -9 3205.97 140.191 15
-4 0 -9 3301.89 176.954 22
-4 0 -9 3250.76 139.214 30
-4 0 -10 2617.14 104.245 24
-4 0 -10 2730.39 137.929 22
-4 0 -11 230.09 38.7715 22
4 1 -8 68.1454 39.7576 28
4 1 -8 52.1089 26.0777 15
4 1 -7 309.669 57.5724 28
4 1 -7 217.115 39.2589 15
4 1 -7 252.859 38.339 14
4 1 -6 877.9 80.9134 28
4 1 -6 1016.92 68.6004 15
4 1 -6 985.88 66.5829 14
4 1 -5 12739.3 414.959 11
4 1 -4 9759.84 324.245 11
4 1 -4 10319.1 337.915 28
4 1 -4 9750.88 326.047 20
4 1 -4 9086.71 336.15 26
4 1 -3 411.77 43.7461 11
4 1 -3 379.772 47.5551 28
4 1 -3 390.052 82.6769 10
4 1 -3 303.507 78.3171 12
4 1 -2 3736.49 209.448 10
4 1 -2 3656.34 217.181 5
4 1 -2 3840.52 218.527 12
4 1 -2 3805.57 141.424 6
4 1 -1 21184.1 736.32 5
-4 -1 1 19478.7 717.873 1
4 1 -1 22000.4 732.981 4
4 1 -1 21438.2 649.207 6
-4 -1 0 11731.7 441.793 1
4 1 0 12012.3 448.909 5
4 1 0 12240.4 454.688 4
4 1 1 31656.2 994.085 5
-4 -1 -1 30064.6 991.479 1
4 1 2 84.5064 46.5006 5
-4 -1 -2 20.5071 47.236 1
-4 -1 -3 5525.49 271.967 31
-4 -1 -3 5597.61 241.746 1
-4 -1 -4 176.163 69.261 31
-4 -1 -4 101.991 43.3696 1
-4 -1 -5 3129.44 187.385 31
-4 -1 -5 3369.22 176.527 1
-4 -1 -5 2891.29 199.593 18
-4 -1 -6 4658.37 165.341 32
-4 -1 -6 4542.81 176.283 19
-4 -1 -6 4430.06 183.038 30
-4 -1 -6 4006.61 250.41 18
-4 -1 -6 4709.22 175.888 2
-4 -1 -6 4479.85 204.492 22
-4 -1 -7 273.031 36.6209 32
-4 -1 -7 320.668 50.8667 19
-4 -1 -7 269.388 56.1687 30
-4 -1 -7 264.738 89.7712 18
-4 -1 -7 346.587 49.2034 2
-4 -1 -7 289.129 41.1797 25
-4 -1 -7 406.364 82.7481 22
-4 -1 -8 1019.82 134.195 18
-4 -1 -8 1080.77 80.3516 30
-4 -1 -8 1119.99 77.126 19
-4 -1 -8 1100.61 74.0072 2
-4 -1 -8 1063.57 135.205 8
-4 -1 -8 1033.72 105.257 22
-4 -1 -9 9454.47 324.008 19
-4 -1 -9 9666.78 326.135 15
-4 -1 -9 9393.61 362.775 22
-4 -1 -10 2089.14 121.796 22
-4 -1 -11 1837.9 77.0138 24
-4 -1 -11 1904.67 90.1125 22
4 2 -8 36.5426 23.7239 15
4 2 -7 866.674 73.6107 28
4 2 -7 824.519 56.6459 15
4 2 -6 79.695 50.5327 28
4 2 -6 71.9767 38.9714 15
4 2 -5 16406.7 545.035 11
4 2 -5 19076.2 566.559 26
4 2 -4 4245.45 159.097 11
4 2 -4 4363.05 177.925 28
4 2 -4 4044.56 178.238 26
4 2 -3 1053.16 60.9533 11
4 2 -3 957.579 70.6828 28
4 2 -3 822.584 74.7049 26
4 2 -3 930.217 60.349 20
4 2 -3 880.134 104.577 12
4 2 -2 4311.56 246.41 5
4 2 -2 4006.08 220.165 10
4 2 -2 4246.81 154.298 11
4 2 -2 4059.08 225.797 12
4 2 -1 926.217 55.2026 6
4 2 -1 999.841 100.522 10
4 2 -1 1006.76 115.555 5
4 2 -1 934.354 97.5173 4
4 2 0 3262.15 189.08 5
-4 -2 0 3045.33 172.877 1
4 2 0 3366.43 184.967 4
-4 -2 -1 74801.7 2336.06 1
4 2 1 74297.4 2351.31 5
4 2 1 81885.3 2358.61 4
-4 -2 -2 712.777 76.0302 1
-4 -2 -3 13258.6 528.486 31
-4 -2 -3 13961 481.55 1
-4 -2 -4 1702.74 154.13 31
-4 -2 -4 1726.16 144.418 18
-4 -2 -4 2034.88 118.573 1
-4 -2 -5 829.183 108.052 31
-4 -2 -5 789.824 110.815 18
-4 -2 -5 920.22 80.9 1
-4 -2 -6 576.785 94.445 31
-4 -2 -6 543.855 46.3723 32
-4 -2 -6 477.386 54.7424 30
-4 -2 -6 577.757 50.4435 15
-4 -2 -6 432.608 70.5062 22
-4 -2 -7 18827.2 596.401 19
-4 -2 -7 19102.8 582.6 32
-4 -2 -7 18094.8 717.077 18
-4 -2 -7 18713.1 594.671 2
-4 -2 -7 19366.6 593.926 30
-4 -2 -7 18890.3 592.048 25
-4 -2 -7 17939.3 588.895 15
-4 -2 -7 17330.9 619.162 22
-4 -2 -8 23487.6 744.825 19
-4 -2 -8 25461.7 745.579 2
-4 -2 -8 21820.3 867.425 18
-4 -2 -8 23867.9 886.713 8
-4 -2 -8 22334.6 725.972 32
-4 -2 -8 23586.4 737.38 25
-4 -2 -8 24873.7 742.688 15
-4 -2 -8 23573.4 775.885 22
-4 -2 -9 738.57 67.8115 19
-4 -2 -9 798.901 59.1359 25
-4 -2 -9 947.146 69.6901 15
-4 -2 -9 948.085 93.0164 22
-4 -2 -10 1043.54 85.7358 22
-4 -2 -11 743.789 53.9163 24
-4 -2 -11 812.915 58.6353 22
4 3 -8 848.931 42.4216 15
4 3 -7 39.3066 29.7183 15
4 3 -6 2722.65 118.075 15
4 3 -6 2501.56 115.951 22
4 3 -5 6498.07 253.399 28
4 3 -5 6630.19 240.547 15
4 3 -4 3028.64 144.068 28
4 3 -4 3004.67 143.126 26
-4 -3 4 2921.6 124.116 21
4 3 -3 2595.86 107.425 11
4 3 -3 2828.53 132.513 28
4 3 -3 2811.09 141.152 26
4 3 -3 2405.32 197.726 5
4 3 -2 4160.17 154.001 11
4 3 -2 4318.63 220.143 10
4 3 -2 3987.39 249.451 5
4 3 -2 4402.75 170.267 28
4 3 -2 4157.53 180.91 26
4 3 -2 4444.61 225.1 12
4 3 -1 4225.52 151.155 6
4 3 -1 4466.51 218.175 10
4 3 -1 3892.65 238.066 5
4 3 -1 4257.43 222.589 12
4 3 0 1811.42 148.233 5
4 3 0 1851.78 80.3577 6
4 3 0 1725.62 128.715 4
-4 -3 -1 16444.5 591.972 1
4 3 1 17050.7 622.078 5
4 3 1 18130.9 611.793 4
-4 -3 -2 22651.6 745.535 1
-4 -3 -3 4381.92 193.428 1
-4 -3 -4 2257.64 122.85 1
-4 -3 -4 2459.17 185.867 31
-4 -3 -4 2677.72 173.655 18
-4 -3 -5 3618.94 228.997 31
-4 -3 -5 3953.76 227.965 18
-4 -3 -6 760.334 115.018 31
-4 -3 -6 920.971 66.637 19
-4 -3 -6 928.659 57.4893 32
-4 -3 -6 867.184 79.0269 22
-4 -3 -7 971.297 128.717 18
-4 -3 -7 1113.15 75.5494 2
-4 -3 -7 1036.03 73.585 19
-4 -3 -7 1056.73 64.3636 32
-4 -3 -7 852.089 84.6059 22
-4 -3 -8 48793.9 1465.94 32
-4 -3 -8 49294.1 1478.71 2
-4 -3 -8 47629.5 1626.65 8
-4 -3 -8 49492.2 1478.37 25
-4 -3 -8 47422.2 1496.44 22
-4 -3 -9 2967.44 135.734 2
-4 -3 -9 2938.42 138.745 19
-4 -3 -9 3133.63 133.76 25
-4 -3 -9 2991.06 150.119 22
-4 -3 -10 59.5654 33.8187 25
-4 -3 -10 69.6656 45.3746 22
-4 -3 -11 19.5132 29.8866 9
-4 -3 -12 2171.39 87.1699 24
4 4 -7 887.435 49.0175 15
4 4 -6 2433.32 105.685 15
4 4 -6 2439.01 109.13 22
4 4 -5 446.218 65.5927 28
4 4 -4 5154.52 209.916 28
-4 -4 4 4981.61 186.722 21
4 4 -3 -18.8513 68.302 5
4 4 -3 98.739 54.0001 28
4 4 -3 2.9275 49.6481 26
-4 -4 3 41.3173 35.6199 21
4 4 -2 1161.81 82.7955 28
4 4 -2 948.667 131.655 5
4 4 -2 1071.13 87.9506 26
-4 -4 2 1074.94 68.1975 21
4 4 -1 -8.34342 37.8307 28
4 4 -1 90.6792 78.2098 5
4 4 -1 79.4176 49.4412 26
4 4 0 13154.3 403.809 6
4 4 0 13298 476.141 10
4 4 0 12064.6 433.599 26
4 4 0 13145.1 471.761 4
4 4 1 3454.33 217.419 5
-4 -4 -1 3984.62 195.626 1
4 4 1 3718.01 191.533 4
-4 -4 -2 1282.27 97.3466 1
4 4 2 1485.62 116.525 4
-4 -4 -3 21576.5 708.49 1
-4 -4 -3 22614.4 808.966 31
-4 -4 -4 17355.8 632.629 18
-4 -4 -5 8821.03 409.703 31
-4 -4 -5 8709.91 383.847 18
-4 -4 -6 2089.99 182.79 31
-4 -4 -6 2342.83 102.545 32
-4 -4 -6 2322.87 179.445 18
-4 -4 -6 2293.55 110.152 19
-4 -4 -6 2322.04 113.098 22
-4 -4 -7 1536.38 89.9486 19
-4 -4 -7 1334.34 148.887 18
-4 -4 -7 1585.48 89.7764 2
-4 -4 -7 1529.16 82.8141 32
-4 -4 -7 1503.82 92.5874 22
-4 -4 -8 10802.8 364.369 19
-4 -4 -8 10202.9 477.049 18
-4 -4 -8 10605.3 487.098 8
-4 -4 -8 10670.1 354.016 32
-4 -4 -8 10768.9 365.189 25
-4 -4 -8 10528.3 367.064 22
-4 -4 -9 9689.34 337.748 32
-4 -4 -9 10252.8 353.637 19
-4 -4 -9 10776.2 353.662 25
-4 -4 -9 10715.2 357.206 22
-4 -4 -10 513.25 53.9017 25
-4 -4 -10 603.988 55.176 22
-4 -4 -11 849.508 60.7983 9
-4 -4 -11 860.066 55.5954 25
-4 -4 -12 1538.06 73.4491 24
4 5 -6 467.544 38.1772 15
4 5 -6 291.471 38.6825 22
4 5 -5 818.397 58.677 15
4 5 -4 3290.08 139.046 15
-4 -5 4 3242.03 131.27 21
4 5 -3 1574.51 105.215 28
-4 -5 3 1676.96 89.512 21
-4 -5 2 286.299 45.8288 21
4 5 -2 245.765 88.8554 5
4 5 -2 294.114 61.0188 28
4 5 -2 374.419 68.0109 26
4 5 -1 1286.34 148.723 5
4 5 -1 1393.15 89.1324 28
4 5 -1 1513.98 101.438 26
-4 -5 1 1399.48 81.6096 21
4 5 0 64.7271 38.7479 28
4 5 0 59.2478 76.3116 5
4 5 0 61.017 50.5638 26
-4 -5 0 53.8057 31.5741 21
4 5 1 1187.92 84.6174 26
-4 -5 -1 1055.29 101.058 1
-4 -5 -2 1294.41 153.317 31
4 5 2 1366.57 86.8327 26
4 5 2 1275.99 105.236 4
-4 -5 -3 3076.05 224.648 31
-4 -5 -3 3008.54 178.004 18
4 5 3 3477.96 182.574 4
-4 -5 -4 934.979 59.6704 32
-4 -5 -4 828.108 100.254 18
-4 -5 -4 821.42 125.452 31
-4 -5 -5 6575.21 356.982 31
-4 -5 -5 7167.1 247.436 19
-4 -5 -5 6534.33 322.171 18
-4 -5 -5 7487.69 248.378 32
-4 -5 -6 5145.13 192.866 19
-4 -5 -6 4743.52 294.566 31
-4 -5 -6 4829.28 271.344 18
-4 -5 -6 5302.94 191.51 2
-4 -5 -7 29228.4 931.851 32
-4 -5 -7 29720.1 936.996 19
-4 -5 -7 28090.1 1053.7 18
-4 -5 -7 30224.4 935.039 2
-4 -5 -7 28230.9 1056.18 8
-4 -5 -8 1218.33 76.0445 32
-4 -5 -8 1311.26 81.6153 2
-4 -5 -8 1018.49 136.418 18
-4 -5 -8 1157.02 144.998 8
-4 -5 -8 1189.23 81.2419 19
-4 -5 -8 1444.84 81.0003 22
-4 -5 -9 701.526 66.6124 19
-4 -5 -9 781.217 65.4196 2
-4 -5 -9 793.76 69.1093 25
-4 -5 -9 797.182 59.5157 22
-4 -5 -9 660.531 58.0407 32
-4 -5 -10 362.168 51.0382 25
-4 -5 -11 135.294 36.1849 25
-4 -5 -12 17.2784 22.1282 25
-4 -5 -12 19.4113 30.1032 24
4 6 -6 47.6129 16.451 15
4 6 -5 502.781 60.6288 30
4 6 -5 602.839 43.8068 15
4 6 -5 557.91 49.2561 22
-4 -6 4 76.6536 29.0175 21
4 6 -4 109.357 36.4417 15
-4 -6 3 158.628 37.9166 21
-4 -6 2 85.7205 40.0217 21
4 6 -1 388.239 98.9612 5
-4 -6 1 613.14 57.0747 21
4 6 0 9344.1 444.594 5
4 6 0 10107 355.733 26
-4 -6 0 9716.52 331.689 21
-4 -6 -1 1734.87 175.427 31
4 6 1 1868.04 174.282 5
4 6 1 1974.15 114.761 26
-4 -6 -1 1890.53 96.2013 21
4 6 2 48.021 44.9527 26
-4 -6 -2 83.2241 82.7153 31
-4 -6 -2 25.481 33.5787 21
-4 -6 -3 -3.27517 30.8587 32
-4 -6 -3 120.898 85.1083 31
4 6 3 11.9973 43.7559 26
-4 -6 -3 28.4519 28.8719 21
-4 -6 -4 8562.06 415.032 31
-4 -6 -4 8752.33 290.091 32
-4 -6 -4 8480.58 283.999 21
-4 -6 -5 125.012 37.7836 32
-4 -6 -5 69.5017 78.56 31
-4 -6 -5 107.476 31.4883 2
-4 -6 -6 12.1534 36.4472 32
-4 -6 -6 31.1939 80.5421 31
-4 -6 -6 1.85805 30.0336 19
-4 -6 -6 7.324 54.9303 18
-4 -6 -6 21.6196 31.5942 2
-4 -6 -7 77.887 38.6672 19
-4 -6 -7 48.8483 61.0907 18
-4 -6 -7 61.769 35.9045 2
-4 -6 -7 24.8702 62.892 8
-4 -6 -7 67.6647 45.3075 25
-4 -6 -7 82.9976 37.8206 32
-4 -6 -8 749.436 62.1102 19
-4 -6 -8 774.279 63.4506 2
-4 -6 -8 769.266 63.5688 32
-4 -6 -8 667.176 68.1566 25
-4 -6 -9 45.2616 38.0135 32
-4 -6 -9 11.1061 37.0936 19
-4 -6 -10 357.542 56.0661 25
-4 -6 -11 310.737 33.7561 29
-4 -6 -11 311.926 40.8674 9
-4 -6 -11 393.21 45.6295 25
-4 -6 -12 45.4648 25.8215 25
-4 -6 -12 14.5408 28.6344 24
4 7 -5 257.958 28.5804 22
4 7 -4 326.381 33.4536 15
4 7 -4 268.553 41.0551 22
4 7 -3 359.528 41.8358 15
-4 -7 3 326.809 39.4277 21
-4 -7 2 474.717 51.2363 21
-4 -7 1 510.543 56.7107 21
-4 -7 0 12423.6 411.094 21
-4 -7 -1 83.1261 39.7395 21
4 7 1 94.0809 77.3348 5
-4 -7 -2 682.946 117.302 31
-4 -7 -2 866.7 64.2556 21
-4 -7 -3 509.095 111.824 31
-4 -7 -3 589.973 53.4855 21
-4 -7 -4 11194.8 375.24 32
-4 -7 -4 11857.2 372.204 21
-4 -7 -5 5256.89 195.644 32
-4 -7 -5 4678.8 301.529 31
-4 -7 -6 399.114 53.236 32
-4 -7 -6 406.492 54.7654 25
-4 -7 -7 31.9594 29.1232 2
-4 -7 -7 36.4188 41.7118 25
-4 -7 -8 -6.67779 39.4274 32
-4 -7 -8 11.5122 34.4563 19
-4 -7 -8 -2.47019 42.1558 25
-4 -7 -9 1801.02 101.614 25
-4 -7 -10 384.235 43.7414 29
-4 -7 -10 387.066 53.392 25
-4 -7 -11 1373.29 68.562 29
-4 -7 -11 1550.19 77.8394 24
-4 -7 -12 180.896 29.1883 25
-4 -7 -12 183.359 29.5682 24
4 8 -3 343.23 29.6519 15
-4 -8 3 381.021 31.5319 21
-4 -8 2 61.3355 31.4095 21
4 8 -2 36.9245 26.013 15
4 8 -1 2490.13 108.384 15
-4 -8 1 2857.36 118.726 21
-4 -8 0 273.41 47.3195 21
-4 -8 -1 2606.88 120.695 21
-4 -8 -2 137.031 39.5815 21
-4 -8 -2 169.783 38.8298 16
-4 -8 -3 200.682 40.9826 21
-4 -8 -4 10439.3 349.221 29
-4 -8 -4 10907.9 352.108 21
-4 -8 -5 870.783 64.3175 29
-4 -8 -6 4.14553 36.6415 29
-4 -8 -6 6.25814 36.1312 25
-4 -8 -7 370.152 50.4422 25
-4 -8 -8 771.383 62.6689 29
-4 -8 -8 681.335 63.0052 25
-4 -8 -9 2025.74 100.643 29
-4 -8 -9 2014.28 102.098 25
-4 -8 -10 68.3099 32.0277 29
-4 -8 -10 41.3022 24.0793 16
-4 -8 -10 55.8299 38.7113 25
-4 -8 -10 47.2138 29.957 24
-4 -8 -11 2359.94 94.4738 29
-4 -8 -11 2442.1 102.937 25
-4 -8 -11 2314.42 94.2787 24
-4 -9 2 17.7126 20.7768 21
4 9 -2 28.7569 26.7503 22
-4 -9 1 293.179 38.3045 21
-4 -9 0 4075.61 155.666 21
-4 -9 -1 520.927 52.6896 21
-4 -9 -2 5.76021 32.1302 21
-4 -9 -2 15.0949 27.6882 16
-4 -9 -3 4005.95 159.458 16
-4 -9 -3 4207.55 160.865 21
-4 -9 -4 113.778 33.8153 21
-4 -9 -4 98.0728 39.0235 16
-4 -9 -5 796.932 59.434 29
-4 -9 -5 954.454 56.6655 21
-4 -9 -6 540.013 53.2392 29
-4 -9 -7 31.7421 35.4886 29
-4 -9 -7 -14.251 32.2988 25
-4 -9 -8 306.873 47.7219 29
-4 -9 -8 339.714 43.4688 25
-4 -9 -9 259.265 38.4072 16
-4 -9 -9 255.951 40.6335 25
-4 -9 -10 627.538 47.766 29
-4 -9 -10 565.279 40.8883 16
-4 -9 -10 623.737 48.469 25
-4 -9 -11 1009.46 51.8762 29
-4 -9 -11 1053.21 55.8956 25
4 10 -1 95.7219 37.7611 30
-4 -10 0 -2.27344 23.8099 21
-4 -10 -1 259.363 35.914 21
-4 -10 -2 3.08316 30.1494 21
-4 -10 -3 1204.4 65.9042 16
-4 -10 -3 1113.68 65.1407 21
-4 -10 -4 44.991 29.9576 21
-4 -10 -4 10.6017 29.5775 16
-4 -10 -5 2229.35 95.0643 29
-4 -10 -5 2495.03 109.899 16
-4 -10 -5 2190.39 92.8992 21
-4 -10 -6 1954.36 91.3913 29
-4 -10 -6 2113.37 100.062 16
-4 -10 -7 567.393 48.5057 29
-4 -10 -8 25.4736 31.3091 29
-4 -10 -8 49.334 30.2307 16
-4 -10 -9 1221.14 62.9037 16
-4 -10 -9 1237.32 65.0793 29
-4 -10 -9 1088.92 58.2231 25
-4 -10 -10 281.74 26.5566 16
-4 -10 -10 332.385 30.6612 25
-4 -10 -11 1563.18 61.8822 29
-4 -11 -2 600.825 38.2589 21
-4 -11 -3 15.9849 22.2307 21
-4 -11 -4 344.613 35.6725 16
-4 -11 -5 665.51 48.31 16
-4 -11 -6 1942.58 79.4754 29
-4 -11 -6 2088.99 91.1459 16
-4 -11 -7 311.879 32.0487 29
-4 -11 -8 67.484 25.517 29
-4 -11 -8 -1.25088 25.5389 16
-4 -11 -9 444.076 33.4421 29
-4 -11 -9 358.385 31.6606 16
-4 -11 -10 65.2624 18.7852 29
-4 -12 -5 47.6612 17.6896 16
-4 -12 -6 862.147 44.4971 16
5 -10 -6 303.721 29.7546 28
5 -10 -4 5.04134 21.2699 26
5 -10 -4 7.02157 19.7143 16
5 -10 -3 -19.9481 24.3838 26
5 -10 -3 30.8374 24.016 16
5 -10 -2 583.511 41.901 16
5 -10 -2 566.822 43.6579 26
5 -10 -1 1550.41 69.4953 16
5 -9 -7 749.8 46.2202 28
5 -9 -6 101.497 32.6652 28
5 -9 -5 533.679 42.3858 29
5 -9 -4 107.942 32.0027 29
5 -9 -4 96.4103 34.6226 26
5 -9 -4 128.148 32.2538 16
5 -9 -3 43.9813 30.5553 29
5 -9 -3 43.3278 33.1353 16
5 -9 -2 1852.03 88.6849 16
-5 9 2 1724.47 78.6401 7
5 -9 0 12.7334 29.1888 16
5 -9 1 163.227 32.328 16
5 -8 -8 473.763 35.8983 28
5 -8 -7 1955.99 89.7299 28
5 -8 -6 956.9 54.9286 29
5 -8 -6 1194.64 70.5552 28
5 -8 -5 139.932 34.7612 29
5 -8 -5 131.986 36.4558 26
5 -8 -5 196.309 32.5278 13
5 -8 -4 77.5505 34.965 29
5 -8 -4 105.864 38.4376 26
5 -8 -4 45.3849 32.4686 16
-5 8 4 54.8 26.8214 7
5 -8 -3 205.44 42.5067 29
5 -8 -3 153.821 42.5702 16
-5 8 3 171.544 34.4093 7
5 -8 -2 273.867 49.4021 16
-5 8 2 202.59 37.8842 7
5 -8 -1 469.406 52.5896 29
5 -8 -1 573.04 58.8773 16
-5 8 1 594.545 49.847 7
5 -8 0 592.142 59.3519 16
5 -8 1 553.39 51.6706 16
-5 8 -1 439.638 41.244 7
-5 8 -2 3979.67 146.634 30
5 -8 2 3504.95 146.58 16
-5 8 -3 19.5998 29.0781 30
5 -7 -8 40.6144 28.8166 28
5 -7 -8 57.1372 29.39 27
5 -7 -8 40.3316 22.8359 14
5 -7 -7 58.3471 36.5524 28
5 -7 -7 62.9997 26.3382 14
5 -7 -6 1381.49 83.9909 28
5 -7 -6 1424.89 77.9354 13
5 -7 -5 1536.24 81.1091 29
5 -7 -5 1718.05 89.1967 26
5 -7 -5 1694.74 88.0633 13
5 -7 -4 978.619 67.237 29
5 -7 -4 972.103 65.8248 16
5 -7 -4 1052.61 75.3833 26
-5 7 4 1087.38 63.885 7
5 -7 -4 1053.14 67.4048 13
5 -7 -3 987.499 70.3897 29
5 -7 -3 994.737 72.624 16
-5 7 3 1078.83 68.2468 7
5 -7 -2 199.405 45.4976 29
5 -7 -2 210.603 48.5657 16
-5 7 2 182.652 41.5068 7
5 -7 -1 45.0383 39.8968 29
5 -7 -1 -2.58634 41.3088 16
-5 7 1 41.9734 35.8258 7
5 -7 0 3089.63 137.061 29
5 -7 1 6165.78 230.115 16
-5 7 -1 5982.36 232.991 30
-5 7 -1 6157.19 219.72 7
5 -7 2 650.915 60.0876 16
-5 7 -2 610.999 49.8522 7
-5 7 -2 645.079 70.1073 30
-5 7 -3 2506.68 125.907 30
-5 7 -3 2482.97 100.631 7
-5 7 -4 49.0568 40.6492 30
-5 7 -5 345.053 40.0567 30
5 -6 -9 1065.66 52.9784 28
5 -6 -9 1128.7 55.2546 14
5 -6 -8 19.7703 31.9594 28
5 -6 -8 15.8031 32.5809 27
5 -6 -8 7.10271 28.3243 14
5 -6 -7 168.342 43.1613 28
5 -6 -7 154.512 41.0375 27
5 -6 -7 140.646 35.3524 14
5 -6 -7 150.614 40.8625 13
5 -6 -6 1386.3 85.0728 28
5 -6 -6 1258.29 75.6457 14
5 -6 -6 1370.48 83.0188 13
5 -6 -5 4534.24 169.664 11
5 -6 -5 4155.62 162.971 29
5 -6 -5 4396.42 174.242 26
5 -6 -5 4808.93 179.045 13
5 -6 -4 34.929 32.6436 29
5 -6 -4 49.0852 41.9062 26
5 -6 -4 37.013 41.4038 13
-5 6 4 63.1772 32.8595 7
5 -6 -3 1028.07 70.9122 29
5 -6 -3 1009.87 72.9219 16
-5 6 3 1186.96 69.0675 7
5 -6 -2 2862.3 133.906 29
5 -6 -2 2986.5 137.895 16
-5 6 2 3168 130.943 7
5 -6 -1 23.7795 44.5118 16
-5 6 1 23.356 36.3971 7
5 -6 0 2163.64 110.188 29
-5 6 -1 5549.72 234.319 30
5 -6 1 5897.19 230.121 16
-5 6 -1 6061.19 217.753 7
-5 6 -2 2680.92 144.737 30
5 -6 2 2779.02 129.023 16
-5 6 -2 2406.16 112.93 7
-5 6 -3 605.735 79.0137 30
5 -6 3 505.406 59.3027 16
-5 6 -3 481.095 45.6935 7
-5 6 -4 1584.18 96.1925 30
-5 6 -4 -9.06696 11.7658 7
-5 6 -5 254.372 55.8193 30
-5 6 -5 199.981 46.2418 22
-5 6 -6 9.55602 34.2519 30
-5 6 -6 6.10282 26.5671 22
5 -5 -9 437.059 37.0305 28
5 -5 -9 407.263 38.626 14
5 -5 -8 101.539 36.65 28
5 -5 -8 124.111 40.3646 27
5 -5 -8 63.4847 36.0826 14
5 -5 -7 1030.99 73.6624 28
5 -5 -7 912.973 69.3745 27
5 -5 -7 995.937 69.1343 14
5 -5 -6 79.4396 37.5762 11
5 -5 -6 97.4041 46.3697 28
5 -5 -6 53.0064 42.8388 27
5 -5 -6 112.891 46.0704 13
5 -5 -5 2330.68 111.975 11
5 -5 -5 2395.01 114.447 26
5 -5 -5 2335.88 116.865 13
5 -5 -4 542.795 52.7994 11
5 -5 -4 500.635 55.1378 20
5 -5 -4 566.003 48.9553 29
5 -5 -4 581.445 59.6619 26
5 -5 -3 94.7015 34.9879 11
5 -5 -3 49.3837 34.8435 29
5 -5 -3 71.3934 40.771 26
5 -5 -3 66.1428 35.6358 16
-5 5 3 109.266 70.3819 1
5 -5 -3 70.823 36.8889 20
-5 5 2 453.137 91.4194 1
5 -5 -2 505.645 54.269 29
5 -5 -2 493.257 49.7708 20
5 -5 -2 507.651 54.2209 16
5 -5 -2 537.403 47.4473 11
5 -5 -1 278.943 48.4262 29
5 -5 -1 358.199 52.627 16
-5 5 1 308.462 89.8727 1
5 -5 0 1978.58 108.099 16
-5 5 0 2028.62 177.834 1
-5 5 -1 41046.4 1267.47 30
5 -5 1 39727.3 1253.8 16
-5 5 -1 39369.4 1380.36 1
-5 5 -1 42120.7 1242.13 7
-5 5 -2 39251.3 1282.19 30
5 -5 2 43772.2 1267.95 16
-5 5 -2 40587.9 1250.84 7
-5 5 -3 56.5067 65.1313 30
5 -5 3 -2.59077 42.1053 16
-5 5 -3 94.7748 33.604 7
-5 5 -4 2616.57 147.311 30
-5 5 -4 2534.07 105.432 7
-5 5 -4 2497.46 139.934 22
-5 5 -5 322.901 70.9718 30
-5 5 -5 393.19 68.6554 22
-5 5 -6 325.69 61.1611 30
-5 5 -6 269.504 57.3049 22
-5 5 -7 -16.0656 34.4096 30
-5 5 -7 11.9195 34.6356 22
5 -4 -9 552.856 43.8594 28
5 -4 -8 1484.95 83.4594 28
5 -4 -7 11.6212 43.0417 28
5 -4 -7 118.688 46.8655 27
5 -4 -7 47.0382 39.8869 14
5 -4 -7 46.3811 42.1516 13
5 -4 -6 71.3063 40.0724 11
5 -4 -6 68.364 42.4952 28
5 -4 -6 25.725 42.6761 27
5 -4 -6 61.6061 43.3999 13
5 -4 -5 388.446 51.3613 11
5 -4 -5 305.847 49.8191 26
5 -4 -4 974.097 69.6718 11
5 -4 -4 870.972 68.9801 20
5 -4 -4 845.692 68.7426 26
-5 4 4 744.197 108.563 1
5 -4 -3 3001.22 135.64 20
5 -4 -3 3191.12 135.456 11
5 -4 -3 3387.81 219.032 10
-5 4 3 3174.16 212.69 1
5 -4 -3 3072.69 128.57 29
5 -4 -3 3299.74 142.26 26
5 -4 -3 3163.06 214.433 12
5 -4 -2 14298.3 445.913 20
5 -4 -2 13890.5 441.84 11
5 -4 -2 13731.2 542.277 10
-5 4 2 13443 546.665 1
5 -4 -2 13148.3 440.397 29
5 -4 -2 13214.6 442.861 16
5 -4 -2 14645.6 556.652 12
5 -4 -1 -35.1996 60.4584 10
-5 4 1 -15.688 62.0133 1
5 -4 -1 14.2079 35.0851 29
5 -4 -1 41.5441 29.321 6
5 -4 -1 30.999 37.8716 16
5 -4 -1 -7.39 56.0388 12
5 -4 0 26978.1 820.867 6
5 -4 0 25185.9 913.723 10
5 -4 0 27161.2 833.473 29
5 -4 0 27172 838.922 16
5 -4 0 26292.1 914.482 4
5 -4 0 27571.8 932.129 12
-5 4 0 26594.4 947.801 1
-5 4 -1 1595.23 104.019 30
-5 4 -1 1867.06 161.73 1
-5 4 -2 9424.79 357.267 30
5 -4 2 10278.6 343.304 16
-5 4 -2 9296.39 439.496 1
-5 4 -2 9666.33 325.07 7
-5 4 -3 891.035 96.1872 30
5 -4 3 865.038 72.8693 16
-5 4 -3 822.979 60.2593 7
-5 4 -3 686.576 87.7929 22
-5 4 -4 310.44 76.5427 30
-5 4 -4 309.453 38.6475 7
-5 4 -4 259.768 70.8475 22
-5 4 -5 192.297 70.8772 30
-5 4 -5 182.016 73.5417 22
-5 4 -6 331.862 74.9223 22
-5 4 -7 131.715 50.5884 30
-5 4 -7 55.01 51.2543 22
-5 4 -8 618.157 47.1683 30
-5 4 -8 557.273 54.6628 22
5 -3 -9 172.333 33.9347 28
5 -3 -9 207.935 33.1516 14
5 -3 -8 69.8222 39.7411 28
5 -3 -8 70.1771 37.1518 14
5 -3 -7 892.78 70.3848 28
5 -3 -7 768.5 66.0813 14
5 -3 -7 732.342 65.1528 13
5 -3 -6 1354.02 86.4293 11
5 -3 -6 1372.04 89.3353 28
5 -3 -6 1505.64 91.635 27
5 -3 -6 1383.36 88.0235 13
5 -3 -5 598.134 62.9057 11
5 -3 -5 640.912 63.7343 27
5 -3 -5 553.188 62.4943 26
5 -3 -5 617.804 65.6638 13
-5 3 5 659.054 102.839 1
5 -3 -4 278.395 51.0323 20
5 -3 -4 316.849 54.7295 28
5 -3 -4 283.333 49.1303 11
5 -3 -4 317.165 50.9258 26
-5 3 4 169.74 77.6608 1
5 -3 -3 1322.08 82.6397 20
5 -3 -3 1423.99 82.2296 11
5 -3 -3 1205.85 138.27 10
5 -3 -3 1357.17 84.1562 26
-5 3 3 1024.6 123.857 1
5 -3 -3 1408.85 147.296 12
5 -3 -2 7596.68 274.801 20
5 -3 -2 7652.43 367.554 10
5 -3 -2 7715.18 265.7 29
-5 3 2 8602.05 374.268 1
5 -3 -2 8289.53 268.213 16
5 -3 -2 7665.19 279.147 26
5 -3 -2 7339.85 368.733 12
5 -3 -2 8099.89 271.499 6
5 -3 -1 1753.02 85.7436 6
5 -3 -1 1560.74 144.396 10
-5 3 1 1728.83 149.384 1
5 -3 -1 1648.5 84.3042 29
5 -3 -1 1728.9 87.0056 16
5 -3 -1 1545.23 141.249 4
5 -3 -1 1465.02 143.731 12
5 -3 0 6621.29 224.248 6
-5 3 0 6402.34 318.126 1
5 -3 0 6550.01 228.643 29
5 -3 0 6021.95 230.151 16
5 -3 0 6234.84 303.91 4
-5 3 -1 9326.52 425.554 1
5 -3 1 10260.7 330.649 6
-5 3 -1 9829.15 350.947 30
5 -3 1 10138.6 343.487 16
5 -3 1 10466.3 424.287 4
-5 3 -2 5082.06 219.65 30
5 -3 2 5729.64 210.261 16
5 -3 2 5307.22 267.281 4
-5 3 -3 67.6476 60.5031 30
-5 3 -3 -19.9095 52.9912 18
5 -3 3 12.6077 40.4671 16
-5 3 -3 111.405 76.6504 1
-5 3 -3 -3.71346 60.4532 22
-5 3 -4 3120.01 164.095 30
-5 3 -4 2830.15 210.995 1
-5 3 -4 3126.68 124.505 7
-5 3 -4 2926.17 166.269 22
-5 3 -5 1630.16 82.7021 32
-5 3 -5 1773.04 123.921 30
-5 3 -5 1628.02 127.437 22
-5 3 -6 65.345 63.92 30
-5 3 -6 -21.4474 71.1351 22
-5 3 -7 53.2345 52.415 30
-5 3 -7 71.6449 63.5423 22
-5 3 -8 167.107 43.314 30
-5 3 -8 186.803 57.274 22
-5 3 -9 2375.95 86.967 30
-5 3 -9 2158.22 99.8097 22
5 -2 -9 170.285 30.7565 28
5 -2 -9 196.178 29.1957 14
5 -2 -8 898.373 66.7528 28
5 -2 -8 873.743 60.9542 14
5 -2 -7 3245.88 143.108 28
5 -2 -7 3102.42 136.794 14
5 -2 -6 3730.17 160.516 11
5 -2 -6 3874.02 159.234 13
5 -2 -5 695.529 68.0782 20
-5 2 5 679.644 107.605 1
5 -2 -5 676.825 67.5304 28
5 -2 -5 645.088 65.425 27
5 -2 -5 557.538 63.9394 26
5 -2 -5 790.086 66.3561 13
5 -2 -4 325.502 52.271 11
5 -2 -4 347.059 53.4255 28
5 -2 -4 422.383 55.8043 26
-5 2 4 346.15 84.6091 1
5 -2 -3 3393.53 150.975 20
5 -2 -3 3694.44 152.064 11
5 -2 -3 3565.28 232.547 10
5 -2 -3 3703.56 151.262 28
5 -2 -3 3701.84 155.935 26
-5 2 3 3942.58 232.834 1
5 -2 -3 3326.95 230.913 12
5 -2 -2 1232.6 137.086 10
5 -2 -2 1256.16 82.2838 26
-5 2 2 1261.1 130.398 1
5 -2 -2 1392.03 144.88 12
5 -2 -2 1390.89 78.5807 6
5 -2 -1 2616.65 113.788 6
5 -2 -1 2932.18 194.822 10
5 -2 -1 2462.33 117.493 26
-5 2 1 2507.7 175.948 1
5 -2 -1 2675.48 186.791 4
5 -2 0 8470.12 292.428 6
-5 2 0 8575.49 382.141 1
5 -2 0 8922.34 302.984 26
5 -2 0 9000.82 296.325 16
5 -2 0 8408.29 381.387 4
5 -2 1 4602.52 176.853 16
5 -2 1 4455.71 245.201 4
-5 2 -2 171.999 52.8 30
-5 2 -2 156.506 67.6746 1
5 -2 2 191.354 76.9518 4
-5 2 -3 3245.76 206.972 18
-5 2 -3 3643.7 164.701 30
5 -2 3 3198.05 203.169 4
-5 2 -3 3166.12 165.665 22
-5 2 -3 3240.65 210.383 1
-5 2 -4 622.522 78.6554 30
-5 2 -4 341.799 85.4091 18
5 -2 4 559.365 99.9863 4
-5 2 -4 638.182 104.154 1
-5 2 -4 428.893 81.1642 22
-5 2 -5 -8.79272 30.8372 32
-5 2 -5 -12.1996 28.5707 2
-5 2 -5 9.42158 33.7733 19
-5 2 -5 -24.8778 64.2336 1
-5 2 -5 26.3488 66.7799 22
-5 2 -6 1362.06 106.915 30
-5 2 -6 1113.64 113.842 22
-5 2 -6 1330.1 69.9914 32
-5 2 -7 45.7258 55.8594 30
-5 2 -7 -43.0521 69.9179 22
-5 2 -8 85.0792 48.3547 30
-5 2 -8 42.6664 64.9869 22
-5 2 -9 514.971 43.7776 30
-5 2 -10 27.6599 23.5928 22
5 -1 -9 514.577 37.5946 28
5 -1 -8 1063.26 69.6008 28
5 -1 -8 953.238 59.1527 14
5 -1 -7 5751.64 214.997 28
5 -1 -7 5518.65 206.254 14
5 -1 -6 518.933 55.9432 11
5 -1 -6 535.869 54.275 13
5 -1 -5 526.712 58.2951 11
5 -1 -5 572.226 65.5393 28
5 -1 -5 454.102 60.7127 26
5 -1 -5 567.962 58.1393 13
5 -1 -4 9508.42 328.513 20
5 -1 -4 9488.09 327.716 28
5 -1 -4 9339.33 325.469 11
5 -1 -4 8988 332.195 26
5 -1 -4 9937 323.608 13
-5 1 4 9000.12 425.074 1
5 -1 -3 381.529 52.7309 20
5 -1 -3 264.08 45.4156 28
5 -1 -3 332.442 54.387 26
-5 1 3 263.53 83.2785 1
5 -1 -3 225.305 88.2928 12
5 -1 -2 534.326 100.857 10
5 -1 -2 655.277 54.3837 28
-5 1 2 516.88 93.0663 1
5 -1 -2 550.819 59.3414 26
5 -1 -2 652.255 55.6819 6
5 -1 -1 9491.82 325.821 26
5 -1 -1 9978.05 419.518 4
-5 1 1 9388.86 403.354 1
5 -1 -1 9558.86 318.901 6
5 -1 0 17282.7 544.796 6
5 -1 0 17422.9 647.409 4
-5 1 -1 379.334 79.5507 1
5 -1 1 389.882 90.2112 4
-5 1 -2 2171.51 157.773 1
5 -1 2 2400.99 171.642 4
-5 1 -3 1585.26 98.1046 30
5 -1 3 1664.84 86.7336 26
5 -1 3 1855.99 157.494 4
-5 1 -3 1602.41 107.447 22
-5 1 -3 1597.7 136.663 1
-5 1 -4 3092.38 200.872 18
-5 1 -4 2840.66 141.8 30
-5 1 -4 2751.97 191.564 1
-5 1 -4 2649.2 153.132 22
-5 1 -5 2761.23 117.539 32
-5 1 -5 2839.36 146.084 30
-5 1 -5 2434.82 189.095 18
-5 1 -5 2618.39 159.959 22
-5 1 -6 1229.01 71.9206 32
-5 1 -6 1212.39 76.8844 19
-5 1 -6 1350.91 106.219 30
-5 1 -6 1288.24 138.208 18
-5 1 -6 1439.01 78.3998 2
-5 1 -6 1266.54 116.864 22
-5 1 -7 284.563 43.2333 19
-5 1 -7 267.182 64.1863 30
-5 1 -7 249.773 38.6706 2
-5 1 -7 235.788 83.3473 22
-5 1 -8 605.534 47.6974 19
-5 1 -8 652.072 69.1644 30
-5 1 -9 323.529 43.1652 30
-5 1 -10 643.602 55.1359 22
5 0 -8 908.644 62.0289 28
5 0 -8 811.413 46.8027 14
5 0 -7 70.1541 43.531 28
5 0 -7 -13.1616 30.1696 14
5 0 -6 2326.49 109.554 11
5 0 -6 2170.6 99.6436 15
5 0 -6 2379.2 109.737 14
5 0 -5 2739.78 127.422 11
5 0 -5 3057.33 140.054 28
5 0 -5 2804.67 136.105 26
5 0 -5 2771.78 122.63 13
5 0 -4 295.585 50.2503 20
-5 0 4 412.561 96.454 1
5 0 -4 232.636 45.5015 11
5 0 -4 214.394 51.7275 28
5 0 -4 251.56 55.8557 26
5 0 -4 264.466 44.3513 13
5 0 -3 8030.66 288.134 20
-5 0 3 7753.68 379.859 1
5 0 -3 8465.34 390.723 10
5 0 -3 8213.22 289.414 28
5 0 -3 7995.16 297.024 26
5 0 -3 8767.88 287.92 11
5 0 -3 7920.02 389.571 12
5 0 -2 46.9948 35.4344 6
5 0 -2 51.2568 38.2551 28
5 0 -2 55.5482 65.2047 10
5 0 -2 5.03006 43.1188 26
-5 0 2 14.9279 54.7319 1
5 0 -2 60.294 70.7741 12
5 0 -1 108.881 59.1466 5
5 0 -1 120.637 43.915 26
5 0 0 760.505 96.6646 5
-5 0 0 673.643 93.8253 1
5 0 1 3010.41 164.875 5
-5 0 -1 3179.82 190.226 1
5 0 1 2958.92 195.591 4
-5 0 -2 1072.87 111.229 1
5 0 2 1182.46 125.401 4
-5 0 -3 -24.6679 54.2925 1
-5 0 -3 60.9862 43.3773 30
-5 0 -3 13.871 63.4718 31
-5 0 -4 1234.52 120.251 31
-5 0 -4 1225.54 136.517 18
-5 0 -4 1133.42 95.0372 22
-5 0 -4 1371.61 123.923 1
-5 0 -5 169.065 37.2866 32
-5 0 -5 168.929 54.7708 30
-5 0 -5 41.398 72.4215 18
-5 0 -5 117.72 64.912 1
-5 0 -5 146.435 68.6593 22
-5 0 -6 2606.04 111.097 32
-5 0 -6 2486.33 118.782 19
-5 0 -6 2664.36 136.301 30
-5 0 -6 2485.67 196.136 18
-5 0 -6 2394.17 115.882 2
-5 0 -6 2631.95 177.806 1
-5 0 -6 2151.85 148.839 22
-5 0 -7 213.73 36.9688 32
-5 0 -7 250.638 47.9587 19
-5 0 -7 285.922 61.4368 30
-5 0 -7 246.162 42.5014 2
-5 0 -8 141.226 38.693 19
-5 0 -8 115.275 46.9175 30
-5 0 -8 119.074 33.5462 2
-5 0 -9 252.898 43.6131 30
-5 0 -9 281.616 69.7451 22
-5 0 -10 1709.72 95.4737 22
5 1 -7 16.5981 39.4405 28
5 1 -7 32.5488 25.1534 15
5 1 -7 21.5175 25.0859 14
5 1 -6 -8.36832 29.8222 15
5 1 -6 -1.72279 28.6341 14
5 1 -5 1954.74 97.0759 11
5 1 -5 2055.54 112.92 28
5 1 -5 1964.14 108.552 26
5 1 -4 2798.84 126.196 11
-5 -1 4 2715.77 213.411 1
5 1 -4 2961.5 138.115 28
5 1 -4 2897.35 128.113 20
5 1 -4 2731.79 140.999 26
5 1 -3 1553.66 87.8008 20
5 1 -3 1756.22 89.207 11
5 1 -3 1453.39 148.096 10
-5 -1 3 1771.98 163.845 1
5 1 -3 1493.78 91.2662 28
5 1 -3 1381.45 100.951 26
5 1 -3 1454.88 150.767 12
5 1 -2 581.869 55.5285 20
5 1 -2 491.695 100.193 10
5 1 -2 444.249 51.5452 28
5 1 -2 510.41 102.722 5
5 1 -2 384.754 62.909 26
5 1 -2 569.151 53.1874 6
5 1 -2 542.756 97.3456 12
5 1 -1 4506.08 171.544 6
5 1 -1 4687.86 257.344 10
5 1 -1 4606.67 253.195 5
5 1 -1 4252.99 183.448 26
5 1 -1 5034.42 261.224 4
-5 -1 1 4658.6 247.761 1
5 1 0 235.148 40.9883 6
5 1 0 205.517 72.1166 5
-5 -1 0 246.3 71.6247 1
5 1 0 215.376 80.2531 4
5 1 1 11370.8 434.617 5
5 1 1 11292.2 459.173 4
-5 -1 -1 10594.5 433.38 1
5 1 2 462.966 72.4817 5
-5 -1 -2 446.224 77.3716 1
-5 -1 -3 5002.81 284.254 31
-5 -1 -3 5568.37 260.51 1
-5 -1 -4 6793.93 335.799 31
-5 -1 -4 7667.1 261.128 30
-5 -1 -4 6670.48 268.082 22
-5 -1 -4 7418.69 317.603 1
-5 -1 -5 2019.31 108.256 30
-5 -1 -5 1807.17 168.188 18
-5 -1 -5 1967.67 93.0601 32
-5 -1 -5 1862.81 144.767 1
-5 -1 -5 1865.33 153.534 31
-5 -1 -5 2008.16 123.106 22
-5 -1 -6 10045.2 342.535 19
-5 -1 -6 10098.8 347.966 30
-5 -1 -6 10031 330.791 32
-5 -1 -7 67.0266 43.0073 19
-5 -1 -7 18.9433 69.4519 18
-5 -1 -7 40.6781 44.6815 30
-5 -1 -7 25.0427 32.9471 32
-5 -1 -7 27.1883 37.8488 2
-5 -1 -7 61.505 35.5834 25
-5 -1 -7 92.8186 68.8826 22
-5 -1 -8 1330.08 72.2562 32
-5 -1 -8 1388.81 86.0546 19
-5 -1 -8 1349.35 82.6226 2
-5 -1 -8 1590.14 92.7518 30
-5 -1 -8 1398.77 116.829 22
-5 -1 -9 3127.43 136.426 19
-5 -1 -9 3616.31 139.991 30
-5 -1 -9 3222.5 167.635 22
-5 -1 -10 1029.3 77.7746 22
-5 -1 -11 243.717 31.593 22
5 2 -7 287.445 45.3835 28
5 2 -7 174.945 28.1528 15
5 2 -6 2256.9 119.279 28
5 2 -6 2409.11 103.683 15
5 2 -5 1074.9 84.8266 28
5 2 -5 1168.19 78.1538 26
5 2 -5 962.555 62.4231 14
5 2 -4 746.309 56.5133 11
5 2 -4 773.684 75.8147 28
5 2 -4 627.34 70.6912 26
-5 -2 3 167.604 79.5253 1
5 2 -3 177.994 41.5128 20
5 2 -3 255.71 41.9426 11
5 2 -3 198.955 50.1995 28
5 2 -3 243.506 62.5606 26
5 2 -2 3707.04 150.707 20
5 2 -2 3891.44 149.362 11
5 2 -2 3643.79 224.39 10
5 2 -2 3777.61 247.051 5
5 2 -2 3751.41 156.742 28
-5 -2 2 4047.9 242.87 1
5 2 -2 3616.18 171.129 26
5 2 -2 3610.3 231.21 12
5 2 -1 2768.74 113.032 6
5 2 -1 2682.17 186.042 10
-5 -2 1 2306.73 175.709 1
5 2 -1 2684.59 195.651 5
5 2 -1 2446.74 112.446 28
5 2 -1 2400.36 129.672 26
5 2 -1 2599.08 179.46 4
5 2 -1 2792.31 196.715 12
5 2 0 952.86 120.551 5
5 2 0 1034.67 78.7068 26
5 2 0 871.658 113.076 4
5 2 0 1012.8 63.8318 6
-5 -2 0 932.714 107.339 1
5 2 1 2028.47 156.682 5
5 2 1 2163.29 164.911 4
-5 -2 -1 1964.85 145.134 1
5 2 2 9978.43 404.495 5
-5 -2 -2 9844.71 397.045 1
5 2 2 10281.8 424.656 4
-5 -2 -3 52.3916 89.5107 31
-5 -2 -3 156.775 55.1227 1
5 2 3 43.4845 49.061 5
-5 -2 -3 86.335 38.9934 22
-5 -2 -4 34.3331 76.1721 31
-5 -2 -4 -5.15349 43.5069 1
-5 -2 -4 150.616 78.2772 18
-5 -2 -4 18.6662 37.3977 30
-5 -2 -4 28.9378 29.7623 32
-5 -2 -4 33.038 43.7485 22
-5 -2 -5 69.1722 33.4141 32
-5 -2 -5 -25.204 76.3247 18
-5 -2 -5 68.6765 40.5034 30
-5 -2 -5 41.3157 69.7664 31
-5 -2 -6 1913.52 90.7635 32
-5 -2 -6 1788.39 99.1429 30
-5 -2 -6 1639.36 111.988 22
-5 -2 -7 965.064 64.6528 32
-5 -2 -7 1121.36 76.0126 30
-5 -2 -7 987.859 134.005 18
-5 -2 -7 1002.87 74.7906 2
-5 -2 -7 936.985 74.6393 19
-5 -2 -7 904.839 96.7318 22
-5 -2 -8 683.795 63.0372 30
-5 -2 -8 641.808 63.8746 2
-5 -2 -8 619.099 53.1014 32
-5 -2 -8 604.478 56.4217 25
-5 -2 -8 722.493 66.9236 19
-5 -2 -8 692.623 87.1209 22
-5 -2 -9 48.5627 41.8957 19
-5 -2 -9 53.1701 36.3116 2
-5 -2 -9 26.857 29.9285 25
-5 -2 -9 13.1383 55.3379 22
-5 -2 -10 33.9934 44.8646 22
-5 -2 -11 4049.06 150.307 24
-5 -2 -11 4532.07 154.707 22
5 3 -7 177.156 23.7477 15
5 3 -6 835.274 69.4137 28
5 3 -6 927.064 55.9591 15
5 3 -5 438.093 64.1489 28
5 3 -5 330.747 46.5137 15
5 3 -4 57.7349 52.2143 28
5 3 -4 71.0514 48.6517 26
-5 -3 4 92.4695 35.3469 21
5 3 -3 272.543 57.7353 28
5 3 -3 328.076 62.5078 26
5 3 -2 -20.6149 29.5684 11
5 3 -2 -19.6119 75.9557 5
5 3 -2 17.0498 44.9115 28
5 3 -2 48.9788 54.0244 26
5 3 -2 34.2401 54.1377 10
-5 -3 2 26.4628 62.3727 1
5 3 -1 5907.39 217.487 20
5 3 -1 6366.31 301.947 10
5 3 -1 6252.05 331.733 5
5 3 -1 6148.65 224.283 28
-5 -3 1 6218.57 311.645 1
5 3 -1 5954.85 243.767 26
5 3 -1 6025.28 306.94 12
5 3 -1 6230.8 214.63 6
5 3 0 44.6493 29.9675 6
-5 -3 0 41.413 54.0402 1
5 3 0 108.01 74.9069 5
5 3 0 35.4924 48.5122 26
5 3 0 99.8275 60.4682 4
5 3 1 2224.59 171.38 5
5 3 1 2040.32 114.183 26
5 3 1 1985.01 156.4 4
-5 -3 -1 2018.14 146.511 1
5 3 2 5920.04 300.323 5
5 3 2 6058.18 234.894 26
5 3 2 6415.16 303.13 4
-5 -3 -2 6653.76 284.525 1
-5 -3 -3 62.9881 29.4792 32
5 3 3 -6.5916 58.9827 5
-5 -3 -3 76.493 95.6313 31
-5 -3 -3 70.9727 43.2006 1
5 3 3 140.402 72.3819 4
-5 -3 -4 312.602 96.0976 31
-5 -3 -4 469.194 44.5112 32
-5 -3 -4 291.743 87.2349 18
-5 -3 -5 778.033 126.189 31
-5 -3 -5 761.185 119.665 18
-5 -3 -5 867.853 72.0787 22
-5 -3 -6 16311.7 517.851 32
-5 -3 -6 15285.9 640.141 18
-5 -3 -6 16361.8 528.332 19
-5 -3 -6 16734.4 539.083 22
-5 -3 -6 15415 642.424 31
-5 -3 -7 58.5262 74.8343 18
-5 -3 -7 146.783 40.1779 32
-5 -3 -7 114.955 48.9803 19
-5 -3 -7 83.6952 47.1064 2
-5 -3 -7 99.636 53.5746 22
-5 -3 -8 134.864 37.1256 32
-5 -3 -8 173.501 46.3484 2
-5 -3 -8 122.255 40.4705 25
-5 -3 -8 62.9951 56.1395 22
-5 -3 -9 349.765 42.1236 32
-5 -3 -9 321.423 54.4809 19
-5 -3 -9 326.636 49.9795 2
-5 -3 -9 364.68 47.6751 25
-5 -3 -9 323.04 59.8488 22
-5 -3 -10 32.0158 28.6799 25
-5 -3 -10 -4.3109 40.3284 22
-5 -3 -11 1609.91 72.9985 22
5 4 -6 877.038 49.3065 15
5 4 -5 2698.01 114.425 15
5 4 -4 1075.78 84.4308 28
-5 -4 4 1015.75 63.6301 21
5 4 -3 420.122 64.7428 28
5 4 -3 451.642 67.9857 26
-5 -4 3 430.366 49.1936 21
-5 -4 2 884.663 126.725 1
5 4 -2 1016.14 79.3514 28
5 4 -2 837.924 135.149 5
5 4 -2 948.565 90.2297 26
5 4 -1 767.457 68.9206 28
-5 -4 1 676.708 108.6 1
5 4 0 14070.3 441.859 6
5 4 0 13857 531.555 10
-5 -4 0 13833.8 546.262 1
5 4 0 13037.9 572.625 5
5 4 0 14142.4 528.88 4
5 4 0 14102.7 481.03 26
-5 -4 -1 862.229 101.061 1
5 4 1 1161.42 64.7285 6
5 4 1 1193.82 140.872 5
5 4 1 1048.03 86.406 26
5 4 1 1222.67 117.511 4
5 4 2 1552.54 153.895 5
5 4 2 1770.81 106.455 26
-5 -4 -2 1958.42 84.6973 32
5 4 2 2107.07 157.107 4
-5 -4 -2 1649.25 128.12 1
-5 -4 -3 1236.39 67.8918 32
5 4 3 1225.95 81.7049 26
5 4 3 1251.66 128.435 4
-5 -4 -4 54.1561 70.801 18
-5 -4 -4 1.6907 30.5974 32
-5 -4 -4 10.183 86.704 31
-5 -4 -5 7681.78 405.981 31
-5 -4 -5 7513.47 379.18 18
-5 -4 -5 8113 280.943 32
-5 -4 -6 4281.98 286.948 31
-5 -4 -6 4203.59 271.679 18
-5 -4 -6 4532.94 187.941 19
-5 -4 -7 24150.8 752.895 32
-5 -4 -7 23695.5 761.093 19
-5 -4 -7 24020.5 758.772 2
-5 -4 -7 25644.7 768.721 22
-5 -4 -8 38.5668 37.9352 32
-5 -4 -8 62.4326 47.1582 19
-5 -4 -8 68.2294 44.337 25
-5 -4 -8 39.2583 43.9164 22
-5 -4 -9 1514.31 90.5303 19
-5 -4 -9 1384.55 79.9952 32
-5 -4 -9 1487.16 87.263 25
-5 -4 -9 1691.61 93.3429 22
-5 -4 -10 810.721 54.1133 32
-5 -4 -10 1026.88 64.9908 25
-5 -4 -11 1035.64 54.3987 25
5 5 -5 82.7143 29.126 22
5 5 -4 1095.94 69.094 15
-5 -5 4 1169.06 62.3869 21
-5 -5 3 474.549 49.3 21
5 5 -2 703.599 71.5406 28
-5 -5 2 794.01 64.7632 21
5 5 -1 112.482 47.561 28
-5 -5 1 126.745 42.5692 21
-5 -5 0 -37.757 57.882 1
5 5 0 9.90883 56.0058 26
5 5 1 114.025 87.114 5
5 5 1 210.935 61.5925 26
5 5 2 128.499 30.3685 6
5 5 2 154.313 83.1611 5
5 5 2 123.571 53.3869 26
-5 -5 -2 207.446 107.185 31
-5 -5 -3 4350.92 160.377 32
-5 -5 -3 3627.65 273.515 31
-5 -5 -3 3755.9 230.046 18
5 5 3 4327.86 260.828 5
5 5 3 4243.5 178.713 26
5 5 3 4506.47 236.554 4
-5 -5 -4 2003.22 94.8894 32
-5 -5 -4 1883.85 190.85 31
-5 -5 -4 1713.42 153.235 18
5 5 4 2051.53 161.501 4
-5 -5 -5 210.951 43.0506 32
-5 -5 -5 166.311 42.0351 19
-5 -5 -5 127.052 73.3964 18
-5 -5 -6 8725.91 292.599 32
-5 -5 -6 7816.56 420.13 31
-5 -5 -6 7956.06 390.138 18
-5 -5 -6 8485.09 295.756 19
-5 -5 -7 40350.6 1208.14 32
-5 -5 -7 40312.2 1213.03 19
-5 -5 -7 37568.6 1369.13 31
-5 -5 -7 38412.4 1346.75 18
-5 -5 -7 39130.6 1210.84 2
-5 -5 -8 5540.37 208.286 32
-5 -5 -8 5810.15 215.831 19
-5 -5 -8 5708.93 212.723 2
-5 -5 -8 5181.84 215.38 25
-5 -5 -9 772.359 63.6932 2
-5 -5 -9 815.444 69.1694 19
-5 -5 -9 733.289 66.9551 25
-5 -5 -9 777.584 60.5394 32
-5 -5 -10 1062.51 68.7146 25
-5 -5 -10 934.348 58.8408 32
-5 -5 -11 225.42 27.8333 29
-5 -5 -11 291.081 35.9756 25
-5 -5 -12 104.13 26.3901 24
5 6 -5 87.4914 18.6925 15
-5 -6 4 208.642 26.5617 21
5 6 -4 244.888 32.8727 15
5 6 -3 573.879 51.4924 15
-5 -6 3 638.927 48.4049 21
-5 -6 2 38.2377 36.7924 21
-5 -6 1 834.912 64.5568 21
5 6 0 1106.81 96.1698 26
-5 -6 0 1144.69 76.4717 21
-5 -6 -1 1830.04 195.483 31
5 6 1 2210.45 128.315 26
-5 -6 -1 2193.31 106.707 21
-5 -6 -2 -32.7532 88.8656 31
5 6 2 19.7029 80.187 5
5 6 2 -3.03402 49.3949 26
-5 -6 -2 56.5098 38.564 21
-5 -6 -3 6820.8 244.516 32
-5 -6 -3 6752 381.108 31
5 6 3 7143.37 369.95 5
5 6 3 7448.91 270.021 26
-5 -6 -3 7387.17 250.582 21
-5 -6 -4 608.033 123.216 31
5 6 4 521.192 57.2843 26
-5 -6 -4 493.606 49.6282 32
-5 -6 -4 468.547 47.0541 21
-5 -6 -5 10826.3 359.03 32
-5 -6 -5 10444.9 504.122 31
-5 -6 -6 30949.8 950.57 32
-5 -6 -6 30883.7 947.882 19
-5 -6 -6 30822.8 946.738 2
-5 -6 -7 3212.69 136.228 2
-5 -6 -7 3195.02 137.002 19
-5 -6 -8 121.625 42.4845 19
-5 -6 -8 82.7889 37.3883 2
-5 -6 -8 71.5112 44.4021 25
-5 -6 -8 76.0283 42.0031 32
-5 -6 -9 178.215 42.3534 32
-5 -6 -9 124.496 41.7977 19
-5 -6 -9 151.828 39.2461 2
-5 -6 -10 305.93 47.0747 25
-5 -6 -11 829.216 48.0068 29
-5 -6 -11 942.328 56.9663 25
-5 -6 -12 3.99358 18.0374 25
-5 -6 -12 -8.76475 21.5296 24
5 7 -4 1260.85 51.5921 15
5 7 -3 983.079 54.1024 15
-5 -7 3 1090.12 54.5911 21
-5 -7 2 196.075 37.0719 21
5 7 -2 200.099 37.0432 15
-5 -7 1 898.958 62.6667 21
-5 -7 0 49.5255 37.867 21
-5 -7 -1 649.974 61.8403 21
-5 -7 -2 106.336 37.4049 21
5 7 2 76.1761 55.0036 26
5 7 3 2830.93 138.168 26
-5 -7 -3 2522.08 117.307 21
-5 -7 -4 348.22 46.784 32
-5 -7 -4 387.101 45.9735 21
-5 -7 -5 -16.5136 36.7112 32
-5 -7 -6 24265.3 758.136 32
-5 -7 -7 2739.1 125.388 32
-5 -7 -7 2648.49 112.987 2
-5 -7 -7 2728.2 129.93 25
-5 -7 -8 330.57 44.0969 19
-5 -7 -8 407.212 54.4077 25
-5 -7 -8 386.87 42.2822 2
-5 -7 -9 192.505 47.4435 25
-5 -7 -10 155.494 35.5287 29
-5 -7 -10 173.614 42.8859 25
-5 -7 -11 91.9616 24.8925 29
-5 -7 -11 126.018 30.5378 24
-5 -7 -12 177.306 22.8685 25
5 8 -2 1442.81 64.1988 15
-5 -8 2 1712.59 69.4056 21
5 8 -1 2038.14 88.7225 15
-5 -8 1 2236.32 94.5137 21
-5 -8 0 1762.84 87.6869 21
-5 -8 -1 914.505 65.1411 21
-5 -8 -2 964.295 60.8491 16
-5 -8 -2 1087.18 70.6241 21
-5 -8 -3 646.441 55.3525 21
-5 -8 -4 1015.97 64.3443 21
-5 -8 -5 5420.45 189.552 29
-5 -8 -5 4803.68 188.508 25
-5 -8 -6 6182.78 226.114 25
-5 -8 -7 35.7768 37.8075 25
-5 -8 -8 1176.09 76.273 25
-5 -8 -9 700.94 59.3414 25
-5 -8 -10 176.507 34.0349 29
-5 -8 -10 152.177 26.8298 16
-5 -8 -10 145.035 37.0347 25
-5 -8 -11 420.039 33.4975 29
-5 -8 -11 465.346 39.3168 25
-5 -8 -11 383.697 30.0839 24
-5 -9 1 57.0333 20.9167 21
-5 -9 0 26.4948 26.2114 21
-5 -9 -1 40.323 30.9457 21
-5 -9 -2 777.064 55.5056 21
-5 -9 -3 468.721 42.8681 16
-5 -9 -3 451.414 45.539 21
-5 -9 -4 883.827 59.7979 16
-5 -9 -4 905.535 57.2212 21
-5 -9 -5 12559.3 397.057 29
-5 -9 -5 12439.2 393.731 21
-5 -9 -6 107.72 33.1967 29
-5 -9 -7 15.038 30.7015 29
-5 -9 -7 25.0998 29.249 25
-5 -9 -8 373.298 43.0493 29
-5 -9 -8 389.607 42.911 25
-5 -9 -9 2029.76 90.7306 29
-5 -9 -9 2183.29 90.5177 16
-5 -9 -9 1896.71 89.685 25
-5 -9 -10 12.8896 19.3509 16
-5 -9 -10 40.0124 25.8004 25
-5 -9 -11 31.0909 17.2451 29
-5 -9 -11 18.0054 18.4783 25
-5 -10 -1 65.3551 22.7478 21
-5 -10 -2 19.3869 24.7624 21
-5 -10 -3 2187.56 89.9675 21
-5 -10 -4 1181.26 60.488 16
-5 -10 -4 1046.86 56.1003 21
-5 -10 -5 1428.31 72.8786 16
-5 -10 -6 -14.4164 22.1789 29
-5 -10 -6 33.9841 30.5545 16
-5 -10 -7 227.653 31.5103 29
-5 -10 -7 234.295 37.2447 16
-5 -10 -8 30.3051 25.5886 29
-5 -10 -8 34.8751 28.9009 16
-5 -10 -9 266.371 30.9815 29
-5 -10 -9 252.078 29.973 16
-5 -10 -9 242.745 24.2658 25
-5 -10 -10 170.324 22.3931 29
-5 -11 -5 605.306 37.4997 16
-5 -11 -6 2002.61 81.1978 16
-5 -11 -7 22.5609 20.7432 16
-5 -11 -8 63.6528 16.2476 29
6 -9 -4 55.6379 26.1673 28
6 -9 -3 14.8408 25.4241 26
6 -9 -2 53.0452 27.9781 26
6 -9 -1 -3.84999 25.5056 26
6 -8 -7 183.762 24.0284 28
6 -8 -6 561.136 43.45 28
6 -8 -5 59.2541 22.8445 13
6 -8 -4 504.164 46.6445 26
6 -8 -3 113.039 36.9522 26
6 -8 -2 1049.59 68.1286 26
6 -8 -2 885.374 59.7496 16
6 -8 -1 539.085 50.7556 16
6 -8 0 423.57 49.0339 26
6 -8 1 39.8455 30.7677 26
6 -8 2 228.558 30.5288 26
6 -7 -7 219.227 32.1572 28
6 -7 -6 568.982 49.2021 28
6 -7 -6 562.149 44.5239 13
6 -7 -5 6.1942 29.5906 26
6 -7 -5 33.8288 28.5355 13
6 -7 -4 200.481 42.5116 26
6 -7 -4 195.91 35.7976 13
-6 7 4 167.466 29.3685 7
6 -7 -3 258.822 48.1328 26
6 -7 -3 272.633 38.8497 13
-6 7 3 234.29 37.5005 7
6 -7 -2 136.504 47.7801 26
6 -7 -2 108.625 36.2926 16
-6 7 2 100.375 32.7495 7
6 -7 -1 356.168 49.8056 16
-6 7 1 485.949 47.5382 7
6 -7 0 65.5702 40.5932 16
-6 7 -1 910.161 56.6361 7
-6 7 -2 379.165 41.3437 30
6 -7 2 442.941 47.682 26
-6 7 -3 1348.14 66.5814 30
6 -7 3 1337.7 65.4579 26
-6 7 -4 84.2757 24.0511 30
6 -6 -8 1719.85 71.2517 28
6 -6 -7 22.7955 32.2889 28
6 -6 -6 276.314 34.6598 14
6 -6 -6 275.498 40.7147 13
6 -6 -5 949.963 69.5117 28
6 -6 -5 913.893 63.2031 26
6 -6 -5 834.677 54.1911 14
6 -6 -5 860.142 63.5551 13
6 -6 -4 722.577 62.945 26
-6 6 4 607.763 47.9799 7
6 -6 -4 627.241 57.271 13
6 -6 -3 508.078 61.1068 26
-6 6 3 412.956 43.5905 7
6 -6 -2 18.6704 44.532 26
6 -6 -2 15.0563 35.8318 16
-6 6 2 7.80849 31.403 7
6 -6 -1 4337.59 176.418 16
-6 6 1 4363.19 170.014 7
6 -6 0 2549.23 127.732 16
-6 6 -1 219.913 39.5275 7
-6 6 -2 2.26171 41.2418 30
-6 6 -2 13.5765 28.2076 7
-6 6 -3 1985.75 102.763 30
6 -6 3 2048.21 97.7197 26
-6 6 -3 1818.75 83.0186 7
-6 6 -4 22.6516 34.9406 30
6 -6 4 24.9862 26.1042 26
-6 6 -5 2217.32 94.2131 30
6 -5 -8 468.177 39.9085 28
6 -5 -8 481.864 36.3973 14
6 -5 -7 417.815 46.3942 28
6 -5 -7 328.418 37.8847 14
6 -5 -6 2085.88 96.353 14
6 -5 -6 2121.81 97.225 11
6 -5 -5 1044.27 67.7151 11
6 -5 -5 1113.11 77.7157 28
6 -5 -5 1100.42 73.76 26
6 -5 -5 1067.05 74.1075 13
6 -5 -4 5554.28 207.991 11
6 -5 -4 5791.34 218.823 28
6 -5 -4 5940.59 220.421 26
6 -5 -4 5620.76 215.714 13
6 -5 -3 213.028 42.9865 20
6 -5 -3 156.424 36.1929 11
6 -5 -3 184.899 51.7285 26
6 -5 -2 4448.2 166.332 20
6 -5 -2 4267.51 162.616 11
6 -5 -2 4652.2 185.837 26
6 -5 -1 233.307 47.38 16
6 -5 0 459.46 59.573 16
-6 5 -1 182.439 50.1486 30
-6 5 -1 174.574 39.6366 7
-6 5 -2 2359.51 124.775 30
-6 5 -2 2216.98 104.632 7
-6 5 -3 922.619 82.2181 30
-6 5 -3 950.94 59.49 7
-6 5 -4 228.386 53.928 30
6 -5 4 186.133 38.7755 26
-6 5 -4 232.706 33.2769 32
-6 5 -5 1420.8 87.4142 30
-6 5 -6 59.0012 34.1488 30
6 -4 -8 93.8778 29.5393 28
6 -4 -7 14.5152 37.5698 28
6 -4 -7 -23.8825 33.9159 14
6 -4 -6 1249.41 76.0407 11
6 -4 -6 1341.21 79.1308 13
6 -4 -5 -4.38822 36.566 11
6 -4 -5 84.7776 44.8401 28
6 -4 -5 48.8641 41.4751 26
6 -4 -5 47.4302 42.1922 13
6 -4 -4 841.452 71.5267 20
6 -4 -4 881.028 74.548 28
6 -4 -4 1005.1 77.7077 26
6 -4 -4 983.897 70.7794 11
6 -4 -3 1772.05 98.9136 20
6 -4 -3 1953.92 108.111 26
6 -4 -3 1844.33 96.6788 11
6 -4 -2 809.516 67.1407 20
6 -4 -2 858.576 76.6497 26
6 -4 -2 867.59 64.582 11
6 -4 -1 2422.55 114.425 20
6 -4 -1 2416.87 111.512 11
6 -4 0 14681.6 479.364 26
6 -4 0 13598.8 471.547 16
6 -4 0 14459.3 456.75 6
-6 4 -1 11470.2 372.525 30
6 -4 1 9801.44 368.866 16
-6 4 -2 551.181 71.8584 30
-6 4 -2 559.47 54.0454 7
-6 4 -3 3167.12 155.737 30
-6 4 -3 3220.36 132.375 7
-6 4 -4 139.067 60.2805 30
6 -4 4 144.554 42.7081 26
-6 4 -4 79.6371 51.3161 22
-6 4 -4 120.489 27.2104 7
-6 4 -5 2149.94 120.094 30
-6 4 -5 2167.44 117.887 22
-6 4 -5 2172.12 91.4897 32
-6 4 -6 225.82 52.2348 30
-6 4 -6 303.319 51.3794 22
-6 4 -7 271.652 38.8509 22
6 -3 -8 381.055 39.6775 28
6 -3 -8 391.993 36.069 14
6 -3 -7 962.316 65.1697 28
6 -3 -7 812.084 59.9378 14
6 -3 -6 400.626 49.9306 11
6 -3 -6 529.765 55.421 13
6 -3 -5 199.668 43.4548 11
6 -3 -5 115.326 47.7547 28
6 -3 -5 81.6765 44.7036 26
6 -3 -5 131.445 45.7743 13
6 -3 -4 3442.5 154.358 20
6 -3 -4 3564.43 154.995 28
6 -3 -4 3578.38 158.2 26
6 -3 -4 3546.63 151.478 11
6 -3 -4 3346.52 151.205 13
6 -3 -3 481.563 57.4957 11
6 -3 -3 413.352 56.7436 28
6 -3 -3 458.272 60.9533 26
6 -3 -3 403.579 57.0089 20
6 -3 -2 3913 167.986 20
6 -3 -2 4150.3 165.82 11
6 -3 -2 3393.39 243.765 10
-6 3 2 4266.81 258.887 1
6 -3 -2 4057.42 174.997 26
6 -3 -2 3731.69 255.919 12
-6 3 1 3989.52 256.317 1
6 -3 -1 3944.44 256.387 10
6 -3 -1 3971.05 265.661 12
6 -3 -1 4429.11 169.933 6
6 -3 0 8837.95 299.961 6
-6 3 0 7891.2 399.435 1
6 -3 0 8273.03 400.989 10
6 -3 0 9142.26 317.11 26
6 -3 0 8768.9 402.997 4
6 -3 0 8540.7 414.833 12
-6 3 -1 22022.2 686.646 30
6 -3 1 21624.3 672.138 6
6 -3 1 21832.3 690.674 26
6 -3 1 20964.8 783.157 4
6 -3 2 126.803 38.7336 6
-6 3 -2 123.687 55.3577 30
6 -3 2 177.647 50.2047 26
-6 3 -2 201.346 82.6058 1
-6 3 -3 1449.55 103.971 30
6 -3 3 1476.91 91.634 26
-6 3 -3 1242.86 95.1149 22
-6 3 -4 3108.78 160.764 30
6 -3 4 3516.45 145.4 26
-6 3 -4 3178.07 128.208 7
-6 3 -4 2998 157.514 22
-6 3 -5 391.332 44.6569 32
-6 3 -5 400.142 71.646 30
-6 3 -5 392.979 71.9846 22
-6 3 -6 989.043 54.0657 32
-6 3 -6 961.167 87.9813 22
-6 3 -7 4355.23 171.921 30
-6 3 -7 4404.45 180.411 22
-6 3 -8 194.508 33.3797 30
-6 3 -8 144.34 36.7611 22
6 -2 -8 97.3434 29.736 28
6 -2 -8 77.4863 23.959 14
6 -2 -7 36.338 32.6832 14
6 -2 -6 43.9802 34.2554 11
6 -2 -6 -2.2491 43.6278 28
6 -2 -6 -1.87517 34.0666 13
6 -2 -5 1119.16 79.1524 28
6 -2 -5 930.675 76.6597 26
6 -2 -5 1002.46 71.8077 13
6 -2 -4 14.6272 39.5964 11
6 -2 -4 12.5521 44.4711 28
6 -2 -4 31.5598 45.2543 26
6 -2 -4 30.2686 41.5737 13
6 -2 -3 2622.52 125.097 11
6 -2 -3 2479.71 123.124 28
6 -2 -3 2594.21 132.352 26
6 -2 -2 110.573 43.271 11
6 -2 -2 115.111 80.2838 10
6 -2 -2 85.2686 42.6235 28
6 -2 -2 34.0021 48.815 26
6 -2 -2 76.7196 45.4362 20
-6 2 2 62.9411 63.6141 1
6 -2 -2 -10.1286 70.7497 12
6 -2 -1 20428.3 642.569 6
6 -2 -1 21742.1 784.005 10
6 -2 -1 19993.4 639.511 28
-6 2 1 20571.3 768.089 1
6 -2 -1 19200.2 761.277 4
6 -2 -1 20608 790.535 12
6 -2 0 1443.57 84.7736 6
6 -2 0 1326.55 90.4003 26
6 -2 0 1373.9 152.894 4
-6 2 -1 12951.1 411.983 30
6 -2 1 12401.6 412.879 26
6 -2 1 11785.3 400.305 6
6 -2 1 11850.3 509.992 4
-6 2 -2 1604.42 99.1172 30
6 -2 2 1694.81 98.6482 26
6 -2 2 1642.49 158.804 4
-6 2 -2 1260.85 142.398 1
-6 2 -3 1057.34 136.699 18
-6 2 -3 1508.8 100.871 30
6 -2 3 1418.81 88.1364 26
6 -2 3 1218.18 138.569 4
-6 2 -3 1383.1 97.4311 22
-6 2 -3 1398.94 148.278 1
-6 2 -4 502.686 70.6207 30
6 -2 4 508.37 56.5841 26
-6 2 -4 511.586 77.964 22
-6 2 -5 1389.95 78.8075 32
-6 2 -5 1407.04 77.9677 19
-6 2 -5 1340.41 101.587 30
-6 2 -5 1191.99 108.855 22
-6 2 -6 79.8402 31.1824 32
-6 2 -6 48.1156 30.7497 19
-6 2 -6 62.3451 64.7264 22
-6 2 -7 97.6706 46.1086 30
-6 2 -7 115.508 60.2277 22
-6 2 -8 2047.48 96.6484 30
-6 2 -8 2086.14 109.082 22
-6 2 -9 111.234 30.8619 22
6 -1 -8 202.783 30.6477 28
6 -1 -7 1135.04 62.4967 14
6 -1 -6 3042.87 129.768 11
6 -1 -6 3144.74 138.149 28
6 -1 -6 3119.86 131.065 14
6 -1 -5 -2.26008 36.3572 11
6 -1 -5 29.5712 42.4165 28
6 -1 -5 10.1214 45.4424 26
6 -1 -5 25.5418 37.216 13
6 -1 -4 1707.31 100.878 28
6 -1 -4 1576.54 105.3 26
6 -1 -4 1767.58 102.322 20
6 -1 -4 1798.17 99.7259 11
6 -1 -4 1767.33 95.9126 13
6 -1 -3 5903.17 232.883 20
6 -1 -3 6467.97 233.634 28
6 -1 -3 6042.26 240.689 26
6 -1 -2 814.863 71.7726 20
6 -1 -2 870.449 72.4511 11
6 -1 -2 910.901 131.761 10
6 -1 -2 811.848 67.9168 28
6 -1 -2 952.146 79.1671 26
-6 1 2 602.542 107.21 1
6 -1 -2 754.758 68.5772 6
6 -1 -1 17959.8 569.461 6
6 -1 -1 17503.1 696.408 10
6 -1 -1 18050.2 564.514 28
6 -1 -1 17067.5 689.324 4
6 -1 -1 16331 700.165 12
6 -1 0 9972.66 339.8 6
-6 1 0 9447.12 434.567 1
6 -1 0 10065.8 349.56 26
6 -1 0 10010.2 451.371 4
6 -1 1 80.1242 42.2086 6
-6 1 -1 108.071 45.1498 30
-6 1 -1 49.2334 68.0762 1
6 -1 1 100.207 46.2064 26
6 -1 1 -8.81745 78.8993 4
-6 1 -2 1067.98 125.085 1
-6 1 -2 1358.26 89.5407 30
6 -1 2 1242.36 85.4095 26
6 -1 2 1077.87 139.087 4
-6 1 -3 188.726 75.4104 1
-6 1 -3 282.983 57.945 30
6 -1 3 255.158 53.9629 26
6 -1 3 158.705 82.7647 4
-6 1 -3 236.642 54.5818 22
-6 1 -4 2965.5 124.364 32
-6 1 -4 2111.34 192.733 18
-6 1 -4 2761.21 140.286 30
6 -1 4 2984.66 131.673 26
6 -1 4 2794.8 211.035 4
-6 1 -4 2332.42 190.313 1
-6 1 -4 2593.54 146.784 22
-6 1 -5 1678.03 89.7807 32
-6 1 -5 1693.08 118.711 22
-6 1 -6 757.577 58.697 32
-6 1 -6 818.625 63.5991 19
-6 1 -6 783.051 79.2198 30
-6 1 -6 764.796 58.9177 2
-6 1 -6 689.453 90.8368 22
-6 1 -7 361.881 42.5408 19
-6 1 -7 386.89 59.51 30
-6 1 -7 343.928 38.2942 32
-6 1 -7 269.469 69.975 22
-6 1 -8 572.861 43.5297 19
-6 1 -8 827.003 64.3725 30
-6 1 -8 737.237 77.4471 22
-6 1 -9 1057.53 59.4722 30
-6 1 -9 1055.61 70.6607 22
6 0 -7 935.62 49.9458 14
6 0 -6 91.1011 44.7239 28
6 0 -6 40.5077 32.2977 14
6 0 -5 1017.74 69.4443 11
6 0 -5 1032.01 78.6167 28
6 0 -5 990.071 76.1728 26
6 0 -5 1036.25 63.6495 13
6 0 -4 1798.7 104.147 28
6 0 -4 1681.08 111.724 26
6 0 -4 1920.23 101.345 11
6 0 -4 2042.29 105.446 20
6 0 -4 1911.63 95.5323 13
6 0 -3 18.988 38.5618 11
6 0 -3 22.1652 41.4998 28
6 0 -3 -3.20449 53.5123 26
6 0 -3 100.217 37.3102 13
6 0 -3 20.2801 42.9968 20
6 0 -2 35078.4 1088.23 20
6 0 -2 35899.9 1084.72 11
6 0 -2 34114.8 1219.45 10
6 0 -2 35856.9 1083.72 28
6 0 -2 35669.8 1101.2 26
6 0 -2 31591.5 1220.18 12
6 0 -1 864.419 131.148 10
6 0 -1 1108.36 71.0159 28
-6 0 1 1069.88 132.441 1
6 0 -1 868.899 131.074 4
6 0 -1 816.872 134.07 12
6 0 0 2860.02 139.736 26
-6 0 0 2901.6 201.348 1
6 0 1 37.1117 41.0587 6
6 0 1 29.7254 43.2575 26
-6 0 -1 -15.8317 58.7049 1
6 0 1 -115.547 85.4831 4
-6 0 -2 5598.42 207.252 30
-6 0 -2 4224.66 259.974 1
6 0 2 4671.08 199.463 26
6 0 2 4651.32 283.544 4
-6 0 -2 5750.61 207.083 22
-6 0 -3 2048.22 98.0844 32
-6 0 -3 1642.01 165.94 31
-6 0 -3 2091.33 111.832 30
6 0 3 2012.22 107.868 26
-6 0 -3 1964.7 162.18 1
6 0 3 1981.25 179.726 4
-6 0 -3 2062.06 114.309 22
-6 0 -4 624.997 68.3624 30
-6 0 -4 525.963 114.522 18
6 0 4 644.794 119.34 4
-6 0 -4 684.627 72.8826 22
-6 0 -4 528.036 92.8198 1
-6 0 -5 346.781 97.7933 18
-6 0 -5 607.452 55.608 32
6 0 5 588.235 117.246 4
-6 0 -5 496.091 92.9627 1
-6 0 -5 440.169 75.4072 22
-6 0 -6 1227 75.7252 32
-6 0 -6 1248.66 83.4313 19
-6 0 -6 1411.12 96.8994 30
-6 0 -6 1241.87 105.972 22
-6 0 -7 694.587 53.8746 32
-6 0 -7 710.322 60.2144 19
-6 0 -7 785.895 70.8359 30
-6 0 -7 539.504 53.3192 2
-6 0 -7 655.852 85.5552 22
-6 0 -8 369.852 37.4815 32
-6 0 -8 429.723 46.6453 19
-6 0 -8 583.887 59.228 30
-6 0 -8 404.785 42.3162 2
-6 0 -8 489.042 73.8086 22
-6 0 -9 122.858 35.0615 30
-6 0 -10 17.1537 27.8394 22
6 1 -6 847.708 49.8439 15
6 1 -6 1024.71 54.529 14
6 1 -5 340.417 42.023 11
6 1 -5 273.903 54.9458 28
6 1 -5 318.27 48.973 26
6 1 -5 285.132 38.1413 15
6 1 -4 423.938 50.4899 11
6 1 -4 487.377 60.8687 28
6 1 -4 518.676 65.931 26
6 1 -3 5762.88 218.84 20
6 1 -3 6047.96 217.085 11
6 1 -3 5569.2 218.952 28
6 1 -3 5614.32 237.916 26
6 1 -2 11721.6 394.321 20
6 1 -2 11952.4 391.802 11
6 1 -2 11060.5 500.975 10
6 1 -2 11606.3 391.89 28
6 1 -2 11558.9 413.662 26
-6 -1 2 10974.7 502.635 1
6 1 -2 12185.6 524.005 12
6 1 -1 10107 331.374 6
6 1 -1 9688.33 446.04 10
6 1 -1 9361.14 327.081 28
6 1 -1 9756.08 443.235 4
-6 -1 1 9572.64 435.431 1
6 1 -1 9232.26 450.801 12
-6 -1 0 8.02437 60.8476 1
6 1 0 46.0028 41.995 6
6 1 0 -53.9425 71.5665 5
6 1 0 5.97156 47.9123 26
6 1 0 44.3048 75.4478 4
6 1 1 91.1737 43.7442 6
6 1 1 68.2475 47.4235 26
-6 -1 -1 61.6934 58.5194 1
6 1 1 8.83992 81.5302 4
-6 -1 -1 90.864 31.9117 32
-6 -1 -2 1584.58 82.2206 32
-6 -1 -2 1638.59 146.969 1
6 1 2 1597.88 98.4118 26
-6 -1 -3 4401.85 168.254 32
-6 -1 -3 3921.14 268.863 31
-6 -1 -3 3962.57 238.238 1
6 1 3 4358.08 180.702 26
6 1 3 4149.97 264.457 4
-6 -1 -3 4734.67 183.961 22
-6 -1 -4 3444.29 138.817 32
-6 -1 -4 2737.65 210.036 31
6 1 4 3046.35 226.496 4
-6 -1 -4 3435.09 154.978 22
-6 -1 -4 3010.43 199.829 1
-6 -1 -5 83.3255 37.854 32
-6 -1 -5 154.714 89.1931 18
-6 -1 -5 101.501 49.4228 30
-6 -1 -5 96.318 57.5017 22
-6 -1 -6 502.875 63.9078 19
-6 -1 -6 611.154 56.7412 32
-6 -1 -6 501.481 76.881 22
-6 -1 -7 2951.13 124.644 32
-6 -1 -7 2934.19 135.299 19
-6 -1 -7 3310.92 143.221 30
-6 -1 -7 2982.89 132.497 2
-6 -1 -7 2657.05 122.412 25
-6 -1 -7 2991.2 158.577 22
-6 -1 -8 473.749 44.2356 32
-6 -1 -8 524.372 54.2482 19
-6 -1 -8 468.514 48.6505 2
-6 -1 -9 787.685 56.1052 19
-6 -1 -9 896.009 72.9196 22
-6 -1 -10 1569.02 80.5691 22
6 2 -6 107.931 37.5004 28
6 2 -6 125.119 24.3086 15
6 2 -5 294.15 54.1957 28
6 2 -5 359.686 46.8197 26
6 2 -5 289.897 38.4837 15
6 2 -4 322.696 58.4924 28
6 2 -4 282.714 53.4834 26
-6 -2 4 300.122 42.2583 21
6 2 -3 2987.27 130.638 11
6 2 -3 3222.09 135.778 20
6 2 -3 3117.33 145.709 28
6 2 -3 3484 162.694 26
6 2 -2 2435.69 115.058 20
6 2 -2 2359.93 110.313 11
6 2 -2 2226.24 115.269 28
6 2 -2 2249.08 134.532 26
6 2 -1 1413.45 85.3554 20
6 2 -1 1110.27 142.002 5
6 2 -1 1158.58 137.509 10
6 2 -1 1296.94 80.5418 28
-6 -2 1 1165.84 139.987 1
6 2 -1 1292.58 149.716 12
6 2 -1 1399.29 81.211 6
6 2 0 1160.84 76.9356 6
6 2 0 1161.89 140.689 10
6 2 0 986.754 134.86 5
6 2 0 1182.4 97.0416 26
6 2 0 1033.64 132.036 4
-6 -2 0 1216.26 131.41 1
-6 -2 -1 672.911 49.0775 32
6 2 1 842.183 65.4206 6
6 2 1 641.999 107.981 5
6 2 1 585.798 72.9467 26
6 2 1 667.258 114.289 4
-6 -2 -1 502.931 96.9038 1
-6 -2 -2 1674.45 82.687 32
6 2 2 1617.54 145.335 5
-6 -2 -2 1628.67 143.085 1
6 2 2 1656.5 103.615 26
6 2 2 1446.36 158.001 4
-6 -2 -3 1685.64 85.6958 32
-6 -2 -3 1352.12 171.824 31
-6 -2 -3 1683.62 141.945 1
6 2 3 1515.59 97.5712 26
6 2 3 1517.17 162.377 4
-6 -2 -4 268.89 44.04 32
-6 -2 -4 192.624 102.99 31
-6 -2 -4 318.981 100.578 18
-6 -2 -4 349.455 57.993 22
-6 -2 -5 1114.99 139.803 31
-6 -2 -5 1274.86 153.84 18
-6 -2 -5 1477.7 97.9583 22
-6 -2 -6 2059.01 103.007 32
-6 -2 -7 1022.13 70.0027 32
-6 -2 -7 901.179 75.8822 19
-6 -2 -7 1074.43 77.4881 2
-6 -2 -8 69.4784 35.7832 32
-6 -2 -8 139.929 46.495 19
-6 -2 -8 146.8 41.1969 2
-6 -2 -8 110.632 37.8808 25
-6 -2 -8 126.791 55.8495 22
-6 -2 -9 2239.68 99.0743 32
-6 -2 -9 2647.4 112.337 2
-6 -2 -9 2473.68 112.943 19
-6 -2 -10 11.8037 33.1951 22
6 3 -6 670.979 35.5404 15
6 3 -5 134.987 42.6303 28
6 3 -5 165.433 31.2207 15
-6 -3 4 10.8041 29.8413 21
6 3 -4 4.51403 43.5623 28
6 3 -4 29.5751 42.4106 26
6 3 -3 2209.02 116.903 28
6 3 -3 2254.38 123.935 26
-6 -3 3 2261.22 105.525 21
6 3 -2 210.477 39.9868 20
6 3 -2 166.927 33.7623 11
6 3 -2 220.26 52.0159 28
6 3 -2 233.025 65.2133 26
6 3 -1 4272.1 171.13 20
6 3 -1 4453.99 168.813 11
6 3 -1 3949.29 246.129 10
6 3 -1 4467.42 176.502 28
6 3 0 406.505 49.1246 6
6 3 0 347.541 89.826 10
6 3 0 321.21 97.2869 5
6 3 0 404.818 71.9606 26
-6 -3 0 324.987 81.3557 1
6 3 0 266.271 81.8588 4
6 3 0 306.057 89.8067 12
-6 -3 -1 340.105 80.8229 1
6 3 1 390.785 47.7612 6
6 3 1 270.985 88.6419 5
6 3 1 369.279 67.5352 26
6 3 1 289.942 86.5064 4
-6 -3 -2 147.863 34.8745 32
6 3 2 49.7608 66.975 5
6 3 2 125.086 52.8176 26
6 3 2 135.578 75.2945 4
-6 -3 -2 162.011 63.6102 1
-6 -3 -3 42.4532 31.9574 32
-6 -3 -3 11.6857 94.2144 31
6 3 3 15.1855 60.0291 5
6 3 3 -2.91291 48.7467 26
6 3 3 8.76511 76.5402 4
-6 -3 -4 142.531 38.2943 32
-6 -3 -4 66.6995 93.0756 31
-6 -3 -4 28.665 81.4356 18
6 3 4 180.306 91.3421 4
-6 -3 -5 3504.88 140.612 32
-6 -3 -5 2998.65 229.88 18
-6 -3 -6 3186.97 146.933 19
-6 -3 -7 128.164 42.7337 32
-6 -3 -7 173.908 49.1843 19
-6 -3 -7 130.223 44.2985 2
-6 -3 -7 103.289 54.2011 22
-6 -3 -8 841.03 62.1387 32
-6 -3 -8 799.082 66.6978 2
-6 -3 -8 874.331 67.9429 25
-6 -3 -9 218.147 34.9984 32
-6 -3 -9 258.56 41.8948 2
-6 -3 -9 195.786 36.6245 25
-6 -3 -9 264.484 50.6946 22
-6 -3 -10 288.344 30.6022 25
-6 -3 -10 432.19 46.2939 22
6 4 -5 103.137 24.9752 15
6 4 -4 1237.63 67.6758 15
-6 -4 4 1184.35 61.0599 21
6 4 -3 1232.78 83.0454 28
6 4 -3 1526.03 92.7747 26
-6 -4 3 1435.93 77.3595 21
6 4 -2 344.506 54.7999 28
6 4 -2 329.423 66.1291 26
-6 -4 2 376.986 48.8845 21
6 4 -1 854.337 70.1391 28
6 4 0 75.1049 30.368 6
6 4 0 60.0402 60.1802 26
6 4 1 325.813 43.2959 6
-6 -4 -1 315.694 74.7824 1
6 4 1 405.488 86.7904 10
6 4 1 246.716 95.3538 5
6 4 1 255.514 65.3578 26
6 4 1 318.558 82.7244 4
-6 -4 -2 604.921 49.7264 32
-6 -4 -2 879.609 158.431 31
6 4 2 445.669 110.476 5
6 4 2 706.715 77.5288 26
6 4 2 707.665 56.5753 6
6 4 2 541.023 101.984 4
-6 -4 -3 722.749 117.579 18
-6 -4 -3 696.181 55.1761 32
6 4 3 738.783 116.402 5
6 4 3 662.653 73.4145 26
6 4 3 797.401 115.959 4
-6 -4 -4 2984.22 124.232 32
-6 -4 -4 2568.13 232.585 31
-6 -4 -4 2325.93 201.388 18
6 4 4 2351.63 189.613 5
6 4 4 2914.75 137.908 26
6 4 4 2837.66 208.514 4
-6 -4 -5 359.704 49.2415 32
-6 -4 -5 283.882 108.937 31
-6 -4 -5 340.896 101.495 18
6 4 5 337.161 101.869 4
-6 -4 -6 1114 73.9085 32
-6 -4 -6 1092.63 83.1848 19
-6 -4 -7 821.97 73.5252 19
-6 -4 -7 871.931 71.7706 2
-6 -4 -7 848.641 68.1282 32
-6 -4 -8 187.043 42.0817 32
-6 -4 -8 173.303 47.456 19
-6 -4 -8 107.645 40.1519 2
-6 -4 -8 132.694 47.2189 25
-6 -4 -9 81.3145 33.7131 32
-6 -4 -9 114.7 43.3622 19
-6 -4 -9 146.148 41.2299 25
-6 -4 -10 630.86 43.5676 32
-6 -4 -10 754.445 56.7799 19
-6 -4 -10 780.629 50.2976 25
-6 -5 4 115.241 21.6449 21
-6 -5 3 505.001 43.9579 21
-6 -5 2 9.06788 35.0653 21
6 5 -2 40.7894 50.0516 26
-6 -5 1 3176.01 135.62 21
6 5 0 924.683 88.8038 26
-6 -5 0 915.837 67.8072 21
6 5 1 2515.65 143.358 26
6 5 2 796.703 54.5567 6
6 5 2 865.424 86.9814 26
-6 -5 -3 7856.61 267.341 32
6 5 3 7094.91 379.584 5
6 5 3 8056.41 294.897 26
-6 -5 -4 21.1078 34.9923 32
6 5 4 27.3471 71.3419 5
6 5 4 13.3166 43.4591 26
6 5 4 -16.0608 68.9636 4
-6 -5 -5 -2.04495 34.4467 32
-6 -5 -5 11.309 36.9926 19
-6 -5 -6 82.5688 43.7228 32
-6 -5 -6 95.3757 44.8962 19
-6 -5 -7 295.453 51.7546 19
-6 -5 -7 292.922 48.401 2
-6 -5 -8 95.4612 39.8604 32
-6 -5 -8 131.423 46.9072 19
-6 -5 -8 123.708 41.3823 2
-6 -5 -8 106.234 45.0478 25
-6 -5 -9 568.635 50.6706 32
-6 -5 -9 622.536 53.171 2
-6 -5 -9 500.019 52.8744 19
-6 -5 -9 514.611 54.4189 25
-6 -5 -10 2366.63 99.468 32
-6 -5 -10 2649.85 108.549 19
-6 -5 -10 2557.08 106.074 25
-6 -5 -11 2.1906 15.7248 29
-6 -5 -11 4.55839 19.7384 25
-6 -6 3 198.131 26.9575 21
6 6 -3 172.308 30.162 15
-6 -6 2 716.143 50.7026 21
-6 -6 1 1799.37 89.4354 21
-6 -6 0 282.924 49.5542 21
6 6 0 391.256 65.4925 26
6 6 1 3323.29 164.608 26
-6 -6 -1 3370.87 142.752 21
6 6 2 806.482 80.4122 26
-6 -6 -2 803.506 63.0716 21
-6 -6 -3 2158.72 100.623 32
6 6 3 2448.56 126.375 26
-6 -6 -3 2365.2 108.11 21
-6 -6 -4 1274.11 74.0117 32
6 6 4 1328 88.4963 26
-6 -6 -4 1319.87 73.8455 21
-6 -6 -5 2830.19 127.297 32
-6 -6 -5 3099.83 127.391 19
-6 -6 -6 12848.6 417.956 32
-6 -6 -6 12430.4 413.527 19
-6 -6 -6 12729.3 413.479 2
-6 -6 -7 2978.38 129.283 32
-6 -6 -7 2797.86 126.322 19
-6 -6 -7 2853.52 124.781 2
-6 -6 -8 3153.52 132.912 19
-6 -6 -8 3304.77 133.734 2
-6 -6 -8 2970.99 140.126 25
-6 -6 -9 1014.28 64.0928 2
-6 -6 -9 1096.66 67.569 32
-6 -6 -9 1055.69 66.4851 19
-6 -6 -10 576.6 49.2152 25
-6 -6 -11 260.949 25.4234 29
-6 -6 -11 364.913 31.9427 25
-6 -7 2 106.1 24.1615 21
6 7 -2 98.2916 24.8719 15
-6 -7 1 746.56 51.0558 21
-6 -7 0 369.378 44.506 21
-6 -7 -1 364.942 46.8927 21
-6 -7 -2 30.3171 34.9495 21
-6 -7 -3 6478.28 229.251 21
-6 -7 -4 719.228 56.0766 32
-6 -7 -4 905.844 59.2102 21
-6 -7 -5 159.236 37.8712 32
-6 -7 -6 622.275 57.2217 32
-6 -7 -7 2608.5 117.223 32
-6 -7 -7 2602.59 123.623 25
-6 -7 -8 142.92 41.1108 32
-6 -7 -8 152.76 33.21 19
-6 -7 -8 200.692 44.0342 25
-6 -7 -9 5120.05 188.734 25
-6 -7 -10 273.041 33.5059 29
-6 -7 -11 19.9762 16.1326 29
-6 -7 -11 57.2864 21.6925 25
-6 -8 1 32.0009 19.8363 21
6 8 -1 21.4014 17.9209 15
-6 -8 0 110.041 28.8117 21
-6 -8 -1 53.8518 30.0899 21
-6 -8 -2 283.138 39.4882 21
-6 -8 -3 556.903 45.3712 16
-6 -8 -3 638.041 49.5512 21
-6 -8 -4 1767.55 82.1059 21
-6 -8 -5 3828.54 134.239 29
-6 -8 -5 3236.03 138.085 25
-6 -8 -6 83.1715 30.6302 29
-6 -8 -6 90.5523 35.6552 25
-6 -8 -7 2124.08 95.6408 29
-6 -8 -7 2115.16 100.511 25
-6 -8 -8 2458.48 106.376 29
-6 -8 -8 2700.08 112.375 25
-6 -8 -9 29.3814 28.9593 29
-6 -8 -9 11.7367 29.576 25
-6 -8 -10 423.002 29.7848 16
-6 -8 -10 510.324 38.9001 25
-6 -9 0 27.1122 16.0924 21
-6 -9 -1 273.993 29.5285 21
-6 -9 -2 205.525 29.6485 21
-6 -9 -3 313.943 34.071 21
-6 -9 -4 40.1155 24.1867 21
-6 -9 -4 41.093 24.263 16
-6 -9 -5 5311.05 185.923 16
-6 -9 -6 1052.73 53.7263 29
-6 -9 -7 124.343 26.125 29
-6 -9 -7 91.0311 26.9008 25
-6 -9 -8 1618.63 73.5722 29
-6 -9 -8 1773.98 74.4353 25
-6 -9 -9 30.5097 22.0419 29
-6 -9 -9 31.1643 21.8759 16
-6 -9 -9 42.8441 21.6535 25
-6 -10 -3 2814.76 97.0219 21
-6 -10 -5 3.6413 19.2303 16
-6 -10 -6 360.476 32.36 16
-6 -10 -7 48.9805 22.3147 16
-6 -10 -8 246.868 22.0006 29
7 -8 -4 195.841 23.7872 28
7 -8 -3 9.01039 19.195 28
7 -8 -2 4.26421 18.0917 28
7 -8 -1 279.814 33.3487 26
7 -8 0 1225.23 58.6926 26
7 -7 -5 219.409 29.238 28
7 -7 -5 152.81 22.3964 13
7 -7 -4 -5.14129 25.8294 28
7 -7 -4 9.58446 25.0978 26
7 -7 -4 29.0344 21.2323 13
7 -7 -3 74.2002 29.4711 28
7 -7 -3 78.172 32.8206 26
7 -7 -3 73.1503 23.3069 13
7 -7 -2 224.486 33.9693 28
7 -7 -2 264.676 41.1415 26
7 -7 -2 172.877 26.4108 13
7 -7 -1 102.69 21.5517 13
7 -7 0 345.051 41.8434 26
7 -7 1 48.4965 29.9954 26
7 -7 2 931.595 50.4575 26
7 -6 -6 317.263 33.7019 28
7 -6 -5 67.9226 31.4581 28
7 -6 -5 127.275 29.5526 13
7 -6 -4 79.4929 33.2582 28
7 -6 -4 50.0267 35.4308 26
7 -6 -4 73.6078 30.1364 13
7 -6 -3 433.784 45.9226 28
7 -6 -3 443.431 50.7614 26
7 -6 -3 463.658 45.2883 13
7 -6 -2 326.467 43.3628 28
7 -6 -2 291.065 48.7493 26
-7 6 2 309.33 37.6291 7
-7 6 1 3767.15 143.997 7
7 -6 0 498.427 53.9702 26
7 -6 1 413.259 50.0469 26
7 -6 2 89.4635 33.4373 26
-7 6 -3 447.061 31.7411 32
7 -6 3 467.353 40.1467 26
7 -5 -6 42.2552 27.7333 28
7 -5 -6 51.0462 21.6618 14
7 -5 -5 469.747 47.1757 28
7 -5 -5 377.378 37.2707 14
7 -5 -4 5.57486 35.4472 28
7 -5 -4 24.2022 38.2056 26
7 -5 -4 36.7856 34.7648 13
7 -5 -3 -31.5081 35.2972 28
7 -5 -3 42.1725 44.1448 26
7 -5 -3 39.8309 36.2379 13
7 -5 -2 7.9574 29.5901 20
7 -5 -2 65.6292 37.6916 28
7 -5 -1 750.495 51.9946 20
-7 5 1 798.927 57.8755 7
7 -5 0 747.17 69.6278 26
7 -5 1 2516.47 122.47 26
-7 5 -1 2423.12 107.622 7
-7 5 -2 52.5063 35.7685 30
7 -5 2 30.4895 39.0457 26
-7 5 -2 23.3653 27.498 7
-7 5 -3 54.2908 28.8605 32
-7 5 -3 38.5794 35.0493 30
7 -5 3 60.6179 35.2972 26
-7 5 -4 81.3651 23.2426 32
-7 5 -4 126.486 35.9668 30
-7 5 -5 303.16 34.2988 30
7 -4 -6 478.905 44.8822 28
7 -4 -6 436.218 39.3616 14
7 -4 -6 443.264 40.3084 13
7 -4 -5 17.9286 36.0248 28
7 -4 -5 -23.1152 33.2274 26
7 -4 -5 24.8887 32.6094 13
7 -4 -4 359.876 43.6286 11
7 -4 -4 343.011 49.1166 28
7 -4 -4 475.672 55.9025 26
7 -4 -4 313.158 46.8481 13
7 -4 -3 667.032 55.0795 11
7 -4 -3 725.637 59.1064 20
7 -4 -3 619.436 59.1715 28
7 -4 -3 718.025 67.7286 26
7 -4 -2 185.553 43.2481 20
7 -4 -2 133.969 37.255 11
7 -4 -2 150.776 42.5911 28
7 -4 -2 177.578 50.4944 26
7 -4 -1 2979.81 127.366 20
7 -4 -1 2991.49 124.816 11
7 -4 -1 2779.59 125.406 28
7 -4 0 258.884 38.4853 11
7 -4 0 337.602 58.2952 26
7 -4 0 319.623 45.0472 20
7 -4 1 2271.79 105.895 20
7 -4 1 2863.35 131.119 26
-7 4 -2 8834.19 296.409 30
7 -4 2 8588.31 300.126 26
-7 4 -2 7939.39 281.769 7
7 -4 3 1559.99 89.7952 26
-7 4 -3 1473.25 76.0386 7
-7 4 -4 306.816 47.3464 30
7 -4 4 212.994 38.9855 26
-7 4 -4 200.017 34.5551 32
-7 4 -5 85.7559 23.2429 32
-7 4 -5 116.719 37.9769 30
-7 4 -6 304.608 36.6239 30
7 -3 -7 385.992 35.1721 28
7 -3 -7 434.786 32.2306 14
7 -3 -6 964.436 60.1301 28
7 -3 -5 459.372 47.2264 11
7 -3 -5 547.801 53.7732 28
7 -3 -5 496.588 49.9534 26
7 -3 -5 546.937 49.4835 13
7 -3 -4 1179.15 73.8283 11
7 -3 -4 1240.92 79.2736 28
7 -3 -4 1192.17 82.3137 26
7 -3 -4 1235.27 77.5862 13
7 -3 -3 245.863 49.8537 20
7 -3 -3 236.15 43.7791 11
7 -3 -3 307.994 47.9504 28
7 -3 -3 238.734 55.6826 26
7 -3 -2 26.0774 39.5 20
7 -3 -2 28.9092 35.8669 11
7 -3 -2 21.8278 37.1004 28
7 -3 -2 46.29 50.429 26
7 -3 -1 82.9989 43.3454 20
7 -3 -1 46.198 36.5913 11
7 -3 -1 27.2722 36.2117 28
7 -3 0 195.142 41.9984 6
7 -3 0 173.941 56.3384 26
7 -3 0 125.618 44.9315 20
7 -3 1 4160.1 165.264 6
7 -3 1 4472.95 186.458 26
7 -3 2 1461.48 80.7001 6
7 -3 2 1571.61 99.5761 26
-7 3 -3 1765.34 102.009 30
7 -3 3 1847.29 100.961 26
-7 3 -4 2729.71 131.775 30
7 -3 4 2690.18 122.358 26
-7 3 -4 2619.38 115.906 32
-7 3 -4 2934.04 122.757 22
-7 3 -5 50.3368 28.4963 32
-7 3 -5 46.9778 45.5103 30
-7 3 -5 -9.34167 35.2735 22
-7 3 -6 -12.6494 20.8495 32
-7 3 -6 29.1246 37.1374 30
-7 3 -6 12.2662 30.4727 22
-7 3 -7 46.9571 23.2062 22
7 -2 -7 1010.05 50.8177 28
7 -2 -7 915.041 44.849 14
7 -2 -6 1225.9 67.4145 28
7 -2 -6 1083.73 60.4359 14
7 -2 -5 65.8765 38.1838 28
7 -2 -5 14.3489 35.0945 26
7 -2 -5 34.766 32.0154 13
7 -2 -4 4628.04 186.264 11
7 -2 -4 5245.88 191.22 28
7 -2 -4 4777.05 196.18 26
7 -2 -4 5095.63 187.052 13
7 -2 -3 1410.59 85.0268 11
7 -2 -3 1384.51 83.0432 28
7 -2 -3 1406.48 96.3683 26
7 -2 -2 427.363 59.9852 20
7 -2 -2 347.787 53.2885 11
7 -2 -2 410.804 51.5153 28
7 -2 -2 492.491 67.2508 26
7 -2 -1 2401.51 120.738 20
7 -2 -1 2336.74 115.211 11
7 -2 -1 2157.97 108.036 28
7 -2 -1 2480.12 116.072 6
7 -2 0 5251.12 201.633 6
7 -2 0 5268.17 217.666 26
7 -2 1 1021.03 73.6634 6
7 -2 1 978.064 83.8225 26
7 -2 2 502.376 55.602 6
7 -2 2 576.911 67.6686 26
7 -2 3 714.834 59.4939 6
-7 2 -3 791.584 76.3925 30
7 -2 3 666.11 69.1032 26
-7 2 -3 752.81 66.571 22
-7 2 -4 256.87 44.5471 32
7 -2 4 215.279 39.7148 6
-7 2 -4 204.64 54.6597 30
7 -2 4 174.225 47.3572 26
-7 2 -4 205.489 50.7908 22
-7 2 -4 132.861 26.982 7
-7 2 -5 994.136 65.0487 32
-7 2 -5 958.499 62.8715 19
-7 2 -5 1115.8 78.6242 22
-7 2 -6 156.571 30.6712 32
-7 2 -6 150.477 46.8144 30
-7 2 -6 126.956 43.1844 22
-7 2 -7 82.6564 38.0643 30
-7 2 -7 5.10721 33.3136 22
-7 2 -8 214.697 28.6892 22
7 -1 -6 109.381 34.0215 28
7 -1 -6 59.7063 26.8909 14
7 -1 -5 538.746 52.8001 28
7 -1 -5 389.15 47.4969 26
7 -1 -5 545.428 43.9884 13
7 -1 -4 90.4938 38.0948 11
7 -1 -4 102.882 41.5577 28
7 -1 -4 86.9856 47.3429 26
7 -1 -4 98.9204 34.658 13
7 -1 -3 1370.48 86.1565 20
7 -1 -3 1238.14 80.3153 28
7 -1 -3 1375.72 96.0815 26
7 -1 -3 1215.62 76.979 13
7 -1 -2 1495.21 93.5046 20
7 -1 -2 1400.8 87.4466 11
7 -1 -2 1409.29 84.6587 28
7 -1 -2 1394.86 101.008 26
-7 1 1 14.0127 28.3902 32
7 -1 -1 -16.626 39.5654 6
7 -1 -1 -14.5642 36.1864 28
7 -1 0 20863.9 655.049 6
-7 1 0 20427.9 640.516 32
7 -1 0 20469.8 669.681 26
7 -1 1 3040.98 139.887 6
7 -1 1 3208.28 155.389 26
-7 1 -2 321.867 48.1409 32
7 -1 2 343.051 54.5215 6
7 -1 2 305.327 60.5222 26
-7 1 -3 441.631 53.9783 32
7 -1 3 410.871 53.3189 6
7 -1 3 481.892 63.3479 26
7 -1 4 4843.42 200.149 26
-7 1 -4 5036.51 203.23 22
-7 1 -5 133.182 37.7359 32
-7 1 -5 175.242 43.0805 19
-7 1 -5 134.658 53.6047 30
-7 1 -5 124.229 53.3567 22
-7 1 -6 2025.03 92.5581 32
-7 1 -6 1979.48 93.3844 19
-7 1 -6 1804.39 88.6202 2
-7 1 -6 2195.75 110.255 22
-7 1 -7 962.724 54.3148 32
-7 1 -7 1013.24 55.3638 19
-7 1 -7 1197.34 73.3904 30
-7 1 -7 1025.05 73.0305 22
-7 1 -8 47.3165 33.2998 22
7 0 -6 47.2345 28.2551 28
7 0 -6 45.9868 19.6655 14
7 0 -5 240.843 44.0999 28
7 0 -5 206.004 35.7319 26
7 0 -4 592.674 53.4133 11
7 0 -4 739.892 61.8996 28
7 0 -4 706.509 66.2426 26
7 0 -4 749.479 50.5753 13
7 0 -3 270.701 49.6721 20
7 0 -3 224.622 43.6637 11
7 0 -3 292.453 48.1066 28
7 0 -3 253.443 62.6147 26
7 0 -3 215.37 38.9413 13
7 0 -2 1303.39 85.9854 20
7 0 -2 1233.65 81.981 11
7 0 -2 1192.23 78.3444 28
7 0 -2 1123.92 96.4071 26
7 0 -1 3561.84 155.072 20
7 0 -1 3229.86 140.022 28
-7 0 0 10832.9 354.785 32
7 0 0 11118.6 391.654 26
-7 0 -1 113.73 35.8071 32
7 0 1 71.5378 44.0425 6
7 0 1 86.3974 58.0848 26
7 0 2 644.608 65.236 6
-7 0 -2 625.496 56.5811 32
7 0 2 662.352 74.2397 26
-7 0 -3 12.4541 37.4933 32
7 0 3 14.6354 48.9802 26
-7 0 -4 3185.05 142.585 32
7 0 4 3345.67 152.283 26
-7 0 -5 71.3379 38.97 32
-7 0 -5 117.334 52.0749 30
-7 0 -5 231.442 55.7955 22
-7 0 -6 23.9452 33.6186 32
-7 0 -6 60.829 39.4781 19
-7 0 -6 76.5213 48.2497 30
-7 0 -6 57.6341 35.9265 2
-7 0 -6 48.7739 48.2088 22
-7 0 -7 1494.9 74.7875 32
-7 0 -7 1482.6 79.3804 19
-7 0 -7 1394.08 74.727 2
-7 0 -8 136.219 26.3713 32
-7 0 -8 143.424 29.3298 19
-7 0 -9 370.097 38.8359 22
7 1 -5 122.457 35.1758 28
7 1 -5 64.3876 24.7617 14
7 1 -4 293.291 48.6429 28
7 1 -4 422.862 53.1137 26
7 1 -3 107.207 40.702 20
7 1 -3 58.5677 34.7107 11
7 1 -3 78.2724 40.8127 28
7 1 -3 31.6769 50.1278 26
7 1 -2 1865.09 99.3021 20
7 1 -2 1818.54 96.6245 11
7 1 -2 1761.43 94.0051 28
7 1 -2 1841.56 115.89 26
7 1 -2 1720.93 85.856 13
7 1 -1 18457 587.089 20
7 1 -1 17884.9 580.749 11
7 1 0 16.5588 39.8495 6
7 1 0 13.7708 62.0649 26
-7 -1 -1 2366.73 104.671 32
7 1 1 2411.78 119.092 6
7 1 1 2342.18 134.403 26
-7 -1 -2 4040.73 158.529 32
7 1 2 4160.19 185.405 26
-7 -1 -3 44.1157 35.4668 32
7 1 3 30.2825 51.8033 26
7 1 4 4183.74 178.624 26
-7 -1 -4 4170.49 167.096 32
-7 -1 -5 572.003 69.3568 22
-7 -1 -6 13.7678 37.8451 32
-7 -1 -6 49.2752 45.0685 19
-7 -1 -6 49.6731 50.5182 22
-7 -1 -7 8.57375 32.4793 32
-7 -1 -7 10.1629 38.633 19
-7 -1 -7 -1.93741 33.8361 2
-7 -1 -7 7.51953 28.2868 25
-7 -1 -7 42.9533 46.6752 22
-7 -1 -8 170.603 31.7986 32
-7 -1 -8 143.799 36.4611 19
-7 -1 -9 402.644 34.2575 19
7 2 -5 74.136 29.9634 28
7 2 -4 179.599 40.5763 28
7 2 -4 195.539 39.2616 26
7 2 -4 114.214 28.8134 15
7 2 -4 148.475 27.3281 14
-7 -2 4 176.506 30.0156 21
7 2 -3 8730.27 155.634 28
7 2 -3 9066.94 179.215 26
7 2 -2 3263.91 134.966 20
7 2 -2 3059.48 129.479 11
7 2 -2 2956.89 133.858 28
7 2 -2 3353.73 159.033 26
7 2 -1 1441.16 88.1687 20
7 2 -1 1505.57 85.2163 11
7 2 0 700.84 87.0063 26
7 2 0 759.984 62.7277 6
-7 -2 -1 1177.7 67.091 32
7 2 1 1212.07 101.221 26
-7 -2 -2 533.159 49.1041 32
7 2 2 511.396 60.3465 6
7 2 2 573.102 76.7336 26
-7 -2 -3 1458.82 81.0002 32
7 2 3 1553.08 103.926 26
-7 -2 -4 72.8789 38.3365 32
7 2 4 74.065 50.7035 26
-7 -2 -5 1850.74 97.2058 32
-7 -2 -6 2307.5 121.588 22
-7 -2 -7 88.6074 37.8614 32
-7 -2 -7 137.941 46.1183 19
-7 -2 -7 95.8943 39.8599 2
-7 -2 -7 154.245 52.1549 22
-7 -2 -8 212.109 36.1658 32
-7 -2 -8 235.028 44.2123 19
-7 -2 -8 209.429 37.5115 2
-7 -2 -8 188.622 32.6016 25
-7 -2 -9 1411.56 62.9435 32
-7 -2 -9 1482.07 71.8556 19
-7 -3 4 47.5625 21.1899 21
7 3 -4 48.6468 23.1809 15
7 3 -3 2191.08 100.973 28
7 3 -3 2376.95 112.141 26
-7 -3 3 2173.3 95.4629 21
7 3 -2 5734.63 209.853 20
7 3 -2 6159.44 219.543 28
7 3 -1 19.0706 33.1067 20
7 3 -1 26.983 28.8038 11
7 3 0 1479.66 85.7044 20
7 3 0 1637.05 84.9988 11
7 3 0 1475.18 111.919 26
7 3 0 1491.04 82.1902 6
7 3 1 342.07 48.2859 6
7 3 1 266.573 65.9188 26
-7 -3 -2 1129.13 65.0969 32
7 3 2 999.681 73.2252 6
7 3 2 1088.06 92.569 26
-7 -3 -3 1.82988 33.7408 32
7 3 3 -3.20318 50.7725 26
7 3 4 1196.55 88.7718 26
-7 -3 -4 1143.06 72.4049 32
-7 -3 -5 292.871 47.5446 32
-7 -3 -6 337.115 55.2644 19
-7 -3 -7 1381.41 89.7206 19
-7 -3 -7 1371.75 84.744 2
-7 -3 -7 1588.64 84.5457 32
-7 -3 -8 559.288 49.4275 32
-7 -3 -8 525.829 50.1583 2
-7 -3 -8 466.208 47.9893 25
-7 -3 -9 1985.12 82.7919 32
-7 -3 -9 1879.33 80.0667 25
7 4 -4 1516.59 60.3735 15
-7 -4 3 105.089 26.9162 21
7 4 -2 1285.84 85.2515 26
-7 -4 2 1198.08 67.3801 21
-7 -4 1 1142.86 70.484 21
7 4 0 853.396 86.9121 26
7 4 1 68.8997 33.9087 20
7 4 1 38.9216 28.8984 6
7 4 1 9.96072 57.4032 26
7 4 2 1271.21 75.9494 6
7 4 2 1393.24 104.165 26
-7 -4 -3 22.4025 32.6407 32
7 4 3 2.08383 34.6356 6
7 4 3 -3.10174 51.9021 26
-7 -4 -4 8560.04 290.63 32
7 4 4 8423.7 306.928 26
-7 -4 -5 448.946 50.3503 32
-7 -4 -6 2258.47 108.074 32
-7 -4 -6 2174.95 114.197 19
-7 -4 -7 33.1015 41.146 19
-7 -4 -7 27.8955 36.4732 2
-7 -4 -8 39.2824 33.0219 32
-7 -4 -8 17.4998 35.191 19
-7 -4 -8 -15.1432 32.1685 2
-7 -4 -8 30.4506 34.7063 25
-7 -4 -9 208.135 32.6355 32
-7 -4 -9 164.623 35.2716 19
-7 -4 -9 189.229 33.3271 25
7 5 -3 409.793 31.7643 15
-7 -5 3 492.555 30.1814 21
-7 -5 2 107.462 28.8428 21
-7 -5 1 267.876 40.283 21
7 5 0 1964.82 113.94 26
7 5 1 987.447 86.9895 26
-7 -5 -1 1043.66 68.9421 21
7 5 2 405.095 63.6958 26
7 5 3 1707.98 84.602 6
-7 -5 -3 1680.78 81.6649 32
7 5 3 1953.16 111.438 26
-7 -5 -4 3361.03 137.852 32
7 5 4 3554.91 141.278 6
7 5 4 3582.99 155.318 26
-7 -5 -4 3527.65 137.558 21
-7 -5 -5 431.063 48.698 32
-7 -5 -5 411.103 54.4294 19
-7 -5 -6 3882.47 152.951 32
-7 -5 -6 3868.74 156.409 19
-7 -5 -6 3721.34 153.181 2
-7 -5 -7 108.078 38.9887 32
-7 -5 -7 61.5609 36.8905 19
-7 -5 -7 72.2729 33.9814 2
-7 -5 -8 41.8735 35.3346 32
-7 -5 -8 -7.10503 35.5823 19
-7 -5 -8 10.5177 28.8061 2
-7 -5 -8 9.59908 37.2406 25
-7 -5 -9 1298.63 65.0556 32
-7 -5 -9 1206.93 66.2909 19
-7 -5 -9 1170.35 66.6175 25
-7 -5 -10 985.686 49.2614 25
-7 -6 2 30.1476 18.4159 21
7 6 -2 32.7423 19.2403 15
-7 -6 1 1082.45 57.7724 21
-7 -6 0 991.865 60.0036 21
-7 -6 -1 158.299 36.8002 21
7 6 1 125.184 52.0198 26
7 6 2 384.53 59.6586 26
-7 -6 -2 371.286 44.2066 21
7 6 3 1186.39 84.234 26
-7 -6 -3 1172.06 68.3081 21
-7 -6 -4 1650.85 81.8293 32
7 6 4 1918.21 98.3245 26
-7 -6 -4 1711.87 82.3252 21
-7 -6 -5 38.9111 32.2667 32
-7 -6 -5 56.1227 31.9703 19
-7 -6 -5 -3.26425 13.0338 2
-7 -6 -6 4950.51 172.548 32
-7 -6 -6 4704.28 168.313 19
-7 -6 -7 1460.01 78.4986 32
-7 -6 -7 1578.65 78.168 19
-7 -6 -7 1436.58 75.1548 2
-7 -6 -8 53.9438 29.3224 19
-7 -6 -8 100.035 38.472 25
-7 -6 -9 762.166 49.7849 32
-7 -6 -9 757.544 48.133 19
-7 -6 -9 718.911 51.5696 25
-7 -6 -10 7.78683 18.2104 29
-7 -6 -10 40.2254 21.7433 25
-7 -7 1 5.24553 17.3741 21
7 7 -1 8.02461 16.5361 15
-7 -7 0 976.299 52.4339 21
-7 -7 -1 -3.86971 26.4744 21
-7 -7 -2 124.876 32.3936 21
-7 -7 -3 1043.52 59.9518 21
-7 -7 -4 405.648 37.8157 21
-7 -7 -5 323.004 37.8174 32
-7 -7 -6 50.6258 31.0903 32
-7 -7 -7 698.466 52.2943 32
-7 -7 -7 634.563 54.2689 25
-7 -7 -8 3651.81 140.997 25
-7 -7 -9 248.012 29.6983 29
-7 -7 -9 298.643 34.7815 25
-7 -8 -1 310.011 27.7208 21
-7 -8 -2 227.496 28.51 21
-7 -8 -3 232.553 29.385 21
-7 -8 -4 194.84 26.9151 21
-7 -8 -4 158.977 26.2685 16
-7 -8 -5 379.686 34.1522 25
-7 -8 -6 452.701 38.2816 25
-7 -8 -7 384.124 32.0489 29
-7 -8 -7 387.13 36.4748 25
-7 -8 -8 164.527 24.9397 29
-7 -8 -8 139.603 27.5245 25
-7 -8 -9 362.63 28.2735 29
-7 -8 -9 403.963 28.0695 16
-7 -9 -5 90.1965 18.9605 16
-7 -9 -6 38.8074 19.627 16
-7 -9 -7 10.2541 17.8245 16
-8 6 2 2.07391 16.2144 32
8 -6 -2 21.6818 26.1778 26
8 -6 -2 11.837 17.8448 13
-8 6 1 54.6015 20.1044 32
8 -6 -1 20.1917 18.5706 13
-8 6 0 90.6207 21.6945 32
8 -6 0 98.532 29.061 26
8 -6 1 113.616 25.9474 26
8 -5 -3 1538.85 67.3384 28
8 -5 -3 1459.81 76.0741 26
-8 5 2 1914.76 75.6443 32
8 -5 -2 2086 93.8343 26
8 -5 -2 2160.49 85.3716 13
-8 5 1 5.48675 23.3753 32
-8 5 0 14.0029 23.8099 32
8 -5 0 8.9964 34.4355 26
-8 5 -1 95.8647 25.8997 32
8 -5 1 94.584 36.367 26
-8 5 -2 510.142 36.6733 32
8 -5 2 552.23 44.1945 26
-8 5 -3 1837.95 70.0893 32
8 -4 -4 1082.9 55.3578 28
8 -4 -4 1010.92 57.1843 26
8 -4 -4 1064.96 51.4634 14
8 -4 -4 1222.13 57.3136 13
8 -4 -3 495.457 40.0059 28
8 -4 -3 454.42 48.8764 26
8 -4 -3 487.925 43.3068 13
-8 4 2 788.808 44.635 32
8 -4 -2 753.542 49.215 28
8 -4 -2 885.082 66.1633 26
-8 4 1 1569.61 71.4027 32
8 -4 -1 1474.52 72.4554 20
8 -4 0 8.76356 24.7631 20
-8 4 0 -15.1883 28.8803 32
8 -4 0 -2.20898 38.7355 26
-8 4 -1 88.3688 30.924 32
8 -4 1 94.2817 42.2464 26
-8 4 -2 7.93635 26.619 32
8 -4 2 -14.8208 34.7204 26
8 -4 3 230.97 35.8885 26
-8 4 -4 1343.86 57.8094 32
8 -3 -5 82.3839 21.271 14
8 -3 -4 2129.78 87.5617 28
8 -3 -4 2355.73 88.8373 13
8 -3 -3 273.261 35.1167 28
8 -3 -3 247.149 46.987 26
8 -3 -3 251.357 37.8081 13
8 -3 -2 570.657 50.6016 20
8 -3 -2 503.27 43.7459 28
8 -3 -2 538.172 60.6063 26
8 -3 -1 2857.91 117.701 20
-8 3 1 2639.32 106.302 32
8 -3 -1 2656.86 112.538 11
8 -3 0 6800.38 236.46 20
-8 3 0 6862.44 230.783 32
8 -3 0 6278.1 231.123 11
8 -3 1 139.351 35.2505 20
-8 3 -1 91.5469 34.1526 32
8 -3 1 109.778 47.121 26
8 -3 2 1378.03 69.9699 20
-8 3 -2 1366.15 71.8559 32
8 -3 2 1414.95 85.018 26
-8 3 -2 1240.51 66.8167 7
8 -3 3 22.381 24.336 20
-8 3 -3 22.1994 23.5956 19
8 -3 3 74.4765 38.0238 26
-8 3 -4 109.917 28.9217 32
-8 3 -5 517.567 34.4251 32
8 -2 -5 493.414 33.9144 14
8 -2 -4 3015.98 111.764 28
8 -2 -4 2708.86 114.101 26
8 -2 -4 2938.51 108.971 13
8 -2 -3 63.0435 29.0176 28
8 -2 -3 61.6594 42.225 26
8 -2 -3 53.5912 29.7775 13
8 -2 -2 40.2151 36.2937 20
8 -2 -2 48.9327 31.9988 11
8 -2 -2 41.2097 30.986 28
8 -2 -2 45.0097 47.0476 26
8 -2 -1 10.246 37.3708 20
-8 2 1 50.3451 25.5066 32
8 -2 -1 -19.288 32.0634 11
-8 2 0 442.128 41.5309 32
8 -2 0 327.014 48.7208 20
8 -2 0 374.688 46.4233 11
8 -2 0 369.022 63.8769 26
8 -2 1 157.101 42.7734 20
-8 2 -1 188.22 38.0599 32
8 -2 1 187.887 38.623 6
8 -2 1 120.41 47.7445 26
-8 2 -2 194.312 39.9767 32
8 -2 2 153.33 36.6894 6
8 -2 2 241.191 54.5727 26
-8 2 -3 175.317 39.0669 32
8 -2 3 207.644 34.888 6
8 -2 3 235.547 48.8382 26
-8 2 -3 177.613 30.1845 7
-8 2 -4 731.651 53.6617 32
-8 2 -4 772.041 50.1293 19
8 -2 4 682.927 56.0157 26
-8 2 -5 3094.66 110.81 32
-8 2 -5 2655.52 101.638 19
-8 2 -6 266.148 26.0267 32
8 -1 -5 80.5991 19.1621 14
8 -1 -4 968.379 54.6579 28
8 -1 -4 921.32 57.3299 26
8 -1 -4 972.142 47.2825 13
8 -1 -3 134.723 32.0016 28
8 -1 -3 136.579 43.9567 26
8 -1 -3 116.396 29.123 13
8 -1 -2 -9.89553 36.8263 20
8 -1 -2 4.43205 29.1282 28
8 -1 -2 5.19431 47.6237 26
8 -1 -2 -1.60166 33.7866 13
8 -1 -1 140.932 38.8376 11
-8 1 0 415.545 39.6999 32
8 -1 0 338.048 52.2416 20
8 -1 0 451.198 50.7945 11
8 -1 0 400.083 64.1593 26
-8 1 -1 2898.45 120.58 32
8 -1 1 3179.1 148.239 26
8 -1 1 2880.23 128.251 6
-8 1 -2 27.9199 33.4725 32
8 -1 2 56.7986 35.8786 6
8 -1 2 35.9812 50.1018 26
8 -1 3 1040 68.1297 6
-8 1 -3 965.51 63.931 32
8 -1 3 952.866 76.5862 26
8 -1 4 58.3238 31.5229 6
8 -1 4 91.6669 41.062 26
-8 1 -5 215.572 36.779 32
-8 1 -5 235.882 37.2532 19
-8 1 -6 722.013 45.6762 32
-8 1 -6 727.112 43.4128 19
-8 1 -7 198.596 20.5972 32
8 0 -4 1540.92 69.0238 28
8 0 -4 1639.83 72.4431 26
-8 0 4 1589.32 62.751 21
8 0 -3 10.5013 27.2206 28
8 0 -3 4.00624 38.2698 26
8 0 -2 117.484 38.228 20
8 0 -2 21.5338 30.7996 11
8 0 -2 23.0839 47.9265 26
8 0 -2 64.626 28.2895 13
8 0 -1 197.801 46.3091 20
8 0 -1 236.639 41.0829 11
8 0 0 9.28415 45.5477 20
8 0 0 51.7234 56.8235 26
8 0 1 522.712 55.2345 6
-8 0 -1 590.006 47.7319 32
8 0 1 622.259 73.6807 26
-8 0 -2 134.481 34.8139 32
8 0 2 106.88 39.7135 6
8 0 2 128.478 52.4599 26
-8 0 -3 1784.75 89.2217 32
8 0 3 1714.88 93.3962 6
8 0 3 1733.42 104.144 26
-8 0 -4 8.81273 35.6349 32
8 0 4 23.7189 34.2359 6
8 0 4 -9.24181 40.762 26
-8 0 -5 1809.88 91.1769 19
8 0 5 1798.18 87.3456 6
-8 0 -6 101.11 31.5409 32
-8 0 -6 159.334 33.8905 19
-8 0 -7 1072.85 52.7646 32
-8 0 -7 1014.61 52.4163 19
8 1 -3 60.7225 26.2324 28
8 1 -3 78.0206 37.6372 26
8 1 -2 2260.5 101.461 20
8 1 -2 2292.96 116.057 26
8 1 -1 3505.51 141.058 20
8 1 -1 3293.96 137.36 11
8 1 0 462.554 55.8714 20
8 1 0 352.014 46.9479 11
8 1 0 350.572 65.2027 26
-8 -1 -1 706.766 48.4497 32
8 1 1 733.42 78.5083 26
8 1 1 634.743 58.8079 6
-8 -1 -2 226.882 37.1569 32
8 1 2 284.902 62.4228 26
-8 -1 -3 554.078 49.8453 32
8 1 3 506.048 57.0124 6
8 1 3 570.52 69.2662 26
-8 -1 -4 512.156 51.6182 32
8 1 4 469.327 53.513 6
8 1 4 561.61 61.453 26
-8 -1 -5 1428.69 77.5935 32
-8 -1 -5 1481.13 86.986 19
8 1 5 1444.63 80.7811 6
-8 -1 -6 122.897 35.9731 32
-8 -1 -6 170.286 40.8221 19
-8 -1 -6 102.673 33.5527 2
-8 -1 -7 6.17723 26.3945 32
-8 -1 -7 34.3649 29.2856 19
-8 -1 -8 17.7473 18.7113 32
-8 -1 -8 21.4686 19.8847 19
8 2 -3 1442.31 72.4546 26
-8 -2 3 1484.28 63.6121 21
8 2 -2 905.43 68.9252 26
8 2 -1 36.7138 31.7361 20
8 2 0 9.80812 36.3033 20
8 2 0 -20.1892 30.8488 11
8 2 0 2.92113 49.4221 26
8 2 1 -13.0444 37.8934 20
8 2 1 27.3537 35.0907 6
8 2 1 55.0136 54.4605 26
-8 -2 -2 163.681 32.277 32
8 2 2 185.151 40.0132 6
8 2 2 206.23 59.4425 26
-8 -2 -3 4.88939 30.439 32
8 2 3 27.7816 35.2798 6
8 2 3 17.0784 49.6095 26
-8 -2 -4 160.12 37.0817 32
8 2 4 130.109 47.6575 26
-8 -2 -5 732.201 58.019 32
-8 -2 -5 781.267 64.96 19
-8 -2 -6 16.5351 30.8147 2
-8 -2 -7 507.373 43.145 32
-8 -2 -7 481.489 46.8826 19
-8 -2 -7 363.305 37.7086 25
-8 -2 -8 148.456 25.5463 32
-8 -2 -8 145.506 28.9599 19
8 3 -2 790.676 56.9673 26
-8 -3 2 646.323 43.2617 21
8 3 -1 151.291 28.7511 20
-8 -3 1 181.587 34.3443 21
8 3 0 254.84 37.1178 20
8 3 0 296.296 57.2537 26
8 3 1 38.6222 34.6095 20
8 3 1 32.7146 29.4692 11
8 3 1 59.4476 51.7279 26
8 3 2 197.153 37.7847 6
8 3 2 223.998 60.6192 26
-8 -3 -3 93.5115 29.4835 32
8 3 3 90.2935 36.5212 6
8 3 3 -5.42762 48.5923 26
-8 -3 -4 3275.4 128.747 32
8 3 4 3152.02 134.649 6
8 3 4 3222.62 142.357 26
-8 -3 -5 492.216 48.8828 32
-8 -3 -5 500.054 55.9857 19
8 3 5 475.126 50.9526 6
-8 -3 -6 416.983 45.607 32
-8 -3 -6 407.415 50.467 19
-8 -3 -7 1230.8 70.0081 19
-8 -3 -7 1127.08 64.6169 25
-8 -3 -8 34.5907 25.6498 32
-8 -3 -8 38.026 21.2042 25
-8 -3 -9 258.497 25.2983 19
8 4 -2 868.522 43.2244 15
-8 -4 2 1003.07 45.9137 21
-8 -4 1 33.9573 25.4382 21
8 4 0 39.0615 41.4746 26
8 4 1 63.2653 27.7696 20
8 4 1 61.0558 51.9113 26
8 4 2 17.7671 28.7232 20
8 4 2 -5.88938 14.1604 6
8 4 2 35.4031 46.8844 26
8 4 3 2515.33 105.197 6
-8 -4 -3 2301.34 97.1349 32
8 4 3 2642.12 124.027 26
-8 -4 -4 7.24289 27.2453 32
8 4 4 3.47052 30.9806 6
8 4 4 4.11788 38.8614 26
-8 -4 -5 118.465 33.0812 32
-8 -4 -5 82.076 38.3395 19
8 4 5 94.0577 34.5761 6
-8 -4 -6 1619.69 80.0374 32
-8 -4 -6 1534.37 82.9053 19
-8 -4 -7 838.688 54.4194 32
-8 -4 -7 803.282 55.1776 19
-8 -4 -7 722.555 55.2194 25
-8 -4 -8 1539.59 68.6492 32
-8 -4 -8 1460.84 69.8848 19
-8 -4 -8 1386.51 66.1955 25
-8 -4 -9 2955.8 105.401 19
-8 -5 1 -2.51777 18.0488 21
8 5 0 216.114 42.2444 26
-8 -5 -1 112.289 30.0211 21
8 5 1 133.773 43.9614 26
8 5 2 24.907 40.2668 26
-8 -5 -2 25.8074 27.1756 21
-8 -5 -3 3021.94 120.314 19
-8 -5 -3 3256.19 123.394 21
-8 -5 -4 1044.75 57.0262 32
-8 -5 -4 1162.95 62.9347 19
-8 -5 -4 1102.88 57.5017 21
-8 -5 -5 105.972 29.5712 32
-8 -5 -5 146.355 34.104 19
-8 -5 -6 723.8 49.6793 32
-8 -5 -6 704.137 49.9085 19
-8 -5 -7 829.814 50.5313 32
-8 -5 -7 679.581 48.6616 19
-8 -5 -8 14.9135 23.0672 19
-8 -5 -8 15.1365 24.976 25
-8 -6 -1 530.712 36.847 21
-8 -6 -2 485.23 37.4741 21
-8 -6 -3 1112.27 56.0666 21
-8 -6 -4 808.713 43.6589 21
-8 -6 -5 22.7106 23.5208 32
-8 -6 -6 579.413 41.1491 32
-8 -6 -7 18.4618 23.762 32
-8 -6 -7 -7.81999 18.2522 19
-8 -6 -7 19.5461 27.2947 25
-8 -7 -3 362.488 26.8828 21
-8 -7 -4 1404.29 59.0641 25
-8 -7 -5 625.165 40.0322 25
-8 -7 -6 481.412 36.9628 25
-8 -7 -7 67.1949 22.3189 25
9 -3 -1 334.336 28.7099 13
9 -3 0 156.537 34.729 26
-9 3 -1 28.9462 17.4233 32
9 -3 1 57.1215 29.4084 26
-9 3 -2 56.892 18.7531 32
9 -3 2 46.9859 25.9588 26
-9 3 -3 1634.43 62.923 32
9 -2 -2 115.603 28.6407 26
9 -2 -1 474.293 37.0076 20
9 -2 -1 482.109 35.0304 13
9 -2 0 42.0066 24.3885 20
9 -2 0 58.6502 36.3636 26
9 -2 1 8.93322 23.0564 20
-9 2 -1 7.72494 19.1955 32
9 -2 1 30.7743 34.9348 26
9 -2 2 29.0343 22.6123 20
-9 2 -2 49.9435 21.8528 32
9 -2 2 41.1365 31.7978 26
-9 2 -3 5121.45 169.877 32
9 -1 -2 14.838 26.7026 26
9 -1 -1 1018.87 49.2047 13
9 -1 0 9.31557 26.7448 20
9 -1 0 33.8382 38.4719 26
9 -1 1 -5.5258 29.1419 20
-9 1 -1 5.12664 19.1304 32
9 -1 1 34.5984 39.5674 26
9 -1 2 3269.03 123.054 20
-9 1 -2 3183.56 115.431 32
9 -1 2 3103.03 130.283 26
9 -1 3 95.0505 27.4446 20
-9 1 -3 72.6501 23.9318 32
-9 1 -3 118.01 28.2955 19
9 -1 3 47.3232 29.4887 26
9 -1 4 883.008 46.7846 20
-9 1 -4 926.518 47.7132 32
-9 1 -4 864.707 45.7584 19
9 0 -2 31.0464 26.7355 26
9 0 -1 31.5106 24.4974 20
9 0 0 138.527 31.6382 20
9 0 0 153.408 41.2343 26
9 0 0 109.964 22.9395 13
9 0 1 736.966 62.0496 26
-9 0 -2 130.162 24.9134 32
9 0 2 145.093 40.5386 26
9 0 3 254.721 37.192 20
-9 0 -3 253.46 30.5999 32
9 0 3 209.737 41.4957 26
-9 0 -4 18.0977 23.9028 32
-9 0 -4 29.3142 27.4559 19
-9 0 -5 89.8963 23.226 32
-9 0 -5 73.0218 22.9622 19
9 1 0 151.229 30.4588 20
9 1 0 115.955 41.5143 26
9 1 1 1286.42 68.6831 20
9 1 1 1378.26 81.1702 26
9 1 2 59.7585 32.9307 20
-9 -1 -2 40.3761 20.8073 32
9 1 2 23.4056 39.0891 26
9 1 3 22.9886 29.8835 20
-9 -1 -3 27.2466 22.9702 32
9 1 3 20.3329 32.6 26
-9 -1 -4 254.401 31.1739 32
-9 -1 -5 327.55 31.7433 32
-9 -1 -5 303.269 34.1333 19
-9 -1 -6 47.3188 20.5501 19
-9 -2 1 79.8072 19.5751 21
9 2 0 22.8853 21.7814 20
9 2 0 23.4933 32.1047 26
9 2 1 1140.2 58.8531 20
9 2 1 977.396 67.9858 26
9 2 2 1804.15 81.3092 20
9 2 2 1611.94 87.7131 26
9 2 3 14.6509 28.7936 20
-9 -2 -3 10.0793 19.8911 32
9 2 3 -53.4488 35.7607 26
-9 -2 -4 259.94 30.5201 32
-9 -2 -4 297.809 38.569 19
-9 -2 -5 5.10784 22.7607 32
-9 -2 -5 26.3351 25.9697 19
-9 -2 -6 18.0256 20.731 32
9 3 0 313.859 35.5457 26
9 3 1 839.667 55.4397 26
-9 -3 -1 840.815 43.9243 21
9 3 2 19.9481 23.17 20
9 3 2 55.7103 33.3859 26
-9 -3 -2 41.2455 23.08 21
9 3 3 794.894 49.279 20
-9 -3 -3 852.466 51.262 19
9 3 3 767.756 52.9293 26
-9 -3 -3 783.352 42.8964 21
-9 -3 -4 -6.19535 19.1111 32
-9 -3 -4 31.5471 28.3924 19
-9 -3 -5 255.775 28.2704 32
-9 -3 -5 252.702 32.9735 19
-9 -3 -6 21.032 20.4351 32
-9 -3 -6 7.04224 21.4303 19
-9 -3 -6 -8.07553 18.5527 25
-9 -4 -1 18.5923 16.8471 21
9 4 1 26.8062 25.2001 26
9 4 2 1067.15 55.6077 26
-9 -4 -2 938.37 45.5321 21
-9 -4 -3 49.0021 19.1092 21
9 4 3 47.1162 20.7238 20
-9 -4 -3 59.2435 21.9064 19
9 4 3 41.8749 24.4093 26
9 4 4 149.921 25.6176 20
-9 -4 -4 173.977 25.437 19
-9 -4 -5 24.1532 17.3628 32
-9 -4 -5 6.54671 20.7082 19
-9 -4 -6 -5.26883 17.3076 32
-9 -4 -6 8.31939 18.7455 25
loop_
_smtbx_masks_void_nr
_smtbx_masks_void_average_x
_smtbx_masks_void_average_y
_smtbx_masks_void_average_z
_smtbx_masks_void_volume
_smtbx_masks_void_count_electrons
1 -0.055 0.500 0.000 181.1 62.5
