#------------------------------------------------------------------------------
#$Date: 2019-11-26 00:29:25 +0200 (Tue, 26 Nov 2019) $
#$Revision: 242171 $
#$URL: file:///home/coder/svn-repositories/cod/cif/4/13/21/4132127.cif $
#------------------------------------------------------------------------------
#
# This file is available in the Crystallography Open Database (COD),
# http://www.crystallography.net/
#
# All data on this site have been placed in the public domain by the
# contributors.
#
data_4132127
loop_
_publ_author_name
'Cheng, Ruofei'
'Li, Bowen'
'Wu, Jie'
'Zhang, Jie'
'Qiu, Zaozao'
'Tang, Wenjun'
'You, Shu-Li'
'Tang, Yong'
'Xie, Zuowei'
_publ_section_title
;
 Enantioselective Synthesis of Chiral-at-Cage o-Carboranes via
 Pd-Catalyzed Asymmetric B-H Substitution.
;
_journal_issue                   13
_journal_name_full               'Journal of the American Chemical Society'
_journal_page_first              4508
_journal_page_last               4511
_journal_paper_doi               10.1021/jacs.8b01754
_journal_volume                  140
_journal_year                    2018
_chemical_formula_moiety         'C9 H13 B10 I O'
_chemical_formula_sum            'C9 H13 B10 I O'
_chemical_formula_weight         372.19
_space_group_crystal_system      monoclinic
_space_group_IT_number           4
_space_group_name_Hall           'P 2yb'
_space_group_name_H-M_alt        'P 1 21 1'
_atom_sites_solution_hydrogens   geom
_audit_creation_date             2017-11-15
_audit_creation_method
;
Olex2 1.2
(compiled 2017.08.10 svn.r3458 for OlexSys, GUI svn.r5381)
;
_cell_angle_alpha                90
_cell_angle_beta                 106.522(2)
_cell_angle_gamma                90
_cell_formula_units_Z            2
_cell_length_a                   9.1291(5)
_cell_length_b                   7.3414(4)
_cell_length_c                   11.9192(5)
_cell_measurement_reflns_used    4590
_cell_measurement_temperature    301(2)
_cell_measurement_theta_max      60.45
_cell_measurement_theta_min      4.72
_cell_volume                     765.85(7)
_computing_cell_refinement       'SAINT v8.37A (Bruker, 2015)'
_computing_data_reduction        'SAINT v8.37A (Bruker, 2015)'
_computing_molecular_graphics    'Olex2 (Dolomanov et al., 2009)'
_computing_publication_material  'Olex2 (Dolomanov et al., 2009)'
_computing_structure_refinement  'ShelXL (Sheldrick, 2015)'
_computing_structure_solution    'SHELXT 2014/5 (Sheldrick, 2014)'
_diffrn_ambient_temperature      300.67
_diffrn_measured_fraction_theta_full 0.993
_diffrn_measured_fraction_theta_max 0.993
_diffrn_measurement_device_type  'Bruker APEX-II CCD'
_diffrn_measurement_method       '\f and \w scans'
_diffrn_radiation_type           GaK\a
_diffrn_radiation_wavelength     1.34139
_diffrn_reflns_av_R_equivalents  0.0525
_diffrn_reflns_av_unetI/netI     0.0658
_diffrn_reflns_Laue_measured_fraction_full 0.993
_diffrn_reflns_Laue_measured_fraction_max 0.993
_diffrn_reflns_limit_h_max       11
_diffrn_reflns_limit_h_min       -11
_diffrn_reflns_limit_k_max       9
_diffrn_reflns_limit_k_min       -9
_diffrn_reflns_limit_l_max       14
_diffrn_reflns_limit_l_min       -15
_diffrn_reflns_number            8768
_diffrn_reflns_point_group_measured_fraction_full 0.984
_diffrn_reflns_point_group_measured_fraction_max 0.980
_diffrn_reflns_theta_full        53.594
_diffrn_reflns_theta_max         60.574
_diffrn_reflns_theta_min         4.716
_diffrn_standards_number         0
_exptl_absorpt_coefficient_mu    10.895
_exptl_absorpt_correction_T_max  0.7519
_exptl_absorpt_correction_T_min  0.3326
_exptl_absorpt_correction_type   multi-scan
_exptl_absorpt_process_details
;
SADABS-2016/2 (Bruker,2016/2) was used for absorption correction.
wR2(int) was 0.1542 before and 0.0892 after correction.
The Ratio of minimum to maximum transmission is 0.4423.
The \l/2 correction factor is Not present.
;
_exptl_crystal_colour            colourless
_exptl_crystal_colour_primary    colourless
_exptl_crystal_density_diffrn    1.614
_exptl_crystal_description       prism
_exptl_crystal_F_000             356
_exptl_crystal_size_max          0.1
_exptl_crystal_size_mid          0.02
_exptl_crystal_size_min          0.01
_refine_diff_density_max         0.426
_refine_diff_density_min         -0.815
_refine_diff_density_rms         0.095
_refine_ls_abs_structure_details
;
 Flack x determined using 912 quotients [(I+)-(I-)]/[(I+)+(I-)]
 (Parsons and Flack (2004), Acta Cryst. A60, s61).
;
_refine_ls_abs_structure_Flack   0.086(10)
_refine_ls_extinction_method     none
_refine_ls_goodness_of_fit_ref   1.033
_refine_ls_hydrogen_treatment    constr
_refine_ls_matrix_type           full
_refine_ls_number_parameters     190
_refine_ls_number_reflns         3454
_refine_ls_number_restraints     1
_refine_ls_restrained_S_all      1.033
_refine_ls_R_factor_all          0.0616
_refine_ls_R_factor_gt           0.0429
_refine_ls_shift/su_max          0.000
_refine_ls_shift/su_mean         0.000
_refine_ls_structure_factor_coef Fsqd
_refine_ls_weighting_details
;
 w=1/[\s^2^(Fo^2^)+(0.0569P)^2^]
 where P=(Fo^2^+2Fc^2^)/3
;
_refine_ls_weighting_scheme      calc
_refine_ls_wR_factor_gt          0.1121
_refine_ls_wR_factor_ref         0.1236
_reflns_Friedel_coverage         0.832
_reflns_Friedel_fraction_full    0.974
_reflns_Friedel_fraction_max     0.966
_reflns_number_gt                2467
_reflns_number_total             3454
_reflns_threshold_expression     'I > 2\s(I)'
_cod_data_source_file            ja8b01754_si_002.cif
_cod_data_source_block           (S)-4a
_cod_database_code               4132127
_shelxl_version_number           2013-2
_shelx_space_group_comment
;
The symmetry employed for this shelxl refinement is uniquely defined
by the following loop, which should always be used as a source of
symmetry information in preference to the above space-group names.
They are only intended as comments.
;
_shelx_estimated_absorpt_t_max   0.899
_shelx_estimated_absorpt_t_min   0.409
_olex2_refinement_description
;
1. Fixed Uiso
 At 1.2 times of:
  All B(H) groups, All C(H) groups
2.a Aromatic/amide H refined with riding coordinates:
 C5(H5), C6(H6), C7(H7), C8(H8)
2.b Boron cage BH refined with riding coordinates:
 C2(H2), B3(H3), B7(H7A), B11(H11), B6(H6A), B4(H4), B10(H10), B8(H8A), B9(H9)
;
_shelx_res_file
;
TITL mjr17046_0m_c.res in P2(1)
REM Old TITL mjr17046_0m in P2(1)
REM SHELXT solution in P2(1)
REM R1 0.225, Rweak 0.031, Alpha 0.053, Orientation as input
REM Flack x = 0.463 ( 0.012 ) from Parsons' quotients
REM Formula found by SHELXT: C19 B3 O2 I
CELL 1.34139 9.1291 7.3414 11.9192 90 106.522 90
ZERR 2 0.0005 0.0004 0.0005 0 0.002 0
LATT -1
SYMM -X,0.5+Y,-Z
SFAC C H B I O
DISP B 0.007 0.003 27.205
DISP C 0.015 0.007 57.748
DISP H -0 0 0.648
DISP I 0.097 5.498 40725.167
DISP O 0.041 0.025 193.954
UNIT 18 26 20 2 2

L.S. 10
PLAN  20
SIZE 0.01 0.02 0.1
TEMP 27.52
BOND $H
LIST 6
conf
bond $h
fmap 2
acta
REM <olex2.extras>
REM <HklSrc "%.\\mjr17046_0m.hkl">
REM </olex2.extras>

WGHT    0.056900
FVAR       0.80046
I1    4    0.650153    1.074795    0.966018    11.00000    0.10951    0.08358 =
         0.06337   -0.01280    0.04506   -0.00104
O1    5    0.777251    0.303084    0.566405    11.00000    0.12937    0.04153 =
         0.08357   -0.00532    0.03678   -0.00649
C2    1    0.652843    0.535801    0.751947    11.00000    0.08746    0.05525 =
         0.05890    0.00443    0.03423   -0.01438
AFIX 153
H2    2    0.595648    0.403041    0.747664    11.00000   -1.20000
AFIX   0
C1    1    0.765036    0.579480    0.671831    11.00000    0.06591    0.04224 =
         0.05146    0.00148    0.02045   -0.00327
C3    1    0.781379    0.464606    0.569532    11.00000    0.06780    0.05542 =
         0.06131   -0.00466    0.02324   -0.00151
C4    1    0.792565    0.590145    0.475476    11.00000    0.05880    0.05410 =
         0.05880   -0.00474    0.02205    0.00341
C5    1    0.806997    0.536382    0.367938    11.00000    0.07777    0.06003 =
         0.06883   -0.01318    0.03683    0.00473
AFIX  43
H5    2    0.816607    0.413560    0.352274    11.00000   -1.20000
AFIX   0
C6    1    0.807078    0.664022    0.285086    11.00000    0.07962    0.09122 =
         0.05953   -0.01541    0.03816    0.00159
AFIX  43
H6    2    0.816362    0.627829    0.212646    11.00000   -1.20000
AFIX   0
C7    1    0.793371    0.848377    0.307901    11.00000    0.08245    0.07700 =
         0.05936    0.00385    0.03827    0.00374
AFIX  43
H7    2    0.793668    0.933921    0.250418    11.00000   -1.20000
AFIX   0
C8    1    0.779186    0.906550    0.415921    11.00000    0.07341    0.05549 =
         0.05201    0.00469    0.03416    0.00417
AFIX  43
H8    2    0.772118    1.030040    0.430985    11.00000   -1.20000
AFIX   0
C9    1    0.775773    0.778402    0.500214    11.00000    0.05148    0.05502 =
         0.04111   -0.00223    0.01623    0.00433
B3    3    0.846179    0.540844    0.816906    11.00000    0.09130    0.06442 =
         0.05184    0.01813    0.02068    0.00543
AFIX 153
H3    2    0.916969    0.422239    0.854198    11.00000   -1.20000
AFIX   0
B7    3    0.714630    0.640886    0.884343    11.00000    0.08789    0.06705 =
         0.04657    0.00829    0.02658   -0.00793
AFIX 153
H7A   2    0.700882    0.587870    0.967074    11.00000   -1.20000
AFIX   0
B11   3    0.555828    0.725446    0.771631    11.00000    0.07012    0.07737 =
         0.05335    0.00564    0.03175   -0.00597
AFIX 153
H11   2    0.440052    0.726767    0.782319    11.00000   -1.20000
AFIX   0
B6    3    0.587742    0.678547    0.634566    11.00000    0.05481    0.06464 =
         0.05593    0.00255    0.02109   -0.00417
AFIX 153
H6A   2    0.493502    0.646922    0.556168    11.00000   -1.20000
AFIX   0
B4    3    0.911177    0.718135    0.740073    11.00000    0.06224    0.05433 =
         0.05852    0.00499    0.01750    0.00566
AFIX 153
H4    2    1.026662    0.714504    0.728880    11.00000   -1.20000
AFIX   0
B5    3    0.755167    0.800996    0.627572    11.00000    0.06080    0.04420 =
         0.04738    0.00146    0.02202    0.00170
B10   3    0.622727    0.901589    0.693104    11.00000    0.05763    0.06234 =
         0.04687    0.00511    0.02170    0.00429
AFIX 153
H10   2    0.550854    1.017946    0.653044    11.00000   -1.20000
AFIX   0
B12   3    0.701631    0.873363    0.847212    11.00000    0.07112    0.06158 =
         0.04626   -0.00865    0.02855    0.00123
B8    3    0.879198    0.763300    0.877069    11.00000    0.08155    0.05515 =
         0.05312    0.00427    0.01508   -0.00113
AFIX 153
H8A   2    0.973425    0.791221    0.956194    11.00000   -1.20000
AFIX   0
B9    3    0.822931    0.926301    0.759206    11.00000    0.06433    0.05170 =
         0.04970    0.00268    0.02134   -0.00333
AFIX 153
H9    2    0.879822    1.059029    0.762183    11.00000   -1.20000
AFIX   0
HKLF 4

REM  mjr17046_0m_c.res in P2(1)
REM R1 =  0.0429 for    2467 Fo > 4sig(Fo)  and  0.0616 for all    3454 data
REM    190 parameters refined using      1 restraints

END

WGHT      0.0560      0.0000

REM Highest difference peak  0.426,  deepest hole -0.815,  1-sigma level  0.095
Q1    1   0.6392  0.9399  0.9804  11.00000  0.05    0.43
Q2    1   0.6198  0.9103  0.9433  11.00000  0.05    0.41
Q3    1   0.6215  0.5661  0.9435  11.00000  0.05    0.40
Q4    1   0.7017  1.2091  1.0195  11.00000  0.05    0.38
Q5    1   0.5762  0.9397  0.9041  11.00000  0.05    0.37
Q6    1   0.7217  0.9472  1.0423  11.00000  0.05    0.37
Q7    1   0.5742  1.1660  0.8971  11.00000  0.05    0.36
Q8    1   1.0230  0.7861  0.9917  11.00000  0.05    0.36
Q9    1   0.5578  0.9837  0.8886  11.00000  0.05    0.35
Q10   1   0.5034  1.0759  0.7982  11.00000  0.05    0.34
Q11   1   0.8102  1.0675  0.1427  11.00000  0.05    0.33
Q12   1   0.7793  0.8262  0.0996  11.00000  0.05    0.32
Q13   1   0.6047  1.0825  0.7606  11.00000  0.05    0.31
Q14   1   0.5670  1.0865  1.0356  11.00000  0.05    0.29
Q15   1   0.6436  0.7697  0.9776  11.00000  0.05    0.29
Q16   1   0.7210  1.0732  0.1756  11.00000  0.05    0.29
Q17   1   0.6091  1.2331  0.9182  11.00000  0.05    0.28
Q18   1   0.7629  0.6562  1.0787  11.00000  0.05    0.28
Q19   1   0.4883  0.4545  0.8147  11.00000  0.05    0.28
Q20   1   0.6604  0.3513  0.9790  11.00000  0.05    0.27
;
_shelx_res_checksum              81577
_shelx_hkl_file
;
   3   0   0  375.36   29.30
   3   0   0  382.66   30.40
  -3   0   0  355.36   29.30
  -4   0   0  439.86   32.50
  -4   0   0  400.86   33.00
   4   0   0  423.86   34.10
   4   0   0  371.06   32.70
   5   0   0  407.46   34.90
   5   0   0  433.76   36.90
   5   0   0  418.16   35.00
  -5   0   0  436.46   35.30
  -5   0   0  446.56   34.40
  -6   0   0  128.09   14.50
  -6   0   0  139.89   14.90
   6   0   0  127.59   17.60
  -6   0   0  143.59   13.60
  -6   0   0  129.79   12.50
   6   0   0  124.79   13.20
   7   0   0  413.66   33.10
  -7   0   0  392.06   34.30
  -7   0   0  375.86   32.40
   8   0   0    0.60    3.50
   8   0   0   -1.10    7.40
   9   0   0   16.00    8.10
   9   0   0   29.30    6.20
  10   0   0   -3.30    5.60
  11   0   0   -3.30    2.60
   0   1   0    2.60    1.20
  -1   1   0 1371.46  103.39
  -1   1   0 1386.46  103.69
   3  -1   0  598.04   48.70
   3  -1   0  614.94   49.00
  -3  -1   0  642.24   48.30
  -3  -1   0  615.74   48.40
  -3  -1   0  646.34   48.00
  -3   1   0  637.34   48.40
  -3   1   0  662.23   48.30
  -3   1   0  574.24   48.70
   3   1   0  646.54   48.90
  -4  -1   0 1116.09   87.19
  -4  -1   0 1137.09   86.99
   4  -1   0 1021.30   87.29
   4  -1   0 1182.28   88.19
  -4  -1   0 1110.39   86.79
  -4   1   0 1202.38   87.29
  -4   1   0 1089.99   86.49
  -4   1   0 1185.18   87.99
   4   1   0 1229.18   88.19
  -4   1   0 1155.28   86.99
   5  -1   0  823.12   76.29
  -5  -1   0 1013.80   75.69
   5  -1   0  934.81   77.29
  -5  -1   0  918.81   75.69
   5   1   0 1080.09   75.89
  -5   1   0 1076.69   77.29
   5   1   0 1027.60   77.29
  -5   1   0 1020.50   75.69
  -5   1   0  957.50   75.39
  -6  -1   0   57.69    7.00
   6  -1   0   51.99    8.10
   6  -1   0   46.10   11.70
  -6   1   0   45.50    6.90
  -6   1   0   60.99   10.00
  -6   1   0   57.59    6.80
   6   1   0   37.20    9.30
   6   1   0   59.59    8.10
  -7  -1   0   24.40    7.00
   7  -1   0   29.50    7.00
   7  -1   0   15.90   11.30
   7   1   0   35.90    7.50
  -7   1   0   37.60    6.60
  -7   1   0   36.50    8.50
   8  -1   0   16.80   10.40
   8   1   0   22.50    5.70
   8   1   0    4.90    7.00
   9  -1   0   -2.80    9.90
   9  -1   0   17.40    5.90
   9   1   0   16.80    7.50
   9   1   0   18.80    5.70
  10  -1   0   -0.40    4.30
  10   1   0   -1.10    4.20
  11  -1   0   -0.70    3.10
  11   1   0    3.60    2.70
   0  -2   0 3689.83  276.07
   1  -2   0 1642.74  131.49
  -1  -2   0 1807.22  132.19
   1  -2   0 1691.13  132.09
   1  -2   0 1702.53  131.99
  -1   2   0 1769.32  131.89
   1   2   0 1893.01  132.19
   2  -2   0  471.35   37.10
  -2  -2   0  493.05   36.30
  -2  -2   0  490.85   37.10
   2  -2   0  480.95   37.40
   2  -2   0  501.75   37.00
  -2   2   0  372.16   36.20
   3  -2   0 1850.11  138.89
   3  -2   0 1672.83  142.59
  -3  -2   0 1808.12  137.69
  -3  -2   0 1846.32  138.89
  -3  -2   0 1898.21  138.09
  -3   2   0 1862.51  137.99
   3   2   0 1853.81  138.19
  -3   2   0 1867.71  139.29
  -3   2   0 1819.52  138.19
  -4  -2   0 1136.99   82.29
  -4  -2   0 1142.29   82.79
  -4  -2   0 1067.39   83.69
   4  -2   0 1099.19   84.39
   4  -2   0  937.31   82.79
  -4   2   0 1069.39   82.59
  -4   2   0 1099.29   84.19
   4   2   0 1078.19   82.99
  -4   2   0 1075.39   82.59
   4   2   0 1129.99   83.19
  -4   2   0 1062.69   82.09
   5  -2   0   17.90    4.60
  -5  -2   0   21.00    5.30
  -5  -2   0   21.60    4.80
   5  -2   0    9.20    8.70
  -5   2   0   18.90    4.20
  -5   2   0   18.40    3.60
   5   2   0   20.50    6.00
  -5   2   0   14.20    5.20
  -5   2   0   23.30    5.00
   5   2   0   26.10    6.00
   6  -2   0  394.56   35.40
   6  -2   0  387.06   31.40
  -6  -2   0  390.76   31.00
  -6  -2   0  412.46   31.70
  -6   2   0  372.66   31.20
  -6   2   0  349.87   29.70
  -6   2   0  301.67   33.10
   6   2   0  349.57   32.20
  -6   2   0  368.46   33.70
   6   2   0  418.96   32.20
   7  -2   0   97.69   19.10
   7  -2   0  113.89   12.80
   7   2   0  115.69   12.70
  -7   2   0   72.29    9.60
   7   2   0   83.69   12.80
  -7   2   0  126.59   15.20
   8  -2   0    1.40    5.10
   8  -2   0    4.40   10.60
  -8   2   0    6.90    3.70
   8   2   0   -1.40    5.00
   8   2   0   -2.80    4.40
   9  -2   0    1.20    4.00
   9  -2   0   -2.70    7.20
   9   2   0    5.30    5.80
   9   2   0   -5.80    4.50
  10  -2   0    9.10    4.70
  10   2   0    7.10    5.10
  11  -2   0   -0.70    3.40
  11   2   0   -4.80    2.90
   0  -3   0    1.40    2.90
   0  -3   0    2.40    2.70
   0  -3   0    2.20    2.70
   0   3   0    1.80    2.10
   0   3   0    1.70    1.80
  -1  -3   0  328.37   27.30
   1  -3   0  311.77   27.60
   1  -3   0  313.67   28.20
   1  -3   0  291.57   28.20
   1   3   0  342.17   26.80
   1   3   0  401.16   28.70
  -1   3   0  368.06   28.20
  -1   3   0  366.36   27.10
   2  -3   0 1770.02  126.79
   2  -3   0 1642.14  127.49
   2  -3   0 1551.54  127.09
  -2  -3   0 1509.75  127.09
  -2  -3   0 1879.11  126.19
  -2   3   0 1717.63  126.59
  -2   3   0 1648.83  125.59
   2   3   0 1616.14  125.49
   3  -3   0  719.53   53.39
   3  -3   0  639.24   53.39
   3  -3   0  637.54   51.19
  -3   3   0  685.03   51.49
   3   3   0  664.83   51.39
  -3   3   0  685.43   51.09
  -3   3   0  696.73   52.29
   3   3   0  578.24   51.89
   4  -3   0  461.65   37.80
  -4  -3   0  488.95   38.00
   4  -3   0  479.65   40.80
  -4   3   0  455.45   38.10
   4   3   0  491.45   38.50
  -4   3   0  516.15   39.00
   4   3   0  468.65   39.20
  -4   3   0  483.95   37.80
   5  -3   0  304.27   28.30
   5  -3   0  260.77   23.30
  -5  -3   0  267.47   23.40
  -5   3   0  297.97   23.70
  -5   3   0  301.37   24.10
  -5   3   0  241.08   23.20
   5   3   0  265.37   24.10
   5   3   0  316.07   25.30
   6  -3   0    2.10    4.40
  -6  -3   0    9.60    5.30
  -6   3   0   13.00    5.10
  -6   3   0   19.10    4.10
   6   3   0    8.50    4.80
   6   3   0   12.90    5.50
   7  -3   0    4.20    4.50
   7  -3   0    1.10   11.30
   7   3   0    0.30    4.20
  -7   3   0   -1.60    2.60
   7   3   0    0.80    4.60
   8  -3   0   28.90   12.80
   8  -3   0   35.20    7.80
  -8   3   0   29.60    5.90
   8   3   0   17.30    6.30
   9  -3   0   13.70    6.60
   9  -3   0    3.10    8.20
   9   3   0   16.90    6.70
  10  -3   0   14.70    5.80
  10   3   0    2.80    4.20
   0  -4   0 2037.40  148.49
   0   4   0 1837.22  147.79
   0   4   0 1968.50  149.39
   0   4   0 1994.30  147.69
   1  -4   0  359.56   30.20
   1  -4   0  302.37   28.90
  -1   4   0  359.36   30.40
   1   4   0  376.26   28.90
  -1   4   0  354.16   28.90
  -1   4   0  383.86   28.90
   1   4   0  385.06   31.00
   1   4   0  348.77   29.40
   2  -4   0  564.84   46.20
   2  -4   0  630.84   48.10
  -2  -4   0  637.74   46.90
   2   4   0  517.85   46.70
  -2   4   0  593.94   46.00
  -2   4   0  588.94   47.40
   2   4   0  601.24   46.30
  -2   4   0  572.34   45.90
   3  -4   0  569.44   47.80
   3  -4   0  602.94   50.39
  -3  -4   0  621.94   48.60
   3   4   0  549.25   49.00
  -3   4   0  656.33   49.40
  -3   4   0  658.13   47.80
   3   4   0  613.74   48.00
  -3   4   0  605.94   47.90
  -4  -4   0  119.19   12.10
  -4  -4   0  129.69   13.00
   4  -4   0  139.69   18.00
   4  -4   0  116.09   11.80
  -4   4   0  126.09   13.00
  -4   4   0  115.59   12.10
   4   4   0  104.19   12.00
  -4   4   0  136.79   12.20
   4   4   0  102.79   16.70
  -5  -4   0    5.60    4.20
   5  -4   0    2.70   10.60
   5  -4   0    5.70    3.70
  -5  -4   0    3.00    3.70
   5   4   0    1.90    3.40
  -5   4   0    1.50    4.10
   5   4   0    1.20    4.50
  -5   4   0    0.50    3.30
  -6  -4   0   81.49   10.80
   6  -4   0   85.69   11.20
  -6   4   0  110.39   10.20
   6   4   0   79.69   10.70
   6   4   0  113.99   13.80
  -6   4   0  107.49   11.80
   7  -4   0   52.69   15.30
   7   4   0   55.09    9.60
  -7   4   0   81.49   10.40
  -7   4   0   82.69    8.80
   7   4   0   87.49   12.50
   8  -4   0    6.60    5.60
   8  -4   0    1.10   10.00
   8   4   0    5.20    4.20
  -8   4   0   12.40    4.20
   9  -4   0   16.30    5.60
   9   4   0   10.00    4.40
  10  -4   0   12.00    5.20
  10   4   0   11.00    4.70
   0  -5   0    2.30    3.30
   0  -5   0    0.10    5.20
   0   5   0   -0.30    3.00
   0   5   0    1.50    2.80
   0   5   0    1.30    3.80
  -1  -5   0  464.25   41.40
   1  -5   0  508.85   42.60
   1  -5   0  463.15   40.90
  -1  -5   0  484.75   41.70
  -1   5   0  541.65   41.60
   1   5   0  525.75   41.50
   1   5   0  538.15   40.70
  -1   5   0  535.65   43.00
   2  -5   0  620.04   49.00
   2  -5   0  646.74   51.39
  -2  -5   0  641.74   49.70
  -2   5   0  616.84   48.60
   2   5   0  596.24   48.50
  -2   5   0  611.54   48.60
   2   5   0  571.14   49.70
  -2   5   0  614.34   50.59
   3  -5   0   45.90   11.90
  -3  -5   0   43.70    8.70
   3  -5   0   62.59    8.10
   3   5   0   57.99   10.10
   3   5   0   50.79    7.30
  -4  -5   0   87.79   10.70
  -4  -5   0   76.39   10.90
   4  -5   0   98.29   18.00
   4  -5   0   91.69   10.50
  -4   5   0   95.69   11.70
  -4   5   0   88.89   10.60
   4   5   0   86.49   13.00
   5  -5   0  149.29   14.90
   5  -5   0  131.59   21.90
  -5   5   0  169.98   15.20
   5   5   0  161.88   17.80
   5   5   0  117.99   14.10
   6  -5   0   13.20   12.30
   6  -5   0   27.70    7.30
  -6   5   0   33.70    7.60
   6   5   0   34.70    9.50
  -6   5   0   26.50    5.40
   7  -5   0    3.20   10.50
   7  -5   0   11.80    6.40
  -7   5   0    7.00    3.70
  -7   5   0    9.50    5.00
   7   5   0   22.70    8.00
   8  -5   0  -15.70    9.30
   8  -5   0   13.50    8.90
  -8   5   0    1.10    3.50
   8   5   0    4.80    5.30
   9  -5   0    1.00    3.30
   9   5   0   -1.10    2.90
   0  -6   0  463.45   38.70
   0  -6   0  453.25   39.60
   0   6   0  478.65   38.20
   0   6   0  425.96   37.00
  -1  -6   0   98.69   12.40
  -1  -6   0   74.09   12.30
   1  -6   0   76.69   14.30
   1  -6   0   82.49   11.00
  -1   6   0   69.69   10.30
   1   6   0   66.89    9.30
   1   6   0   70.39   10.80
   2  -6   0   32.90   11.40
  -2  -6   0   38.70    9.00
   2  -6   0   29.20    7.40
  -2   6   0   49.70    8.20
   2   6   0   40.10    8.50
  -2   6   0   53.49    9.80
   2   6   0   47.80    7.40
   3  -6   0  110.99   18.60
   3  -6   0  138.29   13.30
  -3  -6   0  120.99   14.30
  -3  -6   0  151.58   16.90
   3   6   0   90.59   11.60
  -3   6   0  114.59   12.60
   3   6   0   96.39   14.50
  -3   6   0  108.09   14.70
   4  -6   0  114.39   19.30
  -4  -6   0   93.39   13.40
  -4  -6   0  101.19   19.70
   4   6   0   96.99   16.50
  -4   6   0  124.19   12.80
   5  -6   0   -1.90   10.30
  -5  -6   0    7.40    6.50
   5  -6   0    1.90    4.90
   5   6   0    1.20    6.10
  -5   6   0    5.60    5.10
   6  -6   0   11.90   11.00
   6  -6   0   36.50    8.30
   6   6   0   12.30    6.50
  -6   6   0   20.40    6.30
  -6   6   0   26.50    5.70
   7  -6   0   28.80    9.00
   7  -6   0    9.10   16.10
   7   6   0   32.00   10.30
  -7   6   0   17.70    5.90
  -7   6   0   16.60    5.10
  -8  -6   0   -0.20    5.10
   8  -6   0    0.40    3.50
  -8   6   0   -0.40    2.40
   8   6   0    3.80    4.90
   0  -7   0    6.10    6.00
   0  -7   0    0.80    7.00
   0   7   0    0.60    4.50
   1  -7   0   84.89   11.60
  -1  -7   0   79.69   12.50
  -1  -7   0   52.19   11.60
   1  -7   0   61.69   13.30
   1   7   0   72.89   11.80
  -1   7   0   72.89   10.70
  -2  -7   0  121.49   15.50
   2  -7   0  100.49   12.70
  -2   7   0   99.79   12.30
   2   7   0   79.89   13.70
   3  -7   0    8.60   10.30
   3  -7   0   10.70    5.50
  -3  -7   0    2.00    5.70
  -3   7   0    8.70    6.00
   3   7   0    2.00    4.60
  -4  -7   0   19.50   10.40
   4  -7   0   12.60    4.90
   4  -7   0    5.20   10.70
  -4   7   0   27.50    7.20
   4   7   0   27.00    8.90
   5  -7   0   23.20   11.20
   5  -7   0   50.69    8.70
  -5  -7   0   44.90   12.70
   5   7   0   53.09   11.90
  -5   7   0   31.40    6.90
  -6  -7   0    5.00    8.20
   6  -7   0    1.40    5.00
   6   7   0   11.40    6.40
  -6   7   0    4.40    3.60
  -6   7   0    3.90    4.40
  -7  -7   0    0.60    4.80
   7  -7   0   -2.90    3.10
   7   7   0    0.00    3.50
  -7   7   0    0.30    2.30
   0  -8   0   71.79   12.00
   0   8   0   56.29   11.10
  -1  -8   0   11.40    8.00
   1  -8   0   17.40    7.00
  -1   8   0    4.10    5.80
   1   8   0   11.70    7.30
   2  -8   0   16.60    6.50
  -2  -8   0   12.70    8.70
  -2   8   0    6.80    5.30
   2   8   0   10.10    7.10
  -3  -8   0   14.10    8.60
   3  -8   0   13.70    6.30
  -3   8   0    8.60    5.00
   3   8   0   16.20    7.80
   4  -8   0    7.30    4.90
  -4  -8   0    9.80    7.90
   4  -8   0   -4.00    2.70
   4   8   0   -7.00    4.40
  -4   8   0    2.00    4.20
  -5  -8   0   16.40   11.70
   5  -8   0    1.90    3.30
  -5   8   0   10.30    4.20
   5   8   0    4.10    4.40
  -5   8   0    5.80    4.70
  -6  -8   0   -0.10    5.10
   6  -8   0    0.70    3.10
  -6   8   0    0.90    3.30
  -6   8   0    2.30    2.70
   6   8   0    4.30    3.80
   0  -9   0   -3.00    5.50
   0   9   0   -5.10    4.40
  -1  -9   0    6.00    6.90
   1  -9   0    1.60    4.50
  -1   9   0    8.40    5.70
   1   9   0    6.00    5.90
   2  -9   0   12.30    5.50
  -2  -9   0    0.10    5.20
  -2   9   0    0.00    4.00
   2   9   0    6.10    6.10
  -3  -9   0    3.60    4.70
   3  -9   0    3.80    2.90
   3  -9   0    3.90    3.20
   3   9   0    5.20    4.40
  -3   9   0    0.60    4.00
  11   0  -1    3.70    4.20
  10   0  -1   18.10    5.80
   9   0  -1    4.30    4.50
   9   0  -1    1.90    5.40
   8   0  -1   -7.30    5.40
   8   0  -1    1.50    4.10
  -8   0   1    6.80    7.80
  -7   0   1   48.10    7.20
  -7   0   1   49.00   10.80
   7   0  -1   35.90    9.80
   7   0  -1   53.49    8.70
  -7   0   1   51.79   10.40
  -6   0   1  418.16   36.20
   6   0  -1  423.16   36.50
  -6   0   1  372.96   37.50
   6   0  -1  460.55   35.10
  -6   0   1  448.26   35.00
   5   0  -1  841.62   65.69
  -5   0   1  820.62   66.29
   5   0  -1  818.22   66.49
  -5   0   1  906.01   65.79
   4   0  -1 1773.72  135.39
   4   0  -1 1745.73  135.39
  -4   0   1 1841.92  135.19
   3   0  -1 9999.00  745.03
   2   0  -1  150.48   12.60
  -2   0   1  142.49   12.80
   1   0  -1   82.49    7.10
  -1   0   1   84.49    7.30
  -2   0  -1 2531.85  179.88
   2   0   1 2336.77  180.18
  -2   0  -1 2367.26  180.18
  -3   0  -1 2806.72  201.78
  -3   0  -1 2792.82  201.18
   3   0   1 2324.87  201.98
   3   0   1 2848.62  202.58
   4   0   1 3663.43  265.97
   4   0   1 3709.43  267.37
  -4   0  -1 3236.48  265.07
  -4   0  -1 3599.34  266.17
  -5   0  -1  184.68   15.30
  -5   0  -1  199.58   17.30
  -5   0  -1  184.08   16.40
   5   0   1  192.58   20.80
  -5   0  -1  183.18   16.60
   5   0   1  170.88   17.90
   5   0   1  177.58   16.20
  -6   0  -1  448.36   39.50
   6   0   1  507.25   44.10
  -6   0  -1  481.15   38.40
   6   0   1  523.25   39.80
  -6   0  -1  456.75   39.80
  -6   0  -1  548.85   40.60
  -7   0  -1    7.60    4.90
   7   0   1    9.60   10.90
   7   0   1    0.50    3.70
  -7   0  -1    0.40    4.80
   8   0   1   -4.80    8.40
   8   0   1    4.50    4.40
   9   0   1    3.60    7.60
   9   0   1    1.30    4.30
  10   0   1    8.00    4.70
  10   0   1    1.70    6.70
  11   0   1    7.00    3.40
  11  -1  -1    4.50    3.00
  11   1  -1    3.50    3.80
  10  -1  -1    0.70    3.90
  10   1  -1    3.90    5.20
   9  -1  -1    4.40    6.10
   9  -1  -1   25.30    7.00
   9   1  -1   10.50    5.10
   9   1  -1    0.90    5.10
   8  -1  -1   84.59   12.30
   8   1  -1  106.09   12.70
  -8   1   1  102.49   19.10
  -7  -1   1   75.29   12.10
  -7  -1   1   73.49    9.00
   7  -1  -1   79.19   10.70
   7  -1  -1   59.19   12.60
  -7   1   1   71.09   10.00
  -7   1   1   78.29   12.70
   7   1  -1   92.09   10.90
   7   1  -1   67.39   11.10
  -7   1   1   63.89    9.10
   6  -1  -1   83.79   10.30
  -6  -1   1   88.19    9.90
   6  -1  -1   64.89   14.10
  -6  -1   1   84.69   11.70
   6   1  -1   96.09   10.50
   6   1  -1   87.39   11.50
  -6   1   1   90.79   12.80
  -6   1   1   81.49    9.80
  -6   1   1   96.99   11.60
   5  -1  -1 1007.70   84.19
   5  -1  -1  866.01   76.09
  -5  -1   1  968.90   76.89
  -5  -1   1  935.81   77.29
   5   1  -1  959.10   76.89
  -5   1   1 1068.09   76.99
   5   1  -1 1030.70   76.79
  -5   1   1 1036.40   78.19
  -5   1   1 1097.89   78.59
  -4  -1   1  736.23   50.09
  -4   1   1  583.24   48.50
  -4   1   1  556.14   49.90
  -3  -1   1   52.59    7.00
  -3  -1   1   51.09    5.90
   3  -1  -1   45.00    6.80
   3  -1  -1   50.69    7.60
  -3   1   1   70.29    7.30
  -3   1   1   57.79    8.00
  -3   1   1   68.19    9.00
   3   1  -1   63.89    6.70
  -2   1   1 2874.81  215.78
   0  -1  -1  428.96   33.50
   0  -1   1  454.95   33.70
  -2  -1  -1 3357.86  235.08
   2  -1   1 2973.00  235.08
   2  -1   1 3099.99  235.38
  -3  -1  -1  232.78   18.60
  -3  -1  -1  243.28   18.30
   3  -1   1  218.78   20.00
   3  -1   1  207.78   19.30
  -4  -1  -1   24.80    4.90
  -4  -1  -1   30.50    4.50
   4  -1   1   31.00    6.70
  -4  -1  -1   29.50    5.80
   4   1   1   42.20    9.80
  -4   1  -1   37.90    4.60
  -4   1  -1   47.30    7.00
  -5  -1  -1  412.46   32.00
  -5  -1  -1  439.06   32.50
   5  -1   1  431.36   33.20
   5  -1   1  488.85   36.50
   5   1   1  383.16   35.80
   5   1   1  363.66   32.40
  -5   1  -1  362.96   31.10
  -5   1  -1  372.26   33.70
   6  -1   1  469.75   43.70
   6  -1   1  453.65   39.40
  -6  -1  -1  479.95   39.30
  -6  -1  -1  401.46   39.90
   6   1   1  576.64   40.00
  -6   1  -1  471.55   38.90
  -6   1  -1  564.34   41.70
   6   1   1  511.85   43.10
  -7  -1  -1   28.10   12.30
   7  -1   1   33.80    6.60
   7  -1   1   20.00   12.50
   7   1   1   25.00    6.30
  -7   1  -1   23.00    5.70
   7   1   1    9.10    8.70
   8  -1   1   62.59   16.30
   8  -1   1   93.39   12.80
   8   1   1   72.79   15.00
   8   1   1  104.79   17.70
  -8   1  -1   84.49   10.90
   9  -1   1    4.30    8.40
   9  -1   1    4.50    4.10
   9   1   1    7.60    6.40
   9   1   1    1.90    4.60
  10  -1   1    0.90    4.20
  10   1   1    0.70    3.90
  11  -1   1    2.10    3.50
  11   1   1   -1.10    3.60
  11  -2  -1   -0.70    3.40
  11   2  -1   -0.70    2.60
  10  -2  -1   16.70    7.30
  10   2  -1   14.40    9.40
   9  -2  -1    8.20   14.50
   9  -2  -1   25.20    7.90
   9   2  -1   27.40    7.30
   8  -2  -1    2.00    4.30
   8  -2  -1    6.30    8.90
   8   2  -1    0.40    6.00
   8   2  -1    2.40    4.30
  -7  -2   1  139.29   16.30
   7  -2  -1  146.69   15.80
   7  -2  -1  127.49   19.80
  -7  -2   1  136.69   14.50
  -7   2   1  132.39   13.20
   7   2  -1  141.89   15.10
  -7   2   1  170.68   15.30
  -7   2   1  165.18   14.80
  -6  -2   1  286.77   23.30
  -6  -2   1  279.87   23.90
   6  -2  -1  301.37   26.90
   6  -2  -1  273.27   26.00
  -6   2   1  257.77   22.60
   6   2  -1  274.17   23.80
  -6   2   1  226.08   22.40
   6   2  -1  221.58   22.50
  -6   2   1  258.67   23.10
  -6   2   1  248.78   25.30
  -6   2   1  265.47   21.20
  -5  -2   1  105.49   10.00
  -5  -2   1  100.59   10.50
   5   2  -1   78.89    8.50
  -5   2   1   80.69    9.10
   5   2  -1   74.89    9.20
  -5   2   1   75.49   11.40
  -5   2   1   80.19    9.90
   5   2  -1   69.29    9.60
  -4  -2   1  419.46   31.70
  -4  -2   1  414.56   31.80
   4  -2  -1  432.16   33.40
  -4  -2   1  345.47   32.10
   4  -2  -1  378.26   30.80
  -4   2   1  378.36   31.00
  -4   2   1  394.66   32.30
   4   2  -1  368.56   31.20
  -4   2   1  390.36   33.20
  -4   2   1  405.66   31.70
  -3  -2   1 2033.60  163.38
  -3  -2   1 2077.69  162.78
  -3  -2   1 2168.08  162.78
   3  -2  -1 2218.88  163.38
  -3   2   1 2212.98  163.88
  -3   2   1 2181.38  163.38
   3   2  -1 2190.58  162.38
  -3   2   1 2226.08  162.68
  -2  -2   1 1724.73  134.69
  -2  -2   1 1826.72  133.99
   2  -2  -1 1737.93  134.69
   2  -2  -1 1743.73  135.19
   2  -2  -1 1738.83  134.39
  -2   2   1 1921.61  134.89
   1  -2  -1  673.63   52.59
   1  -2  -1  662.83   52.79
  -1  -2   1  723.73   51.89
  -1  -2   1  678.03   52.59
  -1   2   1  668.83   51.69
  -1   2   1  662.03   52.59
  -1   2   1  699.23   52.79
   0  -2   1 4930.51  354.46
   0   2   1 4574.24  354.16
   1  -2   1 2350.06  177.78
   1  -2   1 2363.76  176.88
  -1  -2  -1 2527.05  177.78
   1  -2   1 2254.87  177.28
   1   2   1 2309.07  176.68
   1   2   1 2353.16  177.48
  -1   2  -1 2370.06  176.98
   2  -2   1  147.19   14.10
  -2  -2  -1  146.79   13.90
   2  -2   1  145.29   13.60
   2  -2   1  141.39   14.50
  -2   2  -1  170.08   13.20
   2   2   1  184.08   14.00
   3  -2   1 1478.45  111.59
  -3  -2  -1 1564.54  109.79
   3  -2   1 1461.85  113.89
  -3  -2  -1 1473.65  111.39
  -3   2  -1 1256.37  110.19
  -3   2  -1 1444.06  111.69
  -3   2  -1 1478.15  110.09
   3   2   1 1532.15  111.29
   4  -2   1  714.13   56.19
  -4  -2  -1  666.53   54.79
  -4  -2  -1  714.03   53.39
  -4  -2  -1  671.93   53.69
  -4   2  -1  690.63   53.29
   4   2   1  738.23   55.59
  -4   2  -1  686.73   53.39
  -4   2  -1  697.23   55.59
   4   2   1  689.53   54.29
  -5  -2  -1   76.69    8.10
   5  -2   1   74.79   14.40
  -5  -2  -1   73.99   10.40
   5  -2   1   66.59    7.90
  -5   2  -1   60.29    6.80
  -5   2  -1   56.79    5.90
  -5   2  -1   59.79    9.80
  -5   2  -1   60.19    7.40
   5   2   1   60.89   11.00
   5   2   1   58.49    8.30
   6  -2   1   44.60   13.70
   6  -2   1   50.39    8.40
  -6  -2  -1   55.19    8.10
  -6  -2  -1   70.49   10.50
   6   2   1   83.49   13.00
   7  -2   1  105.49   20.20
   7  -2   1  118.59   12.60
  -7   2  -1   80.99   10.60
   7   2   1  117.49   12.70
   7   2   1   99.69   14.60
   8  -2   1    2.10   11.20
   8  -2   1   28.10    7.40
   8   2   1   21.90    6.50
  -8   2  -1   21.70    6.60
   8   2   1   10.10    7.30
   9  -2   1   -3.90    3.50
   9  -2   1   -2.20    8.10
   9   2   1    4.70    4.50
   9   2   1    1.30    4.90
  10  -2   1    8.10    4.20
  10  -2   1   14.50    9.40
  10   2   1   14.80    5.80
  10  -3  -1    2.80    4.50
  10   3  -1    1.50    4.90
   9  -3  -1    0.00    6.90
   9   3  -1   -2.10    4.10
   8  -3  -1   34.40   11.90
  -8   3   1   31.60    7.50
   8   3  -1   60.09   10.40
   7  -3  -1   23.20   11.40
   7  -3  -1   47.40    9.20
  -7   3   1   38.50    5.60
   7   3  -1   45.10    9.10
   7   3  -1   29.80    6.40
   6  -3  -1  215.78   23.40
   6  -3  -1  212.58   18.30
  -6  -3   1  220.78   19.20
  -6  -3   1  196.18   18.50
  -6   3   1  169.08   18.00
  -6   3   1  199.48   18.70
   6   3  -1  203.38   19.90
  -6   3   1  209.18   18.50
   6   3  -1  158.58   17.30
  -6   3   1  193.48   17.30
  -6   3   1  191.68   21.60
  -5  -3   1  450.35   37.80
   5  -3  -1  460.75   37.40
   5  -3  -1  517.85   40.90
  -5  -3   1  465.55   38.10
   5   3  -1  405.76   37.10
  -5   3   1  518.65   37.70
  -5   3   1  480.55   38.10
  -5   3   1  483.65   38.80
  -5   3   1  499.25   41.10
   5   3  -1  411.56   38.60
  -4  -3   1  255.97   23.30
   4  -3  -1  262.57   22.60
   4  -3  -1  302.67   25.90
  -4  -3   1  267.67   23.20
  -4   3   1  287.07   25.70
   4   3  -1  257.17   22.50
   4   3  -1  283.27   22.40
  -4   3   1  285.27   23.40
  -4   3   1  293.47   24.30
   4   3  -1  253.87   23.90
  -4   3   1  286.17   22.90
  -3  -3   1   92.19    9.50
   3  -3  -1   85.19    9.10
   3  -3  -1   70.79   11.60
   3  -3  -1   91.79   12.60
   3   3  -1  101.29    9.10
  -3   3   1  102.79    9.40
  -3   3   1   96.69   11.80
   3   3  -1   84.09   12.20
   3   3  -1   95.79    8.90
  -3   3   1   99.19   10.80
  -3   3   1  109.79    9.70
   2  -3  -1 1870.31  135.99
  -2  -3   1 1868.71  135.39
   2  -3  -1 1787.42  136.69
  -2  -3   1 1753.42  136.59
  -2   3   1 1710.13  134.99
  -2   3   1 1768.72  136.29
   1  -3  -1 2315.57  167.78
   1  -3  -1 2235.68  168.48
  -1  -3   1 2442.36  171.48
   1  -3  -1 2257.37  168.88
  -1   3   1 2098.59  167.08
  -1   3   1 2138.89  168.38
   1   3  -1 2113.59  166.88
   0  -3  -1  136.59   11.90
   0  -3   1  118.59   12.30
   0  -3  -1  122.79   12.30
   0  -3   1  135.59   11.80
   0  -3  -1  135.19   12.80
   0  -3   1  120.69   12.90
   0   3  -1  124.69   12.20
   0   3   1  130.19   12.60
   0   3   1  123.29   11.00
  -1  -3  -1 1748.63  132.79
   1  -3   1 1710.13  133.79
   1  -3   1 1641.24  133.19
  -1  -3  -1 1711.03  133.69
  -1  -3  -1 1794.12  132.39
   1  -3   1 1846.42  132.79
   1   3   1 1778.72  132.09
  -1   3  -1 1866.31  132.99
   1   3   1 1696.33  133.39
  -2  -3  -1  714.43   56.69
   2  -3   1  665.53   57.49
  -2  -3  -1  688.43   58.09
   2  -3   1  706.53   57.59
  -2   3  -1  755.92   56.19
   2   3   1  762.72   56.69
  -2   3  -1  854.71   57.39
   3  -3   1  121.69   12.70
  -3  -3  -1   95.79   12.50
  -3  -3  -1  128.09   11.40
  -3  -3  -1  119.99   10.70
   3  -3   1  122.09   14.40
   4  -3   1   73.29   13.20
  -4  -3  -1   65.59    7.60
  -4  -3  -1   64.59    7.00
   4  -3   1   62.59    7.10
   4   3   1   55.59    9.00
  -4   3  -1   56.59    7.20
   4   3   1   70.99    8.80
  -4   3  -1   65.99    7.20
   5  -3   1  399.26   36.40
   5  -3   1  336.47   31.40
  -5  -3  -1  338.57   32.60
   5   3   1  397.06   33.50
   5   3   1  437.96   33.20
  -5   3  -1  395.16   30.70
  -5   3  -1  429.36   31.60
   6  -3   1   43.40   14.20
  -6  -3  -1   62.89   10.20
   6  -3   1   58.89    9.20
  -6   3  -1   70.79    8.70
   6   3   1   63.79   10.90
  -6   3  -1   73.49    7.90
   6   3   1   60.39   10.00
   7  -3   1    6.00    4.10
   7  -3   1   -2.20   11.90
  -7   3  -1    0.90    3.00
   7   3   1   -1.50    4.70
   7   3   1   -1.00    4.10
   8  -3   1   45.40   14.70
   8   3   1   28.30    7.80
  -8   3  -1   40.30    6.90
   9  -3   1    8.40    9.50
   9   3   1   11.30    4.80
   9   3   1    9.00    5.20
  10  -3   1   -0.70    3.50
  10   3   1    3.50    3.00
  10  -4  -1   -6.90    4.10
  10   4  -1    3.60    4.20
   9  -4  -1   15.00    9.50
   9   4  -1   19.10    7.30
   8  -4  -1    5.20    6.30
   8   4  -1    2.90    4.90
  -8   4   1   -0.80    2.70
   7  -4  -1   33.30    7.50
   7  -4  -1   36.70   12.30
   7   4  -1   56.39   11.50
  -7   4   1   47.70    9.00
  -7   4   1   49.70    6.50
   6  -4  -1  150.78   20.80
   6  -4  -1  152.78   14.90
  -6  -4   1  158.28   15.60
  -6   4   1  155.78   15.20
   6   4  -1  112.09   13.30
  -6   4   1  141.59   15.60
   6   4  -1  129.09   16.60
   5  -4  -1   41.20    7.10
   5  -4  -1   23.50    4.50
   5  -4  -1   30.10   11.60
  -5  -4   1   52.29   11.60
   5   4  -1   36.80    6.10
   5   4  -1   52.99   10.70
  -5   4   1   31.70    6.80
  -5   4   1   40.60    9.40
  -5   4   1   38.30    6.90
  -4  -4   1  398.06   29.00
  -4   4   1  284.87   29.20
  -4   4   1  327.27   29.10
  -4   4   1  349.47   28.30
   4   4  -1  305.87   27.20
   3  -4  -1  651.43   52.19
   3  -4  -1  606.04   50.09
  -3  -4   1  660.03   50.89
  -3   4   1  676.83   50.59
   3   4  -1  618.64   51.19
  -3   4   1  636.64   50.09
  -3   4   1  662.53   51.99
   3   4  -1  615.44   49.80
  -2   4   1  354.56   29.00
   2   4  -1  367.06   28.70
  -2   4   1  351.76   30.50
   2   4  -1  353.86   29.60
  -1  -4   1  204.68   19.10
   1  -4  -1  180.58   19.50
   1  -4  -1  178.78   18.50
  -1  -4   1  229.58   19.40
  -1   4   1  216.58   18.60
   1   4  -1  243.38   19.00
   1   4  -1  234.28   18.20
  -1   4   1  232.68   20.40
  -1   4   1  235.28   18.70
   0  -4   1  815.32   68.79
   0  -4  -1  863.91   66.39
   0  -4  -1  796.82   66.19
   0  -4   1  850.61   66.39
   0   4   1  892.41   66.19
   0   4  -1  828.92   65.49
   0   4  -1  925.61   67.49
   0   4   1  856.61   67.49
   1  -4   1  914.21   71.49
  -1  -4  -1  992.30   72.79
   1  -4   1 1050.19   72.69
  -1  -4  -1  984.40   71.89
  -1  -4  -1 1009.90   72.39
  -1   4  -1  829.22   70.69
  -1   4  -1  869.21   70.79
   1   4   1  919.31   71.29
   1   4   1  922.01   73.19
   1   4   1  813.12   71.79
  -1   4  -1  918.41   72.49
   2  -4   1   27.20    7.70
   2  -4   1   33.40    6.10
  -2  -4  -1   29.70    7.50
  -2  -4  -1   36.80    6.20
  -2  -4  -1   28.00    5.70
  -2   4  -1   29.10    5.20
   2   4   1   28.40    5.20
   2   4   1   37.00    7.40
  -3  -4  -1  950.40   75.09
  -3  -4  -1  932.11   75.59
   3  -4   1 1034.10   77.59
   3  -4   1  979.60   74.79
  -3  -4  -1  892.01   75.99
  -3   4  -1  993.00   74.39
   3   4   1  984.80   75.29
  -3   4  -1 1041.40   75.79
   3   4   1  937.41   75.89
  -4  -4  -1  506.35   46.10
  -4  -4  -1  571.24   44.30
   4  -4   1  594.24   45.00
  -4  -4  -1  643.54   48.90
   4  -4   1  553.94   48.70
  -4   4  -1  582.34   44.70
  -4   4  -1  573.04   45.40
   4   4   1  541.95   45.80
   4   4   1  540.65   50.59
   5  -4   1   -1.30   10.20
   5  -4   1   -1.40    3.70
  -5   4  -1    2.10    4.00
   5   4   1    0.70    4.00
  -5   4  -1   -1.60    2.60
   6  -4   1   54.99    9.20
   6  -4   1   46.60   15.60
  -6   4  -1   65.29    7.90
  -6   4  -1   64.29    8.90
   6   4   1   67.99   10.70
   6   4   1   49.20    9.40
   7  -4   1   14.70    5.50
   7  -4   1    5.00   12.00
   7   4   1   15.90    5.30
   7   4   1    7.70    5.00
  -7   4  -1   12.40    4.10
   8  -4   1   -8.20    9.90
   8  -4   1   10.90    4.50
   8   4   1    3.70    3.60
  -8   4  -1    4.80    3.60
   8   4   1    7.10    5.30
   9  -4   1   -0.90    4.00
   9  -4   1   -9.00    8.00
   9   4   1    5.50    4.60
  -9   4  -1   -1.80    2.80
  10  -4   1    5.00    4.40
  10   4   1    2.70    3.90
   9  -5  -1    4.90    4.50
   9   5  -1    2.30    4.40
   8  -5  -1   10.60    5.20
  -8   5   1   13.50    5.70
   8   5  -1    4.30    7.50
   7  -5  -1    4.70    9.20
   7  -5  -1    2.80    4.50
  -7   5   1    8.70    6.10
  -7   5   1    6.90    3.40
   7   5  -1    9.10    5.40
  -6  -5   1   12.20    5.00
   6  -5  -1   19.10    5.60
   6  -5  -1    9.20   10.40
   6   5  -1    0.90    5.40
  -6   5   1   17.30    6.60
  -5  -5   1  102.99   12.60
   5  -5  -1   92.39   18.20
   5  -5  -1  118.79   12.20
  -5  -5   1   85.79   12.30
   5   5  -1   97.39   14.80
  -5   5   1   94.99   13.80
  -5   5   1  115.39   12.50
   4  -5  -1  256.17   22.00
  -4  -5   1  206.98   22.20
  -4  -5   1  229.38   22.70
   4  -5  -1  232.98   26.20
  -4   5   1  253.27   22.30
   4   5  -1  261.97   24.30
  -4   5   1  291.67   22.40
   4   5  -1  225.28   21.10
  -4   5   1  259.77   24.00
   3  -5  -1   43.60   11.30
  -3  -5   1   29.80    7.30
   3  -5  -1   35.40    6.70
   3   5  -1   26.40    7.30
  -3   5   1   37.80    8.00
  -3   5   1   39.20    6.90
  -3   5   1   37.50    7.10
   3   5  -1   36.20    8.30
  -2  -5   1  512.85   43.80
   2  -5  -1  542.05   45.20
  -2  -5   1  526.55   44.60
   2   5  -1  494.25   42.40
  -2   5   1  563.34   43.30
  -2   5   1  572.94   43.40
   2   5  -1  549.35   43.90
  -2   5   1  541.05   45.20
   1  -5  -1  726.23   52.89
  -1  -5   1  684.73   53.09
  -1  -5   1  659.23   52.89
   1  -5  -1  693.93   53.59
  -1   5   1  619.24   53.99
  -1   5   1  605.74   51.99
  -1   5   1  654.43   51.99
   1   5  -1  636.14   51.39
   0  -5   1   84.09   10.70
   0  -5  -1   86.59   11.10
   0  -5   1  101.59   12.70
   0  -5  -1   80.79   12.20
   0   5   1   93.59   11.00
   0   5  -1  119.59   13.70
   0   5  -1  105.19   10.30
   0   5   1  100.99   12.60
   0   5   1  104.29   10.50
  -1  -5  -1  182.48   17.60
   1  -5   1  176.28   16.50
  -1  -5  -1  192.68   20.50
   1  -5   1  203.68   19.40
   1   5   1  144.89   16.90
   1   5   1  174.18   16.30
  -1   5  -1  181.98   16.10
   1   5   1  166.78   18.50
  -2  -5  -1  407.76   34.00
   2  -5   1  412.36   32.50
   2  -5   1  417.06   35.30
  -2  -5  -1  382.66   32.80
  -2   5  -1  404.86   33.90
   2   5   1  366.16   33.50
  -2   5  -1  391.26   31.70
   2   5   1  343.27   31.90
   3  -5   1   68.09    8.70
  -3  -5  -1   57.09    9.50
   3  -5   1   47.90   21.30
   3   5   1   83.09   11.80
  -3   5  -1   77.29   10.10
   3   5   1   67.49    9.10
  -3   5  -1   73.19    8.70
  -4  -5  -1   60.09    8.20
   4  -5   1   54.39   14.30
   4  -5   1   63.99    8.30
   4   5   1   69.39   12.20
  -4   5  -1   52.39    8.20
   4   5   1   46.30    8.30
   5  -5   1   94.39   10.90
   5  -5   1   71.89   17.30
   5   5   1   95.89   13.00
  -5   5  -1   98.39   11.20
   5   5   1   79.69   11.20
   6  -5   1   27.10    6.90
   6  -5   1   16.50   13.30
   6   5   1   21.30    6.40
   6   5   1   29.60    7.90
  -6   5  -1   27.00    6.20
  -6   5  -1   36.10    6.50
   7  -5   1    9.20    6.20
   7  -5   1    6.00   10.90
   7   5   1   12.20    5.60
  -7   5  -1    3.20    3.20
   7   5   1   11.60    6.00
   8  -5   1   -8.30   10.30
   8  -5   1   15.40    6.50
   8   5   1    9.30    4.30
  -8   5  -1    6.40    3.10
   9  -5   1    6.30    4.50
  -9   5  -1    2.20    3.20
   9   5   1    2.80    4.00
   9  -6  -1    3.40    3.40
  -9  -6   1   -0.70    6.80
   8  -6  -1    2.30    5.40
   8   6  -1    3.90    5.00
  -8   6   1    0.30    2.40
   7  -6  -1    6.50    5.70
  -7   6   1    7.90    5.80
  -7   6   1    4.20    3.20
   7   6  -1    1.10    6.30
   6  -6  -1   46.80    9.70
  -6   6   1   67.49   10.80
   6   6  -1   45.70   11.10
  -5  -6   1    1.60    5.80
   5  -6  -1   19.60    6.70
   5  -6  -1   18.50   10.30
  -5   6   1   15.50    6.20
   5   6  -1   13.80    7.80
  -4  -6   1   73.59   12.10
   4  -6  -1   82.89   16.60
  -4  -6   1  113.99   15.60
   4  -6  -1  107.19   12.10
  -3  -6   1  219.08   22.70
  -3  -6   1  254.27   24.70
   3  -6  -1  275.77   22.50
   3  -6  -1  218.08   25.20
   3   6  -1  238.48   23.60
  -3   6   1  237.18   26.10
  -3   6   1  228.68   21.60
  -3   6   1  220.98   24.00
  -2   6   1   65.59   11.40
  -2   6   1   83.19   10.50
  -2   6   1   63.29    9.50
   2   6  -1   78.89   10.80
   1  -6  -1   10.90    8.00
  -1  -6   1   27.00    7.50
  -1  -6   1   19.30    7.00
   1  -6  -1   24.90    7.10
  -1   6   1   11.00    5.40
   1   6  -1   10.00    5.10
  -1   6   1   17.40    6.60
  -1   6   1    9.40    4.40
   0  -6  -1  363.16   29.00
   0  -6   1  345.77   30.20
   0  -6  -1  302.37   28.90
   0  -6   1  343.17   28.40
   0   6  -1  298.47   27.00
   0   6   1  282.37   26.70
   0   6   1  280.57   27.60
  -1  -6  -1  177.58   20.60
   1  -6   1  180.08   22.60
   1  -6   1  214.18   19.70
  -1  -6  -1  226.88   21.30
  -1   6  -1  224.48   19.30
   1   6   1  202.08   19.30
   1   6   1  212.18   20.60
   2  -6   1    9.90    5.00
   2  -6   1   12.30   10.10
  -2  -6  -1   10.20    6.60
  -2  -6  -1    1.20    4.40
  -2   6  -1    9.80    4.70
   2   6   1    3.90    5.30
   2   6   1   -0.60    4.50
   3  -6   1   58.29   14.50
  -3  -6  -1   54.69   10.90
   3  -6   1   74.49    9.60
   4  -6   1   74.79   16.70
  -4  -6  -1   79.29   13.10
   4  -6   1   85.59   11.20
   4   6   1   87.69   13.10
  -4   6  -1   74.99   10.00
   4   6   1   57.19    9.50
   5  -6   1    8.40   12.00
  -5  -6  -1    6.30    6.30
   5  -6   1    4.60    3.90
   5   6   1    4.20    4.90
   5   6   1    5.50    5.30
  -5   6  -1    6.80    5.20
   6  -6   1   14.50   11.60
  -6  -6  -1   14.70    8.30
   6  -6   1   16.70    6.20
  -6   6  -1   13.30    4.90
   6   6   1   13.40    8.70
   7  -6   1    3.70   12.60
   7  -6   1   10.10    6.00
  -7  -6  -1    7.30    7.00
  -7   6  -1    7.00    3.80
   7   6   1   -2.40    5.40
  -8  -6  -1   -1.40    4.40
   8  -6   1   -1.30    6.20
  -8   6  -1   -1.40    2.20
   8   6   1    1.00    4.50
   7  -7  -1    7.30    6.00
  -7  -7   1    1.80    7.30
   7   7  -1    0.60    5.10
  -7   7   1    3.40    2.80
  -7   7   1    4.30    4.00
  -6  -7   1   -2.70    5.50
   6  -7  -1    1.20    4.90
   6   7  -1    3.30    5.90
  -6   7   1    7.10    4.60
  -5  -7   1   27.70    9.70
   5  -7  -1   17.20    3.80
  -5   7   1   16.70    5.30
   5   7  -1   34.20   10.30
   4  -7  -1   48.40    9.50
  -4  -7   1   39.70   11.50
  -4   7   1   39.30    8.70
   3  -7  -1   15.60    9.90
  -3  -7   1   16.50    8.30
  -3  -7   1    1.80    6.30
   3  -7  -1   13.10    5.70
   3   7  -1   14.70    7.20
  -3   7   1   16.80    7.10
   2  -7  -1   24.00   10.70
  -2  -7   1   51.49   10.90
  -2  -7   1   38.20   10.40
   2  -7  -1   47.20    9.70
   2   7  -1   57.19   11.20
  -2   7   1   57.69   10.20
  -1  -7   1   95.99   16.30
  -1  -7   1  112.79   15.30
   1  -7  -1  138.39   15.60
   1   7  -1  145.29   15.30
  -1   7   1  136.39   15.20
   0  -7  -1    3.90    4.90
   0  -7  -1    4.30    7.60
   0  -7   1    1.40    4.60
   0  -7   1   -0.30    8.10
   0   7  -1    4.80    5.30
   0   7   1    3.40    4.60
   1  -7   1   40.20   12.50
  -1  -7  -1   53.89   11.00
   1  -7   1   59.29   10.00
  -1   7  -1   66.09    9.70
   1   7   1   66.59   11.50
   2  -7   1   95.69   11.90
  -2  -7  -1   89.79   14.10
   2  -7   1   87.19   17.40
   2   7   1   76.79   13.30
  -2   7  -1   83.79   10.70
   3  -7   1   16.00   12.00
   3  -7   1    7.20    4.00
  -3  -7  -1   15.20    7.80
   3   7   1    3.70    5.60
  -3   7  -1   13.10    5.60
   4  -7   1    4.20   10.60
   4  -7   1    8.80    5.30
  -4  -7  -1    8.20    8.00
   4   7   1    0.70    4.50
  -4   7  -1    6.00    4.90
   5  -7   1    6.30   10.10
  -5  -7  -1   27.60    9.30
   5  -7   1   25.90    7.30
   5   7   1   25.80   10.40
  -5   7  -1   15.40    5.30
  -5   7  -1   15.40    4.90
   6  -7   1   14.70    5.60
   6  -7   1   -4.70    9.10
  -6  -7  -1   11.60    6.90
  -6   7  -1   13.10    4.10
  -6   7  -1   16.40    5.40
   6   7   1   29.10    8.10
   7  -7   1   -3.80    4.40
  -7  -7  -1   -3.40    4.90
  -7   7  -1    4.30    3.00
   7   7   1    0.20    3.80
  -6  -8   1   28.80    8.50
   6  -8  -1   17.00    5.40
  -6   8   1    7.70    4.40
   6   8  -1    5.90    5.60
  -6   8   1    8.10    3.20
  -5  -8   1   -6.20    5.10
   5  -8  -1    4.90    4.30
  -5   8   1   -0.10    4.90
   5   8  -1    4.70    5.10
  -4  -8   1    8.10    6.90
   4  -8  -1   17.20    4.40
   4  -8  -1   22.80    5.50
  -4   8   1   11.20    5.90
   4   8  -1   16.70    6.60
  -3  -8   1   13.00    6.70
   3  -8  -1   27.30    8.00
   3   8  -1   25.20    8.50
  -3   8   1   29.30    7.80
  -2  -8   1   -0.80    7.20
   2  -8  -1    1.80    4.70
   2   8  -1    4.00    6.00
  -2   8   1   -1.20    4.80
  -1  -8   1    3.40    5.80
  -1  -8   1    6.50    7.40
   1  -8  -1    8.50    7.20
   1   8  -1    7.90    6.10
  -1   8   1   13.20    7.60
   0  -8   1    7.40    6.80
   0  -8   1   18.80    9.30
   0  -8  -1   18.40    7.80
   0   8   1   19.70    7.50
   0   8  -1   28.50    7.50
   1  -8   1    8.20    9.70
  -1  -8  -1   29.70    8.00
   1  -8   1   15.30    5.30
   1   8   1   12.70    6.90
  -1   8  -1   33.80    7.70
   2  -8   1   11.70    9.90
   2  -8   1   -2.90    4.30
  -2  -8  -1    1.10    6.90
   2   8   1    2.40    5.80
  -2   8  -1   -0.30    4.80
   3  -8   1   14.50   11.30
  -3  -8  -1   35.70   11.90
   3   8   1   25.60    8.30
  -3   8  -1   30.50    7.00
   4  -8   1    4.00    4.70
  -4  -8  -1   10.60    8.10
  -4   8  -1    4.00    3.70
   4   8   1    1.20    4.20
   5  -8   1   -1.00    3.30
  -5  -8  -1    2.90    5.10
  -5   8  -1    1.90    3.00
   5   8   1    4.40    4.90
  -5   8  -1   -0.30    3.30
   3  -9  -1   -3.30    3.50
   3  -9  -1    3.40    4.60
  -3  -9   1    6.20    5.90
   3   9  -1    1.40    3.90
  -3   9   1    3.90    5.00
   2  -9  -1   15.80    6.80
  -2  -9   1    3.40    4.90
  -2   9   1   14.00    6.30
   2   9  -1    8.60    5.70
   1  -9  -1   22.40    7.80
  -1  -9   1   30.60    8.10
   1   9  -1   26.50    6.60
  -1   9   1   24.90    7.50
   0  -9  -1    2.90    5.20
   0  -9   1    5.50    4.10
   0   9   1   -5.30    6.70
   0   9  -1    3.60    4.80
   1  -9   1    7.70    4.50
  -1  -9  -1   13.20    5.80
  -1   9  -1   21.10    6.20
   1   9   1    8.50    5.30
  -2  -9  -1    6.40    5.90
   2  -9   1    6.70    4.70
   2   9   1    2.80    4.00
  -2   9  -1    5.20    4.30
   3  -9   1   -0.60    3.90
  -3  -9  -1    1.90    5.90
  -3   9  -1    2.90    3.10
  -3   9  -1    2.70    3.20
   3   9   1    0.00    3.50
  11   0  -2    3.00    3.80
  10   0  -2   13.20    6.10
   9   0  -2   33.90    8.60
  -8   0   2   14.00    7.40
   8   0  -2    4.00    4.50
  -8   0   2   -4.60    8.20
  -8   0   2    2.70    3.70
   8   0  -2    2.60    4.50
  -7   0   2   69.29   12.20
   7   0  -2   73.49   10.10
  -7   0   2   55.99   16.30
  -7   0   2   66.19    9.20
   7   0  -2   51.59    9.60
   6   0  -2  270.57   22.80
  -6   0   2  241.48   24.40
  -6   0   2  262.77   22.80
  -5   0   2  423.86   34.80
  -5   0   2  431.16   33.70
   5   0  -2  391.46   33.20
   5   0  -2  402.06   33.50
   4   0  -2   12.40    4.50
   4   0  -2   17.70    5.00
  -4   0   2   17.40    5.60
  -4   0   2   24.30    4.40
   3   0  -2 3424.76  256.57
  -1   0   2   50.29    5.80
   0   0   2 1621.34  121.59
   2   0   2  377.86   28.30
   2   0   2  357.36   29.10
   3   0   2 1208.28   88.89
   3   0   2 1174.28   90.29
  -3   0  -2 1153.28   88.99
   4   0   2  384.26   34.00
  -4   0  -2  365.86   31.70
   4   0   2  420.16   31.10
  -4   0  -2  396.36   31.20
   5   0   2  291.37   23.70
  -5   0  -2  316.77   24.70
   5   0   2  272.57   24.10
  -5   0  -2  290.47   25.30
   5   0   2  273.07   28.40
  -6   0  -2   88.79   10.70
   6   0   2   74.79    9.40
   6   0   2   63.09   14.70
  -7   0  -2  264.27   24.50
   7   0   2  301.57   24.20
   7   0   2  229.88   30.30
   8   0   2   30.90    7.20
  -8   0  -2   12.50    5.80
   8   0   2   14.30   11.10
   9   0   2    7.70    8.30
   9   0   2    6.00    5.50
  10   0   2   -3.30    3.10
  11  -1  -2    2.10    3.20
  11   1  -2    2.70    4.20
  10  -1  -2    3.40    4.60
  10   1  -2    0.00    4.20
   9  -1  -2    9.90    7.60
   9   1  -2    3.70    5.30
  -8  -1   2  139.89   15.00
  -8  -1   2  125.39   21.90
   8  -1  -2  157.38   16.60
  -8  -1   2  152.08   18.60
   8   1  -2  180.08   16.90
  -8   1   2  140.69   15.30
  -7  -1   2  146.89   17.20
   7  -1  -2  110.79   16.30
   7  -1  -2  148.29   15.20
  -7  -1   2  148.79   14.70
  -7   1   2  153.98   17.40
  -7   1   2  151.08   18.10
   7   1  -2  115.09   13.80
  -7   1   2  134.69   14.50
   7   1  -2  160.38   15.70
  -6  -1   2   79.49   11.80
  -6  -1   2   70.59    9.00
   6  -1  -2   60.99   11.20
   6  -1  -2   72.69    9.70
  -6   1   2   71.29    9.20
   6   1  -2   75.89    9.40
  -6   1   2   79.99   12.20
  -6   1   2   79.89   13.60
   6   1  -2   62.79   10.10
  -5  -1   2 1256.47   88.89
   5  -1  -2 1116.79   88.89
   5  -1  -2 1120.29   88.09
  -5  -1   2 1198.18   89.19
  -5   1   2 1178.88   91.89
   5   1  -2 1053.09   88.29
  -5   1   2 1144.09   90.09
   5   1  -2 1132.79   87.99
  -5   1   2 1255.57   88.99
  -5   1   2 1072.49   91.49
   4  -1  -2 1212.38   93.59
   4  -1  -2 1159.28   93.49
  -4  -1   2 1262.17   93.79
  -4  -1   2 1247.18   93.39
   4   1  -2 1134.99   92.59
  -4   1   2 1328.67   93.49
  -4   1   2 1228.68   94.59
   3  -1  -2   53.69    7.30
  -3  -1   2   56.99    7.90
  -3  -1   2   51.39    6.00
  -3   1   2   65.19    6.10
  -3   1   2   45.70    9.90
  -3   1   2   71.89    9.30
   2  -1  -2 2647.34  192.58
  -2   1   2 2492.55  193.88
   0  -1  -2 1179.78   78.59
   0   1   2  892.91   77.59
   1  -1   2  989.30   71.39
   1  -1   2  903.51   72.29
  -1  -1  -2  880.91   71.99
   1   1   2 1037.00   72.19
   2  -1   2 3577.34  274.77
   2  -1   2 3490.45  274.47
  -2  -1  -2 3952.90  274.57
   3  -1   2 1369.06  105.59
  -3  -1  -2 1416.56  103.69
  -3  -1  -2 1441.96  104.79
   3  -1   2 1315.27  105.19
  -4  -1  -2  272.47   21.90
   4  -1   2  306.17   25.60
  -4  -1  -2  276.57   21.40
   4  -1   2  289.57   23.20
  -4   1  -2  232.18   21.70
   4   1   2  261.17   26.00
   5  -1   2  386.76   34.70
  -5  -1  -2  368.16   29.50
   5  -1   2  354.76   30.60
  -5  -1  -2  346.67   29.70
   5   1   2  419.46   32.30
   5   1   2  418.56   35.70
   6  -1   2   53.49    7.80
  -6  -1  -2   36.60    9.20
   6   1   2   31.50   14.30
   6   1   2   42.90    7.30
   7  -1   2    2.20    3.70
  -7  -1  -2    1.70    6.40
   7  -1   2    2.20   12.10
  -7   1  -2    1.60    4.20
   7   1   2   14.90    5.60
   7   1   2    8.30    9.40
   8  -1   2   14.20   12.20
   8  -1   2   29.80    7.10
   8   1   2   13.70    4.90
  -8   1  -2   12.00    5.40
   8   1   2   17.10    9.30
   9  -1   2   19.10    5.00
   9  -1   2   10.90   10.00
   9   1   2    4.40    6.80
   9   1   2   24.50    6.30
  10  -1   2    4.30    6.10
  10  -1   2    5.70    3.60
  10   1   2    5.80    5.10
  10   1   2   -1.20    3.50
  11  -2  -2    1.10    3.90
  11   2  -2    4.40    4.20
  10  -2  -2    8.20    4.80
  10   2  -2   11.90    6.60
   9  -2  -2   10.90    5.10
   9   2  -2   19.00    6.70
   8  -2  -2   -5.30    5.80
  -8  -2   2    8.50    4.50
   8  -2  -2    8.10    6.40
   8   2  -2    5.70    5.00
  -7  -2   2   72.89    9.60
   7  -2  -2   57.69   12.40
   7  -2  -2   75.89   10.90
  -7  -2   2   72.09   12.50
  -7   2   2   69.19    9.50
   7   2  -2   88.99   11.60
   7   2  -2   55.19    8.30
  -7   2   2   78.79   13.60
  -7   2   2   79.69   11.50
   6  -2  -2  541.05   43.70
  -6  -2   2  525.65   44.00
  -6  -2   2  533.55   44.50
   6  -2  -2  463.65   44.80
  -6   2   2  575.14   45.70
  -6   2   2  545.45   44.20
  -6   2   2  585.04   44.70
   6   2  -2  512.75   44.10
   6   2  -2  579.04   42.40
  -6   2   2  555.24   46.50
   5  -2  -2  212.68   20.60
  -5  -2   2  228.68   19.40
  -5  -2   2  230.18   20.10
   5  -2  -2  200.28   18.30
  -5   2   2  208.98   18.90
   5   2  -2  201.58   18.00
   5   2  -2  228.88   17.80
   5   2  -2  180.08   19.10
  -5   2   2  212.28   21.50
  -5   2   2  220.58   19.30
  -5   2   2  235.48   21.50
   4  -2  -2  635.34   50.89
   4  -2  -2  587.34   49.30
  -4  -2   2  649.74   50.69
  -4   2   2  614.44   51.99
  -4   2   2  662.53   50.29
   4   2  -2  725.23   50.89
  -4   2   2  624.04   51.99
  -3  -2   2 1771.52  148.39
  -3  -2   2 1784.92  146.29
   3  -2  -2 1914.01  146.49
   3  -2  -2 1935.11  146.09
  -3  -2   2 1890.81  145.79
  -3   2   2 1998.90  145.69
  -3   2   2 2082.19  147.59
  -3   2   2 2103.89  147.49
   2  -2  -2  847.42   67.89
   2  -2  -2  779.52   68.79
  -2  -2   2  778.02   67.79
  -2  -2   2  838.12   67.19
  -2   2   2 1014.70   69.09
  -2   2   2  946.61   67.19
  -2   2   2  990.80   68.69
  -1  -2   2   98.89    9.10
   1  -2  -2   95.99   10.20
  -1  -2   2   96.79    9.90
   1  -2  -2   93.79   10.80
  -1   2   2  132.19   11.20
  -1   2   2  131.99   10.80
   0  -2  -2 2022.70  160.18
   0  -2   2 2147.69  159.08
   0  -2   2 2217.88  159.88
   0  -2  -2 2144.09  159.38
   0   2   2 2059.89  158.98
   0   2   2 2163.48  160.38
  -1  -2  -2 3569.84  261.47
   1  -2   2 3492.25  262.07
  -1  -2  -2 3368.76  262.67
   1  -2   2 3339.17  262.97
   1   2   2 3808.82  262.17
   1   2   2 3445.36  262.67
   2  -2   2  121.89   12.20
  -2  -2  -2  132.69   10.40
   2  -2   2  129.09   11.40
  -2  -2  -2  139.69   12.40
  -2  -2  -2  136.79   10.60
   2  -2   2  129.89   13.10
   2   2   2  115.49   12.00
   2   2   2  136.19   12.90
   3  -2   2  872.51   73.39
  -3  -2  -2  927.41   72.79
   3  -2   2  926.91   73.69
  -3  -2  -2 1022.70   70.89
  -3   2  -2  910.61   71.39
   3   2   2 1014.00   79.69
  -4  -2  -2  716.63   61.89
   4  -2   2  696.33   59.69
   4   2   2  782.02   60.19
  -4   2  -2  730.13   56.89
  -4   2  -2  795.92   57.09
   4   2   2  740.13   57.89
   5  -2   2   58.39   13.20
   5  -2   2   64.49    8.50
  -5  -2  -2   60.29   11.70
  -5  -2  -2   58.69    8.50
  -5   2  -2   84.09    8.00
   5   2   2   72.69   13.40
   5   2   2   83.09    9.10
   6  -2   2   32.00    7.20
   6  -2   2   24.80   13.00
  -6  -2  -2   42.10   11.70
   6   2   2   63.79    8.60
  -6   2  -2   45.60    6.80
   6   2   2   52.69   11.70
  -7  -2  -2   40.10    9.40
   7  -2   2   57.19   16.00
   7  -2   2   57.69    9.30
   7   2   2   44.70   11.80
  -7   2  -2   60.19    8.40
   8  -2   2    4.00   11.70
   8  -2   2   -6.00    4.20
  -8   2  -2    4.20    3.50
   8   2   2    7.90    4.70
   8   2   2    4.60    7.10
   9  -2   2    3.20    9.00
   9   2   2    8.60    5.80
   9   2   2    7.40    5.30
  10  -2   2   -0.60    5.90
  10  -2   2   -6.60    4.40
  10   2   2    6.10    4.20
  11  -3  -2    3.60    3.20
  11   3  -2    1.50    2.70
  10  -3  -2    1.70    4.10
  10   3  -2    3.70    4.30
   9  -3  -2   13.50    7.80
   9   3  -2    2.40    5.30
  -8  -3   2   63.59   10.20
   8   3  -2   95.19   12.80
   7  -3  -2   63.49   10.80
  -7  -3   2   71.39   12.90
  -7  -3   2   65.09    9.50
   7   3  -2   60.79   11.40
  -7   3   2   72.49   10.50
  -7   3   2   77.59   12.20
  -7   3   2   68.19    7.50
  -6  -3   2   53.39    8.40
  -6  -3   2   50.59   10.10
   6  -3  -2   49.10   11.50
   6  -3  -2   55.79    8.60
   6   3  -2   36.50    8.20
  -6   3   2   70.19    9.50
  -6   3   2   57.59   10.10
   6   3  -2   37.30    8.00
  -6   3   2   50.99    8.60
   6   3  -2   57.99    7.20
  -6   3   2   75.89   13.00
   5  -3  -2  631.64   46.10
  -5  -3   2  577.14   47.00
   5  -3  -2  616.34   48.20
  -5  -3   2  558.84   46.70
  -5   3   2  576.54   46.90
   5   3  -2  591.64   45.60
   5   3  -2  505.85   47.00
  -5   3   2  591.94   49.70
  -5   3   2  615.94   46.40
  -5   3   2  560.14   48.00
   4  -3  -2 1002.60   73.59
   4  -3  -2 1048.50   75.39
  -4  -3   2  921.31   74.19
  -4  -3   2  887.61   74.59
   4   3  -2  946.61   74.69
  -4   3   2  959.70   73.79
   4   3  -2  964.80   73.39
  -4   3   2  959.70   75.89
  -4   3   2 1026.60   74.49
   4   3  -2  893.91   73.19
  -4   3   2  964.10   76.59
   3  -3  -2  140.19   15.20
   3  -3  -2  172.48   15.80
  -3  -3   2  162.38   13.80
  -3   3   2  146.49   15.30
   3   3  -2  141.89   13.80
  -3   3   2  140.29   15.20
  -3   3   2  148.29   16.00
  -3   3   2  138.79   13.40
   2  -3  -2 1979.60  146.99
  -2  -3   2 1995.20  144.59
   2  -3  -2 1979.70  145.79
  -2  -3   2 1897.21  145.99
   2  -3  -2 1985.60  144.99
   2  -3  -2 1857.51  144.39
  -2   3   2 2012.20  146.29
  -2   3   2 1807.62  145.89
  -2   3   2 1945.11  144.39
   2   3  -2 1838.02  144.29
   2   3  -2 1788.92  143.89
   1  -3  -2 3008.10  220.08
   1  -3  -2 2871.51  218.28
   1  -3  -2 2832.02  218.98
  -1  -3   2 3070.59  218.28
  -1  -3   2 2710.13  219.98
  -1   3   2 2913.91  217.98
  -1   3   2 2960.80  219.68
   0  -3  -2  218.98   20.10
   0  -3   2  243.38   18.90
   0  -3  -2  216.38   19.10
   0  -3   2  214.98   19.50
   1  -3   2  736.53   58.99
   1  -3   2  711.53   57.89
  -1  -3  -2  761.82   58.79
  -1  -3  -2  730.13   57.09
   1  -3   2  794.62   57.59
  -1   3  -2  721.23   56.59
   1   3   2  761.02   57.09
   1   3   2  718.33   58.29
   2  -3   2 1252.17   88.59
   2  -3   2 1185.78   88.19
  -2  -3  -2 1090.19   88.69
  -2  -3  -2 1131.09   87.09
  -2  -3  -2 1206.28   92.09
   2   3   2 1051.19   88.59
   2   3   2 1181.08   87.99
  -2   3  -2 1100.79   87.29
   3  -3   2  295.87   28.00
   3  -3   2  349.77   30.10
  -3  -3  -2  362.86   26.50
  -3  -3  -2  338.27   27.00
  -3  -3  -2  359.66   30.20
   3   3   2  377.86   29.40
   3   3   2  336.27   28.40
  -3   3  -2  325.37   27.00
  -4  -3  -2   43.00    4.60
   4  -3   2   46.30    6.70
   4  -3   2   50.29   10.60
  -4  -3  -2   43.90   10.00
  -4  -3  -2   42.20    4.30
   4   3   2   34.10    8.10
  -4   3  -2   35.20    5.80
   4   3   2   29.90    6.20
   5  -3   2  359.36   46.90
  -5  -3  -2  448.36   38.50
   5  -3   2  437.06   35.70
   5   3   2  425.16   38.40
  -5   3  -2  487.05   35.30
   5   3   2  436.76   36.50
  -5   3  -2  446.06   35.20
   6  -3   2  110.19   13.20
  -6  -3  -2  101.09   14.70
   6  -3   2  124.79   21.70
  -6   3  -2  132.49   12.30
   6   3   2  136.69   13.90
   6   3   2  116.29   16.10
   7  -3   2    2.40    4.20
  -7  -3  -2   -7.80    6.00
   7  -3   2   -3.60   11.50
   7   3   2   -3.10    5.70
  -7   3  -2   -2.80    3.40
   8  -3   2    3.60   11.80
   8  -3   2    5.70    5.00
  -8   3  -2    5.20    4.20
   8   3   2    1.10    5.10
   8   3   2    8.00    5.40
   9  -3   2   -0.90    8.70
   9  -3   2    5.10    5.10
   9   3   2   11.30    5.80
  -9   3  -2   10.20    4.30
   9   3   2    1.00    5.40
  10  -3   2   -2.00    4.00
  10   3   2    3.80    3.10
  10  -4  -2   -1.60    4.80
  10   4  -2    2.00    3.40
   9  -4  -2    1.10    6.10
   9   4  -2    6.10    5.00
  -8  -4   2   -3.00    6.40
   8  -4  -2   -0.10    4.80
   8   4  -2   11.50    7.00
  -8   4   2    3.70    3.10
   7  -4  -2   57.29   10.30
   7  -4  -2   23.30   10.00
  -7   4   2   34.30    5.30
  -7   4   2   36.70    8.60
   7   4  -2   22.90    7.90
  -6  -4   2  151.88   17.30
   6  -4  -2  138.09   19.60
  -6  -4   2  149.29   16.50
   6  -4  -2  174.88   16.30
  -6   4   2  186.88   17.00
  -6   4   2  152.68   18.10
  -6   4   2  155.48   16.20
   6   4  -2  160.38   18.10
  -5  -4   2   73.89   10.40
   5  -4  -2  100.59   10.50
  -5  -4   2   83.29   11.60
   5  -4  -2   75.29   14.40
  -5   4   2   86.89   11.90
  -5   4   2   86.19   10.90
   5   4  -2   83.69   11.90
  -5   4   2   86.89   10.90
  -4  -4   2  140.09   15.00
  -4  -4   2  135.79   15.90
   4  -4  -2  154.48   18.30
   4  -4  -2  147.09   17.80
  -4   4   2  158.68   15.00
   4   4  -2  161.08   14.40
   4   4  -2  168.18   16.30
  -4   4   2  167.08   19.80
  -4   4   2  165.08   15.50
   3  -4  -2 1045.00   73.99
  -3  -4   2 1071.29   74.59
   3  -4  -2 1001.90   75.39
   3   4  -2  942.91   74.29
  -3   4   2  950.20   73.99
   3   4  -2  888.91   73.19
  -3   4   2  877.91   75.69
  -3   4   2  879.21   73.59
   2  -4  -2  587.64   42.30
   2  -4  -2  593.44   41.40
   2   4  -2  517.25   41.00
  -2   4   2  495.45   40.90
  -2   4   2  503.95   43.00
   2   4  -2  464.65   40.20
  -2   4   2  458.15   40.70
   1  -4  -2   74.39    8.20
   1  -4  -2   78.99    9.50
   1   4  -2   65.69    7.40
  -1   4   2   59.09    8.10
  -1   4   2   58.69    7.40
  -1   4   2   58.49    9.20
   0  -4  -2 1585.54  115.19
   0  -4   2 1636.24  115.69
   0  -4  -2 1603.04  117.59
   0  -4  -2 1536.85  115.39
   0   4  -2 1468.25  114.19
   0   4   2 1521.15  116.79
   0   4   2 1481.85  114.69
   0   4   2 1269.17  114.79
  -1  -4  -2  602.94   56.19
   1  -4   2  725.63   56.09
  -1  -4  -2  649.04   55.49
  -1  -4  -2  634.04   54.79
  -1  -4  -2  653.03   55.49
  -1   4  -2  763.72   54.39
   1   4   2  812.32   57.59
   1   4   2  810.12   55.49
  -2  -4  -2   73.79    9.10
   2  -4   2   77.79   11.80
   2  -4   2   72.19    8.60
  -2  -4  -2   66.69   11.60
   2   4   2   84.69   10.90
  -2   4  -2   90.09    8.40
   2   4   2   85.29    9.50
   2   4   2   81.59   10.10
  -3  -4  -2  140.89   16.10
  -3  -4  -2  120.09   11.80
   3  -4   2  138.69   17.30
   3  -4   2  141.89   17.20
  -3  -4  -2  133.49   12.60
   3  -4   2  136.09   12.70
   4  -4   2  268.77   24.40
  -4  -4  -2  334.57   35.40
  -4   4  -2  304.07   24.40
   4   4   2  290.87   26.60
   5  -4   2  131.69   20.80
   5  -4   2  121.69   12.30
  -5  -4  -2  111.69   15.50
   5   4   2   94.99   14.00
   5   4   2  118.79   13.50
  -5   4  -2  124.89   11.80
  -5   4  -2  100.09   11.70
  -6  -4  -2   22.10    7.60
   6  -4   2   15.10   13.20
   6  -4   2   12.40    4.70
   6   4   2    8.00    6.00
   6   4   2   25.80    7.20
  -6   4  -2   19.60    5.50
  -6   4  -2   17.50    6.80
   7  -4   2   36.40    7.50
   7  -4   2   20.10   13.80
  -7   4  -2   38.50    7.00
   7   4   2   56.79    9.70
   7   4   2   35.20    8.10
   8  -4   2   -4.60    7.00
   8  -4   2   -0.50   10.30
   8   4   2    2.40    4.10
  -8   4  -2    2.70    3.20
   8   4   2   -3.40    4.60
   9  -4   2   -4.40    3.80
   9  -4   2   10.10    8.50
   9   4   2    9.00    4.60
  -9   4  -2    2.00    3.50
   9  -5  -2    3.50    5.70
   9   5  -2    5.50    4.80
   8  -5  -2   18.00    7.50
   8   5  -2   10.90    6.00
  -8   5   2   11.50    3.70
   7  -5  -2   19.80    7.40
  -7   5   2   24.80    7.40
  -7   5   2   24.70    4.80
   7   5  -2   10.60    6.00
   6  -5  -2   21.20    8.60
   6  -5  -2    5.90    4.80
  -6  -5   2   -2.00    4.50
   6   5  -2   -6.90    5.50
  -6   5   2    1.90    5.00
   5  -5  -2   78.39   14.90
  -5   5   2   84.99   11.00
   5   5  -2   95.99   13.40
  -5   5   2   71.29   12.20
  -5   5   2   63.59   10.50
   4  -5  -2  154.58   14.00
  -4  -5   2  124.89   14.50
  -4  -5   2  113.39   15.00
   4  -5  -2  124.09   17.20
   4   5  -2  146.49   15.60
  -4   5   2  115.99   15.30
  -4   5   2  140.49   14.30
  -4   5   2  120.09   13.70
   3  -5  -2   40.50    6.80
  -3  -5   2   33.10    7.20
   3  -5  -2   26.40    9.70
  -3   5   2   34.20    6.60
  -3   5   2   35.10    6.70
  -3   5   2   28.90    7.40
   3   5  -2   40.50    8.30
  -2  -5   2  203.88   19.90
   2  -5  -2  205.28   20.80
  -2  -5   2  214.38   20.10
   2  -5  -2  232.98   19.60
  -2   5   2  209.58   18.90
   2   5  -2  209.78   19.20
  -2   5   2  183.18   20.70
   1  -5  -2  647.34   45.50
   1  -5  -2  518.35   47.30
  -1  -5   2  632.84   45.60
  -1  -5   2  578.94   44.80
  -1   5   2  535.15   44.00
  -1   5   2  496.25   46.10
  -1   5   2  468.85   43.90
   1   5  -2  527.55   43.60
   0  -5  -2   70.89   10.90
   0  -5  -2   87.39   10.70
   0  -5   2   91.79   10.20
   0  -5   2   74.39   11.60
   0   5   2   83.49   10.20
   0   5   2   80.59    9.80
   0   5   2   86.29   11.80
   0   5  -2   91.39    9.30
   1  -5   2  101.29   13.40
  -1  -5  -2   85.29   11.00
  -1  -5  -2  101.49   11.50
   1  -5   2   98.39   10.40
  -1   5  -2   86.59    9.50
   1   5   2   83.09   10.00
   1   5   2   83.09   10.80
   1   5   2   80.39   12.20
  -2  -5  -2  526.05   45.10
   2  -5   2  552.84   46.70
   2  -5   2  513.85   43.50
   2   5   2  553.14   45.10
  -2   5  -2  571.64   43.10
   2   5   2  547.85   44.40
   3  -5   2  216.08   23.60
   3   5   2  189.08   19.20
  -3   5  -2  186.88   16.90
   3   5   2  171.38   18.70
   4  -5   2   48.70   14.20
   4  -5   2   45.70    7.90
   4   5   2   66.59   10.70
  -4   5  -2   60.69    8.10
   4   5   2   57.59    9.90
   5  -5   2   69.39   17.40
   5  -5   2  122.79   12.60
   5   5   2  119.39   14.10
  -5   5  -2  115.59   12.60
   5   5   2   87.89   13.40
  -5   5  -2  107.99   11.90
   6  -5   2   13.50   13.00
   6  -5   2   12.90    5.20
   6   5   2   15.60    6.10
  -6   5  -2   18.00    5.10
   6   5   2   14.30    6.50
  -6   5  -2   15.90    4.70
   7  -5   2    3.50   11.00
   7  -5   2    8.60    6.50
  -7   5  -2   -1.20    3.20
   7   5   2    6.20    5.40
   7   5   2    5.70    5.00
   8  -5   2   -2.50    4.40
   8  -5   2   -3.50   11.10
   8   5   2    4.20    4.20
  -8   5  -2    0.20    2.90
   9  -5   2    4.60    5.40
  -9   5  -2    3.30    2.90
   9   5   2    8.50    4.50
  -9  -6   2    4.20    5.90
   9  -6  -2    1.90    3.80
   9   6  -2   -0.70    2.90
   8  -6  -2    5.00    5.90
  -8   6   2    0.20    2.30
   8   6  -2    3.50    5.20
   7  -6  -2   24.00    7.30
   7   6  -2   26.60    8.80
  -7   6   2   25.20    6.70
  -7   6   2   27.70    5.50
  -6  -6   2   26.00   10.80
   6   6  -2   30.20    8.60
   5  -6  -2   17.30    6.70
  -5  -6   2    5.30    5.90
  -5  -6   2    6.70    7.50
   5  -6  -2    6.40    3.40
  -5   6   2   14.50    6.60
   5   6  -2    8.80    6.00
  -4  -6   2   46.50    9.40
  -4  -6   2   67.89   14.00
   4  -6  -2   59.99   11.10
  -4   6   2   34.10    7.90
  -4   6   2   63.09   11.60
   4   6  -2   34.90    9.50
   3  -6  -2  166.58   16.90
   3  -6  -2  138.49   19.30
  -3  -6   2  178.88   19.20
  -3  -6   2  133.09   17.50
  -3   6   2  190.98   17.40
  -3   6   2  187.58   17.30
  -2  -6   2  124.99   15.10
   2  -6  -2   94.49   15.50
   2  -6  -2  132.59   14.70
  -2   6   2  122.39   16.40
  -2   6   2  149.49   15.10
  -2   6   2  142.19   15.10
   1  -6  -2    9.40    5.70
  -1  -6   2    5.80    4.90
  -1  -6   2    9.90    7.30
   1  -6  -2    8.30    7.40
  -1   6   2   12.80    5.00
  -1   6   2   16.30    6.80
   1   6  -2   20.20    5.90
   0  -6   2  157.88   21.60
   0  -6  -2  165.08   20.20
   0   6   2  238.08   20.40
   0   6  -2  242.18   19.60
   0   6   2  242.48   21.20
   0   6   2  207.38   22.80
   1  -6   2  269.07   23.60
   1  -6   2  309.07   28.00
  -1  -6  -2  302.07   25.60
  -1   6  -2  234.88   22.40
   1   6   2  236.38   23.40
   1   6   2  232.18   24.10
   2  -6   2   -3.60    9.10
  -2  -6  -2   -2.50    3.70
   2  -6   2   -1.50    3.80
  -2   6  -2    0.10    3.50
   2   6   2    0.40    5.20
   2   6   2    2.40    4.00
   3  -6   2  121.29   20.00
  -3  -6  -2  129.89   19.00
   3  -6   2  124.69   12.20
   3   6   2   95.49   13.30
  -3   6  -2   80.09   13.70
   3   6   2   89.89   12.20
   4  -6   2   33.60   14.40
   4  -6   2   42.50    8.50
  -4   6  -2   45.50    7.80
   4   6   2   39.50    8.80
   4   6   2   53.59   10.50
   5  -6   2    6.30   16.10
  -5  -6  -2   13.50    6.30
   5   6   2   15.30    7.10
   5   6   2    8.60    8.00
  -5   6  -2   18.10    5.70
  -5   6  -2   21.00    5.90
   6  -6   2    4.60    5.70
  -6  -6  -2   11.70    7.30
   6  -6   2    0.40   11.00
   6   6   2    5.70    6.40
  -6   6  -2    9.20    4.40
   6   6   2    7.70    4.70
  -6   6  -2    5.30    4.40
   7  -6   2    1.70   11.00
  -7  -6  -2   19.30    7.60
   7  -6   2    7.20    5.10
   7   6   2    4.90    4.00
  -7   6  -2    5.30    3.70
   8  -6   2   -2.70    5.00
  -8  -6  -2    0.20    4.00
   8   6   2   -2.50    3.10
  -8   6  -2    2.40    5.60
  -8   7   2    3.60    2.60
  -7  -7   2   -7.30    6.20
   7  -7  -2   -0.70    4.00
  -7   7   2    3.00    2.50
  -7   7   2   -2.90    3.60
   7   7  -2    5.10    5.40
  -6  -7   2  -10.70    8.20
   6  -7  -2    2.70    4.80
   6   7  -2   15.00    9.10
   5  -7  -2    9.60    3.50
  -5  -7   2    8.30    7.10
  -5  -7   2   15.40    7.00
   5  -7  -2   15.30    6.10
  -5   7   2   15.30    6.50
   5   7  -2   14.70    7.40
  -4  -7   2   53.99   13.80
   4  -7  -2   61.19   10.20
   4   7  -2   61.39   11.20
  -4   7   2   59.79   10.90
  -3  -7   2    3.20    6.70
  -3  -7   2    5.90    6.40
   3  -7  -2    7.70    5.60
  -3   7   2    8.60    6.00
   3   7  -2    1.20    5.10
  -2  -7   2   32.30    8.10
   2  -7  -2   22.70    6.20
  -2  -7   2   37.70   10.30
  -2   7   2   28.60    7.70
  -2   7   2   20.50    7.40
   1  -7  -2  138.19   14.90
  -1  -7   2  106.09   16.80
  -1  -7   2  116.59   14.20
   1   7  -2  101.99   12.50
  -1   7   2   92.89   13.60
  -1   7   2   84.79   12.00
   0  -7   2   44.30    8.70
   0  -7   2   38.20   11.50
   0  -7  -2   25.00    8.00
   0   7   2   18.80    6.40
   0   7  -2   27.10    6.20
   0   7   2   21.90    7.00
   1  -7   2   41.00    8.20
   1  -7   2   41.40   12.50
  -1  -7  -2   65.99   11.40
  -1   7  -2   44.40    7.90
   1   7   2   31.00    7.50
   1   7   2   29.60    7.70
  -2  -7  -2   98.19   14.30
   2  -7   2   74.09   17.10
   2  -7   2   94.19   11.90
   2   7   2   81.59   12.50
   2   7   2  120.79   14.40
  -2   7  -2  111.69   11.60
   3  -7   2   21.30   16.00
   3  -7   2    9.70    4.70
  -3  -7  -2   21.00    8.40
  -3   7  -2   18.60    5.30
   3   7   2   17.90    6.80
   4  -7   2    0.50    3.50
  -4  -7  -2    4.30    6.70
   4  -7   2    2.30   10.70
   4   7   2   21.70   10.40
  -4   7  -2    1.70    4.00
   4   7   2   13.20    6.80
  -5  -7  -2    3.70    6.60
   5  -7   2    8.00    4.50
   5  -7   2    7.10   10.80
  -5   7  -2    2.20    3.60
   5   7   2   -0.30    7.10
  -5   7  -2    1.90    3.80
   6  -7   2    0.80    9.10
  -6  -7  -2    2.10    4.80
   6  -7   2    5.90    5.00
   6   7   2   11.10    5.90
  -6   7  -2    5.40    3.50
  -6   7  -2    5.10    3.60
   7  -7   2   -4.20    7.30
  -7  -7  -2    0.20    4.90
  -7   7  -2   -0.20    2.40
   7   7   2    1.60    3.50
   6  -8  -2   26.90    7.20
  -6   8   2   13.70    5.80
   6   8  -2   10.40    5.50
  -6   8   2   21.50    4.60
  -5  -8   2   21.90    9.90
   5  -8  -2    9.40    4.80
   5  -8  -2   11.30    4.10
   5   8  -2    9.20    5.40
  -5   8   2    3.50    4.30
   4  -8  -2    2.10    4.90
  -4  -8   2   -2.70    5.50
   4  -8  -2    5.20    3.40
  -4   8   2    6.70    5.60
   4   8  -2    6.60    6.20
   3  -8  -2   61.89   10.80
  -3  -8   2   41.90   14.80
  -3   8   2   58.39   10.90
   3   8  -2   70.99   10.80
  -2  -8   2   15.40    9.10
  -2  -8   2   23.90    7.20
   2  -8  -2   28.00    7.60
   2   8  -2   42.20    8.80
  -2   8   2   33.80    8.40
  -1  -8   2   24.10    9.90
   1  -8  -2   30.90    9.30
  -1  -8   2   31.90    9.20
  -1   8   2   16.40    7.00
   1   8  -2   25.40    6.50
   0  -8   2   42.50    9.20
   0  -8  -2   24.40    9.00
   0  -8   2   12.10    9.90
   0   8  -2   30.30    7.10
   0   8   2   26.50    8.30
   1  -8   2   13.30    5.80
  -1  -8  -2    3.30    7.00
   1  -8   2    1.50    9.60
  -1   8  -2    6.30    4.80
   1   8   2    2.40    7.90
  -2  -8  -2    4.00    6.40
   2  -8   2    3.90   10.20
   2  -8   2   -1.90    4.40
   2   8   2    2.00    5.00
  -2   8  -2    7.40    4.50
  -3  -8  -2    0.30    5.30
   3  -8   2    3.20    4.80
   3  -8   2    5.20   10.60
  -3   8  -2    5.10    4.70
   3   8   2    9.30    6.10
   4  -8   2   21.70   10.60
  -4  -8  -2   16.60    6.50
   4  -8   2   14.10    4.50
   4   8   2   31.60    7.60
  -4   8  -2   12.20    4.40
  -4   8  -2   24.10    5.30
   5  -8   2    6.50    4.30
  -5  -8  -2    8.40    5.30
  -5   8  -2    2.60    3.30
  -5   8  -2    3.10    3.40
   5   8   2    6.40    4.20
  -3  -9   2    8.40    5.90
   3  -9  -2   -4.90    4.00
   3  -9  -2    1.50    3.10
   3   9  -2    2.20    3.80
  -3   9   2   -0.30    4.30
  -2  -9   2   10.10    5.50
   2  -9  -2    4.70    4.70
  -2   9   2   -1.20    3.70
   2   9  -2    4.30    4.60
  -1  -9   2    8.90    5.80
   1  -9  -2    1.90    5.80
  -1   9   2    3.40    4.00
   1   9  -2    5.20    4.30
   0  -9  -2    8.60    5.00
   0  -9   2   16.40    6.10
   0   9   2   13.50    8.60
   0   9  -2    9.50    4.50
  -1  -9  -2   -2.30    6.00
   1  -9   2   -3.30    4.10
  -1   9  -2    2.70    3.80
   1   9   2    1.20    4.80
   2  -9   2    5.90    4.20
  -2  -9  -2   12.40    5.50
   2   9   2   14.90    5.70
  -2   9  -2    8.30    3.70
  -3   9  -2    2.80    3.30
  -3   9  -2    1.30    2.80
  11   0  -3   -1.20    3.30
  10   0  -3    1.30    4.10
  -9   0   3   25.50    6.70
   9   0  -3   25.20    6.60
  -8   0   3    5.00    9.30
  -8   0   3    5.20    6.50
  -8   0   3    2.00    3.80
   8   0  -3   -1.20    4.70
  -7   0   3  202.88   23.10
   7   0  -3  247.78   20.80
  -7   0   3  179.38   26.40
  -7   0   3  221.28   20.50
   6   0  -3  412.76   37.10
  -6   0   3  497.15   39.00
   6   0  -3  476.95   36.20
   6   0  -3  495.45   38.40
   5   0  -3   20.40    5.10
  -5   0   3   20.40    7.20
  -5   0   3   22.40    4.90
  -4   0   3  423.76   32.80
   4   0  -3  339.07   30.90
  -3   0   3 3259.67  226.88
   3   0  -3 2768.12  225.98
  -2   0   3 2094.89  157.88
  -1   0   3    1.20    3.20
   0   0   3 3360.76  251.37
   1   0   3 4460.65  332.37
   2   0   3  333.27   24.20
   2   0   3  286.97   25.10
  -3   0  -3 1361.66  106.89
   3   0   3 1328.77  106.39
   3   0   3 1482.25  104.59
  -4   0  -3  775.22   58.49
   4   0   3  796.52   60.89
   4   0   3  698.83   58.09
  -5   0  -3  173.68   16.20
   5   0   3  166.08   15.30
   5   0   3  166.08   21.10
   6   0   3    4.20   10.90
  -6   0  -3   14.70    6.50
   6   0   3   14.90    5.00
  -7   0  -3   59.39   10.80
   7   0   3   46.90   15.30
   7   0   3   57.49    8.70
   8   0   3    8.00    5.50
  -8   0  -3    7.30    5.30
   8   0   3   10.60   10.60
   9   0   3    1.40    5.30
   9   0   3    2.70    7.30
  10   0   3    4.10    4.90
  11  -1  -3    1.90    3.50
  11   1  -3    5.70    3.60
  10  -1  -3    8.70    6.20
  10   1  -3   19.00    6.90
   9  -1  -3    8.80    6.40
  -9  -1   3    0.50    4.50
   9   1  -3    1.60    5.10
  -9   1   3    8.60    5.10
  -8  -1   3   80.29   19.10
  -8  -1   3  104.99   16.70
   8  -1  -3  119.99   13.80
  -8  -1   3  112.29   12.70
   8   1  -3  105.99   13.50
  -8   1   3   92.29   12.20
  -8   1   3  122.89   17.90
  -7  -1   3  243.28   24.50
  -7  -1   3  217.98   26.10
   7  -1  -3  241.98   24.60
   7   1  -3  295.77   25.20
  -7   1   3  272.87   24.90
   7   1  -3  317.87   22.50
  -7   1   3  297.57   28.30
  -7   1   3  306.17   30.00
   6  -1  -3   16.30    2.80
  -6  -1   3   17.30    4.90
  -6  -1   3   19.60    7.30
   6  -1  -3    9.70    5.20
   6  -1  -3   16.40    5.40
   6   1  -3   17.60    5.50
   6   1  -3   18.80    3.40
  -6   1   3    6.70    8.50
  -6   1   3   17.10    5.20
  -6   1   3    3.60    5.90
  -5  -1   3  793.42   63.79
   5  -1  -3  694.03   62.99
   5  -1  -3  748.53   63.09
  -5  -1   3  828.62   64.99
  -5   1   3  941.01   64.29
   5   1  -3  837.92   62.29
  -5   1   3  762.32   63.49
  -5   1   3  894.21   66.39
   5   1  -3  877.51   63.69
   4  -1  -3 2577.54  193.38
   4  -1  -3 2196.28  191.48
  -4  -1   3 2616.94  193.28
  -4   1   3 2793.02  194.48
  -4   1   3 2719.53  192.38
   4   1  -3 2446.16  191.98
  -3  -1   3  474.05   33.50
  -3  -1   3  433.86   35.30
   3  -1  -3  465.15   33.90
  -3   1   3  388.36   35.10
  -3   1   3  361.36   32.80
   2  -1  -3 1996.90  145.59
  -2  -1   3 1894.81  146.29
  -2   1   3 1881.11  146.49
  -2   1   3 1786.92  144.89
  -2   1   3 2136.49  147.89
   1  -1  -3 3723.83  279.47
   0  -1  -3 1483.55  112.69
   0   1   3 1502.95  112.99
   0   1   3 1536.55  113.89
   1  -1   3  225.98   15.70
  -1  -1  -3  195.08   16.80
   1   1   3  181.88   16.50
   2  -1   3 1253.07   98.99
  -2  -1  -3 1367.86   98.69
   2  -1   3 1241.78   98.59
   2   1   3 1394.26   99.89
   2   1   3 1279.97   98.49
  -3  -1  -3 1071.29   94.49
   3  -1   3 1313.77   94.29
  -3  -1  -3 1349.86   93.49
   3  -1   3 1377.26   94.99
   3   1   3 1161.48   95.59
  -3   1  -3 1141.79   93.29
   4  -1   3   26.50    8.80
   4  -1   3   28.10    5.60
  -4  -1  -3   29.20    7.30
  -4  -1  -3   37.00    4.40
  -4   1  -3   21.30    4.80
   4   1   3   28.10   10.40
   5  -1   3  330.37   28.40
   5  -1   3  406.26   32.90
   5  -1   3  343.77   28.00
  -5  -1  -3  330.97   29.70
   5   1   3  333.97   32.90
  -5   1  -3  289.67   27.30
  -6  -1  -3  147.49   17.60
   6  -1   3  180.88   15.50
   6  -1   3  152.48   22.40
   6   1   3  123.69   21.30
  -6   1  -3  144.69   15.00
   6   1   3  156.18   14.90
  -7  -1  -3    0.50    5.60
   7  -1   3   -2.60   11.90
   7  -1   3   10.70    4.50
   7   1   3   -3.30    3.90
  -7   1  -3    5.00    4.50
   7   1   3    2.60    9.90
   8  -1   3   13.60    5.50
  -8  -1  -3   10.00    5.90
   8  -1   3    6.10   11.90
   8   1   3    8.10    9.40
   8   1   3   19.70    7.40
  -8   1  -3   14.60    5.90
   9  -1   3    5.50    8.70
   9  -1   3   12.40    5.30
   9   1   3   11.80    7.50
   9   1   3    6.50    5.10
  10  -1   3   -1.90    5.30
  10   1   3   -4.10    4.80
  10   1   3   -4.00    4.20
  11  -2  -3    0.80    3.30
  11   2  -3    2.10    3.90
  10  -2  -3    9.50    5.10
  10   2  -3   10.20    4.90
  -9  -2   3   37.10    7.70
   9  -2  -3   53.29   10.20
   9   2  -3   54.09   10.70
  -8  -2   3    2.80    4.20
   8  -2  -3    6.30    5.50
   8   2  -3    3.30    4.90
  -8   2   3    6.80    4.80
  -7  -2   3   77.99    9.80
  -7   2   3   37.60   10.20
   7   2  -3   69.59   10.60
  -7   2   3   44.50   10.20
  -7   2   3   52.89   11.10
   6  -2  -3  298.17   28.20
  -6  -2   3  299.37   28.90
  -6  -2   3  297.17   30.00
  -6   2   3  343.37   29.00
   6   2  -3  369.96   27.50
   6   2  -3  345.27   29.50
  -6   2   3  349.77   32.50
  -6   2   3  367.46   29.70
  -6   2   3  394.26   33.30
   5  -2  -3  357.26   30.80
  -5  -2   3  366.46   32.90
   5  -2  -3  367.76   32.00
  -5  -2   3  360.66   33.70
   5  -2  -3  339.57   32.70
  -5   2   3  395.46   32.60
   5   2  -3  443.66   33.30
   5   2  -3  421.36   31.60
  -5   2   3  462.85   37.40
  -5   2   3  454.65   33.60
  -5   2   3  462.55   36.70
   4   2  -3   80.19    8.90
  -4   2   3   90.59    9.00
  -4   2   3   84.69   13.10
  -4   2   3   91.59   12.90
   4   2  -3   74.09    7.80
  -3  -2   3 2729.43  195.48
  -3  -2   3 2387.36  196.28
   3  -2  -3 2607.54  195.98
  -3   2   3 2913.11  197.68
  -3   2   3 2589.24  195.18
  -3   2   3 2387.56  197.48
  -2  -2   3 2861.21  205.48
   2  -2  -3 2330.07  207.28
   2  -2  -3 3035.80  206.18
  -2   2   3 2815.22  205.28
  -2   2   3 2887.71  207.08
  -2   2   3 2524.85  207.28
   1  -2  -3  584.44   49.50
  -1  -2   3  640.34   48.90
   1  -2  -3  654.13   48.30
  -1  -2   3  629.14   47.70
  -1   2   3  621.14   48.80
  -1   2   3  630.34   47.60
  -1   2   3  616.34   49.50
   0  -2   3 2284.77  174.68
   0  -2   3 2307.37  175.58
   0  -2  -3 2270.17  176.38
   0  -2  -3 2493.35  174.98
   0   2   3 2239.08  176.28
   0   2   3 2426.76  175.08
   1  -2   3 1384.66  104.39
  -1  -2  -3 1329.27  105.49
   1  -2   3 1318.27  104.49
  -1  -2  -3 1436.56  103.59
   1  -2   3 1316.97  105.79
   1   2   3 1530.65  105.79
   2  -2   3  235.08   19.10
  -2  -2  -3  228.68   19.40
   2  -2   3  207.48   19.90
   2  -2   3  232.88   17.80
   2   2   3  214.88   19.10
  -2   2  -3  222.08   18.10
   3  -2   3  206.68   19.40
  -3  -2  -3  178.28   17.70
  -3  -2  -3  187.58   23.80
   3  -2   3  206.78   19.50
  -3   2  -3  237.08   16.80
   4  -2   3  596.04   45.40
  -4  -2  -3  520.75   42.60
   4   2   3  540.95   45.60
  -4   2  -3  507.25   41.40
  -4   2  -3  551.04   41.90
   4   2   3  510.75   42.80
   5  -2   3   64.19   13.70
  -5  -2  -3   36.70   11.30
   5  -2   3   57.19    8.80
   5   2   3   55.79   12.20
  -5   2  -3   77.69    8.30
  -6  -2  -3   11.20    9.00
   6  -2   3   24.00   12.60
   6   2   3   14.20    5.00
  -6   2  -3   12.60    4.50
   6   2   3   21.90   10.00
   7  -2   3   57.99    9.60
   7  -2   3   31.10   14.40
  -7  -2  -3   36.80   10.00
   7   2   3   39.70   11.90
   7   2   3   56.89    9.10
   8  -2   3    6.80   11.70
   8  -2   3   19.30    6.40
   8   2   3   16.70    5.50
  -8   2  -3    4.90    4.10
   8   2   3    6.70    7.30
   9  -2   3    4.20    9.20
   9  -2   3    9.80    5.50
  -9   2  -3    0.70    3.80
   9   2   3   -1.90    4.00
   9   2   3    0.40    4.90
  10  -2   3    1.00    6.90
  10   2   3    6.40    4.30
  11  -3  -3   -0.70    2.90
  11   3  -3    1.30    4.30
  10  -3  -3    3.40    4.70
  10   3  -3    0.70    3.20
   9  -3  -3   -1.50    6.10
   9   3  -3    2.50    4.80
  -8  -3   3   35.10    7.90
   8  -3  -3   50.09   10.50
   8   3  -3   57.99   11.30
  -8   3   3   46.30    8.60
  -7  -3   3  284.67   31.00
  -7  -3   3  220.38   23.50
   7  -3  -3  273.67   24.30
  -7   3   3  277.17   21.30
  -7   3   3  241.98   25.60
  -7   3   3  265.37   24.20
   7   3  -3  287.17   22.20
   7   3  -3  259.47   25.00
  -7   3   3  217.68   23.70
  -6  -3   3   55.09   11.10
   6  -3  -3   51.29    5.50
  -6  -3   3   51.29    8.60
   6  -3  -3   67.99    8.90
   6  -3  -3   39.00   13.80
  -6   3   3   62.99   13.60
  -6   3   3   55.29   11.10
   6   3  -3   50.89    7.00
  -6   3   3   44.70    8.60
   6   3  -3   45.50    8.90
  -6   3   3   47.60    8.90
   5  -3  -3  706.63   60.49
   5  -3  -3  739.83   62.59
  -5  -3   3  784.02   62.79
  -5   3   3  833.92   65.69
   5   3  -3  813.12   61.49
   5   3  -3  798.02   66.39
  -5   3   3  805.22   62.19
  -5   3   3  837.52   63.09
  -5   3   3  855.31   66.39
   4  -3  -3 1124.49   88.09
  -4  -3   3 1061.69   88.99
  -4  -3   3 1181.18   88.39
   4  -3  -3 1246.08   87.49
   4   3  -3 1147.19   87.19
  -4   3   3 1145.19   88.19
   4   3  -3 1214.68   88.19
  -4   3   3 1198.28   91.19
  -4   3   3 1041.40   87.49
  -4   3   3 1099.99   90.59
  -3  -3   3   93.19   10.80
   3  -3  -3   89.89   10.30
   3   3  -3  120.99   10.90
  -3   3   3  127.99   14.00
   3   3  -3  111.19   10.30
  -3   3   3  123.99   11.10
  -3   3   3  129.19   14.20
  -2  -3   3  230.28   19.40
   2  -3  -3  220.28   19.10
   2  -3  -3  215.78   20.50
   2   3  -3  237.18   18.80
  -2   3   3  241.18   21.90
  -2   3   3  236.28   21.50
  -2   3   3  240.68   20.10
   2   3  -3  226.48   18.90
   1  -3  -3 1496.95  111.59
  -1  -3   3 1639.34  111.69
  -1  -3   3 1523.15  112.99
   1  -3  -3 1575.94  112.29
   1  -3  -3 1356.36  112.19
  -1   3   3 1507.55  113.59
   1   3  -3 1361.26  110.99
   1   3  -3 1358.36  110.89
  -1   3   3 1449.95  111.29
   0  -3  -3 1338.07   94.79
   0  -3   3 1240.58   95.69
   0  -3  -3 1127.69   95.39
   0  -3  -3 1357.86   96.99
   0  -3  -3 1210.38   94.69
   0   3   3 1328.97   94.59
   0   3   3 1214.58   96.19
   0   3  -3 1151.18   93.79
  -1  -3  -3   78.19   13.00
  -1  -3  -3   90.09    9.40
   1  -3   3   95.59   10.20
   1  -3   3  104.89   10.20
  -1   3  -3  109.09    8.90
   1   3   3  122.49   11.80
   2  -3   3 1786.42  130.69
  -2  -3  -3 1782.92  132.69
   2  -3   3 1879.71  131.49
  -2  -3  -3 1628.14  129.09
   2   3   3 1546.95  131.59
   2   3   3 1893.51  131.79
  -2   3  -3 1579.34  129.49
   3  -3   3  443.46   35.50
  -3  -3  -3  467.15   37.40
   3   3   3  458.35   35.60
  -3   3  -3  362.76   32.00
   3   3   3  357.66   33.10
  -4  -3  -3    1.90    8.60
   4  -3   3    2.20    8.00
   4  -3   3    3.50    3.10
   4   3   3    0.10    5.70
   4   3   3   -0.60    3.80
  -4   3  -3   -0.40    2.60
  -4   3  -3    3.10    3.30
   5  -3   3   69.09    9.40
   5  -3   3   48.20   13.40
  -5  -3  -3   65.09   14.60
  -5   3  -3   63.39    8.00
   5   3   3   65.59   13.50
  -5   3  -3   70.29    8.30
  -6  -3  -3   52.79   11.80
   6  -3   3   55.09    9.40
   6  -3   3   54.09   14.70
   6   3   3   71.39    9.80
   6   3   3   55.39   12.00
  -6   3  -3   54.29    8.30
   7  -3   3    2.00   12.20
  -7  -3  -3    2.10    6.80
   7  -3   3   -1.70    4.30
  -7   3  -3    0.20    3.80
   7   3   3    1.50    4.90
   7   3   3    2.80    6.80
   8  -3   3   -0.70    5.50
   8  -3   3    5.20   11.60
   8   3   3    3.40    5.50
  -8   3  -3    1.00    3.40
   8   3   3    4.30    5.30
   9  -3   3    6.20   10.90
   9   3   3   -2.30    4.80
   9   3   3    6.70    4.80
  -9   3  -3   -0.60    2.90
  10  -4  -3    6.40    6.20
  10   4  -3   13.20    5.70
   9  -4  -3   29.00    9.00
   8  -4  -3    7.90    5.80
   8   4  -3   -0.20    4.80
   7  -4  -3   54.29   10.30
  -7  -4   3   50.79    8.90
  -7   4   3   48.80    6.30
  -7   4   3   36.00   13.90
  -6  -4   3  144.19   21.20
  -6  -4   3  169.78   16.30
  -6   4   3  141.09   17.80
  -6   4   3  151.18   15.90
  -6   4   3  126.59   15.40
   6   4  -3  159.18   17.00
  -6   4   3  117.99   25.50
   6   4  -3  151.88   14.20
  -5  -4   3   94.49   13.10
   5  -4  -3   85.69   17.50
  -5   4   3   78.29   10.60
  -5   4   3   78.69   14.80
  -5   4   3   85.29   13.40
   5   4  -3   99.49   12.10
  -5   4   3   83.39   11.00
   5   4  -3   90.69   10.00
   4  -4  -3   11.80    6.60
  -4  -4   3   13.10    5.70
  -4  -4   3   18.50    5.30
   4  -4  -3   26.70    5.80
   4   4  -3   11.90    3.90
   4   4  -3   10.20    4.50
  -4   4   3    5.10    4.10
  -4   4   3    8.10    7.10
  -4   4   3    4.80    4.30
  -4   4   3   16.30    6.20
   3  -4  -3  689.63   56.49
   3  -4  -3  739.43   56.19
  -3  -4   3  709.43   56.69
  -3   4   3  788.12   60.99
   3   4  -3  691.53   55.59
   3   4  -3  736.03   56.29
  -3   4   3  728.13   56.49
  -3   4   3  704.23   59.49
  -3   4   3  684.93   56.19
   2  -4  -3  614.34   54.59
  -2  -4   3  705.63   55.29
   2  -4  -3  675.93   54.79
  -2   4   3  723.73   57.79
  -2   4   3  690.63   54.89
   2   4  -3  732.63   54.49
   2   4  -3  727.13   54.39
  -2   4   3  743.23   55.09
   1  -4  -3   21.90    4.70
  -1  -4   3   22.40    5.30
  -1   4   3   16.90    5.90
  -1   4   3   20.50    4.60
  -1   4   3   12.80    3.70
   1   4  -3   17.10    4.10
   1   4  -3   15.00    3.50
   0  -4   3  679.93   50.39
   0  -4  -3  575.04   49.80
   0  -4  -3  532.15   50.69
   0  -4  -3  595.14   49.70
   0   4   3  647.94   51.79
   0   4   3  716.13   49.90
   0   4   3  650.43   49.90
   0   4  -3  642.54   48.60
  -1  -4  -3  880.91   70.19
   1  -4   3  977.50   71.39
  -1  -4  -3  947.21   70.99
  -1  -4  -3  932.61   72.49
   1   4   3  809.22   72.09
   1   4   3  983.40   71.09
  -1   4  -3  882.61   69.29
   1   4   3  880.51   70.69
  -2  -4  -3   35.00    5.60
  -2  -4  -3   39.20   10.10
   2  -4   3   38.60    8.90
   2  -4   3   31.60    7.60
   2   4   3   52.09    8.20
   2   4   3   55.89    7.60
   2   4   3   41.70    8.10
   3  -4   3  220.98   21.20
   3  -4   3  167.48   18.50
  -3  -4  -3  217.58   22.10
   3   4   3  181.48   18.40
  -3   4  -3  169.28   15.50
   3   4   3  158.08   16.80
  -4  -4  -3  156.98   23.20
  -4   4  -3  236.38   18.80
   4   4   3  207.28   19.70
   4   4   3  213.58   21.90
  -4   4  -3  221.78   18.40
  -5  -4  -3   21.80   10.80
   5  -4   3   30.50    7.40
   5  -4   3   17.30   12.40
   5   4   3   51.89    8.40
   5   4   3   32.90    9.40
   6  -4   3    7.60   12.60
   6  -4   3    8.30    4.80
   6   4   3    9.00    6.70
   6   4   3    8.30    5.80
  -6   4  -3    8.30    4.30
  -7  -4  -3    8.90    6.90
   7  -4   3   20.80    6.70
   7  -4   3   10.90   11.80
  -7   4  -3   24.60    6.00
   7   4   3   11.60    6.90
   7   4   3   26.10    6.20
   8  -4   3    0.60   10.50
   8   4   3    4.40    4.70
   8   4   3   14.20    5.90
  -8   4  -3   11.80    4.30
   9  -4   3   -4.10    7.10
  -9   4  -3    0.80    2.70
   9   4   3    2.20    3.60
  10  -5  -3    2.50    4.30
  10   5  -3    3.20    4.60
   9  -5  -3   -3.20    5.40
   9   5  -3   -3.90    4.60
  -8  -5   3    8.60    6.70
   8  -5  -3   30.30    9.40
  -8   5   3   24.50    6.40
   8   5  -3   21.70    8.50
  -7  -5   3   49.00    9.80
   7  -5  -3   55.19   10.50
  -7   5   3   57.59   10.80
   7   5  -3   38.30    9.60
   6  -5  -3    5.00    5.50
   6  -5  -3    2.80    2.40
  -6  -5   3    1.00    5.00
   6   5  -3    8.10    6.70
  -6   5   3    3.00    5.50
  -6   5   3    2.00    4.80
  -5  -5   3  230.38   24.90
   5  -5  -3  298.97   23.60
  -5  -5   3  245.18   24.20
  -5   5   3  260.37   23.50
  -5   5   3  218.78   23.50
  -5   5   3  235.78   26.30
   5   5  -3  287.47   24.90
   4  -5  -3  127.49   13.80
  -4  -5   3  120.39   14.60
  -4   5   3  130.89   14.30
  -4   5   3  131.09   17.00
  -4   5   3  128.99   14.60
   4   5  -3  144.09   14.80
  -3  -5   3    4.90    4.40
  -3  -5   3   -0.60    5.90
   3  -5  -3    3.70    4.00
   3   5  -3   14.40    4.90
  -3   5   3    8.30    4.60
  -3   5   3    9.30    4.60
  -3   5   3   11.00    6.40
  -2  -5   3   40.60    9.20
  -2   5   3   70.19    9.30
  -2   5   3   62.29   10.80
  -2   5   3   64.29    8.70
   2   5  -3   71.69    8.40
   1  -5  -3  726.83   52.89
  -1  -5   3  616.64   52.29
  -1  -5   3  713.03   53.69
  -1   5   3  613.64   52.09
  -1   5   3  598.54   54.69
  -1   5   3  675.73   52.49
   1   5  -3  649.24   51.29
   0  -5   3  422.06   32.50
   0  -5   3  441.76   34.20
   0   5   3  364.06   32.40
   0   5   3  342.27   34.40
   0   5   3  382.06   32.50
   0   5  -3  372.86   31.10
  -1  -5  -3   43.00    8.10
   1  -5   3   56.29   10.70
   1  -5   3   47.40    7.50
  -1   5  -3   43.80    6.50
   1   5   3   44.00    8.00
   1   5   3   44.20    9.90
   1   5   3   49.00    8.10
   2  -5   3  414.66   36.40
  -2  -5  -3  389.16   36.60
   2  -5   3  379.56   32.50
  -2  -5  -3  399.26   33.90
   2   5   3  417.96   33.80
   2   5   3  373.16   34.20
  -2   5  -3  381.36   31.50
   3  -5   3  189.08   23.90
  -3  -5  -3  195.38   23.20
  -3  -5  -3  175.48   19.40
  -3   5  -3  200.58   17.50
   3   5   3  208.48   20.90
   3   5   3  223.18   19.80
   4  -5   3   13.70    5.00
  -4  -5  -3    7.40    8.80
   4  -5   3    2.30   10.60
  -4   5  -3    2.70    3.90
   4   5   3   -2.80    4.30
   4   5   3   -0.80    5.30
  -4   5  -3    2.60    4.00
   5  -5   3   32.60    7.40
   5  -5   3   14.30   13.30
  -5   5  -3   37.30    7.10
   5   5   3   32.90    8.00
   5   5   3   36.20    9.30
  -5   5  -3   38.00    7.20
   6  -5   3   39.40    7.70
   6  -5   3   40.40   14.50
   6   5   3   56.39    9.50
   6   5   3   42.00   10.00
  -6   5  -3   56.39    8.50
   7  -5   3    8.70    6.50
   7  -5   3    5.20   10.70
   7   5   3   10.20    5.00
   7   5   3    4.40    4.80
  -7   5  -3    0.90    3.80
   8  -5   3   -0.70    8.90
   8   5   3    6.70    7.90
   8   5   3   11.50    5.90
  -8   5  -3    9.10    3.70
   9  -6  -3    6.50    4.30
  -9  -6   3    6.00    6.50
   9   6  -3    9.10    5.30
   8  -6  -3    0.90    4.80
   8   6  -3    5.80    5.80
  -8   6   3    3.40    2.90
  -7  -6   3    7.60    6.30
   7  -6  -3    7.50    8.00
   7   6  -3    5.50    6.20
  -7   6   3    9.80    3.70
  -7   6   3    6.10    5.10
   6  -6  -3   34.60    8.80
  -6   6   3   42.50    9.60
   6   6  -3   30.90    9.70
  -5  -6   3   69.39   12.20
  -5  -6   3   82.39   14.90
   5  -6  -3   77.79   11.40
  -5   6   3   88.59   12.10
   5   6  -3   94.99   13.20
  -4  -6   3   14.90    8.30
   4  -6  -3    2.90    4.80
  -4  -6   3    6.50    6.30
   4   6  -3    7.10    5.70
  -4   6   3    5.90    7.20
  -4   6   3    3.70    4.30
  -3  -6   3  284.37   28.40
   3  -6  -3  299.47   27.00
  -3  -6   3  267.47   28.20
  -3   6   3  308.37   27.40
  -3   6   3  299.07   27.10
   3   6  -3  355.16   27.60
   2  -6  -3  220.38   20.20
  -2  -6   3  217.38   21.80
  -2  -6   3  173.78   19.80
   2   6  -3  212.98   19.10
  -2   6   3  189.98   19.50
  -2   6   3  203.98   20.00
  -1  -6   3  100.29   12.40
  -1  -6   3   89.29   14.70
   1  -6  -3   91.49   12.70
  -1   6   3  127.69   22.10
   1   6  -3  124.99   12.00
  -1   6   3  116.49   13.70
  -1   6   3  104.49   12.80
   0  -6  -3  163.58   16.40
   0  -6   3  145.59   18.60
   0  -6   3  144.79   15.10
   0   6  -3  134.89   13.80
   0   6   3  131.99   15.20
   0   6   3  125.69   15.20
   1   6   3  121.79   14.50
  -1   6  -3  118.79   12.30
   1   6   3  126.09   14.50
  -2  -6  -3   29.80    8.10
   2  -6   3   26.30   11.30
   2   6   3   17.90    6.00
  -2   6  -3   23.20    5.30
   2   6   3   13.70    6.50
   3  -6   3   26.60   13.10
  -3  -6  -3   35.80    9.10
   3  -6   3   40.60    7.50
   3   6   3   37.90   11.60
   3   6   3   30.50    8.60
  -3   6  -3   42.10    7.00
  -4  -6  -3   96.79   13.80
   4  -6   3   67.09   17.80
   4  -6   3  104.29   12.30
  -4   6  -3  110.09   11.80
   4   6   3  101.09   14.50
  -4   6  -3  127.89   12.50
   4   6   3  109.79   13.20
  -5  -6  -3   22.20    7.10
   5  -6   3   18.00   13.30
   5  -6   3   30.60    7.60
  -5   6  -3   13.00    4.80
  -5   6  -3   19.40    5.30
   5   6   3   11.00    6.80
   5   6   3   16.00    5.50
  -6  -6  -3   14.20    6.70
   6  -6   3    4.70   11.00
   6  -6   3    1.20    6.60
   6   6   3    6.10    4.70
  -6   6  -3    4.90    4.30
   6   6   3    5.00    5.70
   7  -6   3    5.70    9.70
  -7  -6  -3   10.30    5.40
  -7   6  -3    4.60    3.50
   7   6   3   10.30    4.30
   8  -7  -3    4.20    5.00
  -8  -7   3    8.70    8.50
   8   7  -3    2.50    3.50
   7  -7  -3    7.10    5.90
  -7  -7   3   -5.10    6.80
   7   7  -3    6.60    4.80
  -7   7   3    2.10    4.50
  -7   7   3    7.00    3.00
   6  -7  -3    0.00    9.10
  -6  -7   3   -2.90    8.50
  -6  -7   3    4.20   11.10
   6   7  -3    3.30    7.30
  -6   7   3   -1.40    6.10
  -5  -7   3    6.50    6.50
   5  -7  -3    6.00    3.50
  -5  -7   3   11.70    9.40
   5  -7  -3   15.10    7.20
  -5   7   3   11.80    6.80
   5   7  -3    4.80    4.80
   4  -7  -3   45.30    8.30
  -4  -7   3   97.39   16.60
  -4  -7   3   55.39   11.40
   4  -7  -3   81.49   11.10
   4   7  -3   64.19   11.00
  -4   7   3   63.29   11.50
  -3  -7   3   12.30    7.90
  -3  -7   3   21.10    7.20
   3  -7  -3   14.20    5.60
  -3   7   3    4.50    7.10
  -3   7   3   23.40    7.70
   3   7  -3   33.60    7.70
  -2  -7   3   63.59   11.60
   2  -7  -3   75.89   11.80
  -2  -7   3   73.09   13.90
   2   7  -3   79.59   10.50
  -2   7   3   62.09   11.00
  -1  -7   3   85.69   16.70
  -1  -7   3   77.09   12.60
   1  -7  -3  102.69   13.90
   1   7  -3  119.69   12.30
  -1   7   3  113.79   13.10
   0  -7   3   49.50    9.60
   0  -7  -3   37.50    8.80
   0  -7   3   41.70   12.80
   0   7  -3   42.30    7.80
   0   7   3   36.10    8.50
   0   7   3   36.50    9.10
   1  -7   3    4.10    4.10
  -1  -7  -3   -0.40    5.40
   1  -7   3    3.40   10.90
   1   7   3    5.70    4.70
   1   7   3    6.60    5.50
  -1   7  -3    3.00    3.60
  -2  -7  -3   38.80    8.50
   2  -7   3   18.80   14.60
   2   7   3   29.60    8.60
  -2   7  -3   50.29    7.50
   2   7   3   64.19   12.10
   3  -7   3   49.40   14.60
  -3  -7  -3   61.99   11.40
  -3   7  -3   42.80    7.40
   3   7   3   33.90    9.50
   3   7   3   39.00    8.40
  -4  -7  -3   -0.40    4.60
   4  -7   3   -3.60    4.90
   4  -7   3  -11.20    9.70
   4   7   3    5.20    6.00
   4   7   3    1.50    4.90
  -4   7  -3    0.40    3.70
  -4   7  -3    3.00    3.80
  -5  -7  -3   29.10    7.70
   5  -7   3   22.40    7.50
   5  -7   3   16.60   11.40
  -5   7  -3   20.40    5.20
  -5   7  -3   34.30    6.70
   5   7   3   18.70    5.30
  -6  -7  -3    3.20    4.90
   6  -7   3    6.00    9.10
   6   7   3   -0.80    3.30
  -6   7  -3    2.70    3.10
  -6  -8   3   10.40    7.20
   6  -8  -3    4.30    4.30
  -6   8   3    8.10    4.30
   6   8  -3    9.40    4.80
  -5  -8   3    0.50    9.10
   5  -8  -3    9.70    5.20
   5  -8  -3   10.30    3.50
   5   8  -3   13.40    5.00
  -5   8   3   12.10    6.30
   4  -8  -3    0.00    2.90
  -4  -8   3    4.00    7.20
   4  -8  -3    3.10    5.30
  -4  -8   3   -8.20    4.70
  -4   8   3    0.10    4.30
   4   8  -3    6.30    4.90
   3  -8  -3   11.90    5.10
  -3  -8   3   20.80    8.20
  -3  -8   3   12.80    8.60
   3   8  -3   24.80    6.80
  -3   8   3   13.40    8.40
  -2  -8   3   18.20   10.40
   2  -8  -3   37.20    8.80
  -2  -8   3   45.20   15.50
  -2   8   3   26.90    6.80
  -1  -8   3   22.10    7.30
   1  -8  -3    3.10    4.70
  -1  -8   3    8.50    9.80
   1   8  -3    4.80    4.30
  -1   8   3    2.60    5.90
   0  -8  -3   56.09   11.30
   0  -8   3   21.20   11.60
   0  -8   3   37.00    9.10
   0   8  -3   40.90    7.60
   1  -8   3   37.40    7.50
   1  -8   3   16.90   11.60
  -1  -8  -3   41.10    9.40
  -1   8  -3   28.60    6.20
   1   8   3   28.50    7.30
   2  -8   3   -5.50    4.40
  -2  -8  -3    1.20    7.30
   2  -8   3    2.40   10.90
   2   8   3   -0.40    4.30
  -2   8  -3    1.90    3.70
   3  -8   3   -4.00   14.00
  -3  -8  -3    6.00    5.10
   3  -8   3   11.50    5.50
  -3   8  -3    7.90    3.90
  -3   8  -3   13.70    4.60
   3   8   3    7.60    5.00
  -4  -8  -3    2.20    4.60
   4  -8   3    8.30    9.40
   4   8   3    9.40    4.90
  -4   8  -3    3.40    4.10
  -4   8  -3    0.60    3.00
  -5  -8  -3    0.50    4.10
   5   8   3   -1.00    2.60
  -5   8  -3    2.60    2.90
  -3  -9   3   -3.90    5.10
   3  -9  -3    3.70    4.20
   3  -9  -3   -1.20    2.60
  -3   9   3    0.20    3.40
   3   9  -3    2.00    3.80
   2  -9  -3    1.50    4.90
  -2  -9   3    0.10    4.80
   2  -9  -3    1.60    3.40
   2   9  -3    0.80    3.40
   2   9  -3    3.50    3.00
  -2   9   3   -0.10    4.90
  -1  -9   3   12.80    5.10
   1  -9  -3    6.30    4.40
   1   9  -3    0.30    3.20
   1   9  -3    1.20    2.60
  -1   9   3    7.80    4.90
   0  -9  -3    1.80    4.60
   0  -9   3   16.80   13.70
   0  -9   3    2.70    4.30
   0   9  -3    6.40    3.70
   0   9  -3    7.50    3.60
   0   9   3    7.50    4.80
   1  -9   3   -0.60    4.00
  -1  -9  -3    1.90    4.40
  -1   9  -3   -2.90    2.90
   1   9   3    7.90    5.20
  -1   9  -3    1.20    3.20
  -2  -9  -3    4.10    4.90
  -2   9  -3    7.70    3.70
  -2   9  -3    3.60    2.80
  11   0  -4    3.40    4.10
  10   0  -4   10.00    5.00
 -10   0   4    2.60    5.60
   9   0  -4  118.79   14.60
  -9   0   4  115.99   14.20
   8   0  -4   75.19   10.90
  -8   0   4  101.39   21.20
  -8   0   4   74.99   11.20
  -7   0   4  261.67   35.70
   7   0  -4  364.16   26.80
  -7   0   4  345.57   33.30
   7   0  -4  348.97   29.00
  -6   0   4 1128.69   82.59
   6   0  -4  961.80   78.69
  -6   0   4 1064.09   80.19
   6   0  -4  938.91   77.19
   5   0  -4  509.05   41.90
  -5   0   4  557.94   45.50
   4   0  -4   14.30    3.80
  -4   0   4    6.80    6.60
  -4   0   4   10.90    3.40
  -3   0   4 3900.31  269.67
  -3   0   4 3314.17  271.27
  -2   0   4 3199.28  240.28
  -1   0   4   36.10    5.90
  -1   0   4   27.10    5.80
   0   0   4 2068.39  157.38
   0   0   4 2117.69  156.78
   1   0   4 1735.93  130.09
   2   0   4 1502.75  107.19
   2   0   4 1403.26  108.09
  -2   0  -4 1389.36  108.59
  -3   0  -4   50.69    7.20
   4   0   4  990.20   77.99
  -4   0  -4  982.10   75.99
   5   0   4  165.68   22.10
  -5   0  -4  191.88   17.60
  -6   0  -4    9.60    5.70
   6   0   4    8.40   11.80
  -7   0  -4   36.30    9.90
   7   0   4   25.00   12.90
  -8   0  -4    4.50    4.70
   8   0   4   -6.60    8.30
   9   0   4    3.90    7.00
  10   0   4   -1.90    4.10
  11  -1  -4    3.20    4.60
  11   1  -4    8.40    4.30
 -10  -1   4    2.90    5.40
  10  -1  -4   12.20    6.80
  10   1  -4   14.00    5.90
   9  -1  -4   -1.90    4.90
  -9  -1   4    1.70    4.20
  -9   1   4    3.20    4.70
   9   1  -4    1.60    4.90
  -8  -1   4   69.09   27.10
   8   1  -4   58.49   10.50
  -8   1   4   47.40   14.40
   8   1  -4   59.49    6.80
  -7  -1   4  326.37   26.50
   7  -1  -4  323.47   22.80
  -7  -1   4  295.07   29.10
   7  -1  -4  321.67   25.90
  -7   1   4  247.08   29.00
   7   1  -4  252.37   22.90
  -7   1   4  231.68   31.30
   7   1  -4  253.67   25.20
   6  -1  -4  163.78   14.90
  -6  -1   4  183.78   21.20
   6  -1  -4  139.29   20.10
  -6  -1   4  187.48   17.80
  -6   1   4  200.88   22.30
   6   1  -4  198.18   15.50
  -6   1   4  204.28   18.20
   5  -1  -4  708.43   55.19
  -5  -1   4  752.42   56.29
   5  -1  -4  692.83   53.99
  -5  -1   4  794.72   58.29
  -5   1   4  692.23   55.89
   5   1  -4  754.32   55.29
   5   1  -4  641.24   54.09
  -5   1   4  621.64   60.39
  -5   1   4  729.83   59.19
  -4  -1   4 2313.67  169.08
  -4  -1   4 1993.40  169.98
   4  -1  -4 1943.41  167.88
   4   1  -4 2484.55  168.38
  -4   1   4 2473.35  171.78
  -4   1   4 2286.27  169.98
   4   1  -4 2189.08  167.78
  -3  -1   4  428.56   37.90
  -3  -1   4  482.95   36.20
  -3   1   4  473.65   39.30
  -3   1   4  468.15   36.00
  -2  -1   4  648.44   53.09
   2  -1  -4  645.54   52.09
  -2   1   4  701.43   53.89
  -2   1   4  712.53   51.19
   1  -1  -4 3776.12  293.87
  -1   1   4 4099.89  295.67
   0   1   4 2550.74  181.48
   0   1   4 2271.77  180.28
   1  -1   4   44.00    3.90
  -1  -1  -4   30.20    5.70
   1  -1   4   42.20    4.60
   1   1   4   33.20    5.10
   2  -1   4  909.91   68.19
   2  -1   4  906.81   67.59
  -2  -1  -4  885.11   68.69
  -2  -1  -4  823.92   67.79
  -2   1  -4  810.32   67.49
   2   1   4 1009.60   67.69
   2   1   4  866.01   68.79
  -3  -1  -4  458.15   41.90
  -3  -1  -4  578.94   44.10
   3  -1   4  574.14   44.00
   3  -1   4  570.84   43.10
   3   1   4  566.34   45.50
  -4  -1  -4  102.39   12.70
   4  -1   4  105.89   10.30
   4  -1   4   97.89   14.70
   4   1   4   79.59   16.40
  -5  -1  -4   96.09   13.30
   5  -1   4   60.89   16.90
   5   1   4   73.39   20.40
  -5   1  -4  107.19   11.20
  -6  -1  -4  124.69   15.80
   6  -1   4  111.89   20.50
  -6   1  -4  121.69   13.30
   6   1   4  112.69   20.50
   7  -1   4    6.60   12.10
  -7  -1  -4    6.60    6.10
   7   1   4   11.60    8.70
  -7   1  -4    6.70    5.10
   7   1   4   13.00   10.10
   8  -1   4    0.30   10.20
  -8  -1  -4    4.80    5.50
   8   1   4    2.70    8.00
  -8   1  -4   -1.30    4.20
   9  -1   4    8.80    8.20
   9   1   4    1.20    5.50
  -9   1  -4    8.80    4.30
  10  -1   4    6.70    4.80
  11  -2  -4   -0.40    3.30
  11   2  -4   -1.60    3.30
  10  -2  -4    6.40    5.80
 -10  -2   4   -3.30    7.40
  10   2  -4    2.80    5.70
   9  -2  -4   45.80    9.80
  -9  -2   4   33.90    7.90
   9   2  -4   53.89    9.80
  -9   2   4   37.10    8.50
   8  -2  -4   42.90   12.90
  -8  -2   4   40.00    8.60
   8   2  -4   45.60    6.40
   8   2  -4   28.40    8.90
  -8   2   4   30.40    7.40
  -7  -2   4   45.40   10.80
   7  -2  -4   54.29    5.90
   7  -2  -4   41.40    8.60
  -7  -2   4   52.49    9.40
  -7   2   4   76.99   15.60
  -7   2   4   54.69    9.80
   7   2  -4   69.59    7.10
   7   2  -4   63.09   10.00
  -7   2   4   55.29   13.10
  -6  -2   4  662.33   53.19
  -6  -2   4  673.83   54.59
   6  -2  -4  682.73   52.09
   6  -2  -4  690.13   50.09
   6   2  -4  613.54   50.69
  -6   2   4  601.94   57.39
  -6   2   4  612.74   52.79
   6   2  -4  701.93   52.49
  -6   2   4  610.34   52.29
  -6   2   4  695.83   57.19
  -5  -2   4  404.36   33.30
   5  -2  -4  415.76   31.10
   5  -2  -4  408.66   32.20
  -5  -2   4  401.76   35.10
  -5   2   4  392.16   33.20
   5   2  -4  356.36   31.40
   5   2  -4  420.36   32.60
  -5   2   4  390.56   37.00
  -4  -2   4  218.88   17.90
  -4  -2   4  196.28   20.00
   4  -2  -4  201.98   16.70
   4  -2  -4  166.68   16.50
   4   2  -4  209.08   17.10
  -4   2   4  207.28   21.80
   4   2  -4  195.98   16.40
  -4   2   4  199.28   17.40
   3  -2  -4 1035.00   72.69
  -3  -2   4 1131.99   75.39
  -3   2   4  846.12   75.89
   3   2  -4  952.60   72.59
   3   2  -4  924.91   72.49
  -3   2   4  923.31   72.99
  -3   2   4  881.61   75.59
   2  -2  -4 2589.74  175.58
  -2  -2   4 2369.96  174.98
  -2   2   4 2292.57  177.48
  -2   2   4 2218.58  174.68
  -2   2   4 2186.48  176.58
   1  -2  -4  614.24   53.69
   1  -2  -4  740.83   51.59
  -1  -2   4  626.74   50.89
  -1   2   4  704.13   53.59
  -1   2   4  697.43   51.09
  -1   2   4  638.64   52.29
   0  -2  -4 1164.68   92.59
   0  -2   4 1108.29   90.19
   0  -2  -4 1282.77   90.29
   0  -2   4 1136.69   91.29
   0   2   4 1221.48   90.69
   0   2   4 1289.87   92.49
   1  -2   4 3119.39  229.58
  -1  -2  -4 2875.21  231.28
   1  -2   4 3014.40  231.48
  -1  -2  -4 2801.12  231.38
   1  -2   4 2857.31  229.68
   1   2   4 3552.84  231.18
   1   2   4 3158.98  233.68
  -1   2  -4 3190.98  229.68
   2  -2   4  271.57   20.60
  -2  -2  -4  202.78   23.20
   2  -2   4  244.58   21.70
  -2  -2  -4  249.38   21.40
   2   2   4  230.38   26.00
  -2   2  -4  223.38   19.00
  -2   2  -4  262.57   19.90
   3  -2   4  487.45   38.10
  -3  -2  -4  446.46   37.30
  -3   2  -4  496.75   36.40
  -3   2  -4  437.96   35.50
   3   2   4  432.26   39.60
   4  -2   4  446.66   34.90
  -4  -2  -4  395.96   31.80
  -4   2  -4  348.87   31.40
   4   2   4  357.06   35.30
   5  -2   4   13.40   10.40
  -5  -2  -4   10.60    9.10
   5   2   4   23.60    6.00
   5   2   4   17.80   10.30
  -5   2  -4   25.20    6.00
  -6  -2  -4    4.10    7.70
   6  -2   4    1.00   10.70
   6   2   4    2.20    8.20
  -6   2  -4    3.10    4.60
   6   2   4    4.30    4.60
   7  -2   4   10.20   12.50
   7   2   4   23.00   10.40
  -7   2  -4   38.60    8.10
   7   2   4   58.89    9.30
   8  -2   4    3.20   11.50
  -8  -2  -4   14.00    6.20
   8   2   4   13.40    7.80
  -8   2  -4   19.20    5.60
   8   2   4   21.50    7.70
   9  -2   4    5.80   14.40
   9   2   4    2.60    4.90
  -9   2  -4    3.80    3.40
  11  -3  -4   -0.10    4.10
  11   3  -4    2.30    3.80
  10  -3  -4   14.70    7.10
  10   3  -4   11.90    6.30
  -9  -3   4    2.30    4.10
   9  -3  -4   -4.90    5.70
   9   3  -4    1.00    4.40
  -9   3   4   -2.60    5.70
  -8  -3   4   43.90    9.30
   8  -3  -4   61.19   11.40
   8   3  -4   61.79   10.60
  -8   3   4   34.70    8.70
   7  -3  -4   88.99    8.10
  -7  -3   4   80.49   11.80
  -7  -3   4   75.79   14.90
   7  -3  -4   93.09   12.30
   7   3  -4   88.09    9.70
  -7   3   4  103.19   16.40
  -7   3   4   89.89   12.70
   7   3  -4   88.59   12.30
  -7   3   4   66.49   11.70
   6  -3  -4   79.09    8.00
  -6  -3   4   77.59   11.00
   6  -3  -4   92.49   10.70
  -6  -3   4   78.09   13.80
  -6   3   4   90.79   15.10
   6   3  -4   88.09   11.30
   6   3  -4   81.69    9.00
  -6   3   4   84.29   16.00
  -6   3   4   69.59   10.90
  -5  -3   4   53.59   10.40
  -5  -3   4   60.29    8.50
   5  -3  -4   56.49    7.60
   5  -3  -4   50.69    6.00
  -5   3   4   44.70   10.50
   5   3  -4   42.50    7.00
  -5   3   4   46.70    8.20
  -5   3   4   43.00    8.30
  -5   3   4   75.29   14.80
   5   3  -4   46.40    7.60
   4  -3  -4 1191.68   93.29
  -4  -3   4 1203.98   94.59
  -4   3   4 1288.47   98.19
   4   3  -4 1213.28   93.29
  -4   3   4 1227.28   96.09
  -4   3   4 1127.69   97.59
  -4   3   4 1262.77   94.39
   4   3  -4 1304.17   93.89
   3  -3  -4  525.45   39.90
  -3  -3   4  552.94   40.80
   3   3  -4  483.65   39.50
  -3   3   4  482.05   43.00
   3   3  -4  486.15   39.60
  -3   3   4  511.55   40.30
   2  -3  -4  337.17   31.90
  -2  -3   4  372.16   32.50
   2  -3  -4  358.26   33.80
  -2   3   4  434.36   34.70
  -2   3   4  427.96   35.60
  -2   3   4  462.05   32.60
   2   3  -4  454.05   32.20
  -1  -3   4 1425.56  112.29
  -1  -3   4 1530.15  110.69
   1  -3  -4 1468.55  111.39
   1  -3  -4 1576.84  110.99
  -1   3   4 1483.15  110.49
  -1   3   4 1426.16  111.59
   1   3  -4 1333.87  109.59
   1   3  -4 1445.96  110.19
  -1   3   4 1448.06  112.99
   0  -3  -4  641.34   52.09
   0  -3  -4  675.63   50.59
   0  -3   4  645.24   51.69
   0  -3  -4  713.23   50.29
   0   3   4  722.63   50.79
   0   3  -4  604.74   49.90
   0   3   4  622.24   52.39
   0   3  -4  580.34   49.30
  -1  -3  -4   74.59    8.50
  -1  -3  -4   81.69    7.20
   1  -3   4   88.89    9.10
   1  -3   4   88.29    9.00
  -1  -3  -4   72.69   13.10
   1   3   4   80.89   10.10
  -1   3  -4   72.79    7.30
   1   3   4   94.59   10.10
  -2  -3  -4  472.85   45.30
   2  -3   4  521.05   42.40
   2  -3   4  502.05   42.90
  -2   3  -4  574.54   41.80
  -2   3  -4  528.05   41.00
   2   3   4  625.54   44.60
   2   3   4  525.05   43.60
  -3  -3  -4  340.87   35.10
   3  -3   4  368.46   32.60
  -3   3  -4  375.96   29.30
   3   3   4  398.26   33.60
   3   3   4  377.06   30.60
  -4  -3  -4   15.30   11.00
   4   3   4   12.00   10.10
  -4   3  -4   21.10    5.00
   4   3   4   25.70    6.00
  -4   3  -4   21.00    4.40
  -5  -3  -4   26.90   11.90
   5  -3   4   54.19   13.90
   5   3   4   69.29    8.80
  -5   3  -4   51.29    8.30
   5   3   4   39.70   10.70
   6  -3   4   81.09   16.40
  -6  -3  -4   56.49   14.30
   6   3   4   78.89   14.70
  -6   3  -4   59.39    9.40
  -7  -3  -4   -2.30    5.80
   7  -3   4    2.90   13.40
  -7   3  -4   -2.70    3.60
   7   3   4   -6.40    6.90
   8  -3   4   10.90   11.50
  -8   3  -4    4.80    4.30
   8   3   4    1.80    5.30
   8   3   4    4.90    6.50
   9  -3   4    3.80    7.60
  -9   3  -4    1.30    3.60
   9   3   4   -2.50    3.40
  10  -4  -4   -0.20    4.20
  10   4  -4    2.80    4.80
   9  -4  -4   41.90    9.80
  -9  -4   4   17.60    6.60
   9   4  -4   20.60    6.30
  -8  -4   4   21.40   10.00
   8  -4  -4   12.90    6.60
   8   4  -4    9.80    4.70
  -8   4   4    9.50    7.20
  -7  -4   4   14.10    6.40
   7  -4  -4   17.80    6.80
   7  -4  -4   29.40    4.00
   7   4  -4   37.70    9.40
  -7   4   4   26.30    7.70
  -7   4   4   17.00   12.20
   6  -4  -4  256.67   21.10
  -6  -4   4  214.38   25.70
  -6  -4   4  216.48   23.70
   6  -4  -4  274.57   23.60
  -6   4   4  276.47   29.10
  -6   4   4  263.77   24.00
   6   4  -4  306.37   24.80
  -6   4   4  241.08   24.50
   6   4  -4  274.07   22.70
  -5  -4   4  145.09   14.70
  -5  -4   4  138.59   16.90
  -5   4   4  106.59   17.80
  -5   4   4  137.39   19.30
   5   4  -4  129.69   13.90
   5   4  -4  120.49   12.50
  -5   4   4  131.59   14.00
  -5   4   4  109.29   13.70
  -4  -4   4   18.80    7.60
  -4  -4   4   22.70    6.10
   4  -4  -4   27.10    6.10
  -4   4   4   19.60    7.80
  -4   4   4   30.10    9.60
  -4   4   4   39.90    6.90
  -4   4   4   25.30    6.00
   4   4  -4   26.20    5.40
   4   4  -4   32.50    5.90
  -3   4   4  648.34   52.89
  -3   4   4  657.23   56.99
  -3   4   4  687.13   53.49
  -3   4   4  660.73   60.89
   3   4  -4  706.33   52.69
  -2  -4   4  754.92   58.99
   2  -4  -4  775.22   58.39
   2   4  -4  764.82   57.59
  -2   4   4  676.43   64.99
   2   4  -4  752.12   57.89
  -2   4   4  746.53   58.59
  -1   4   4  169.78   19.60
   1   4  -4  203.18   16.80
   1   4  -4  196.38   16.10
  -1   4   4  183.78   17.20
  -1   4   4  195.18   17.20
   0  -4  -4  288.17   22.50
   0  -4  -4  256.87   24.80
   0  -4  -4  273.07   22.10
   0   4   4  269.17   22.60
   0   4  -4  255.07   20.80
   0   4   4  252.87   22.10
   0   4   4  235.38   24.10
   0   4  -4  230.88   21.40
  -1  -4  -4  733.93   63.69
  -1  -4  -4  860.61   65.39
  -1  -4  -4  862.61   67.99
   1  -4   4  877.91   65.99
  -1   4  -4  818.92   63.69
   1   4   4  821.32   65.19
   1   4   4  897.01   66.19
  -2  -4  -4  180.08   21.80
   2  -4   4  176.88   18.50
  -2  -4  -4  145.19   16.00
   2   4   4  175.58   16.30
   2   4   4  176.08   17.90
  -2   4  -4  186.98   14.90
   2   4   4  171.18   18.00
   3  -4   4  167.68   19.30
  -3  -4  -4  167.98   22.60
   3   4   4  153.88   17.70
  -3   4  -4  142.19   13.50
  -3   4  -4  147.89   14.20
   3   4   4  161.68   15.10
   4  -4   4  182.18   22.80
  -4  -4  -4  151.58   23.70
   4   4   4  172.88   17.00
  -4   4  -4  201.08   16.70
  -4   4  -4  172.08   15.60
   4   4   4  163.88   19.60
  -5  -4  -4   40.60   14.10
   5  -4   4   24.90   13.40
   5   4   4   55.89    8.40
   5   4   4   34.50   10.00
   6  -4   4    6.40   12.30
  -6  -4  -4    5.20    7.80
   6   4   4   -1.20    5.90
   6   4   4   -5.20    4.00
  -6   4  -4    0.90    3.70
   7  -4   4    6.10   11.70
  -7  -4  -4   11.40    7.40
   7   4   4    2.50    6.00
   7   4   4   15.30    7.00
  -7   4  -4   12.10    5.10
   8  -4   4    4.80   10.50
   8   4   4    4.60    6.70
  -8   4  -4    5.30    3.80
   8   4   4    5.70    5.70
   9  -4   4    4.00    7.10
  -9  -4  -4   -4.00    3.20
  -9   4  -4    2.10    2.80
  10  -5  -4   -2.40    5.40
  10   5  -4    1.90    4.00
   9  -5  -4    1.20    5.30
   9   5  -4    5.80    5.40
  -8  -5   4   14.30    6.70
   8  -5  -4   30.30    9.60
   8   5  -4   25.80    7.40
   7  -5  -4   23.00    9.40
  -7  -5   4   14.70    8.20
   7  -5  -4   27.00    4.20
  -7   5   4   45.40    9.30
   7   5  -4   52.99   10.90
   6  -5  -4   30.40    5.20
   6  -5  -4   46.10    8.90
  -6   5   4   31.90    8.30
  -6   5   4   18.60    7.10
   6   5  -4   37.70    8.70
   5  -5  -4   76.59   10.30
  -5   5   4   68.19   10.70
  -5   5   4   61.99   10.10
   5   5  -4   61.69   10.10
   4  -5  -4  559.64   45.10
  -4   5   4  509.25   49.99
  -4   5   4  545.25   46.10
   4   5  -4  594.54   45.50
   4   5  -4  546.45   44.80
  -4   5   4  583.54   45.60
  -3  -5   4  126.29   16.00
  -3  -5   4  174.58   17.60
   3  -5  -4  155.38   15.60
  -3   5   4  155.58   16.00
   3   5  -4  158.08   15.00
  -3   5   4  165.38   15.80
  -3   5   4  141.19   19.00
   3   5  -4  159.28   15.10
  -2  -5   4  102.39   14.50
   2  -5  -4  104.49   12.30
  -2  -5   4   82.99   12.20
   2   5  -4  118.29   11.80
  -2   5   4  106.19   14.20
  -2   5   4   92.99   14.70
  -2   5   4  123.19   12.60
   2   5  -4  125.39   11.30
   1  -5  -4  451.55   37.10
  -1  -5   4  398.46   36.80
  -1  -5   4  406.66   42.40
   1   5  -4  474.05   35.70
  -1   5   4  493.05   37.20
  -1   5   4  492.25   37.90
  -1   5   4  397.66   39.70
   0  -5  -4  113.69   12.50
   0   5   4   91.99   15.50
   0   5  -4  117.39   10.80
   0   5   4   93.89   14.30
   0   5   4  114.89   12.20
  -1  -5  -4   17.30    9.90
  -1  -5  -4    5.30    5.00
   1  -5   4   12.80    7.40
   1   5   4    2.30    3.60
  -1   5  -4    7.00    3.50
   1   5   4    2.80    4.70
   1   5   4   -0.50    4.50
  -2  -5  -4   14.40   10.50
   2  -5   4   35.90   10.30
  -2  -5  -4   31.00    7.20
   2   5   4   33.10    8.50
  -2   5  -4   34.60    5.60
   3  -5   4  255.57   28.40
  -3  -5  -4  280.07   29.90
  -3  -5  -4  232.18   23.80
   3   5   4  260.37   23.90
   3   5   4  260.27   26.40
  -3   5  -4  287.47   22.70
  -3   5  -4  255.07   21.90
   4  -5   4   26.40   12.40
  -4  -5  -4   28.30    8.10
   4   5   4   19.20    8.30
   4   5   4   23.00    6.50
  -4   5  -4   22.50    5.30
  -4   5  -4   22.20    5.80
  -5  -5  -4   48.30   14.20
   5  -5   4   31.60   13.60
   5   5   4   27.70    9.30
   5   5   4   40.20    8.40
  -5   5  -4   57.49    8.30
  -5   5  -4   48.10    7.10
   6  -5   4   10.20   12.10
  -6   5  -4   11.80    5.30
   6   5   4    8.30    6.60
   6   5   4    6.60    5.20
   7  -5   4   -8.80    9.00
  -7  -5  -4    6.40    5.40
  -7   5  -4    3.10    4.00
   7   5   4    1.60    4.90
   7   5   4    2.20    4.50
  -8  -5  -4    2.50    4.50
   8  -5   4    3.10    7.60
  -8   5  -4    2.60    3.00
   8   5   4    1.20    5.10
  -9  -6   4   13.80    7.30
   9  -6  -4    7.20    4.90
   9   6  -4   -1.40    3.20
  -8  -6   4   14.00    8.20
   8  -6  -4   23.30    7.50
   8   6  -4   16.40    5.60
  -7  -6   4   17.60   12.80
   7  -6  -4   14.60    7.30
   7   6  -4   15.50    6.90
   6  -6  -4  110.49   13.90
  -6  -6   4   85.29   14.20
   6  -6  -4  101.69   10.30
  -6  -6   4  110.19   17.50
  -6   6   4  108.99   14.40
   6   6  -4  117.69   14.10
  -5  -6   4   31.60    8.90
   5  -6  -4   13.20    4.40
  -5  -6   4   32.30    9.00
  -5   6   4    9.10    6.10
  -5   6   4   16.10    6.60
   5   6  -4   17.60    6.20
   4  -6  -4   19.50    6.70
  -4  -6   4   13.40    7.30
  -4  -6   4    3.80    5.90
   4  -6  -4   10.60    5.00
  -4   6   4   15.90    8.00
  -4   6   4   16.60    6.70
   4   6  -4   18.80    6.20
  -3  -6   4   85.29   11.40
  -3  -6   4   75.19   13.30
   3  -6  -4   80.69   10.80
   3   6  -4   63.59    9.30
  -3   6   4   52.69   10.10
  -3   6   4   56.39   10.40
   2  -6  -4  164.98   17.10
  -2  -6   4  134.29   18.50
  -2  -6   4  142.99   16.30
  -2   6   4  182.08   17.20
   2   6  -4  163.58   15.60
  -2   6   4  168.98   17.40
   1  -6  -4   88.99   11.50
  -1  -6   4   85.19   11.10
   1   6  -4   80.09    9.30
  -1   6   4   66.59   10.80
  -1   6   4   56.99    9.90
   0  -6   4  135.89   16.30
   0  -6   4  176.48   20.30
   0  -6  -4  168.88   17.20
   0   6   4  159.88   16.70
   0   6   4  169.28   18.10
   0   6  -4  157.58   15.00
   1  -6   4  324.27   34.70
  -1  -6  -4  372.66   32.90
   1  -6   4  373.56   36.10
   1   6   4  398.46   32.90
   1   6   4  387.96   34.30
  -1   6  -4  380.36   30.60
   2  -6   4   23.00   11.90
  -2  -6  -4   16.60    6.60
   2   6   4   15.70    7.10
   2   6   4   23.00    6.80
  -2   6  -4   21.90    5.00
  -3  -6  -4   51.79    9.80
   3  -6   4   47.00   14.00
   3   6   4   47.80   11.30
  -3   6  -4   53.09    8.20
   3   6   4   48.70    8.70
  -3   6  -4   38.90    7.00
   4  -6   4   17.80   14.10
  -4  -6  -4   18.30    6.70
   4   6   4   14.40    5.90
  -4   6  -4   16.70    5.60
   4   6   4   18.00    8.60
  -4   6  -4   20.10    5.30
   5  -6   4    5.00   11.80
  -5  -6  -4   25.40    8.30
   5   6   4   33.50    8.50
   5   6   4   10.70    6.90
  -5   6  -4   25.10    5.30
  -5   6  -4   30.00    6.70
   6  -6   4   13.90   10.70
  -6  -6  -4    2.80    5.00
   6   6   4   17.40    6.00
   6   6   4    6.10    5.90
  -6   6  -4    6.20    4.10
   7  -6   4   -3.10    8.20
  -7  -6  -4    1.00    4.10
  -7   6  -4    4.00    3.60
   7   6   4   -8.30    4.20
   7  -7  -4   27.30    8.00
  -7  -7   4    5.80    6.90
   7   7  -4    6.90    4.30
  -7   7   4    2.20    3.70
  -7   7   4   11.60    3.20
   6  -7  -4   -2.70    4.80
  -6  -7   4   -0.60    6.30
   6  -7  -4    3.70    2.40
  -6  -7   4    2.80    7.90
  -6   7   4    2.60    5.60
   6   7  -4    6.70    5.30
   5  -7  -4   13.80    5.80
   5  -7  -4   22.80    5.20
  -5  -7   4   17.30    8.10
  -5  -7   4   31.20    9.90
   5   7  -4   22.00    6.20
  -5   7   4   35.30    9.00
   4  -7  -4   42.20    9.10
  -4  -7   4   35.80   10.50
  -4   7   4   57.59   10.50
   4   7  -4   55.79    9.00
   3  -7  -4   32.90    7.50
  -3  -7   4   35.00   15.00
  -3  -7   4   31.60    8.70
   3   7  -4   53.09    8.20
  -2  -7   4    6.70    5.90
  -2  -7   4    7.40    9.00
   2  -7  -4    3.20    5.50
   2   7  -4    5.50    4.30
  -2   7   4    5.20    5.10
  -2   7   4    1.60    4.70
  -1  -7   4   87.89   12.70
  -1  -7   4   87.89   16.70
   1  -7  -4   95.59   13.20
  -1   7   4  107.99   13.00
  -1   7   4   80.99   12.80
   1   7  -4  105.49   11.40
   0  -7   4   95.19   11.40
   0  -7   4   64.59   14.70
   0  -7  -4   70.89   11.20
   0   7   4   58.09   11.40
   0   7   4   57.19   10.40
   0   7  -4   73.99    9.20
   1  -7   4    6.00    6.90
  -1  -7  -4   -1.20    4.50
   1  -7   4    5.60   16.00
   1   7   4   -0.90    5.20
  -1   7  -4   -0.30    3.20
   1   7   4    2.30    4.30
  -2  -7  -4   55.09   10.20
   2  -7   4   41.60   14.40
   2   7   4   56.29   10.10
  -2   7  -4   49.60    8.20
   2   7   4   25.20    8.80
  -2   7  -4   39.80    7.30
   3  -7   4    6.50   11.80
  -3  -7  -4   22.40    7.80
  -3   7  -4   28.70    6.80
   3   7   4    4.90    6.70
   3   7   4   34.30    8.10
  -3   7  -4   17.30    5.00
  -4  -7  -4   10.60    6.60
   4  -7   4    4.50   11.40
  -4   7  -4    1.20    4.20
   4   7   4    0.60    4.00
  -4   7  -4    2.50    4.20
   4   7   4   -3.90    6.30
  -5  -7  -4   14.90    6.20
   5  -7   4   -0.10   11.20
   5   7   4   15.00    5.80
   5   7   4   13.50    7.60
  -5   7  -4    5.70    3.90
   6  -7   4    5.50    9.40
  -6  -7  -4    6.30    5.00
   6   7   4    3.10    4.00
  -6   7  -4    6.10    3.90
   6  -8  -4    8.70    6.30
  -6  -8   4   15.60    6.80
   6   8  -4    2.80    3.50
  -6   8   4    0.90    3.00
   5  -8  -4   20.50    7.30
  -5  -8   4   11.50   11.50
   5  -8  -4   15.20    3.80
  -5  -8   4   -2.90    9.90
   5   8  -4    6.80    3.80
  -5   8   4    6.40    3.80
   4  -8  -4   -4.20    4.40
  -4  -8   4    9.50    7.90
  -4  -8   4   -6.90    6.30
   4  -8  -4    0.30    3.30
   4   8  -4   -0.60    3.60
  -4   8   4   -6.80    4.50
   3  -8  -4    6.00    4.40
  -3  -8   4    5.50    8.80
   3  -8  -4    7.50    5.80
  -3  -8   4   15.20    6.90
  -3   8   4   16.80    6.80
   3   8  -4   13.30    6.50
  -2  -8   4   23.30    7.20
   2  -8  -4   46.80    9.50
  -2  -8   4   19.70   10.90
   2   8  -4   23.80    5.70
  -2   8   4   10.20    6.20
   1  -8  -4    6.60    6.30
  -1  -8   4   -2.10    7.20
  -1  -8   4    6.90    9.90
  -1   8   4   -8.60    9.30
  -1   8   4   -1.60    4.70
   1   8  -4   12.30    4.80
   0  -8   4   18.80    8.50
   0  -8   4   18.90   12.10
   0  -8  -4   24.20    8.20
   0   8   4   18.70    9.10
   0   8  -4   26.50    6.20
   0   8  -4   16.90    4.60
   0   8   4   40.50   12.00
  -1  -8  -4   20.30    8.20
   1  -8   4   10.20   11.20
   1   8   4    9.40    4.60
   1   8   4    2.40    9.90
  -1   8  -4   27.30    7.90
   2  -8   4   -2.90   10.00
  -2  -8  -4    1.10    5.80
  -2   8  -4    3.20    4.10
   2   8   4   -1.30    4.70
  -2   8  -4    3.10    3.30
  -3  -8  -4    2.60    4.50
   3  -8   4    0.00    9.80
  -3   8  -4    2.20    3.90
   3   8   4    2.90    3.10
  -3   8  -4    3.20    3.10
   4  -8   4   -1.60    8.30
  -4  -8  -4   10.60    5.30
  -4   8  -4    5.30    2.70
   4   8   4   15.30    5.30
  -4   8  -4    6.90    3.90
   3  -9  -4    4.50    5.20
   3  -9  -4    2.40    2.60
   3   9  -4    5.20    3.30
  -3   9   4    5.30    4.10
   2  -9  -4    6.70    4.90
   2  -9  -4    1.00    2.60
   2   9  -4    6.20    3.30
  -2   9   4   13.10    5.60
  -1  -9   4    3.10   11.50
   1  -9  -4    2.60    3.40
   1  -9  -4   16.00    5.20
   1   9  -4    6.50    3.40
   1   9  -4   14.10    3.60
  -1   9   4    5.00    3.30
   0  -9  -4    5.40    5.10
   0  -9   4    2.20   11.70
   0   9  -4    3.30    2.80
   0   9  -4    0.80    3.00
   0   9   4    0.20    4.10
  -1  -9  -4    5.30    5.20
   1   9   4   -1.70    3.00
  -1   9  -4    0.30    2.20
  -1   9  -4    1.50    3.00
  11   0  -5    7.80    5.30
  10   0  -5   28.20    6.50
 -10   0   5   21.00    7.00
   9   0  -5   61.79   10.70
  -9   0   5   50.99   10.20
   8   0  -5  163.48   14.60
   8   0  -5  187.98   17.40
  -8   0   5  150.08   17.80
  -7   0   5    6.00    6.50
   7   0  -5   13.60    4.80
   7   0  -5   22.10    3.80
  -7   0   5   12.90   11.30
  -7   0   5   16.10    6.40
   6   0  -5 1114.89   89.29
   6   0  -5 1188.78   88.39
  -6   0   5 1193.68   94.19
   5   0  -5 2022.70  154.08
  -5   0   5 2241.98  158.98
   5   0  -5 1903.91  154.58
  -4   0   5   20.60    4.60
  -4   0   5    9.40    7.70
   4   0  -5   10.80    2.90
   3   0  -5 1466.75  113.59
  -3   0   5 1624.34  113.59
  -3   0   5 1436.86  116.09
  -2   0   5 1657.53  127.29
  -1   0   5  399.46   36.00
  -1   0   5  483.95   35.20
   0   0   5  500.35   36.30
   0   0   5  431.26   36.80
   1   0   5 2085.79  156.68
   1   0   5 2263.17  156.38
  -1   0  -5 1919.81  157.08
  -2   0  -5  691.23   52.19
   2   0   5  651.03   51.79
  -3   0  -5    1.30    4.00
   3   0   5   -0.10    5.90
  -4   0  -5  314.27   25.80
   4   0   5  282.97   28.20
   5   0   5  160.88   22.50
  -5   0  -5  189.68   18.10
  -6   0  -5    2.10    5.80
   6   0   5   -2.50   10.60
   7   0   5    5.50   11.10
  -7   0  -5   24.20    7.40
   8   0   5   -0.30    8.50
  -8   0  -5    9.20    5.30
   9   0   5    6.90    6.20
  11  -1  -5    6.50    5.20
  11   1  -5    7.10    4.10
 -10  -1   5   13.90    6.10
  10  -1  -5   13.20    5.40
 -10   1   5   12.00    6.40
  10   1  -5   17.20    5.60
  -9  -1   5    2.90    5.00
   9  -1  -5   18.10    6.60
   9   1  -5    3.30    4.50
  -9   1   5    0.20    4.60
   8  -1  -5  139.09   13.80
   8  -1  -5  149.99   17.20
  -8  -1   5  157.98   17.90
   8   1  -5  191.38   17.50
  -8   1   5  156.48   18.10
   8   1  -5  183.68   14.70
   7  -1  -5  238.98   22.50
   7  -1  -5  237.88   20.00
  -7  -1   5  232.88   23.50
  -7  -1   5  220.28   26.80
  -7   1   5  292.87   24.80
   7   1  -5  274.27   22.50
  -7   1   5  216.48   29.30
   7   1  -5  237.08   20.30
   6  -1  -5  115.19   11.20
  -6  -1   5  117.69   12.30
  -6   1   5   65.59   16.30
  -6   1   5   85.99   11.50
   6   1  -5   67.79    8.40
   6   1  -5   89.19   10.30
   5  -1  -5  235.18   22.40
  -5  -1   5  260.17   23.80
   5  -1  -5  248.88   21.50
  -5   1   5  286.87   28.60
   5   1  -5  311.07   22.70
   5   1  -5  288.27   22.10
   4  -1  -5 1848.32  131.49
  -4  -1   5 1599.44  134.29
   4  -1  -5 1768.72  131.79
  -4   1   5 1964.70  137.49
   4   1  -5 1650.53  131.59
  -4   1   5 1706.03  132.29
   4   1  -5 1720.53  132.99
   3  -1  -5 1407.36  112.29
  -3  -1   5 1527.75  111.59
  -3  -1   5 1542.65  113.59
   3  -1  -5 1465.15  111.09
   3   1  -5 1486.15  111.39
  -3   1   5 1438.26  111.29
   2  -1  -5  814.52   59.99
  -2   1   5  739.93   61.99
  -1   1   5 3389.36  242.48
  -1   1   5 3037.80  240.98
   0   1   5 2321.37  178.18
   0   1   5 2403.86  176.98
   1  -1   5   91.79    7.90
  -1  -1  -5   95.79   10.70
   1  -1   5   90.89    7.60
   1   1   5   72.19    8.60
   2  -1   5  642.04   53.79
  -2  -1  -5  684.73   54.69
   2  -1   5  618.74   53.19
   2   1   5  776.82   55.09
   2   1   5  758.02   53.29
   3  -1   5  260.27   22.70
   3  -1   5  283.27   24.40
  -3  -1  -5  298.57   24.50
   3   1   5  259.87   26.00
   4  -1   5   36.80   10.00
  -4  -1  -5   49.40    9.80
  -4   1  -5   39.00    7.30
   4   1   5   34.60   11.30
   5  -1   5    5.20   10.00
  -5  -1  -5   21.00    8.10
   5   1   5    9.00   10.80
  -5   1  -5   13.90    6.00
  -6  -1  -5   71.59   12.30
   6  -1   5   55.09   15.40
  -6   1  -5   77.09   10.60
   6   1   5   54.59   13.80
   7  -1   5    6.50   11.50
  -7  -1  -5    5.50    6.30
   7   1   5    2.40    9.20
  -7   1  -5    8.40    5.70
  -8  -1  -5    0.30    5.60
   8  -1   5   -3.80    9.20
   8   1   5    2.80    7.30
  -8   1  -5    3.90    4.70
   9  -1   5    6.00    6.80
   9   1   5   -0.60    4.80
  -9   1  -5    4.10    3.80
  11  -2  -5    0.30    4.10
  11   2  -5    0.70    3.10
 -10  -2   5    3.80    5.00
  10  -2  -5    3.80    5.80
 -10   2   5    0.20    6.10
  10   2  -5    5.50    5.00
  -9  -2   5   50.89   11.10
   9  -2  -5  100.09   16.00
   9   2  -5   58.79    7.50
   9   2  -5   60.99   10.40
  -8  -2   5   58.19   10.30
   8  -2  -5   43.90    9.00
   8  -2  -5   49.10    6.10
   8   2  -5   68.69   10.30
   8   2  -5   57.09    7.20
   7  -2  -5   22.70    7.10
  -7  -2   5   13.60    8.90
  -7  -2   5   12.60    5.60
   7  -2  -5   17.40    3.30
  -7   2   5    8.60    5.70
   7   2  -5   10.90    3.60
  -7   2   5    2.40    6.70
   7   2  -5   15.70    5.10
   6  -2  -5  542.25   38.10
  -6  -2   5  480.25   43.50
   6  -2  -5  534.45   39.90
  -6  -2   5  531.35   41.70
   6   2  -5  471.65   39.40
   6   2  -5  438.86   38.40
  -6   2   5  415.46   40.40
   5  -2  -5  962.50   68.79
  -5  -2   5  795.02   72.19
   5  -2  -5  926.31   69.49
  -5  -2   5  986.50   71.49
  -5   2   5  788.42   74.29
  -5   2   5  921.51   70.89
  -5   2   5  787.12   74.99
   5   2  -5  970.10   69.69
   5   2  -5  898.11   69.19
  -5   2   5  965.70   70.39
  -4  -2   5   30.70    6.00
   4  -2  -5   30.60    4.70
  -4  -2   5   40.50    9.60
   4  -2  -5   30.20    5.00
   4   2  -5   32.50    4.70
   4   2  -5   35.50    5.00
  -4   2   5   29.10    8.70
  -4   2   5   29.90   10.00
  -4   2   5   33.00    5.50
  -3  -2   5 1145.69   91.09
   3  -2  -5 1127.29   90.19
  -3  -2   5 1155.48   92.49
   3   2  -5 1284.07   90.59
  -3   2   5 1239.78   90.69
   3   2  -5 1200.78   89.89
  -2  -2   5 2412.66  172.88
   2  -2  -5 2289.87  172.28
   2   2  -5 2203.58  172.68
  -2   2   5 2169.28  172.48
  -2   2   5 2431.36  175.88
   1  -2  -5  601.24   42.70
   1   2  -5  495.25   41.60
  -1   2   5  530.55   40.80
  -1   2   5  532.45   43.40
  -1   2   5  490.85   41.90
   0  -2  -5  499.85   45.20
   0  -2   5  624.84   44.00
   0  -2  -5  576.54   45.20
   0  -2   5  606.44   42.20
   0   2   5  516.85   44.40
   0   2   5  504.65   42.40
   0   2  -5  554.44   42.70
   0   2   5  542.85   43.30
   1  -2   5 1122.39   89.79
   1  -2   5 1211.28   87.59
   1  -2   5 1161.28   87.79
  -1  -2  -5 1006.90   87.69
  -1  -2  -5 1054.99   90.09
   1   2   5 1226.68   89.59
  -1   2  -5 1293.07   88.19
   1   2   5 1202.68   89.39
   2  -2   5  871.01   68.19
  -2  -2  -5  766.12   69.49
   2   2   5  934.81   70.59
   2   2   5  981.80   68.99
  -3  -2  -5    1.40    8.10
  -3  -2  -5    1.90    4.30
   3  -2   5    1.50    5.60
  -3   2  -5    0.80    5.20
   3   2   5    6.90    7.90
   4  -2   5  585.34   46.70
  -4  -2  -5  549.05   46.80
   4   2   5  631.34   58.29
  -4   2  -5  468.45   43.40
  -5  -2  -5  132.19   18.00
   5  -2   5  148.09   20.50
   5   2   5  123.99   18.60
  -5   2  -5  122.59   13.90
  -6  -2  -5   -1.60    9.40
   6  -2   5    8.60   11.40
   6   2   5    0.30    7.70
  -6   2  -5    2.10    5.10
  -7  -2  -5   16.30    7.70
   7  -2   5    5.40   11.80
  -7   2  -5   10.50    5.30
   7   2   5    5.00    7.50
  -8  -2  -5    2.70    4.30
   8  -2   5    0.40   10.10
   8   2   5    1.90    5.90
  -8   2  -5    5.20    4.30
   9  -2   5   -1.90    6.80
   9   2   5    3.40    4.40
  -9   2  -5   -1.40    2.90
  11  -3  -5    2.30    3.30
  11   3  -5    1.70    3.30
 -10  -3   5    5.40    6.20
  10  -3  -5    6.40    5.50
  10   3  -5    3.40    4.00
   9  -3  -5   -2.40    5.70
  -9  -3   5    4.10    5.00
   9   3  -5    5.90    5.40
  -9   3   5    2.30    5.30
   8  -3  -5   68.09   11.60
  -8  -3   5   47.40    9.90
   8   3  -5   40.40    6.80
   8   3  -5   44.30    9.40
   7  -3  -5  181.28   15.60
   7  -3  -5  188.98   19.10
  -7  -3   5  164.88   19.60
  -7   3   5  162.78   19.70
   7   3  -5  198.48   17.10
   7   3  -5  217.58   19.00
   6  -3  -5   23.60    4.50
  -6  -3   5   27.90   10.20
  -6  -3   5   18.20    6.80
   6  -3  -5   25.30    6.30
  -6   3   5    7.40   11.40
  -6   3   5   42.40    7.50
   6   3  -5   36.80    6.00
  -6   3   5   30.20    7.90
   6   3  -5   44.80    7.60
  -6   3   5   29.20   11.50
  -5  -3   5   69.49   10.90
   5  -3  -5   80.59    9.90
  -5   3   5  105.89   11.70
  -5   3   5   77.49   16.00
  -5   3   5  104.39   17.50
   5   3  -5  101.49   10.10
   5   3  -5   90.49    9.50
  -4  -3   5  728.33   57.39
   4  -3  -5  756.72   55.49
  -4  -3   5  612.54   57.99
  -4   3   5  776.02   56.19
   4   3  -5  727.13   55.59
  -4   3   5  748.33   56.69
  -4   3   5  638.14   60.89
   4   3  -5  723.63   55.39
   3  -3  -5  563.24   44.30
  -3  -3   5  597.04   46.00
  -3   3   5  540.75   48.70
  -3   3   5  614.44   45.40
  -3   3   5  481.55   47.70
   3   3  -5  627.54   44.90
   3   3  -5  558.64   44.00
  -2  -3   5  211.18   18.00
   2  -3  -5  191.78   17.00
  -2   3   5  199.78   17.50
  -2   3   5  202.38   21.10
   2   3  -5  194.58   16.40
   2   3  -5  219.88   17.50
  -2   3   5  201.18   19.80
   1  -3  -5 1021.30   81.59
   1  -3  -5  935.71   81.19
  -1   3   5 1076.39   82.69
  -1   3   5 1132.39   81.99
   1   3  -5 1052.69   81.59
   1   3  -5 1134.29   80.99
  -1   3   5 1138.69   84.89
   0  -3  -5 1280.37   92.49
   0  -3  -5 1191.78   93.09
   0  -3  -5 1138.69   95.09
   0  -3   5 1195.28   94.59
   0   3   5 1250.97   95.69
   0   3   5 1338.77   93.89
   0   3  -5 1337.57   92.79
   0   3  -5 1050.49   93.79
   1  -3   5   32.60    5.10
   1  -3   5   34.50    5.80
  -1  -3  -5   33.20   10.10
  -1  -3  -5   28.30    5.10
  -1   3  -5   36.30    5.30
   1   3   5   39.60    7.40
  -1   3  -5   21.80    4.40
  -1   3  -5   30.10    3.80
   1   3   5   30.60    6.80
   2  -3   5  678.93   52.39
   2   3   5  660.73   53.79
  -2   3  -5  716.13   51.69
  -2   3  -5  622.24   50.09
   2   3   5  619.74   52.79
   3  -3   5  410.16   35.10
  -3   3  -5  422.96   32.70
   3   3   5  362.16   35.40
  -3   3  -5  406.16   31.40
  -4  -3  -5    7.60    9.70
   4  -3   5    8.20    8.90
   4   3   5    3.20    7.10
  -4   3  -5    9.70    4.80
  -5  -3  -5   14.40    9.80
   5  -3   5   29.00   12.50
  -5   3  -5   18.50    5.80
   5   3   5   19.10    9.80
   6  -3   5    9.90   12.20
  -6  -3  -5   15.60    8.90
  -6   3  -5   15.50    5.90
   6   3   5   34.10    9.80
   7  -3   5   10.80   12.30
  -7  -3  -5   13.70    7.50
   7   3   5    3.30    6.50
  -7   3  -5   10.30    5.70
  -8  -3  -5    2.40    7.80
   8  -3   5    0.80   10.10
   8   3   5    0.90    4.80
  -8   3  -5    1.80    3.40
  -9  -3  -5    4.70    3.30
   9  -3   5   -1.80    7.50
  -9   3  -5    1.80    3.00
   9   3   5   -0.20    3.50
  10  -4  -5    7.70    6.20
  10   4  -5    4.00    4.10
   9  -4  -5    4.80    5.90
   9   4  -5   17.20    5.90
  -9   4   5    5.30    8.10
   8  -4  -5    7.40    5.80
  -8  -4   5   12.70    6.30
  -8   4   5   -0.10    6.00
   8   4  -5   10.70    5.80
   7  -4  -5   -2.70    2.00
  -7  -4   5   -1.10    4.40
   7  -4  -5    4.10    5.70
  -7   4   5    0.70    5.00
  -7   4   5   -1.30    5.40
   7   4  -5    0.00    3.80
   7   4  -5   -0.70    3.40
  -6  -4   5  304.67   27.40
   6  -4  -5  312.77   23.70
   6  -4  -5  296.87   25.50
   6   4  -5  275.17   25.30
  -6   4   5  263.97   25.30
   6   4  -5  253.87   24.40
  -5  -4   5  555.54   48.10
   5  -4  -5  629.04   46.10
  -5   4   5  652.73   46.80
   5   4  -5  604.44   46.20
   5   4  -5  582.34   45.80
  -5   4   5  458.85   58.19
  -5   4   5  569.34   47.60
  -5   4   5  453.85   59.19
  -4  -4   5    5.40    6.60
   4  -4  -5    2.80    3.30
   4  -4  -5    3.60    3.80
  -4   4   5    2.80    7.90
  -4   4   5    8.60    4.30
   4   4  -5    3.20    3.50
   4   4  -5    8.20    3.80
  -4   4   5    7.40    7.60
  -3  -4   5  538.65   45.40
   3  -4  -5  522.85   43.80
   3   4  -5  585.24   44.30
  -3   4   5  643.54   44.70
   3   4  -5  570.24   43.50
  -3   4   5  580.04   45.20
  -3   4   5  509.95   47.60
  -3   4   5  472.25   48.30
  -2  -4   5  966.30   68.09
   2   4  -5  817.22   65.59
  -2   4   5  783.22   70.29
  -2   4   5  887.51   67.39
  -2   4   5  839.52   66.49
   1  -4  -5  161.18   21.10
  -1   4   5  117.79   12.60
  -1   4   5  134.19   12.30
   1   4  -5  113.19   10.60
  -1   4   5  111.09   15.20
   1   4  -5  111.99   11.80
   0  -4  -5  166.48   18.80
   0  -4  -5  159.18   13.40
   0   4   5  159.78   15.30
   0   4  -5  134.49   13.60
   0   4   5  135.49   16.30
   0   4  -5  135.49   12.40
  -1  -4  -5  508.95   36.70
  -1  -4  -5  544.55   41.90
   1   4   5  378.36   37.90
   1   4   5  454.05   39.90
  -1   4  -5  420.26   34.90
   1   4   5  434.26   37.70
  -1   4  -5  420.06   35.20
  -2  -4  -5  336.47   29.00
   2  -4   5  335.17   36.00
  -2  -4  -5  375.46   35.80
   2   4   5  339.37   31.30
  -2   4  -5  361.36   28.20
   2   4   5  345.77   31.00
  -2   4  -5  324.87   27.10
  -3  -4  -5   15.30   13.20
  -3  -4  -5   27.90    6.60
   3  -4   5   15.20    9.20
  -3   4  -5   22.00    4.30
   3   4   5   20.70    8.10
  -3   4  -5   24.30    5.30
   4  -4   5  174.78   22.40
  -4   4  -5  170.58   16.30
   4   4   5  179.58   20.90
   4   4   5  146.89   19.40
   5  -4   5   30.30   12.60
  -5  -4  -5   14.70   10.80
  -5   4  -5   24.60    6.50
   5   4   5   20.60    8.30
   6  -4   5    4.30   11.60
  -6  -4  -5   -5.10    7.20
  -6   4  -5    3.80    5.20
   6   4   5    1.00    5.60
  -7  -4  -5    1.20    5.90
   7  -4   5    1.60   11.00
   7   4   5    2.10    4.80
  -7   4  -5    1.00    4.80
   8  -4   5    2.50    9.30
  -8  -4  -5    4.40    3.70
  -8   4  -5    4.10    3.30
   8   4   5    1.40    4.10
  10  -5  -5   15.20    5.20
   9  -5  -5    4.70    6.10
  -9  -5   5    6.80    6.40
   9   5  -5    1.30    4.10
  -8  -5   5   32.60    8.70
   8  -5  -5   50.29   10.40
   8   5  -5   34.50    8.20
   7  -5  -5   79.79    8.20
   7  -5  -5   80.99   12.90
   7   5  -5   91.19   11.90
   6  -5  -5    7.70    3.60
   6  -5  -5    7.40    5.40
  -6   5   5    3.80    6.10
  -6   5   5    9.00    5.80
   6   5  -5    5.30    4.00
   6   5  -5    6.80    4.60
   5  -5  -5   14.40    4.50
   5  -5  -5   44.30    9.90
  -5  -5   5   23.80    7.80
  -5   5   5   19.40    7.40
  -5   5   5   24.70    6.80
   5   5  -5   17.60    5.40
   5   5  -5   24.30    6.30
  -4  -5   5  155.68   18.40
  -4   5   5  131.59   15.70
   4   5  -5  133.09   13.90
  -4   5   5  157.78   15.10
   4   5  -5  132.49   14.50
   3  -5  -5  165.08   17.30
   3   5  -5  175.38   16.60
  -3   5   5  184.18   18.70
  -3   5   5  208.68   17.90
   3   5  -5  193.48   17.80
  -2  -5   5  115.59   13.60
   2   5  -5   85.59    9.20
   2   5  -5   93.99   10.60
  -2   5   5   77.79   11.10
  -2   5   5   74.39   10.30
  -2   5   5   61.79   17.30
  -1  -5   5  362.96   31.80
   1  -5  -5  316.27   29.40
  -1   5   5  367.46   31.20
  -1   5   5  331.77   33.30
  -1   5   5  363.86   29.60
   1   5  -5  342.77   29.60
   1   5  -5  361.96   28.30
   0  -5  -5  406.06   41.40
   0  -5  -5  430.26   38.20
   0  -5   5  445.36   39.80
   0   5   5  493.35   40.10
   0   5   5  474.45   42.20
   0   5   5  494.15   38.30
   0   5  -5  504.75   36.80
   1  -5   5   23.70    8.50
  -1  -5  -5   19.70    6.00
  -1  -5  -5   25.80   11.50
  -1   5  -5   17.10    4.20
  -1   5  -5   20.20    5.10
   1   5   5   10.20    6.10
   1   5   5   24.80    7.50
   1   5   5   21.30    8.60
  -2  -5  -5  136.79   21.90
  -2  -5  -5  128.79   14.70
   2  -5   5  135.39   18.60
  -2   5  -5  138.69   12.40
   2   5   5  136.49   17.20
   2   5   5  129.29   14.10
  -2   5  -5  152.58   13.60
  -3  -5  -5   30.50   15.00
   3  -5   5   44.60   12.80
   3   5   5   34.90    9.60
  -3   5  -5   40.70    5.90
   3   5   5   31.50    6.90
  -4  -5  -5   11.00    5.40
  -4  -5  -5    7.30   11.70
   4  -5   5    9.60   11.30
  -4   5  -5   17.90    5.20
  -4   5  -5   20.40    4.40
   4   5   5   19.80    8.40
   5  -5   5   -1.90   10.80
  -5  -5  -5    4.30    8.60
  -5  -5  -5    3.00    4.60
   5   5   5    0.50    5.50
   5   5   5   -3.30    5.50
  -5   5  -5    2.10    4.10
  -6  -5  -5   13.80    6.00
   6  -5   5    6.10   11.40
  -6   5  -5    7.40    4.50
   6   5   5    8.10    6.20
  -7  -5  -5    5.20    4.70
   7  -5   5   14.80   11.40
  -7   5  -5    2.60    3.80
   7   5   5    4.30    4.40
   9  -6  -5    0.90    5.60
  -9  -6   5   19.50    9.30
   9   6  -5    0.50    3.30
   8  -6  -5   28.70    8.50
  -8  -6   5    5.10    5.80
  -8  -6   5    6.50    9.90
   8   6  -5    6.70    4.30
   7  -6  -5    0.40    2.10
  -7  -6   5   -0.30    5.00
   7  -6  -5   -2.50    5.80
  -7  -6   5   13.30    9.80
  -7   6   5   -0.20    8.30
   7   6  -5    4.50    4.50
  -7   6   5    9.50    8.40
   6  -6  -5   52.29    7.10
   6  -6  -5   58.49   10.40
  -6  -6   5   56.29   13.10
  -6  -6   5   48.10   11.50
   6   6  -5   52.99    9.20
  -6   6   5   56.99   10.80
   5  -6  -5   72.79    9.70
  -5  -6   5   97.49   14.60
  -5  -6   5   76.29   14.80
   5   6  -5   99.39   11.30
  -4  -6   5   11.20    7.90
   4  -6  -5    5.90    4.30
  -4  -6   5    8.80    6.00
   4  -6  -5    6.10    4.20
  -4   6   5    7.50    5.30
   4   6  -5    8.60    4.40
  -4   6   5    3.50    5.30
   3  -6  -5  142.99   15.50
  -3  -6   5  128.49   19.00
  -3   6   5  156.88   15.80
  -3   6   5  143.89   17.00
   3   6  -5  158.78   14.70
  -2  -6   5  223.18   24.90
  -2   6   5  238.58   21.50
   2   6  -5  243.48   21.30
  -2   6   5  207.18   22.90
   1  -6  -5   27.70    8.00
  -1  -6   5   27.80    9.80
   1   6  -5   33.40    6.10
  -1   6   5   32.10    7.10
  -1   6   5   26.00    8.30
   0  -6  -5   49.90   12.50
   0  -6   5   43.80   11.50
   0   6  -5   29.30    5.70
   0   6   5   26.10    8.60
   0   6   5   47.60    8.40
  -1  -6  -5   96.59   12.60
   1  -6   5   94.59   17.50
  -1   6  -5  106.79   11.30
   1   6   5   90.99   11.70
   1   6   5   96.39   14.70
  -1   6  -5  102.99   10.30
   2  -6   5   62.29   14.60
  -2  -6  -5   64.69   10.70
  -2   6  -5   74.19    8.40
  -2   6  -5   79.79    9.70
   2   6   5   60.99   13.10
   2   6   5   85.79   11.80
   3  -6   5   -0.40   14.30
  -3  -6  -5    3.10    4.70
   3   6   5   -0.10    6.20
  -3   6  -5   -0.10    3.00
   3   6   5    3.90    4.30
  -3   6  -5    2.90    4.00
   4  -6   5   29.10   13.40
  -4   6  -5   32.90    6.90
  -4   6  -5   15.30    4.10
   4   6   5    5.10    5.40
   4   6   5   15.20    7.20
   5  -6   5   10.00   11.60
  -5  -6  -5   19.30    7.00
   5   6   5    4.90    4.80
  -5   6  -5    6.70    4.90
   5   6   5    3.70    5.10
   6  -6   5    1.80    9.30
  -6  -6  -5    1.60    4.50
   6   6   5    4.20    4.80
  -6   6  -5   -1.10    3.90
  -7  -7   5   -1.40    6.70
   7  -7  -5    8.40    6.90
  -7  -7   5    9.70    7.40
   7   7  -5    6.60    3.90
  -7   7   5    8.00    4.10
   6  -7  -5   12.30    3.30
  -6  -7   5   11.20    7.40
   6  -7  -5   16.60    7.10
  -6  -7   5    9.90    7.90
   6   7  -5   12.70    5.00
  -6   7   5   22.70    7.10
   5  -7  -5   19.00    7.00
  -5  -7   5   -1.90    6.50
   5  -7  -5    4.10    3.40
  -5  -7   5   24.50    9.30
   5   7  -5    8.60    4.20
  -5   7   5   -7.10    6.30
  -5   7   5    1.90    6.20
   4  -7  -5   34.60    7.50
   4  -7  -5   23.70    6.50
  -4  -7   5   66.29   12.40
  -4  -7   5   36.90   11.40
   4   7  -5   39.00    7.10
   3  -7  -5   51.59    9.70
  -3  -7   5   43.40   12.30
   3   7  -5   52.89    8.00
  -3   7   5   39.40    9.70
  -3   7   5   55.29    9.90
  -2  -7   5    3.80    9.30
   2  -7  -5    3.50    4.50
  -2   7   5   -1.30    6.00
  -2   7   5    3.90    3.60
   2   7  -5    1.40    3.50
   2   7  -5    2.00    3.30
   1  -7  -5   69.99   11.30
  -1  -7   5   45.50   16.20
  -1   7   5   80.59   10.90
   1   7  -5   75.79    9.30
   1   7  -5   78.39    9.20
   0  -7   5   40.90   13.60
   0  -7  -5   39.90    8.80
   0   7   5   39.30    8.10
   0   7  -5   50.29    6.90
   0   7   5   38.40    9.90
  -1  -7  -5    3.80    4.60
   1  -7   5   -3.60    9.60
  -1   7  -5    0.10    3.80
   1   7   5    2.40    4.40
   1   7   5   -2.90    5.00
  -1   7  -5    0.80    3.60
   2  -7   5   10.70   11.80
  -2  -7  -5   10.50    5.40
  -2   7  -5   30.50    6.70
   2   7   5   20.50    6.10
   2   7   5   20.40    8.80
  -2   7  -5   19.60    4.50
  -3  -7  -5   21.60    7.00
   3  -7   5   17.00   11.90
   3   7   5   25.10    7.80
   3   7   5   13.70    4.60
  -3   7  -5   17.70    4.10
  -4  -7  -5    2.90    4.90
   4  -7   5    6.30   10.50
  -4   7  -5    6.30    4.70
   4   7   5   13.10    5.30
   4   7   5   10.60    9.00
  -5  -7  -5   -2.90    3.80
   5  -7   5    6.80    9.40
  -5   7  -5    2.80    3.80
   5   7   5  -11.10    6.80
   5   7   5   11.00    5.20
   6  -8  -5    3.40    4.60
   6   8  -5    5.10    3.10
  -6   8   5    1.30    3.30
   5  -8  -5    9.50    5.20
  -5  -8   5   14.80    8.50
   5  -8  -5   14.60    3.70
   5   8  -5   15.20    4.10
  -5   8   5    7.10    5.20
  -4  -8   5   -6.80    7.80
   4  -8  -5   -0.70    3.00
   4  -8  -5    3.80    5.30
  -4   8   5    3.50    3.60
   4   8  -5    2.00    3.20
   3  -8  -5    7.10    4.50
   3  -8  -5   14.10    5.10
  -3  -8   5    4.10    9.40
   3   8  -5   20.60    4.90
  -3   8   5   24.30    6.00
   2  -8  -5   25.60    6.80
  -2  -8   5   27.00   12.10
  -2   8   5   10.50    4.40
   2   8  -5   22.30    4.60
   2   8  -5   20.10    5.00
  -2   8   5   33.80   10.60
  -1  -8   5    8.10   11.40
   1  -8  -5    9.90    5.60
   1   8  -5    8.40    3.60
  -1   8   5    7.50    4.60
   1   8  -5    4.20    3.70
   0  -8  -5   12.60    6.40
   0  -8   5   13.20   11.70
   0   8   5   -7.00    7.70
   0   8   5   17.20    5.70
   0   8  -5   19.90    4.70
   0   8  -5   11.60    4.20
  -1  -8  -5   29.70    7.30
   1  -8   5   16.60   13.10
   1   8   5   11.90    8.50
  -1   8  -5   31.20    5.50
  -1   8  -5   37.60    7.00
  -2  -8  -5    4.30    4.80
   2  -8   5    2.80   10.90
  -2   8  -5    3.70    3.60
   2   8   5   -2.40    3.90
  -2   8  -5    7.40    3.10
   2   8   5   21.60    8.50
  -3  -8  -5   -1.00    2.90
   3  -8   5    4.10    9.60
  -3  -8  -5    1.00    4.20
  -3   8  -5   -2.40    3.10
   3   8   5   -0.20    3.60
   1  -9  -5   14.00    4.80
  -1  -9   5    9.30   11.70
   1   9  -5    9.80    3.80
  -1   9   5    9.40    4.30
   1   9  -5    4.10    2.30
  11   0  -6   18.70    5.50
  10   0  -6   -2.30    3.60
 -10   0   6    1.00    5.00
   9   0  -6   54.39    9.30
  -9   0   6   41.00    9.70
   9   0  -6   37.30    5.80
   8   0  -6  108.09   12.60
   8   0  -6   97.19   10.10
  -8   0   6  112.89   14.30
  -7   0   6   21.00    7.40
   7   0  -6   13.40    4.30
  -7   0   6   17.20   14.30
  -7   0   6   21.70   12.60
   7   0  -6   23.50    4.30
   6   0  -6  741.93   63.29
   6   0  -6  853.21   63.89
  -6   0   6  881.01   70.19
   5   0  -6  974.30   79.09
   5   0  -6 1158.18   79.49
  -5   0   6  986.70   84.39
  -4   0   6   41.00    5.50
   4   0  -6   37.20    4.80
  -4   0   6   27.10    8.50
   4   0  -6   35.20    4.40
  -4   0   6   27.30    8.40
  -3   0   6  641.94   60.59
  -3   0   6  849.61   60.49
  -3   0   6  728.03   56.89
   3   0  -6  773.62   57.19
   2   0  -6 2810.02  207.78
  -2   0   6 2419.46  210.38
  -2   0   6 3098.89  209.68
  -1   0   6  907.11   72.49
   1   0  -6  917.01   70.29
  -1   0   6  958.20   71.29
   0   0   6   77.79    8.10
   0   0   6   76.59    8.70
   0   0  -6   65.89    8.10
   1   0   6 1310.77   97.39
  -1   0  -6 1276.77   98.49
   1   0   6 1271.17   97.69
   1   0   6 1325.57   97.89
   2   0   6  495.95   40.90
  -2   0  -6  547.05   41.60
   3   0   6   -1.00    5.50
  -3   0  -6    1.90    4.40
  -4   0  -6   56.09    9.80
   5   0   6   63.59   14.50
  -5   0  -6   87.49   12.10
   6   0   6   10.80   11.10
  -6   0  -6    4.70    5.60
  -7   0  -6    9.20    5.90
   7   0   6    4.80    9.80
  -8   0  -6    6.20    4.20
   8   0   6    7.50    8.00
   9   0   6   -1.80    4.40
  11  -1  -6    1.80    3.60
  11   1  -6   12.50    5.00
 -10  -1   6   25.70    7.20
  10  -1  -6   21.40    6.30
 -10   1   6    9.50    6.10
  -9  -1   6    6.50    5.70
   9  -1  -6   13.20    6.00
   9   1  -6   10.90    5.40
   9   1  -6    9.70    3.50
  -9   1   6   -0.30    5.10
  -8  -1   6   67.59   12.20
   8  -1  -6   70.09    7.70
  -8   1   6   78.99   12.80
   8   1  -6   75.39    8.30
  -7  -1   6  410.36   39.90
  -7  -1   6  390.86   35.90
   7  -1  -6  417.96   33.40
   7  -1  -6  408.66   31.80
  -7   1   6  412.06   43.60
   7   1  -6  380.36   32.00
  -7   1   6  349.47   40.60
   7   1  -6  412.96   33.10
  -6  -1   6  423.86   36.60
   6  -1  -6  370.26   33.80
   6  -1  -6  381.26   32.80
  -6   1   6  385.96   41.10
  -6   1   6  475.65   42.90
   6   1  -6  440.26   33.50
   6   1  -6  458.85   33.80
   5  -1  -6  167.08   13.80
   5  -1  -6  172.08   13.10
  -5  -1   6  142.79   19.90
   5   1  -6  126.89   12.90
  -5   1   6  134.59   14.70
  -5   1   6  150.18   20.80
   5   1  -6  143.19   13.30
  -4  -1   6 2064.19  149.79
   4  -1  -6 1745.83  147.99
   4  -1  -6 1950.50  148.19
  -4  -1   6 1959.90  151.48
   4   1  -6 1965.80  147.89
   4   1  -6 2019.70  148.69
  -4   1   6 2110.39  149.29
  -3  -1   6  967.40   67.59
  -3  -1   6  835.62   64.89
   3  -1  -6  872.11   64.69
   3  -1  -6  752.02   64.09
  -3   1   6  826.82   64.69
  -3   1   6  810.52   68.19
  -3   1   6  989.80   69.79
   3   1  -6  767.92   64.89
  -2  -1   6   49.20    8.40
   2  -1  -6   44.70    5.40
  -2   1   6   50.09    9.90
  -2   1   6   49.80    9.90
   1  -1  -6  855.41   63.39
   1  -1  -6  857.21   61.89
  -1   1   6  762.22   62.99
  -1   1   6  783.02   64.09
   0  -1  -6 1780.62  122.29
   0  -1   6 1560.74  121.19
   0  -1  -6 1580.94  119.59
   0   1   6 1550.14  119.79
   0   1   6 1501.15  121.19
   1  -1   6  199.78   18.80
   1  -1   6  211.68   19.30
  -1  -1  -6  210.18   19.70
   1  -1   6  200.38   17.10
   1   1   6  237.28   18.80
  -1   1  -6  211.88   18.50
   1   1   6  253.37   19.00
  -2  -1  -6  714.13   51.79
   2  -1   6  651.83   50.49
   2  -1   6  692.23   50.69
   2   1   6  647.94   51.59
   2   1   6  617.34   49.60
  -2   1  -6  572.04   50.49
  -3  -1  -6  727.13   59.69
   3  -1   6  642.04   59.09
   3   1   6  808.72   60.99
  -3   1  -6  838.02   59.29
   4  -1   6   16.60    9.60
   4   1   6   35.90   11.20
  -4   1  -6   44.80    9.00
   5  -1   6   33.70   11.90
  -5  -1  -6   46.10   10.10
   5   1   6   51.79   13.40
  -5   1  -6   69.29   10.30
  -6  -1  -6   27.60    8.50
   6  -1   6   19.20   12.10
  -6   1  -6   29.30    7.50
   6   1   6   19.10   10.70
   7  -1   6   11.30   11.40
  -7  -1  -6   11.70    6.60
   7   1   6   10.40    8.60
  -7   1  -6    8.60    6.00
   8  -1   6    0.80    8.60
  -8  -1  -6    4.70    4.40
  -8   1  -6    1.40    3.60
   8   1   6    2.40    6.00
   9  -1   6    2.50    5.60
  -9   1  -6   -2.80    3.20
   9   1   6    0.70    4.00
  11  -2  -6    1.60    3.50
  11   2  -6    3.50    3.70
  10  -2  -6   -4.70    3.70
 -10  -2   6   -2.10    4.70
  10   2  -6    0.90    3.90
 -10   2   6    2.20    5.30
  -9  -2   6   53.99   10.40
   9  -2  -6   39.70    8.30
   9   2  -6   55.99    9.30
  -9   2   6   32.30    8.80
   9   2  -6   40.70    6.50
   8  -2  -6   93.39   12.40
  -8  -2   6   88.49   13.60
   8  -2  -6   86.59    8.70
   8   2  -6   84.49   11.10
  -8   2   6   76.49   13.40
   7  -2  -6    5.50    2.70
   7  -2  -6    0.00    5.10
  -7  -2   6    1.60    4.60
   7   2  -6   -0.50    2.60
   7   2  -6    2.00    4.00
  -7   2   6    2.30    9.90
  -7   2   6    5.70    5.90
  -6  -2   6  272.77   26.80
   6  -2  -6  261.77   24.70
   6  -2  -6  275.37   23.30
  -6   2   6  302.77   33.20
   6   2  -6  324.77   24.50
  -6   2   6  258.17   32.10
   6   2  -6  304.97   24.20
   5  -2  -6  934.21   68.89
   5  -2  -6  915.51   68.09
  -5  -2   6 1015.60   71.09
  -5  -2   6  836.62   71.79
   5   2  -6  796.92   67.89
  -5   2   6  807.82   69.29
  -4  -2   6  246.08   21.40
  -4  -2   6  253.87   30.90
   4  -2  -6  250.67   19.00
   4  -2  -6  251.57   19.10
  -4   2   6  210.48   19.90
   4   2  -6  215.38   19.50
   4   2  -6  196.98   18.40
   3  -2  -6  364.66   25.60
   3  -2  -6  316.17   25.90
   3  -2  -6  284.97   26.50
  -3   2   6  375.06   31.30
   3   2  -6  311.57   25.30
   3   2  -6  331.67   26.60
  -3   2   6  331.27   26.60
  -3   2   6  292.27   30.10
   2  -2  -6 1597.14  145.39
   2  -2  -6 1873.21  145.09
   2  -2  -6 1726.83  143.59
  -2   2   6 2119.39  145.59
   2   2  -6 2001.50  144.99
  -2   2   6 2207.08  147.19
   1  -2  -6  984.80   74.89
   1  -2  -6  896.81   72.39
  -1   2   6 1052.69   73.29
   1   2  -6  850.61   73.39
   1   2  -6  801.62   72.79
  -1   2   6 1049.89   75.99
  -1   2   6 1099.89   74.39
   0  -2  -6  154.18   17.60
   0  -2   6  195.28   15.60
   0  -2  -6  138.89   13.40
   0   2   6  180.38   15.40
   0   2   6  188.28   16.70
   0   2  -6  140.49   14.20
   0   2  -6  168.28   14.50
   1  -2   6  768.82   57.29
   1  -2   6  749.53   57.59
   1  -2   6  750.22   57.19
  -1  -2  -6  687.13   60.09
  -1  -2  -6  692.23   57.19
  -1   2  -6  714.93   57.99
   1   2   6  798.42   59.49
   1   2   6  848.82   59.59
   2  -2   6  367.56   27.50
   2   2   6  350.76   29.90
  -2   2  -6  267.47   28.70
   2   2   6  338.87   27.60
  -3  -2  -6   81.49   14.10
   3  -2   6   74.99   11.70
  -3   2  -6   51.79    9.40
   3   2   6   87.49   13.80
   4  -2   6  156.98   19.00
  -4  -2  -6  170.98   18.90
  -4   2  -6  116.19   14.60
   4   2   6  129.79   18.50
  -5  -2  -6  158.88   19.60
   5  -2   6  149.59   21.40
  -5   2  -6  156.98   17.60
   5   2   6  150.48   20.10
   6  -2   6    3.90   10.70
  -6  -2  -6    3.30    6.80
  -6   2  -6    3.50    5.00
   6   2   6    6.30    7.80
   7  -2   6   -0.90   10.40
  -7  -2  -6    1.90    5.30
  -7   2  -6    4.80    4.80
   7   2   6    2.60    6.50
   8  -2   6   -1.00    8.70
  -8  -2  -6    0.30    3.90
   8   2   6   -0.50    5.20
  -8   2  -6    4.00    3.90
  11  -3  -6    7.00    4.30
  11   3  -6    7.30    4.20
  10  -3  -6   38.30    8.00
 -10  -3   6    7.50    6.10
  10   3  -6   32.50    7.30
 -10   3   6    5.10    7.40
  -9  -3   6    4.80    5.40
   9  -3  -6   -1.60    5.00
   9   3  -6    4.00    3.40
  -9   3   6    4.30    5.40
   9   3  -6    6.80    4.80
  -8  -3   6   34.80    9.60
   8  -3  -6   44.50    9.50
   8  -3  -6   37.10    5.00
   8   3  -6   49.70    9.20
  -8   3   6   19.60    8.30
   8   3  -6   36.40    6.50
  -7  -3   6  193.08   21.20
   7  -3  -6  192.38   16.20
   7  -3  -6  189.98   20.50
  -7   3   6  156.38   20.20
   7   3  -6  193.98   17.40
   7   3  -6  195.18   18.30
   6  -3  -6   61.89    9.50
  -6  -3   6   66.19   11.50
  -6  -3   6   70.29   15.30
   6  -3  -6   66.19    7.30
  -6   3   6   57.39   10.80
  -6   3   6   59.29   15.00
   6   3  -6   58.69    8.30
   6   3  -6   57.29    7.90
  -6   3   6   63.69    9.80
   5  -3  -6  172.58   13.60
   5  -3  -6  159.68   14.20
  -5  -3   6  134.49   18.60
  -5  -3   6  178.38   21.70
  -5   3   6  134.59   15.50
   5   3  -6  127.09   13.40
  -5   3   6  114.89   20.00
  -5   3   6  152.08   15.00
   5   3  -6  154.48   14.30
  -4  -3   6  708.73   51.99
  -4  -3   6  678.13   52.79
   4  -3  -6  586.24   48.50
  -4   3   6  603.54   50.09
  -4   3   6  614.14   54.89
   4   3  -6  611.64   49.30
   4   3  -6  590.04   48.40
  -3  -3   6  991.50   85.89
   3  -3  -6 1064.09   83.89
  -3   3   6 1163.28   85.49
   3   3  -6 1150.88   85.09
  -3   3   6 1203.58   89.79
  -3   3   6 1124.59   88.29
   3   3  -6 1053.39   83.59
   2  -3  -6   94.49   13.00
   2  -3  -6  109.99   10.60
  -2  -3   6  113.89   11.90
  -2   3   6  120.59   13.80
   2   3  -6  123.99   10.60
   2   3  -6  117.09    9.90
   2   3  -6  124.29   11.80
  -2   3   6  128.69   11.90
  -2   3   6  124.19   20.40
  -1  -3   6  979.20   70.89
   1  -3  -6  822.12   72.29
   1  -3  -6  840.62   70.39
   1  -3  -6  829.62   69.79
  -1   3   6  945.11   71.29
  -1   3   6  990.70   71.19
   1   3  -6 1035.80   70.19
   1   3  -6  859.11   70.69
  -1   3   6  955.10   73.89
   0  -3  -6  990.70   80.79
   0  -3  -6  957.20   77.39
   0  -3   6  997.20   79.29
   0   3   6 1016.20   78.69
   0   3   6 1022.20   80.59
   0   3  -6 1116.09   77.79
  -1  -3  -6  266.27   26.60
  -1  -3  -6  267.17   21.30
   1  -3   6  288.57   21.80
   1  -3   6  257.77   21.20
   1   3   6  249.97   23.10
  -1   3  -6  259.57   21.90
   1   3   6  227.68   23.00
  -1   3  -6  226.28   19.60
   2  -3   6  188.68   17.70
  -2  -3  -6  169.28   15.90
  -2   3  -6  191.28   16.50
   2   3   6  175.88   18.90
   2   3   6  170.68   17.30
   3  -3   6  284.97   26.70
  -3  -3  -6  239.58   29.20
   3   3   6  326.17   27.70
  -3   3  -6  264.37   24.20
   4  -3   6   37.80   11.10
  -4  -3  -6   30.60   11.40
  -4   3  -6   28.30    7.20
   4   3   6   29.20    9.10
  -5  -3  -6    5.30    8.70
   5  -3   6    3.80   10.20
  -5   3  -6    5.70    5.10
   5   3   6    5.30    7.40
   6  -3   6   22.80   12.50
  -6  -3  -6   18.30    9.30
  -6   3  -6   25.40    6.70
   6   3   6   24.10    8.30
   7  -3   6   -0.10   10.10
  -7  -3  -6    0.50    5.50
   7   3   6    4.20    5.70
  -7   3  -6    2.90    5.50
   8  -3   6    5.10    8.80
  -8  -3  -6    1.30    5.00
  -8  -3  -6    2.20    2.80
   8   3   6   -2.70    3.60
  -8   3  -6   -0.10    3.20
  10  -4  -6    1.00    4.70
 -10  -4   6    4.20    6.00
  10   4  -6   -1.00    3.70
   9  -4  -6   73.79   11.80
  -9  -4   6   49.70   10.10
   9   4  -6   52.89    8.90
   8  -4  -6   98.89    9.60
   8  -4  -6  108.49   14.30
  -8  -4   6   84.29   14.10
   8   4  -6  115.49   12.70
   8   4  -6  102.09   11.50
  -7  -4   6   10.00    7.00
   7  -4  -6   15.50    3.90
   7  -4  -6    9.10    5.90
   7   4  -6   19.30    5.50
   7   4  -6   11.10    4.90
  -7   4   6    7.40    6.80
  -7   4   6   17.10    5.80
  -6  -4   6  120.49   16.90
   6  -4  -6  136.99   14.90
   6  -4  -6  138.89   13.00
   6   4  -6  157.88   14.30
   6   4  -6  139.99   14.10
  -6   4   6  101.49   15.90
  -6   4   6  164.48   15.40
  -5  -4   6  192.78   23.60
  -5  -4   6  217.58   26.10
   5  -4  -6  253.67   21.40
   5  -4  -6  213.08   20.30
  -5   4   6  268.77   23.80
   5   4  -6  260.67   21.80
   5   4  -6  264.37   21.10
  -4  -4   6  200.58   19.90
   4   4  -6  174.08   15.90
  -4   4   6  177.58   18.20
  -4   4   6  150.98   22.10
  -4   4   6  198.28   17.00
  -4   4   6  163.68   24.00
   4   4  -6  180.18   17.10
   3  -4  -6   29.50    6.20
  -3   4   6   51.99   10.80
  -3   4   6   46.60    8.00
   3   4  -6   45.50    5.80
   3   4  -6   41.40    7.30
  -3   4   6   39.70    9.80
  -2  -4   6 1127.69   78.49
   2  -4  -6 1021.90   76.29
   2   4  -6  921.41   76.79
   2   4  -6  979.60   75.39
  -2   4   6  902.81   80.59
   1  -4  -6  459.55   34.50
   1  -4  -6  416.26   37.50
  -1   4   6  426.36   35.70
   1   4  -6  400.86   32.90
   1   4  -6  392.76   34.70
   1   4  -6  470.65   33.80
  -1   4   6  406.46   38.20
   0  -4  -6  222.68   20.50
   0  -4   6  254.97   21.90
   0  -4  -6  222.48   25.80
   0   4  -6  266.77   20.30
   0   4   6  232.98   23.80
   0   4   6  240.38   22.50
   0   4  -6  229.38   19.00
  -1  -4  -6  263.77   31.70
  -1  -4  -6  289.07   26.20
   1   4   6  330.07   28.80
   1   4   6  324.97   29.30
  -1   4  -6  304.47   24.50
  -1   4  -6  357.96   26.20
   2  -4   6   81.99   12.30
  -2  -4  -6   64.29   16.90
  -2   4  -6   56.39    6.10
   2   4   6   39.60    9.30
   2   4   6   66.49   10.30
  -2   4  -6   57.69    7.90
  -3  -4  -6    8.30    4.40
   3  -4   6    7.80    8.40
  -3  -4  -6    6.40   11.10
  -3   4  -6    4.10    4.20
   3   4   6    2.80    5.80
  -4  -4  -6   24.10    5.40
  -4  -4  -6   45.60    7.70
  -4  -4  -6   33.10   13.50
   4  -4   6   40.00   12.20
  -4   4  -6   27.10    6.50
   4   4   6   36.10    9.00
   5  -4   6   46.30   16.80
  -5  -4  -6   21.30   10.10
  -5   4  -6   31.40    8.00
   5   4   6   29.50   10.90
  -6  -4  -6    6.50    4.80
  -6  -4  -6    7.40    7.00
   6  -4   6    9.30   11.20
   6   4   6    6.80    6.10
  -6   4  -6    7.00    4.60
   7  -4   6   -3.50    9.50
  -7  -4  -6    1.40    3.70
  -7  -4  -6   -2.90    5.30
   7   4   6    4.70    5.10
  -7   4  -6    5.70    4.50
  -8  -4  -6    1.40    3.00
   8  -4   6   10.10    8.40
  -8   4  -6    4.40    3.80
   8   4   6    1.20    4.90
  -9  -5   6   -1.30    5.80
   9  -5  -6    6.60    6.40
   9   5  -6   -2.30    3.30
   8  -5  -6   13.80    6.50
   8   5  -6   -2.90    3.30
  -8   5   6   -1.40    6.00
   7  -5  -6   89.99   12.30
  -7   5   6   57.69   11.30
   7   5  -6   63.99    9.50
   6  -5  -6  135.09   12.70
  -6  -5   6  118.99   17.60
   6  -5  -6  127.09   14.70
   6   5  -6  134.79   14.00
  -6   5   6  126.89   14.50
   6   5  -6  126.59   13.60
   5  -5  -6   76.09   10.30
   5  -5  -6   53.89    8.60
  -5  -5   6   64.49   12.90
   5   5  -6   82.09   10.50
   5   5  -6   75.49    9.30
  -5   5   6   57.59   11.40
  -5   5   6   83.49   10.60
  -4  -5   6  416.96   44.30
   4  -5  -6  510.35   41.30
  -4   5   6  568.84   42.00
   4   5  -6  539.35   42.50
   4   5  -6  516.65   40.90
  -4   5   6  502.35   43.80
   3  -5  -6   57.49    8.90
   3   5  -6   71.29   10.30
   3   5  -6   74.79    8.30
  -3   5   6   79.29    9.50
  -3   5   6   65.29   10.70
   2  -5  -6   43.50    8.00
  -2  -5   6   32.10    9.20
   2   5  -6   47.30    6.20
   2   5  -6   47.50    8.40
  -2   5   6   49.80   11.80
  -2   5   6   51.19    9.30
   2   5  -6   51.79    6.40
   1   5  -6   74.09    7.80
   1   5  -6   93.29    8.80
   1   5  -6   68.69   10.00
  -1   5   6   65.29    9.10
  -1   5   6   65.29   12.70
  -1   5   6   78.69   11.40
   0  -5   6  263.17   23.60
   0  -5  -6  246.68   27.30
   0  -5  -6  247.98   21.30
   0   5   6  210.58   24.30
   0   5   6  202.18   22.90
   0   5  -6  215.08   19.00
   0   5  -6  253.97   20.20
   1  -5   6  143.09   18.60
  -1  -5  -6  144.99   15.80
  -1  -5  -6  148.09   23.30
  -1   5  -6  179.78   15.30
  -1   5  -6  166.78   13.80
   1   5   6  170.28   18.90
   2  -5   6   82.29   15.30
  -2  -5  -6   95.39   12.90
  -2   5  -6   73.89    7.80
   2   5   6   75.29   13.00
  -3  -5  -6  155.28   15.30
   3  -5   6  131.89   19.80
   3   5   6  142.99   17.90
  -3   5  -6  124.99   12.10
  -3   5  -6  149.69   14.60
  -4  -5  -6    0.80    9.30
   4  -5   6    9.70   13.70
  -4  -5  -6    3.30    2.60
  -4  -5  -6   13.80    5.40
  -4   5  -6    4.80    4.80
   4   5   6    1.10    8.50
  -5  -5  -6    4.70    8.40
  -5  -5  -6    9.20    5.20
   5  -5   6    2.30   10.60
   5   5   6    7.10    6.20
  -5   5  -6    2.60    4.10
  -6  -5  -6    4.60    4.70
   6  -5   6    0.60   10.00
   6   5   6   -0.30    4.60
  -6   5  -6    2.10    4.50
   7  -5   6    6.70    8.90
  -7  -5  -6   -2.00    4.40
  -7   5  -6    1.30    3.50
   7   5   6    0.60    3.70
   8  -6  -6    7.70    6.80
  -8  -6   6    5.90    6.20
   8   6  -6    5.30    3.70
   7  -6  -6    3.50    2.40
   7  -6  -6    2.50    7.30
  -7  -6   6    1.40    6.30
   7   6  -6    5.50    6.50
  -7   6   6    1.90    6.60
  -7   6   6    2.80    4.90
   6  -6  -6   23.80    5.00
   6  -6  -6   16.70    6.10
  -6  -6   6   22.70    8.90
  -6   6   6   23.70    6.30
   6   6  -6   20.10    5.60
  -5  -6   6   68.19   14.70
   5  -6  -6   57.59    8.80
   5  -6  -6   87.39   11.10
   5   6  -6   64.49    9.00
  -5   6   6   71.29   10.60
   4  -6  -6   48.90    8.80
  -4  -6   6   25.00   10.40
   4   6  -6   40.30    6.80
  -4   6   6   47.20    8.40
  -4   6   6   43.10    9.90
   3  -6  -6   16.30    5.80
  -3  -6   6   31.80   11.40
   3  -6  -6   22.20    5.80
  -3   6   6   36.90    8.60
  -3   6   6   23.50    7.50
   3   6  -6   34.60    6.00
   2  -6  -6  257.97   23.10
  -2  -6   6  266.07   27.90
  -2   6   6  236.08   22.50
   2   6  -6  266.57   21.50
  -2   6   6  234.98   25.30
   2   6  -6  256.17   21.50
  -1  -6   6   62.99   12.90
   1  -6  -6   58.49    9.50
  -1   6   6   34.20    9.60
   1   6  -6   54.69    9.80
   1   6  -6   53.19    7.00
  -1   6   6   55.79    8.60
   0  -6   6   29.90   10.90
   0  -6  -6   35.10    7.70
   0   6  -6   30.20    5.20
   0   6   6   35.10   10.00
   0   6   6   23.70    5.40
   0   6  -6   38.40    6.80
  -1  -6  -6   74.69   10.90
   1  -6   6   81.19   15.80
   1   6   6   64.69   12.90
  -1   6  -6   83.39    9.90
  -1   6  -6   78.89    8.20
   1   6   6   98.89   12.90
  -2  -6  -6   17.80    6.20
   2  -6   6   29.40   19.40
  -2   6  -6   25.50    4.70
  -2   6  -6   36.00    7.00
   2   6   6   12.20   10.90
  -3  -6  -6    5.80    4.90
   3  -6   6    1.50    9.50
  -3   6  -6   -2.80    4.00
  -3   6  -6    3.90    2.60
   3   6   6    5.40    6.50
   4  -6   6    1.80   10.50
  -4  -6  -6    6.50    5.30
  -4  -6  -6    0.80    2.70
  -4   6  -6    6.30    5.00
   4   6   6    7.40    6.40
  -5  -6  -6    8.90    5.10
   5  -6   6    6.00   10.20
  -5   6  -6    3.80    4.80
   5   6   6    9.00    5.90
   6  -6   6    6.10    8.40
  -6  -6  -6    2.70    3.40
   6   6   6    0.20    4.50
  -6   6  -6   -1.50    3.80
   7  -7  -6    6.90    6.70
   7  -7  -6    9.80    3.30
  -7  -7   6    5.80    6.50
   7   7  -6    8.60    3.40
  -7   7   6    9.70    6.60
   6  -7  -6   15.80    6.90
   6  -7  -6    7.60    3.20
  -6  -7   6   -4.10    9.00
   6   7  -6    5.80    3.40
  -6   7   6   10.50    5.70
  -6   7   6    2.70   13.90
   5  -7  -6    0.90    3.50
  -5  -7   6    0.40    8.20
   5  -7  -6    9.00    6.90
  -5   7   6    3.70    6.60
  -5   7   6    1.20    4.40
   5   7  -6   -1.00    3.00
  -4  -7   6   24.90   11.10
   4   7  -6   36.70    6.30
  -4   7   6   20.20    9.20
  -4   7   6   47.20    8.50
  -3  -7   6   20.10   10.60
   3  -7  -6   35.90    8.00
  -3   7   6   25.80    8.40
   3   7  -6   34.70    6.20
  -3   7   6   48.60    8.80
  -2  -7   6   42.60   13.20
   2   7  -6   39.90    6.00
   2   7  -6   35.40    6.30
  -2   7   6   35.30    7.00
  -2   7   6   32.40    9.40
  -1  -7   6    4.30   10.10
   1  -7  -6   13.00    5.70
   1   7  -6   18.70    5.00
   1   7  -6   15.60    4.30
  -1   7   6   28.70    6.50
  -1   7   6   11.50    7.70
   0  -7  -6   71.59   11.10
   0  -7   6   52.89   14.70
   0   7   6   66.59   13.80
   0   7   6   83.69   10.70
   0   7  -6   81.99    8.60
   0   7  -6   94.89   10.10
   1  -7   6    3.00   10.10
  -1  -7  -6   16.40    6.10
   1   7   6   13.40    5.80
   1   7   6    8.10    7.20
  -1   7  -6   11.40    4.50
  -1   7  -6    8.30    3.30
   2  -7   6   17.30   11.80
  -2  -7  -6   14.10    5.60
   2   7   6   25.80    6.50
  -2   7  -6   13.80    4.90
   2   7   6   11.20    6.90
  -3  -7  -6    9.80    3.60
   3  -7   6   12.60   11.30
  -3   7  -6   18.40    5.40
   3   7   6   27.10    8.50
  -4  -7  -6    6.00    4.60
   4  -7   6    3.80    9.70
  -4  -7  -6    4.60    3.80
  -4   7  -6    4.40    3.90
   4   7   6   10.30    6.10
  -5  -7  -6    1.50    4.00
   5  -7   6   -2.00    7.80
  -5   7  -6    1.80    3.50
   5  -8  -6    9.60    2.90
   5  -8  -6   17.20    5.90
  -5  -8   6    2.60    8.50
  -5   8   6   13.30    4.80
   5   8  -6    8.10    2.90
   4  -8  -6    7.60    3.70
   4  -8  -6    8.00    6.00
  -4  -8   6    6.90   10.10
   4   8  -6    7.70    3.00
  -4   8   6    3.60    4.00
   3  -8  -6    7.70    4.70
   3  -8  -6    0.30    3.90
  -3  -8   6    7.80   11.90
  -3   8   6    1.80    8.20
  -3   8   6    5.10    3.80
   3   8  -6    7.70    3.20
  -2  -8   6   22.70   13.20
   2  -8  -6   10.70    4.90
   2  -8  -6   27.50    6.20
  -2   8   6   16.00    4.50
  -2   8   6   31.80   10.20
   1  -8  -6    6.00    4.60
   1  -8  -6   15.10    5.10
  -1  -8   6   29.40   12.40
   1   8  -6   14.40    3.40
   1   8  -6   15.40    4.40
  -1   8   6   18.30    5.80
  -1   8   6   16.60    7.80
   0  -8  -6    3.50    4.80
   0  -8  -6   -0.80    3.50
   0  -8   6   -0.30   11.40
   0   8   6    2.60    3.70
   0   8   6    1.70    6.70
   0   8  -6   -2.00    2.20
   0   8  -6    2.90    3.50
   1  -8   6    7.30   11.50
  -1  -8  -6   26.20    6.30
  -1  -8  -6   18.70    5.40
  -1   8  -6   23.00    5.30
   1   8   6   17.80    7.40
   1   8   6   22.80    6.70
  -1   8  -6   18.00    3.50
   2  -8   6   14.40   11.10
  -2  -8  -6    4.10    3.30
  -2  -8  -6    6.20    4.70
   2   8   6   -0.10    7.70
  -2   8  -6    6.00    4.00
  -3  -8  -6    2.10    2.20
  -3  -8  -6   -1.00    3.80
  -3   8  -6    2.50    3.70
  11   0  -7    0.80    3.80
 -11   0   7   -3.30    5.60
  10   0  -7    0.60    4.00
 -10   0   7    0.20    4.80
   9   0  -7   92.49   10.20
   9   0  -7  113.99   12.10
   8   0  -7  148.69   15.00
   8   0  -7  152.48   14.10
   7   0  -7    2.80    3.70
  -7   0   7    1.00    5.40
   7   0  -7    0.80    2.60
  -7   0   7    1.90   11.80
   6   0  -7  533.45   43.40
   6   0  -7  590.04   43.90
  -6   0   7  540.95   50.79
  -5   0   7 1109.69   93.29
   5   0  -7 1287.17   88.49
   5   0  -7 1076.29   87.49
   4   0  -7  369.56   30.30
  -4   0   7  431.66   36.30
   4   0  -7  393.36   31.30
  -3   0   7  185.38   16.40
  -3   0   7  190.98   21.60
   3   0  -7  218.98   17.10
  -3   0   7  222.38   20.90
  -2   0   7 2656.03  197.48
  -2   0   7 2563.24  199.28
   2   0  -7 2619.94  195.88
   1   0  -7 1067.39   82.59
  -1   0   7 1137.59   83.69
  -1   0   7 1067.29   84.99
   0   0  -7   46.50    7.10
   0   0   7   46.90    6.60
   0   0   7   49.80    7.20
   1   0   7  366.06   27.80
  -1   0  -7  330.17   27.40
   1   0   7  353.36   27.20
  -1   0  -7  369.86   29.20
   1   0   7  341.57   27.30
  -2   0  -7  396.36   31.90
   2   0   7  368.56   31.10
  -3   0  -7    1.70    5.60
   3   0   7   -3.80    6.00
   4   0   7   63.39   12.80
  -4   0  -7   71.19   11.80
  -5   0  -7   55.19   11.10
   5   0   7   34.70   12.30
  -6   0  -7    5.60    6.40
   6   0   7    3.30   14.50
   7   0   7   -2.50    7.70
  -7   0  -7    0.70    4.40
  -8   0  -7   -2.10    3.20
   8   0   7    7.90    6.80
 -11  -1   7   15.10    5.90
  11  -1  -7    4.70    4.30
  11   1  -7    6.80    4.10
 -11   1   7    0.70    7.30
 -10  -1   7   27.20    8.00
  10  -1  -7   37.40    7.50
 -10   1   7   33.90    9.00
  10   1  -7   46.40    8.00
   9  -1  -7   34.20    7.60
  -9  -1   7   33.90    9.80
   9  -1  -7   27.60    4.80
   9   1  -7   36.30    6.00
   9   1  -7   23.70    5.80
  -9   1   7   16.50    7.40
   8  -1  -7   31.80    7.00
  -8  -1   7   38.60   10.10
   8  -1  -7   20.20    5.60
   8   1  -7   25.00    5.60
  -8   1   7   33.70    9.30
  -7  -1   7  375.76   35.00
   7  -1  -7  367.96   30.70
   7  -1  -7  376.96   30.00
  -7   1   7  366.56   34.50
   7   1  -7  369.96   30.40
   7   1  -7  364.96   30.40
  -6  -1   7  241.18   22.40
  -6  -1   7  185.18   25.40
   6  -1  -7  219.78   17.70
   6  -1  -7  213.88   18.20
   6   1  -7  183.58   17.40
   6   1  -7  207.58   18.20
  -6   1   7  194.08   20.90
  -6   1   7  192.38   26.30
  -5  -1   7   40.20   10.10
   5  -1  -7   49.30    6.30
   5  -1  -7   59.59    6.40
  -5  -1   7   66.79    9.60
   5   1  -7   45.20    6.40
  -5   1   7   36.50   13.30
  -5   1   7   40.30    7.80
  -5   1   7   51.99   12.40
   5   1  -7   45.20    5.60
  -4  -1   7 1009.20   71.29
   4  -1  -7  984.60   67.09
  -4  -1   7  986.70   68.89
   4  -1  -7  831.72   66.29
   4   1  -7  780.72   65.99
  -4   1   7  882.61   72.29
  -4   1   7  821.72   71.39
  -4   1   7  826.62   67.69
   4   1  -7  771.92   67.19
   3  -1  -7 2185.18  156.18
  -3  -1   7 2016.20  156.38
  -3  -1   7 2323.17  158.98
  -3   1   7 2092.19  159.48
   3   1  -7 1867.41  156.58
  -3   1   7 1991.90  160.28
   2  -1  -7   37.30    7.80
   2  -1  -7   48.30    5.70
  -2  -1   7   48.50    8.90
   2   1  -7   59.89    6.50
  -2   1   7   62.19   10.70
  -2   1   7   53.69    5.20
  -2   1   7   69.69   10.30
   1  -1  -7 1118.69   90.89
  -1  -1   7 1284.17   91.09
  -1  -1   7 1058.19   92.29
   1  -1  -7 1258.47   89.49
  -1   1   7 1198.28   92.09
   1   1  -7 1221.68   92.69
   1   1  -7 1180.78   89.99
  -1   1   7 1156.08   92.39
   0  -1  -7 1472.75  116.69
   0  -1  -7 1469.45  118.29
   0  -1   7 1542.75  118.39
   0  -1   7 1502.05  117.79
   0   1   7 1686.53  118.99
   0   1   7 1576.64  116.79
   0   1  -7 1622.94  117.69
  -1  -1  -7  286.07   20.70
   1  -1   7  287.87   21.80
   1  -1   7  228.78   20.50
  -1  -1  -7  291.07   23.70
   1  -1   7  282.77   22.90
   1   1   7  235.18   21.90
   1   1   7  244.88   22.10
  -1   1  -7  241.08   22.10
  -2  -1  -7  116.09   13.50
   2  -1   7   91.89   11.10
  -2  -1  -7   99.49   10.30
   2  -1   7  103.69   10.00
   2   1   7  121.59   13.50
  -2   1  -7  128.19   12.60
   3  -1   7  478.85   39.00
  -3  -1  -7  516.65   39.50
  -3   1  -7  470.45   38.40
   3   1   7  389.56   39.40
  -4  -1  -7  135.99   16.90
   4  -1   7  118.89   18.50
  -4   1  -7  176.08   16.80
   4   1   7  148.69   19.70
   5  -1   7    9.50   10.10
  -5  -1  -7   11.00    7.60
   5   1   7   18.00    9.80
  -5   1  -7   10.90    6.60
   6  -1   7   14.00   11.30
  -6  -1  -7   15.70    7.60
   6   1   7    9.10    9.10
  -6   1  -7   16.50    6.60
  -7  -1  -7   10.90    8.00
   7  -1   7    6.00   10.00
   7   1   7    7.20    7.60
  -7   1  -7    5.00    5.30
  -8  -1  -7   -0.70    3.60
   8  -1   7    5.30    7.00
   8   1   7   -1.30    5.20
  -8   1  -7   -0.90    3.40
  11  -2  -7   12.20    4.70
 -11  -2   7    0.90    6.80
  11   2  -7   10.30    4.10
 -10  -2   7   -0.50    4.60
  10  -2  -7   -5.00    6.30
  10   2  -7    2.70    4.10
 -10   2   7    3.20    5.00
   9  -2  -7   70.49   10.50
  -9  -2   7   60.99   12.30
   9  -2  -7   74.89    7.40
   9   2  -7   61.49    9.40
   9   2  -7   58.19    8.00
   8  -2  -7   95.39   12.10
   8  -2  -7   90.39    9.70
  -8  -2   7   99.69   15.50
   8   2  -7   93.09   10.50
   8   2  -7   97.79   11.30
   7  -2  -7   37.00    5.50
  -7  -2   7   32.60    9.20
   7  -2  -7   25.20    6.80
   7   2  -7   43.50    6.80
  -7   2   7   34.00    9.50
   7   2  -7   38.40    6.60
  -6  -2   7  155.08   22.40
   6  -2  -7  158.58   15.00
   6  -2  -7  140.89   15.80
  -6  -2   7  155.88   19.00
  -6   2   7  179.38   19.20
   6   2  -7  203.58   15.70
  -6   2   7  219.98   25.90
   5  -2  -7  753.42   62.79
  -5  -2   7  784.22   67.39
  -5  -2   7  700.63   65.79
   5  -2  -7  802.42   62.69
  -5   2   7  966.70   71.19
   5   2  -7  908.31   64.09
  -5   2   7  666.83   68.89
   5   2  -7  857.71   62.69
  -5   2   7  918.11   65.69
  -4  -2   7  167.88   19.10
   4  -2  -7  232.38   17.00
  -4  -2   7  234.28   21.70
   4  -2  -7  205.98   16.60
  -4   2   7  198.48   22.90
  -4   2   7  193.98   18.10
   4   2  -7  180.58   17.50
   4   2  -7  177.18   15.90
  -4   2   7  190.38   23.40
   3  -2  -7  244.68   18.70
   3  -2  -7  262.97   19.50
   3  -2  -7  226.28   20.50
   3   2  -7  200.88   20.00
  -3   2   7  250.97   24.50
  -3   2   7  234.78   23.90
  -3   2   7  215.88   19.90
   2  -2  -7  582.94   45.60
  -2  -2   7  633.84   46.20
   2  -2  -7  535.85   43.60
   2  -2  -7  566.04   42.80
   2   2  -7  517.15   43.50
   2   2  -7  495.25   44.40
  -2   2   7  596.94   46.40
  -2   2   7  543.15   43.90
  -2   2   7  618.54   47.90
  -1  -2   7  647.84   52.29
   1  -2  -7  661.63   51.39
   1  -2  -7  748.03   55.09
   1  -2  -7  594.54   52.19
   1   2  -7  648.64   53.19
  -1   2   7  740.43   52.89
  -1   2   7  795.92   56.19
  -1   2   7  745.93   53.89
   1   2  -7  581.94   52.49
   0  -2  -7   60.89    5.50
   0  -2  -7   67.49   11.60
   0  -2   7   62.99    9.30
   0  -2   7   63.69    5.80
   0  -2  -7   57.19    6.60
   0  -2   7   67.69    7.80
   0   2   7   64.19    9.20
   0   2  -7   47.80    7.00
   0   2   7   56.19    8.10
  -1  -2  -7  701.73   55.99
   1  -2   7  787.62   56.19
  -1  -2  -7  738.03   55.49
  -1  -2  -7  795.82   59.59
   1   2   7  719.73   57.89
   1   2   7  660.13   57.69
  -2  -2  -7  269.07   26.20
  -2  -2  -7  263.87   21.50
   2  -2   7  261.87   23.20
  -2  -2  -7  253.07   21.50
   2   2   7  320.57   25.60
  -2   2  -7  255.77   23.80
   2   2   7  279.37   22.90
   3  -2   7   -0.50    6.50
  -3  -2  -7   -1.10    7.40
  -3  -2  -7    8.20    2.80
   3   2   7    9.10    7.30
  -3   2  -7    5.50    5.90
  -4  -2  -7   21.10    9.30
   4  -2   7   12.60    9.50
  -4   2  -7   30.10    8.40
   4   2   7   14.30    8.60
  -5  -2  -7   46.80   11.10
   5  -2   7   34.90   11.70
   5   2   7   20.90    8.90
  -5   2  -7   36.10    8.40
  -6  -2  -7    5.90    6.10
   6  -2   7    6.10   10.90
  -6   2  -7    0.00    4.50
   6   2   7    2.50    7.00
   7  -2   7    3.90    9.80
  -7  -2  -7   -1.00    4.60
  -7   2  -7   -3.20    3.80
   7   2   7    2.70    5.90
  -8  -2  -7   -3.00    3.30
   8  -2   7   -0.70    7.90
   8   2   7   -2.60    3.90
  -8   2  -7    1.90    3.20
  10  -3  -7   13.20    5.80
 -10  -3   7    3.80    5.40
 -10   3   7   -3.40    5.20
  10   3  -7   11.70    5.00
   9  -3  -7   14.10    6.40
  -9  -3   7    3.80    5.90
   9   3  -7    3.50    3.50
   9   3  -7   13.00    5.10
  -9   3   7    1.10    5.70
  -8  -3   7   26.70   11.90
   8  -3  -7   17.20    3.60
   8  -3  -7   27.80    7.50
   8   3  -7    8.30    4.50
  -8   3   7    2.70    6.60
   8   3  -7    9.60    4.40
   7  -3  -7  264.17   23.20
  -7  -3   7  260.37   27.30
   7   3  -7  245.18   22.40
   7   3  -7  243.58   22.00
   6  -3  -7  358.86   27.60
   6  -3  -7  357.26   28.60
  -6  -3   7  289.87   31.90
   6   3  -7  351.76   27.80
  -6   3   7  291.37   30.80
   6   3  -7  346.47   28.70
  -5  -3   7   64.79   13.00
   5  -3  -7   45.10    7.70
   5  -3  -7   54.79    7.40
  -5  -3   7   46.50   11.00
  -5   3   7   38.90   12.20
  -5   3   7   62.39   10.00
   5   3  -7   66.79    7.10
  -5   3   7   61.99   14.40
   5   3  -7   67.09    8.80
   4  -3  -7  527.65   40.50
  -4  -3   7  513.55   44.70
   4  -3  -7  508.45   40.70
  -4   3   7  522.75   46.70
  -4   3   7  543.45   47.50
   4   3  -7  489.15   40.00
   4   3  -7  523.35   42.10
   3  -3  -7  605.14   52.09
   3  -3  -7  664.63   53.79
  -3  -3   7  767.22   55.89
  -3  -3   7  608.24   54.49
  -3   3   7  752.92   58.19
  -3   3   7  688.33   53.79
   3   3  -7  644.74   53.39
   2  -3  -7  103.19   11.40
  -2   3   7  158.38   13.20
   2   3  -7  111.69   11.30
  -2   3   7  159.78   17.00
   2   3  -7  107.79    9.70
   2   3  -7  136.59   13.00
   1  -3  -7  330.57   23.50
   1  -3  -7  358.86   28.60
   1   3  -7  249.68   24.50
   1   3  -7  258.07   23.80
  -1   3   7  277.97   24.90
  -1   3   7  291.17   27.60
   0  -3  -7  384.26   31.90
   0  -3  -7  400.06   36.80
   0   3   7  440.96   34.10
   0   3  -7  364.66   32.80
   0   3   7  425.86   35.80
   0   3  -7  436.06   35.30
  -1  -3  -7  211.08   17.10
  -1  -3  -7  176.98   23.10
   1  -3   7  200.18   18.00
   1   3   7  215.68   19.80
  -1   3  -7  190.58   18.40
   1   3   7  210.58   19.90
   2  -3   7    9.90    6.30
  -2  -3  -7    7.20    3.10
  -2  -3  -7    9.10    3.50
  -2  -3  -7    1.90   10.00
  -2   3  -7   12.00    5.40
   2   3   7   17.80    5.00
   2   3   7   15.70    6.40
   3  -3   7  198.28   21.10
  -3  -3  -7  177.48   15.80
  -3  -3  -7  204.58   17.00
  -3  -3  -7  176.78   22.90
   3   3   7  229.78   21.10
  -3   3  -7  162.88   18.10
   4  -3   7   28.90   11.00
  -4  -3  -7   33.70   11.40
  -4   3  -7   30.30    7.80
   4   3   7   25.30    8.50
  -5  -3  -7    2.90    6.90
  -5  -3  -7    2.30    3.00
   5  -3   7   -0.90   12.70
  -5   3  -7    5.50    6.20
   6  -3   7    8.90   11.30
  -6  -3  -7   29.80    5.20
  -6  -3  -7   21.00    7.90
   6   3   7   27.30    8.00
  -6   3  -7   35.70    8.30
   7  -3   7    1.50    9.60
  -7  -3  -7   -1.10    4.30
   7   3   7    2.40    4.60
  -7   3  -7    3.50    4.30
  10  -4  -7    1.20    4.30
  10   4  -7   -1.50    3.00
  -9  -4   7   10.70    6.20
   9  -4  -7    3.30    6.50
   9   4  -7   22.70    5.70
  -9   4   7    2.20    5.40
  -8  -4   7   48.80   11.80
   8  -4  -7   60.99    7.00
   8  -4  -7   57.29   10.70
   8   4  -7   69.99    9.20
   8   4  -7   73.89    9.30
  -7  -4   7   46.40   11.30
   7  -4  -7   51.99    6.70
   7  -4  -7   59.29   10.60
   7   4  -7   46.40    8.10
   7   4  -7   44.20    7.50
  -7   4   7   40.40    7.60
   6  -4  -7   49.00    8.80
  -6  -4   7   44.30   11.40
   6  -4  -7   46.30    6.60
   6   4  -7   39.90    6.80
  -6   4   7   48.20    8.30
   6   4  -7   37.80    7.60
  -6   4   7   21.40    8.90
   5  -4  -7  406.26   30.00
   5  -4  -7  383.66   30.20
  -5   4   7  343.97   32.90
   5   4  -7  321.57   29.30
   5   4  -7  356.96   31.20
   4  -4  -7  163.18   16.50
  -4  -4   7  135.29   19.90
   4   4  -7  206.18   16.10
  -4   4   7  181.08   28.70
  -4   4   7  195.28   25.10
   4   4  -7  218.18   18.50
  -4   4   7  197.98   19.40
  -3  -4   7  111.29   16.20
  -3  -4   7  122.29   15.30
   3  -4  -7  122.69   12.20
   3   4  -7  131.69   14.20
   3   4  -7  139.59   11.50
  -3   4   7  139.99   19.90
  -3   4   7  132.99   16.50
  -3   4   7  143.69   15.00
  -2  -4   7  291.87   31.30
   2  -4  -7  275.27   30.40
   2   4  -7  348.37   26.40
  -2   4   7  368.96   33.60
   2   4  -7  368.56   27.60
  -2   4   7  364.36   30.20
   2   4  -7  353.66   29.60
   1  -4  -7  245.58   20.00
   1  -4  -7  268.47   25.80
  -1   4   7  233.78   22.20
   1   4  -7  224.98   18.20
   1   4  -7  196.28   20.90
  -1   4   7  233.88   24.60
   1   4  -7  244.08   20.00
   0  -4  -7    5.60   10.30
   0  -4   7    5.80    4.20
   0  -4  -7    4.10    3.60
   0  -4  -7    6.60    3.40
   0   4  -7    2.30    3.70
   0   4   7    2.20    4.40
   0   4  -7    4.40    3.60
   0   4   7    1.50    4.50
   0   4  -7    4.70    1.70
   1  -4   7  292.17   27.70
  -1  -4  -7  321.87   26.20
  -1  -4  -7  274.27   32.50
   1   4   7  307.67   29.20
  -1   4  -7  334.07   26.70
   1   4   7  342.77   29.10
  -2  -4  -7  223.28   18.60
  -2  -4  -7  183.08   25.70
   2  -4   7  212.18   21.50
  -2   4  -7  177.78   18.50
   2   4   7  218.68   23.00
   2   4   7  211.28   21.10
   3  -4   7   19.30    9.60
  -3  -4  -7   11.60   10.40
  -3  -4  -7   23.00    5.60
   3   4   7   21.10    7.80
  -3   4  -7   18.00    6.30
   4  -4   7   37.30   12.00
  -4  -4  -7   39.70    6.60
  -4  -4  -7   38.70   12.10
  -4   4  -7   21.80    6.50
   4   4   7   32.50    8.50
  -5  -4  -7   16.10    4.90
  -5  -4  -7    5.40    8.50
   5  -4   7    8.80   10.70
   5   4   7   15.70    6.70
  -5   4  -7   13.90    6.30
   6  -4   7    7.60   10.00
  -6  -4  -7   -3.70    5.30
   6   4   7   -2.40    4.20
  -6   4  -7    1.50    4.80
   7  -4   7   -0.40    8.80
  -7  -4  -7   -2.00    4.60
   7   4   7    1.20    3.60
  -7   4  -7   -1.90    3.70
  -9  -5   7   11.60    6.90
   9  -5  -7    6.30    5.40
   9   5  -7    5.00    3.40
   8  -5  -7   18.90    3.80
   8  -5  -7   15.50    9.00
  -8   5   7    4.00    6.00
   8   5  -7   20.40    4.90
   7  -5  -7   97.29    8.90
  -7  -5   7   58.19   13.60
  -7   5   7   87.99   11.40
   7   5  -7   61.09    9.30
   7   5  -7   74.29   10.60
   6  -5  -7   26.10    5.10
   6  -5  -7   29.50    7.00
  -6   5   7   23.20    6.10
   6   5  -7   13.40    5.80
   6   5  -7   19.00    5.00
  -6   5   7   13.10   11.30
   5  -5  -7    4.80    4.30
   5  -5  -7   10.20    5.60
  -5  -5   7    2.00    6.30
   5   5  -7    4.80    4.80
  -5   5   7   -1.60    5.40
   5   5  -7   -1.00    3.00
  -5   5   7    1.60    5.80
   4  -5  -7   83.89   10.80
  -4  -5   7  107.49   16.20
   4   5  -7  103.49   12.80
  -4   5   7   94.59   14.10
   3  -5  -7  539.75   41.40
   3   5  -7  515.35   40.20
  -3   5   7  487.25   44.30
   3   5  -7  512.55   43.30
   2  -5  -7  101.19   11.30
  -2  -5   7  110.79   14.80
   2   5  -7  107.29    9.80
  -2   5   7  105.99   14.30
   2   5  -7   98.59   13.30
   2   5  -7  113.39   10.70
  -1  -5   7  332.97   30.00
   1  -5  -7  339.17   27.40
   1   5  -7  343.47   26.80
  -1   5   7  318.87   30.30
   1   5  -7  315.17   25.20
   1   5  -7  281.17   28.10
   0  -5  -7  234.58   21.00
   0  -5   7  227.38   23.30
   0  -5  -7  226.98   28.50
   0   5   7  238.68   24.10
   0   5  -7  232.28   18.70
   0   5  -7  257.47   20.90
  -1  -5  -7    1.20    3.80
   1  -5   7    5.50    6.80
  -1  -5  -7   -0.10    5.40
  -1  -5  -7   -2.10   10.00
   1   5   7    3.90    5.60
  -1   5  -7    6.10    4.60
   2  -5   7   -0.80    7.70
  -2  -5  -7    3.60    4.20
  -2  -5  -7    0.70    3.00
  -2  -5  -7   -3.20    9.60
   2   5   7   13.40    7.00
  -2   5  -7   10.60    4.90
   3  -5   7    4.30   13.70
  -3  -5  -7   20.00    5.60
  -3  -5  -7    4.40    2.90
  -3  -5  -7    4.90    9.80
   3   5   7    9.20    9.50
  -3   5  -7    4.30    4.40
   4  -5   7   32.00   12.30
  -4  -5  -7   19.10    9.80
  -4   5  -7   20.60    6.60
   4   5   7   19.60    7.40
  -5  -5  -7    3.30    3.70
   5  -5   7   10.40   10.60
  -5  -5  -7   -0.90    6.50
  -5   5  -7    4.30    4.90
   5   5   7   -1.80    4.40
  -6  -5  -7   14.20    4.40
   6  -5   7    6.40    9.60
  -6   5  -7    9.80    5.20
   6   5   7    8.60    4.80
  -8  -6   7    4.20    6.00
   8  -6  -7   10.60    6.20
   8   6  -7    6.20    3.00
   7  -6  -7    5.70    2.70
   7  -6  -7    8.90    5.90
  -7  -6   7    3.40    7.80
  -7   6   7    0.60    7.20
  -7   6   7   -0.40    3.80
   7   6  -7    2.60    2.80
   6  -6  -7   16.80    6.40
   6  -6  -7   10.10    3.70
  -6  -6   7    8.00    9.00
   6   6  -7   14.10    4.30
  -6   6   7   -1.80    6.60
   5  -6  -7   90.09   10.20
   5   6  -7   80.79    9.30
  -5   6   7   60.09   12.90
  -5   6   7   98.99   11.50
   4  -6  -7   39.60    7.60
  -4  -6   7   18.50   10.50
   4  -6  -7   17.10    5.30
  -4   6   7   36.30   10.20
  -4   6   7   22.30    5.60
   3  -6  -7   16.40    5.50
  -3  -6   7   18.90   10.00
   3  -6  -7    9.30    5.20
  -3   6   7   18.80    5.70
  -3   6   7   22.50    8.70
   3   6  -7   22.10    4.50
   2  -6  -7  139.39   14.00
  -2  -6   7  118.99   18.40
  -2   6   7  127.79   17.30
   2   6  -7  140.39   12.70
   2   6  -7  132.39   12.00
  -1  -6   7  101.19   15.50
   1  -6  -7   99.39   11.50
   1   6  -7   92.59   10.30
   1   6  -7   94.49    8.70
  -1   6   7   71.89   13.60
   0  -6  -7    2.50    4.30
   0  -6   7    5.60    7.80
   0  -6  -7   -0.10    3.90
   0   6   7    3.30    6.60
   0   6  -7    5.20    4.00
   0   6  -7    5.70    2.30
  -1  -6  -7   89.79   10.20
   1  -6   7   82.79   15.30
  -1  -6  -7   44.30    8.40
   1   6   7   73.59   13.20
  -1   6  -7   60.49    6.20
  -1   6  -7   80.19    9.70
  -2  -6  -7  103.29   11.40
   2  -6   7   74.69   15.40
   2   6   7   87.99   14.20
  -2   6  -7   88.59   11.20
  -3  -6  -7    5.10    4.20
  -3  -6  -7    9.10    5.20
   3  -6   7   10.70   10.40
  -3   6  -7   10.50    5.40
   3   6   7   15.60    7.10
   4  -6   7    0.10   10.00
  -4  -6  -7   16.30    5.10
  -4   6  -7    7.40    4.60
   4   6   7   13.20    6.10
  -5  -6  -7   -1.80    2.60
   5  -6   7    2.40    8.80
  -5   6  -7    1.70    4.30
   5   6   7    2.60    4.20
   7  -7  -7   25.60    4.00
  -7  -7   7    3.80    9.00
   7  -7  -7   18.10    5.90
   7   7  -7   15.30    3.20
  -6  -7   7    5.10    8.80
   6  -7  -7   13.40    3.30
   6  -7  -7   29.50    6.70
  -6   7   7   21.20    9.20
   6   7  -7   24.20    4.10
   5  -7  -7    2.70    3.20
   5  -7  -7    6.60    5.50
  -5  -7   7    2.30    8.50
   5   7  -7    7.90    3.20
  -5   7   7   10.00   11.70
  -5   7   7    6.10    3.90
   4  -7  -7   41.30    8.20
  -4  -7   7   29.20   12.70
  -4   7   7   47.90    8.30
   4   7  -7   48.30    6.00
   3  -7  -7   19.30    5.90
  -3  -7   7   45.60   13.30
  -3   7   7   12.90    7.80
   3   7  -7   31.50    5.40
  -3   7   7   19.60    5.80
  -2  -7   7   -0.60    8.40
   2  -7  -7    2.60    4.40
   2  -7  -7    3.00    4.50
  -2   7   7    1.30    6.20
   2   7  -7    6.30    2.70
  -2   7   7   -5.20    4.10
   2   7  -7    3.00    4.70
   1  -7  -7   51.19    8.30
   1  -7  -7   23.00    6.50
  -1  -7   7   37.40   12.30
   1   7  -7   37.20    6.50
   1   7  -7   41.90    5.10
  -1   7   7   34.70   10.10
   0  -7  -7   13.30    5.30
   0  -7  -7   31.10    6.50
   0  -7   7   23.20   11.70
   0   7   7   31.00    9.50
   0   7  -7   25.90    5.80
   1  -7   7   20.60   11.20
   1   7   7   28.70    8.70
  -1   7  -7   29.30    8.30
  -2  -7  -7   -1.10    2.60
  -2  -7  -7    4.50    4.60
   2  -7   7   -2.90    9.00
  -2   7  -7    2.90    4.00
   2   7   7    4.80    6.10
  -3  -7  -7   20.50    5.10
  -3  -7  -7   12.30    3.00
   3  -7   7    7.00   10.40
  -3   7  -7    5.30    4.50
   3   7   7    8.30    5.70
  -4  -7  -7    9.20    3.40
   4  -7   7    5.00    9.10
  -4   7  -7    2.00    4.10
   4   7   7    7.20    4.90
   4  -8  -7   23.40    5.20
  -4  -8   7   12.80   10.30
   4  -8  -7   17.10    4.30
  -4   8   7    8.00    4.40
   3  -8  -7    5.20    4.60
  -3  -8   7   -2.30    8.80
   3  -8  -7    2.80    3.10
  -3   8   7  -12.90    8.20
  -3   8   7    2.00    3.70
   2  -8  -7    9.50    4.40
  -2  -8   7   17.50   11.30
  -2   8   7    8.40    7.10
   1  -8  -7    5.10    4.10
  -1  -8   7   14.50   11.50
   1  -8  -7   22.30    5.40
  -1   8   7   20.30    7.50
   1   8  -7    9.50    6.90
   0  -8   7   -4.30    9.70
   0  -8  -7    5.00    3.90
   0  -8  -7   -2.30    3.20
   0   8   7    0.50    5.60
   0   8  -7   -1.30    3.30
   1  -8   7    8.30    9.90
  -1  -8  -7    5.10    3.60
  -1  -8  -7    2.10    3.40
   1   8   7   12.00    9.20
  -1   8  -7    2.80    3.60
  11   0  -8   -1.20    3.00
 -11   0   8   -2.50    4.70
  10   0  -8    6.90    4.60
 -10   0   8    4.20    6.20
  10   0  -8   -0.20    5.10
  -9   0   8   78.19   13.80
   9   0  -8   68.19    9.30
   9   0  -8   72.29    8.50
   8   0  -8  333.97   27.70
   8   0  -8  328.47   27.80
   7   0  -8  136.49   13.30
   7   0  -8  151.58   13.90
   6   0  -8  110.59   11.20
  -6   0   8  139.59   21.10
   6   0  -8  106.39   10.20
  -6   0   8   82.99   19.10
   5   0  -8 1328.17  103.69
  -5   0   8 1375.86  109.99
  -5   0   8 1339.27  111.79
   5   0  -8 1435.16  105.09
  -5   0   8 1416.76  107.49
  -4   0   8  669.43   53.99
  -4   0   8  606.64   55.59
   4   0  -8  664.33   49.99
  -4   0   8  620.84   50.59
  -3   0   8   73.29    7.60
   3   0  -8   73.59   10.10
  -3   0   8  100.89   12.90
   3   0  -8   88.29    9.90
  -3   0   8  106.69   20.40
  -2   0   8  965.30   75.49
  -2   0   8  944.91   73.29
   2   0  -8  845.62   71.99
   2   0  -8  996.70   71.59
  -1   0   8  774.02   60.19
   1   0  -8  764.42   58.99
   1   0  -8  748.63   59.99
  -1   0   8  799.62   61.89
   0   0   8    1.30    3.20
   0   0  -8    0.80    2.00
   0   0   8   -0.20    2.80
   0   0  -8   -1.20    4.20
  -1   0  -8  257.07   21.40
  -1   0  -8  306.47   24.10
   1   0   8  278.87   21.20
   1   0   8  240.88   21.50
   2   0   8  358.56   31.90
  -2   0  -8  415.26   33.10
  -3   0  -8   29.90    8.80
   3   0   8   25.60    8.30
  -4   0  -8   77.59   12.90
   4   0   8   79.29   15.20
   5   0   8   28.20   11.00
  -5   0  -8   37.00    9.30
  -6   0  -8    8.80    6.50
   6   0   8    1.50    8.60
   7   0   8   -0.40    6.70
  -7   0  -8    4.00    4.40
  11  -1  -8   10.00    4.10
 -11  -1   8    8.90    5.20
 -11   1   8    4.00    7.10
  11   1  -8    3.40    3.50
  10  -1  -8   43.50    7.50
 -10  -1   8   20.20    7.90
 -10   1   8   22.40    8.10
  10   1  -8   42.70    7.10
  10   1  -8   34.30    5.90
  -9  -1   8   13.50    7.80
   9  -1  -8   18.30    4.40
   9  -1  -8   10.90    4.70
   9   1  -8   22.60    4.90
  -9   1   8   21.00    7.80
   9   1  -8   21.90    5.30
   8  -1  -8    6.40    3.30
   8  -1  -8    6.00    4.00
  -8  -1   8    7.50    7.00
   8   1  -8    0.70    3.50
  -8   1   8    3.00    6.90
   8   1  -8    5.90    3.60
   7  -1  -8  198.08   19.50
  -7  -1   8  227.28   25.30
   7  -1  -8  206.78   19.70
  -7   1   8  255.17   25.80
   7   1  -8  244.68   19.80
   7   1  -8  259.17   20.80
  -6  -1   8  343.57   40.20
  -6  -1   8  438.06   40.30
   6  -1  -8  426.86   32.40
   6  -1  -8  408.46   31.80
  -6  -1   8  439.56   37.60
  -6   1   8  344.07   40.20
   6   1  -8  420.66   33.10
  -6   1   8  392.46   36.00
   6   1  -8  387.26   31.50
  -6   1   8  364.96   39.30
   5  -1  -8  104.19    8.70
  -5  -1   8  101.69   16.80
  -5  -1   8   77.29   17.50
   5  -1  -8  114.59    9.80
  -5  -1   8   97.59   13.20
  -5   1   8   67.79   16.00
   5   1  -8   78.09    9.90
   5   1  -8   81.59    8.10
  -5   1   8   87.79   17.80
  -5   1   8   83.29   11.50
  -4  -1   8  378.46   42.20
   4  -1  -8  512.75   36.60
  -4  -1   8  398.26   38.00
   4  -1  -8  445.06   35.20
  -4  -1   8  520.85   41.00
   4   1  -8  480.15   37.30
  -4   1   8  463.75   37.50
  -4   1   8  461.15   41.20
  -4   1   8  501.15   42.80
   3  -1  -8 1507.45  120.89
   3  -1  -8 1808.02  120.39
  -3  -1   8 1499.25  125.79
  -3  -1   8 1819.62  123.29
  -3   1   8 1521.05  123.19
  -3   1   8 1522.35  124.59
   3   1  -8 1646.54  121.39
  -3   1   8 1416.16  120.19
   2  -1  -8  422.86   30.20
   2  -1  -8  377.46   31.70
  -2  -1   8  361.46   34.80
  -2  -1   8  395.96   32.40
  -2   1   8  388.86   34.00
  -2   1   8  349.87   29.40
  -2   1   8  383.86   32.50
   2   1  -8  397.56   30.80
   2   1  -8  350.56   30.40
   1  -1  -8  302.97   23.60
  -1   1   8  247.38   23.80
  -1   1   8  237.18   20.50
   1   1  -8  258.87   22.00
  -1   1   8  255.97   22.30
   1   1  -8  262.27   21.50
   0  -1  -8  915.01   73.99
   0  -1   8  884.41   69.09
   0  -1   8  860.91   69.29
   0  -1  -8  829.32   67.79
   0   1  -8  925.51   68.49
   0   1  -8  987.00   69.49
   0   1   8  895.81   70.09
   0   1   8  859.11   67.99
   1  -1   8  577.84   45.40
  -1  -1  -8  549.15   46.90
  -1  -1  -8  546.15   44.40
   1  -1   8  553.64   45.20
   1   1   8  585.44   45.90
  -1   1  -8  537.45   44.80
  -1   1  -8  676.53   47.00
   1   1   8  620.84   45.80
  -2  -1  -8   15.80    7.20
   2  -1   8   11.50    5.50
   2   1   8   26.30    7.60
  -2   1  -8   30.80    7.70
  -3  -1  -8  188.68   19.10
   3  -1   8  173.58   18.90
  -3   1  -8  182.58   18.40
   3   1   8  140.79   19.10
  -4  -1  -8   81.59   13.50
   4  -1   8   79.79   14.90
   4   1   8   62.59   13.10
  -4   1  -8   89.99   13.00
   5  -1   8   -2.40    9.80
  -5  -1  -8    2.90    5.90
  -5   1  -8   -1.10    6.40
   5   1   8   -4.70   10.40
   6  -1   8    3.10    9.60
  -6  -1  -8    3.10    6.30
  -6   1  -8    4.50    6.10
   6   1   8    3.20    7.30
  -7  -1  -8    0.00    3.90
   7  -1   8   -3.10    8.20
  -7   1  -8    1.40    4.60
   7   1   8   -2.60    5.50
 -11  -2   8    2.60    5.90
  11  -2  -8    4.50    3.40
  11   2  -8    7.10    3.30
  10  -2  -8    8.70    4.30
 -10  -2   8    0.00    5.70
 -10   2   8    2.00    5.20
  10   2  -8    8.60    4.00
  10   2  -8    4.10    3.50
  -9  -2   8   21.40    8.40
   9  -2  -8   23.10    4.70
   9   2  -8   31.70    6.10
  -9   2   8   25.30    9.20
   9   2  -8   35.10    6.10
   8  -2  -8  222.78   19.40
   8  -2  -8  238.18   20.40
  -8  -2   8  213.98   25.70
   8   2  -8  236.28   19.90
  -8   2   8  187.28   24.10
   8   2  -8  223.38   20.20
  -7  -2   8   25.60    9.30
   7  -2  -8   34.10    7.50
  -7   2   8   19.00    8.30
   7   2  -8   32.10    6.80
  -6  -2   8  187.38   24.20
   6  -2  -8  235.48   20.30
   6  -2  -8  265.87   20.30
  -6   2   8  210.18   23.50
   6   2  -8  243.38   19.60
   6   2  -8  245.38   21.50
  -5  -2   8  447.56   49.30
   5  -2  -8  462.35   37.80
   5  -2  -8  504.45   38.20
  -5   2   8  467.45   45.40
  -5   2   8  539.45   47.00
   5   2  -8  468.65   39.30
  -5   2   8  499.45   41.00
   5   2  -8  468.15   37.20
   4  -2  -8  240.08   19.50
  -4  -2   8  228.48   23.70
  -4   2   8  241.88   25.50
  -4   2   8  231.28   21.10
  -4   2   8  246.98   25.70
   4   2  -8  200.38   20.40
   3  -2  -8   75.69    7.10
  -3  -2   8   89.39   12.40
   3  -2  -8   62.09   10.20
   3  -2  -8   82.49    8.30
  -3   2   8   82.59   13.20
  -3   2   8   81.99    9.10
   3   2  -8   84.99    9.70
  -3   2   8   74.29   12.80
  -2  -2   8  739.43   57.19
   2  -2  -8  794.12   54.99
   2  -2  -8  707.43   56.89
   2   2  -8  708.93   54.99
  -2   2   8  662.43   55.09
  -2   2   8  700.33   58.59
   2   2  -8  684.93   55.89
  -2   2   8  692.63   56.79
   1  -2  -8  607.74   42.70
  -1  -2   8  527.55   42.10
  -1  -2   8  487.75   46.20
   1  -2  -8  498.45   45.00
  -1  -2   8  599.94   47.30
  -1   2   8  597.64   46.30
  -1   2   8  530.85   45.90
  -1   2   8  538.55   42.80
   1   2  -8  527.05   43.30
   1   2  -8  551.14   43.20
   0  -2   8   43.50    7.10
   0  -2  -8   48.30   10.20
   0  -2  -8   47.20    5.90
   0  -2   8   44.30    7.80
   0   2  -8   25.10    6.50
   0   2   8   33.10    7.30
   0   2   8   32.90    6.40
   0   2  -8   30.40    5.50
  -1  -2  -8  338.47   30.60
  -1  -2  -8  346.67   29.10
   1  -2   8  316.37   26.70
   1   2   8  320.97   28.30
  -1   2  -8  346.27   28.80
   1   2   8  330.67   28.40
  -2  -2  -8  231.78   23.50
  -2  -2  -8  230.58   18.80
  -2   2  -8  229.98   21.40
   2   2   8  206.78   21.40
  -3  -2  -8   13.20    9.20
   3  -2   8    8.00    7.80
  -3   2  -8   19.80    8.00
   3   2   8    9.80    6.60
   4  -2   8    6.50    9.20
  -4  -2  -8   19.40    8.10
  -4   2  -8    7.80    6.30
   4   2   8   15.00    7.30
   5  -2   8   29.10   11.60
  -5  -2  -8   33.10    8.60
   5   2   8   33.00    9.60
  -6  -2  -8    3.20    6.10
   6  -2   8    9.90   10.50
   6   2   8    7.90    6.80
  -6   2  -8   14.30    6.10
  -7  -2  -8    1.50    4.00
   7  -2   8    1.20    8.70
   7   2   8    3.20    4.90
  -7   2  -8    1.70    4.30
 -10  -3   8   15.00    6.70
 -10   3   8    3.60    5.70
  -9  -3   8   18.10    7.90
   9  -3  -8   20.00    4.20
   9  -3  -8   26.70    6.60
   9   3  -8   18.50    5.20
   8  -3  -8   37.60    7.40
  -8  -3   8   20.60    9.50
   8  -3  -8   22.50    4.90
   8   3  -8   33.60    6.90
   8   3  -8   37.50    6.50
  -8   3   8   19.40    9.30
   7  -3  -8  106.39   10.10
  -7  -3   8   71.39   15.20
   7  -3  -8  121.29   12.20
   7   3  -8   91.99   10.10
  -7   3   8   73.59   14.70
   7   3  -8   87.29   11.20
   6  -3  -8  194.48   17.20
   6  -3  -8  190.28   17.70
   6   3  -8  193.68   16.70
   5  -3  -8   50.99    6.70
   5  -3  -8   41.90    6.90
  -5   3   8   35.50    8.80
   5   3  -8   46.80    8.10
   5   3  -8   44.30    5.40
  -4  -3   8  203.88   21.80
   4  -3  -8  225.28   17.70
   4  -3  -8  202.58   16.90
  -4  -3   8  156.88   20.60
   4   3  -8  188.78   19.00
  -4   3   8  197.98   19.70
  -4   3   8  194.88   23.30
  -4   3   8  205.98   22.90
  -3  -3   8  610.94   48.50
   3  -3  -8  553.64   47.20
   3  -3  -8  569.24   45.40
   3  -3  -8  592.04   44.50
  -3  -3   8  497.05   47.90
  -3   3   8  623.94   47.40
  -3   3   8  632.24   51.49
  -3   3   8  607.54   49.10
   3   3  -8  530.65   46.70
   2  -3  -8  237.48   22.80
  -2  -3   8  234.78   20.40
   2  -3  -8  261.47   18.90
  -2  -3   8  201.68   21.40
   2  -3  -8  188.68   18.80
  -2   3   8  217.18   20.70
  -2   3   8  229.38   20.40
  -2   3   8  229.88   23.70
   2   3  -8  217.28   20.50
   2   3  -8  208.58   18.90
   1  -3  -8  144.99   14.80
   1  -3  -8  154.98   19.60
  -1  -3   8  166.28   14.90
   1  -3  -8  152.38   13.40
   1   3  -8  160.18   15.40
   1   3  -8  173.18   16.10
  -1   3   8  191.78   19.20
  -1   3   8  193.18   16.50
   0  -3  -8  325.27   29.40
   0  -3   8  344.87   32.20
   0  -3  -8  374.36   34.40
   0  -3   8  377.16   29.90
   0   3  -8  355.86   30.60
   0   3   8  424.56   33.50
   0   3  -8  378.76   30.30
  -1  -3  -8   40.70    4.90
  -1  -3  -8   38.60    6.00
   1  -3   8   43.80    8.00
  -1  -3  -8   31.80   10.60
  -1   3  -8   43.60    6.60
   1   3   8   57.89    9.00
   1   3   8   50.29    8.60
  -1   3  -8   48.80    8.80
  -2  -3  -8    9.70    8.70
  -2  -3  -8    0.20    2.50
  -2  -3  -8    5.10    2.30
   2  -3   8   13.00    6.50
  -2   3  -8   13.00    6.30
   2   3   8    9.20    5.50
  -3  -3  -8  129.49   10.60
  -3  -3  -8  120.99   17.80
   3  -3   8  111.59   17.20
   3   3   8  118.89   14.90
  -3   3  -8  114.79   14.40
  -4  -3  -8   25.20    9.00
  -4  -3  -8   36.90    4.30
   4  -3   8   29.70   11.60
  -4   3  -8   37.60    8.70
   4   3   8   30.70    8.10
  -5  -3  -8   -0.50    5.90
   5  -3   8    4.50    9.40
   5   3   8   -0.30    5.40
  -5   3  -8    1.30    5.20
  -6  -3  -8    3.80    6.10
   6  -3   8   -1.70    9.30
  -6   3  -8    2.60    4.60
   6   3   8    2.80    4.90
   7  -3   8   10.00    9.80
  -7  -3  -8    7.70    4.70
  -7   3  -8   11.40    5.00
   7   3   8   22.80    5.50
  10  -4  -8    0.70    3.70
  10   4  -8   -1.80    3.40
   9  -4  -8   13.90    4.80
   9  -4  -8   19.00    5.90
  -9  -4   8   -2.80    5.60
   9   4  -8    6.90    3.50
  -9   4   8    1.90    9.10
  -8  -4   8    8.70    7.50
   8  -4  -8   32.80    7.50
   8  -4  -8   26.20    4.50
   8   4  -8   29.60    6.60
  -8   4   8   13.50    7.90
   8   4  -8   20.20    4.80
   7  -4  -8   55.39    9.80
   7  -4  -8   59.99    7.60
   7   4  -8   75.89   10.10
   7   4  -8   56.79    7.70
   6  -4  -8   63.19    9.30
   6  -4  -8   66.79    8.10
   6   4  -8   57.89    7.50
   6   4  -8   61.99    9.70
   5  -4  -8  301.37   27.00
   5  -4  -8  300.37   24.50
   5   4  -8  270.17   23.30
   5   4  -8  302.77   26.60
  -5   4   8  274.27   28.00
   4  -4  -8  137.39   14.00
   4  -4  -8  147.29   13.80
  -4  -4   8  148.89   18.50
  -4   4   8  153.38   21.60
  -4   4   8  167.98   17.50
   4   4  -8  143.39   12.30
   4   4  -8  152.68   16.40
  -3  -4   8   25.10    7.40
   3  -4  -8   32.90    5.30
   3   4  -8   23.80    6.80
  -3   4   8   28.80    7.50
   2  -4  -8  365.86   32.80
   2  -4  -8  349.17   28.00
  -2  -4   8  335.87   30.70
  -2   4   8  368.86   31.40
  -2   4   8  411.56   42.30
   2   4  -8  303.27   30.20
  -1  -4   8  346.37   29.50
   1  -4  -8  365.36   33.40
   1  -4  -8  348.17   27.20
  -1   4   8  339.37   32.30
   1   4  -8  291.77   28.90
  -1   4   8  353.36   30.40
   0  -4  -8   67.29    7.60
   0  -4  -8   71.99   15.70
   0  -4   8   73.49    9.80
   0   4  -8   57.39    9.00
   0   4  -8   72.59    9.20
   0   4   8   71.99   10.60
   0   4   8   78.99   12.70
   1  -4   8  157.08   17.60
  -1  -4  -8  145.59   24.90
  -1  -4  -8  172.28   14.60
   1   4   8  184.08   18.40
  -2  -4  -8   85.09   11.70
  -2  -4  -8   71.49   15.60
   2  -4   8   99.09   14.50
  -2   4  -8   78.99   11.10
   2   4   8  111.59   13.20
  -3  -4  -8    3.30    8.70
  -3  -4  -8   13.40    2.90
  -3  -4  -8    9.70    3.20
   3  -4   8    5.80    8.60
  -3   4  -8    4.40    5.10
   3   4   8    6.30    5.60
  -4  -4  -8   -2.50    7.70
   4  -4   8    4.20    9.50
  -4  -4  -8    3.30    2.40
   4   4   8   -3.70    4.10
  -4   4  -8   -0.30    5.30
   5  -4   8    6.10   10.60
  -5  -4  -8   14.80   12.80
   5   4   8   16.70    6.40
  -5   4  -8   24.60    8.20
   6  -4   8   -6.30    8.60
  -6  -4  -8    4.10    4.80
   6   4   8    0.40    3.80
  -6   4  -8    0.60    4.30
   9  -5  -8   12.30    5.30
  -9  -5   8   18.20    8.20
   9   5  -8    3.80    3.30
  -9   5   8   11.40    9.90
   8  -5  -8   -1.20    2.30
   8  -5  -8    1.90    4.90
   8   5  -8    2.40    2.80
  -8   5   8   15.20   11.00
   7  -5  -8   49.40    7.00
   7  -5  -8   55.29    9.60
   7   5  -8   68.59    9.80
   7   5  -8   53.29    7.00
   6  -5  -8  164.98   15.50
   6  -5  -8  145.99   13.90
   6   5  -8  163.18   16.50
   6   5  -8  123.49   13.10
   5  -5  -8   25.70    5.60
  -5  -5   8   22.80    9.90
   5  -5  -8   33.40    6.70
  -5   5   8   19.90    8.70
   5   5  -8   17.40    3.90
   5   5  -8   26.40    7.60
   4  -5  -8  129.89   13.50
   4  -5  -8  150.68   13.40
  -4   5   8  134.09   17.20
   4   5  -8  124.89   15.60
   4   5  -8  123.79   11.20
   3  -5  -8  138.59   15.30
  -3   5   8  187.18   19.50
   3   5  -8  152.48   17.60
   3   5  -8  165.18   12.80
   2  -5  -8   19.30    5.90
  -2  -5   8   41.90    9.50
   2  -5  -8   33.70    6.00
   2   5  -8   36.80    8.10
   2   5  -8   33.40    6.00
  -2   5   8   49.30   10.30
  -1  -5   8   18.90    7.10
   1  -5  -8   24.40    5.30
  -1   5   8   15.10    7.00
   0  -5  -8  144.79   21.50
   0  -5  -8  153.28   13.40
   0  -5   8  146.29   16.90
   0   5  -8  112.59   13.70
   0   5   8  149.59   17.20
  -1  -5  -8  104.29   20.40
  -1  -5  -8  140.59   12.80
   1  -5   8  140.79   17.30
   1   5   8  121.59   16.00
  -2  -5  -8   20.90    4.60
   2  -5   8   11.70    8.80
  -2  -5  -8   12.50    4.00
  -2  -5  -8   23.40   11.80
  -2   5  -8   16.50    6.10
   2   5   8   23.70    7.60
  -3  -5  -8   63.79    7.00
  -3  -5  -8   56.09   14.60
  -3  -5  -8   75.79    7.70
   3  -5   8   40.30   12.90
   3   5   8   85.89   12.10
  -3   5  -8   58.59    9.90
  -4  -5  -8    3.30    8.30
   4  -5   8    6.60    9.90
  -4  -5  -8    2.00    2.40
  -4   5  -8    3.30    5.30
   4   5   8    5.30    5.20
  -5  -5  -8    0.90    5.60
   5  -5   8  -11.30    9.90
   5   5   8    1.90    4.30
  -5   5  -8    0.00    4.80
  -8  -6   8    9.80    7.90
   8  -6  -8   13.60    3.40
   8  -6  -8   18.60    5.60
  -7  -6   8    0.20    9.10
   7  -6  -8    3.80    4.60
   7  -6  -8    7.40    2.80
  -7   6   8   -7.30    5.80
  -6  -6   8    6.70    9.20
   6  -6  -8   14.00    3.90
   6  -6  -8    9.00    6.50
  -6   6   8   -3.00    6.90
   6   6  -8   13.90    3.10
   5  -6  -8   97.29   10.90
  -5  -6   8   55.39   15.20
   5  -6  -8   99.49   10.30
   5   6  -8   85.89    8.60
   4  -6  -8   61.69    8.60
  -4  -6   8   74.99   15.60
   4  -6  -8   56.79    8.40
  -4   6   8   38.60   10.80
   4   6  -8   49.10    5.60
   3  -6  -8   19.80    5.30
  -3  -6   8   20.40    9.90
   3  -6  -8   13.00    5.40
  -3   6   8    3.00    6.30
  -2  -6   8   63.39   12.70
   2  -6  -8   37.60    7.50
   2   6  -8   48.00    6.90
   1  -6  -8  138.29   12.30
  -1  -6   8  124.29   17.10
  -1   6   8  126.59   16.80
   1   6  -8   91.39   11.80
   0  -6   8    5.80    8.20
   0  -6  -8    1.90    3.70
   0  -6  -8    9.00    4.20
   0   6  -8    8.80    4.80
   0   6   8   10.50    7.20
   1  -6   8   20.30   10.30
  -1  -6  -8   23.20    5.20
  -1  -6  -8    9.50    4.10
   1   6   8   12.30    7.00
  -1   6  -8   15.00    6.00
  -2  -6  -8   31.20    8.50
   2  -6   8   27.20   11.40
  -2  -6  -8   50.99   10.10
  -2   6  -8   18.00    6.00
   2   6   8   32.00    9.00
  -3  -6  -8    8.10    2.90
   3  -6   8    3.60   10.00
  -3  -6  -8   15.20    3.70
   3   6   8   10.50    5.60
  -3   6  -8   10.10    5.50
   4  -6   8    7.00   10.10
  -4   6  -8    7.60    4.80
   4   6   8    4.80    4.30
   6  -7  -8   11.10    2.80
   6  -7  -8   12.30    5.00
  -6  -7   8   10.10    9.90
  -6   7   8   -0.30    6.20
  -5  -7   8    2.10   10.50
   5  -7  -8   15.90    5.10
   5  -7  -8    7.30    3.00
  -5   7   8   -5.70    5.90
  -4  -7   8   12.70   10.70
   4  -7  -8   17.40    5.10
   4  -7  -8   16.90    5.00
  -4   7   8    9.00    7.10
  -3  -7   8  107.09   17.80
   3  -7  -8  124.19   11.80
   3  -7  -8  107.69   12.30
  -3   7   8   91.09   14.90
  -2  -7   8    9.20    9.30
   2  -7  -8    4.40    4.40
   2  -7  -8   12.30    4.70
  -2   7   8    7.80    6.50
   1  -7  -8   36.30    7.90
  -1  -7   8   40.50   12.30
   1  -7  -8   43.40    6.80
  -1   7   8   47.30   10.80
   1   7  -8   38.60    6.80
   0  -7  -8   14.60    4.50
   0  -7   8   13.00    9.70
   0  -7  -8   10.20    4.40
   0   7  -8   10.50    4.70
   0   7   8    8.10    6.70
  -1  -7  -8    2.40    4.50
  -1  -7  -8   -1.40    2.70
   1  -7   8    7.30    9.40
  -1   7  -8    4.30    4.10
   1   7   8   -2.70    5.20
  -2  -7  -8    2.70    2.50
   2  -7   8   -1.70    9.20
  -2  -7  -8    1.40    2.80
   2   7   8    0.50    4.20
  -2   7  -8    1.90    4.30
   3  -7   8    8.80    9.30
  -3   7  -8    0.90    4.00
   3   7   8    1.80    3.90
  -3  -8   8   10.40    9.90
   3  -8  -8   -0.80    2.10
   3  -8  -8    7.30    4.10
  -3   8   8   -8.40    9.70
   2  -8  -8    6.70    3.30
  -2  -8   8   13.30   10.00
   2  -8  -8    9.30    3.70
  -2   8   8   -1.30    6.20
  -1  -8   8   11.90   10.20
   1  -8  -8    6.00    3.00
   1  -8  -8   16.50    5.10
  -1   8   8    4.90    6.00
   0  -8   8    4.50    9.00
   0  -8  -8    3.40    2.60
   0  -8  -8    3.60    2.70
   0   8   8   10.70    6.00
   0   8  -8    5.80    3.70
 -11   0   9    1.90    5.80
  11   0  -9   22.40    4.90
  10   0  -9    6.40    3.40
 -10   0   9    3.50    6.10
  10   0  -9   -3.50    3.00
   9   0  -9   39.10    6.30
  -9   0   9   55.59   12.30
   9   0  -9   39.10    6.70
   8   0  -9  232.08   19.40
   8   0  -9  219.58   20.40
   7   0  -9  149.39   13.60
   7   0  -9  153.08   14.80
   6   0  -9    8.10    2.70
  -6   0   9    8.70    7.00
   6   0  -9    8.50    3.90
  -5   0   9  543.65   51.59
  -5   0   9  540.05   47.10
  -5   0   9  590.84   58.29
   5   0  -9  574.44   44.60
  -4   0   9  785.62   64.49
  -4   0   9  749.33   66.79
   4   0  -9  810.82   60.89
  -3   0   9    2.40    5.40
  -3   0   9   -0.10    5.10
   3   0  -9   -2.40    4.50
   3   0  -9    1.20    2.70
  -3   0   9    2.00    2.10
  -2   0   9  622.54   49.99
  -2   0   9  648.24   52.49
   2   0  -9  622.84   48.00
   2   0  -9  580.04   48.90
  -1   0   9  880.51   68.99
  -1   0   9  851.61   67.29
   1   0  -9  868.81   66.09
   1   0  -9  852.21   67.29
   0   0   9   49.50    7.90
   0   0  -9   58.59   10.60
  -1   0  -9  247.68   20.60
  -1   0  -9  280.97   24.20
   1   0   9  243.98   21.50
  -2   0  -9  288.47   25.30
   2   0   9  238.98   23.40
  -3   0  -9   43.30   10.00
   3   0   9   48.20   10.70
  -4   0  -9   18.20    8.50
   4   0   9    8.30    8.50
   5   0   9   12.40    9.30
  -5   0  -9    7.50    5.90
   6   0   9   -0.60    6.80
  -6   0  -9   -0.60    5.00
  -7   0  -9   -1.20    3.10
   7   0   9    0.50    5.50
  11  -1  -9    6.10    2.80
 -11  -1   9    5.30    5.60
  11   1  -9    3.00    2.60
 -11   1   9   -7.20    5.60
  10  -1  -9   10.30    4.10
  10  -1  -9   21.80    4.60
 -10  -1   9    3.80    5.80
 -10   1   9   13.30    7.50
  -9  -1   9   77.89   15.20
   9  -1  -9   94.89    9.70
   9  -1  -9   87.49    9.50
   9   1  -9   73.89    9.00
   9   1  -9   83.99    9.70
  -9   1   9   77.29   14.90
  -8  -1   9   12.10   12.70
   8  -1  -9   13.10    4.40
   8  -1  -9   15.50    4.50
   8   1  -9   14.00    4.20
  -8   1   9   13.60   17.30
   8   1  -9   13.70    4.70
  -7  -1   9  264.37   29.30
   7  -1  -9  277.07   23.20
   7  -1  -9  292.17   22.40
  -7   1   9  228.38   28.20
   7   1  -9  257.37   23.50
   6  -1  -9  386.46   29.00
   6  -1  -9  397.16   30.50
  -6  -1   9  337.97   35.10
   6   1  -9  367.86   28.60
   6   1  -9  351.46   30.90
  -6   1   9  357.56   34.20
  -5  -1   9   17.00   11.60
  -5  -1   9   26.30   10.60
   5  -1  -9   34.90    5.50
  -5  -1   9   22.10    7.40
   5  -1  -9   25.70    3.40
  -4  -1   9   64.89   13.20
  -4  -1   9   48.10   12.50
   4  -1  -9   67.69    7.60
  -4  -1   9   54.29    9.50
  -4   1   9   95.59   15.10
   3  -1  -9  421.36   37.70
  -3  -1   9  474.05   39.80
  -3  -1   9  444.46   37.10
  -3  -1   9  478.95   43.70
   3  -1  -9  508.45   36.80
  -2  -1   9  780.52   59.39
  -2  -1   9  833.22   62.99
   2  -1  -9  828.42   57.29
  -2   1   9  697.73   58.99
   2   1  -9  725.23   57.69
  -2   1   9  734.53   61.19
  -2   1   9  684.83   56.49
   2   1  -9  667.73   57.59
   1  -1  -9   40.70    9.90
  -1  -1   9   46.90    9.50
  -1   1   9   66.39    6.60
  -1   1   9   69.69   10.30
  -1   1   9   59.39    8.40
   1   1  -9   66.49    7.50
   1   1  -9   73.99    9.60
   0  -1  -9  718.23   53.49
   0  -1   9  757.42   52.39
   0  -1  -9  704.33   50.79
   0   1  -9  564.24   51.39
   0   1  -9  635.34   52.39
   0   1   9  574.04   52.49
   1  -1   9  158.78   14.10
  -1  -1  -9  154.88   13.50
  -1  -1  -9  161.68   17.60
   1   1   9  162.58   15.90
  -1   1  -9  195.98   17.50
  -1   1  -9  140.69   13.70
  -2  -1  -9   25.60    8.80
   2  -1   9   25.80    7.30
  -2   1  -9   40.40    9.70
   2   1   9   22.80    7.50
   3  -1   9   38.50    9.70
  -3  -1  -9   26.10    8.90
  -3   1  -9   47.50   10.90
   3   1   9   29.90    9.10
  -4  -1  -9   35.80   10.00
   4  -1   9   24.00    9.70
  -4   1  -9   56.69   11.20
   4   1   9   32.10    9.80
   5  -1   9    5.70    9.50
  -5  -1  -9    1.40    6.10
  -5   1  -9   -2.30    6.50
   5   1   9   -1.90    6.00
  -6  -1  -9    9.80    6.30
   6  -1   9    8.20    9.10
  -6   1  -9   16.00    6.50
   6   1   9   19.20    8.00
  -7  -1  -9    2.60    4.00
   7  -1   9   -6.30    5.40
   7   1   9   -0.60    4.10
  -7   1  -9    0.90    3.80
  10  -2  -9   -0.10    3.00
 -10  -2   9    4.70    6.30
  10   2  -9    3.90    2.90
  10   2  -9    1.20    3.30
 -10   2   9   -6.30    4.40
   9  -2  -9   40.30    6.80
  -9  -2   9   30.30   10.50
   9   2  -9   49.10    7.50
   9   2  -9   46.20    7.40
  -9   2   9   18.40    9.80
  -8  -2   9   45.30   13.30
   8  -2  -9   68.09    8.40
   8  -2  -9   67.49    8.30
  -8   2   9   49.40   12.80
   8   2  -9   67.89    9.20
   8   2  -9   64.99    7.60
  -7  -2   9   41.20   11.30
   7  -2  -9   53.29    7.10
   7  -2  -9   50.69    7.30
  -7   2   9   36.40   11.30
   7   2  -9   64.19    8.80
  -6  -2   9    8.80    7.10
   6  -2  -9   12.40    3.60
  -6   2   9   -0.70    6.30
   6   2  -9    3.70    2.40
   5  -2  -9  588.64   45.70
   5  -2  -9  639.94   47.00
  -5  -2   9  509.85   50.99
  -5   2   9  638.54   50.19
  -5   2   9  588.34   53.19
   5   2  -9  607.04   48.50
   4  -2  -9  818.42   62.69
  -4  -2   9  815.72   67.89
   4  -2  -9  929.61   64.39
  -4   2   9  787.72   69.89
   4   2  -9  861.91   65.79
  -4   2   9  822.12   66.09
  -4   2   9  784.82   68.69
  -3  -2   9   49.20   12.80
  -3  -2   9   58.49    9.50
   3  -2  -9   55.59    7.10
  -3  -2   9   61.09   12.00
   3  -2  -9   52.99   10.10
  -3   2   9   57.59   10.70
  -3   2   9   64.79   12.60
  -3   2   9   61.49    8.30
   3   2  -9   72.99    9.00
  -2  -2   9  774.32   73.59
   2  -2  -9  842.42   70.79
  -2  -2   9 1014.20   69.79
  -2  -2   9  919.71   71.29
   2  -2  -9  936.21   68.79
  -2   2   9  922.81   69.29
   2   2  -9  919.11   69.09
   2   2  -9  920.01   69.99
  -2   2   9  843.42   72.79
  -2   2   9  852.51   70.19
   1  -2  -9  297.47   28.50
   1  -2  -9  316.27   25.20
  -1  -2   9  302.67   27.50
  -1  -2   9  303.97   24.70
  -1  -2   9  334.87   29.60
   1   2  -9  335.57   26.60
  -1   2   9  308.37   25.60
   1   2  -9  292.97   26.00
  -1   2   9  304.77   28.70
   0  -2  -9   41.60    5.70
   0  -2  -9   42.10   10.10
   0  -2   9   34.80    7.60
   0   2  -9   41.80    6.20
   0   2   9   40.10    8.30
   0   2  -9   49.70    8.70
   0   2   9   41.90    6.90
   1  -2   9   42.00    8.40
  -1  -2  -9   41.10   10.60
  -1  -2  -9   43.20    5.60
   1   2   9   52.49    8.30
  -1   2  -9   56.29   10.10
   2  -2   9  196.28   21.80
  -2   2  -9  273.27   24.60
   2   2   9  232.68   21.80
   3  -2   9   38.10   10.50
  -3  -2  -9   56.99   11.70
   3   2   9   43.10    9.10
  -3   2  -9   58.79   11.20
   4  -2   9    0.10    8.00
  -4  -2  -9    4.60    6.60
  -4   2  -9    2.00    6.80
   4   2   9    3.20    5.70
  -5  -2  -9   29.10    8.70
   5  -2   9   12.60   10.20
   5   2   9   12.00    6.80
  -5   2  -9   18.10    6.70
   6  -2   9    6.90   11.90
  -6  -2  -9    5.10    5.10
   6   2   9   14.20    6.80
  -6   2  -9    3.00    5.30
  10  -3  -9   18.80    4.00
 -10  -3   9   -1.60    4.90
 -10   3   9   -0.40    5.00
  10   3  -9   20.40    5.20
  10   3  -9    8.10    3.20
   9  -3  -9   24.10    4.70
   9  -3  -9   38.00    6.20
  -9  -3   9   14.10    8.20
   9   3  -9   39.80    6.80
   9   3  -9   24.10    4.70
  -9   3   9   18.20    8.30
   8  -3  -9    1.50    2.90
   8  -3  -9    0.20    3.70
  -8  -3   9    3.50    6.50
  -8   3   9    0.70    6.90
   8   3  -9   -2.70    2.60
   8   3  -9    1.20    4.00
   7  -3  -9  141.79   13.20
   7  -3  -9  134.49   13.10
   7   3  -9  121.49   11.80
   7   3  -9  145.69   15.00
   6  -3  -9  279.67   22.70
  -6  -3   9  242.28   28.60
   6  -3  -9  265.77   22.30
   6   3  -9  261.57   24.40
  -5  -3   9   19.30    8.40
   5  -3  -9   23.90    4.60
   5   3  -9   17.80    8.50
  -5   3   9   15.90    7.20
  -4  -3   9  294.67   25.80
   4  -3  -9  236.48   19.40
   4  -3  -9  256.97   20.70
  -4   3   9  208.68   22.60
  -4   3   9  232.68   25.30
   4   3  -9  216.68   22.30
   3  -3  -9  311.57   27.70
   3  -3  -9  330.47   25.20
   3  -3  -9  287.27   23.30
  -3  -3   9  301.47   28.60
  -3   3   9  294.57   36.50
  -3   3   9  282.47   27.50
  -3   3   9  288.67   26.60
   3   3  -9  300.87   26.80
  -2  -3   9  126.79   17.30
   2  -3  -9  150.38   14.80
   2  -3  -9  130.69   18.40
  -2  -3   9  156.08   17.40
   2   3  -9  181.68   15.40
  -2   3   9  189.08   20.60
  -2   3   9  187.48   16.60
   2   3  -9  184.68   16.70
   1  -3  -9   54.59    7.00
  -1  -3   9   30.40    7.80
  -1  -3   9   48.40    8.90
   1  -3  -9   67.39   13.40
  -1   3   9   35.20    7.00
   1   3  -9   47.20    8.00
   1   3  -9   39.20    7.10
   0  -3   9  316.37   31.00
   0  -3  -9  411.86   29.50
   0  -3  -9  344.17   33.90
   0  -3   9  335.07   29.50
   0   3   9  372.46   37.40
   0   3  -9  328.87   29.50
   0   3  -9  396.46   31.00
   0   3   9  385.36   30.80
  -1  -3  -9  186.48   16.30
   1  -3   9  173.28   18.30
   1   3   9  195.58   18.50
  -1   3  -9  211.68   19.50
  -2  -3  -9    1.20    2.20
   2  -3   9    1.60    6.50
  -2  -3  -9    3.20    8.00
   2   3   9    1.90    4.30
  -2   3  -9    5.20    5.90
   3  -3   9   51.39   13.00
   3   3   9   68.69   12.40
  -3   3  -9   86.59   12.10
  -4  -3  -9   23.70    9.50
   4  -3   9   33.80   11.50
   4   3   9   36.70    8.30
  -4   3  -9   51.59   10.10
  -5  -3  -9    1.40    6.20
   5  -3   9    0.20    8.60
  -5   3  -9    6.20    6.60
   5   3   9    0.20    4.30
   6  -3   9   -1.40    8.20
  -6  -3  -9    3.00    4.40
   6   3   9    3.30    4.20
  -6   3  -9    1.30    4.40
   9  -4  -9   33.40    6.10
   9  -4  -9   30.50    6.30
   9   4  -9   32.50    6.20
  -8  -4   9   26.00    9.80
   8   4  -9   40.50   12.00
   8   4  -9   34.80    4.70
  -8   4   9   16.60    8.50
   7  -4  -9   22.90    5.70
   7  -4  -9   18.40    4.50
  -7  -4   9   18.10    9.60
   7   4  -9   28.20    6.80
  -7   4   9    8.20    7.90
   7   4  -9   24.20    3.80
   6  -4  -9   18.90    5.20
   6  -4  -9   14.30    4.30
  -6  -4   9   13.70   10.20
   6   4  -9   11.40    6.20
  -6   4   9    2.10    8.30
  -5  -4   9  253.47   25.60
   5  -4  -9  226.88   18.80
   5  -4  -9  214.18   18.30
  -5   4   9  176.08   22.10
   5   4  -9  173.88   20.40
   4  -4  -9  330.97   27.40
  -4  -4   9  357.16   32.20
   4  -4  -9  344.17   27.50
  -4   4   9  277.47   29.90
   3  -4  -9   59.29    8.20
  -3  -4   9   64.89   10.60
   3  -4  -9   47.50    6.10
  -3   4   9   55.89   10.00
   3   4  -9   39.50    9.80
   2  -4  -9  268.27   27.90
   2  -4  -9  276.17   25.60
   2  -4  -9  258.87   20.80
  -2   4   9  266.87   25.00
   2   4  -9  267.57   22.30
   2   4  -9  237.18   24.00
  -1  -4   9  206.38   20.80
   1  -4  -9  217.48   17.70
   1  -4  -9  214.38   22.50
   1  -4  -9  218.08   29.80
   1   4  -9  248.28   21.20
  -1   4   9  256.77   22.40
   1   4  -9  225.28   20.50
   0  -4  -9   26.50    5.20
   0  -4   9   38.30    7.80
   0  -4  -9   37.20   11.50
   0   4   9   27.90    6.90
   0   4  -9   27.20    5.80
   0   4  -9   39.20    8.10
   1  -4   9   15.80    7.40
  -1  -4  -9   20.60    4.60
  -1  -4  -9   19.70   10.50
   1   4   9   24.10    6.70
  -1   4  -9   18.30    6.00
  -2  -4  -9  124.19   18.90
  -2  -4  -9  137.09   11.40
  -2   4  -9  109.39   13.90
  -3  -4  -9    8.40    7.90
   3  -4   9    8.70    9.30
  -3   4  -9    2.60    5.30
   3   4   9    2.10    4.50
  -4  -4  -9   16.10    8.80
   4  -4   9    5.50   10.00
  -4   4  -9   13.40    6.10
   4   4   9   14.60    5.90
   5  -4   9    7.90   10.60
  -5  -4  -9    3.60    5.20
  -5   4  -9    3.50    4.60
   5   4   9    6.20    6.10
  -9  -5   9    0.30    6.60
   9  -5  -9   13.10    3.50
   8  -5  -9    5.70    4.20
   8  -5  -9    8.30    2.80
  -8   5   9    5.00    6.30
   7  -5  -9   24.70    4.90
   7  -5  -9   20.30    5.70
   7   5  -9   27.70    8.50
   6  -5  -9   68.89    9.10
   6  -5  -9   61.09    8.00
  -6  -5   9   67.19   14.80
   6   5  -9   63.79   11.10
   5  -5  -9   34.80    6.70
   5  -5  -9   34.40    6.30
   5   5  -9   23.40    8.00
  -5   5   9   48.50   11.00
   4  -5  -9   41.30    6.40
   4  -5  -9   45.80    7.30
  -4   5   9   33.30   10.30
   4   5  -9   31.10    8.90
   3  -5  -9  193.48   18.00
   3  -5  -9  204.58   16.50
  -3  -5   9  197.38   21.70
  -3   5   9  185.38   21.20
   3   5  -9  166.68   19.80
   2  -5  -9   97.49    9.00
  -2  -5   9   95.79   13.70
   2  -5  -9   85.39   10.70
   2   5  -9   82.99   12.10
  -2   5   9   99.19   13.90
   2   5  -9   84.29    9.80
   1  -5  -9   16.20    5.20
  -1  -5   9   17.50    6.90
   1  -5  -9   21.70    3.80
   1   5  -9   22.20    6.50
   1   5  -9   17.00    5.30
  -1   5   9   19.30    7.20
   0  -5  -9   95.69   10.80
   0  -5  -9   99.49    9.10
   0  -5   9  107.99   19.40
   0  -5  -9  102.39   17.30
   0   5   9  129.29   17.30
   0   5  -9   98.89   11.90
   1  -5   9   49.80   11.60
  -1  -5  -9   55.29   13.90
  -1  -5  -9   41.00    6.30
  -1   5  -9   40.70    8.60
   1   5   9   49.30    9.60
  -2  -5  -9    1.80    2.40
   2  -5   9   -2.20    7.40
  -2  -5  -9    1.70    8.00
  -2   5  -9    1.70    5.00
   2   5   9    9.50    5.70
   3  -5   9    8.20    9.60
  -3  -5  -9   -3.20    7.60
   3   5   9    1.30    4.30
  -3   5  -9    4.90    9.70
   4  -5   9   12.20   11.50
  -4  -5  -9    7.10    6.00
   4   5   9    8.20    6.60
  -4   5  -9    9.90    5.10
   5  -5   9    5.40    8.30
  -5  -5  -9    0.50    3.70
  -5   5  -9    0.10    4.30
   5   5   9    2.40    3.30
   7  -6  -9   12.60    3.00
  -7  -6   9    4.20    9.10
  -7   6   9   -1.30    5.90
   6  -6  -9    6.10    4.10
  -6  -6   9    0.20    8.10
   6  -6  -9    1.40    2.60
  -6   6   9   -5.40    7.40
   5  -6  -9   38.00   10.30
  -5  -6   9   30.30   11.40
   5  -6  -9   33.60    6.00
  -5   6   9   16.10    8.40
  -4  -6   9   58.79   13.80
   4  -6  -9   72.79    8.40
   4  -6  -9   61.29    8.60
  -4   6   9   54.29   12.30
  -3  -6   9   19.00    9.20
   3  -6  -9   16.20    4.30
   3  -6  -9    8.60    4.40
  -3   6   9    8.80    7.00
   2  -6  -9   25.70    6.30
   2  -6  -9   33.50    5.30
  -2  -6   9   21.30    8.80
  -2   6   9   27.30    8.10
   1  -6  -9   54.79    8.10
   1  -6  -9   53.39    6.40
  -1  -6   9   58.29   12.60
  -1   6   9   58.39   10.60
   1   6  -9   57.79    9.00
   0  -6  -9    3.70    3.40
   0  -6  -9    4.70    2.90
   0  -6   9    9.00    8.30
   0   6   9    3.60    5.50
   0   6  -9    5.10    5.30
   1  -6   9   14.20    9.50
  -1  -6  -9   21.50    4.40
  -1   6  -9   16.20    5.60
   1   6   9   20.50    7.20
   2  -6   9   13.40    9.70
  -2  -6  -9   19.40    3.60
   2   6   9    8.80    5.70
  -2   6  -9   11.60    5.50
   3  -6   9    3.80    9.10
  -3   6  -9    9.70    5.20
   3   6   9    9.90    4.80
   5  -7  -9    1.20    2.50
  -5  -7   9    3.50    8.30
   5  -7  -9    1.10    3.40
  -5   7   9    3.00    5.80
   4  -7  -9   10.40    4.00
   4  -7  -9    9.40    3.60
  -4  -7   9    8.10    9.50
  -4   7   9    7.10    7.00
  -3  -7   9   13.40   12.80
   3  -7  -9    5.40    3.30
   3  -7  -9   10.10    3.50
  -3   7   9   15.80    7.60
   2  -7  -9   45.60    7.10
  -2  -7   9   47.60   13.20
   2  -7  -9   39.10    5.30
  -2   7   9   24.70    9.40
  -1  -7   9    5.10   11.20
   1  -7  -9    4.10    3.30
   1  -7  -9    6.60    2.60
  -1   7   9   -0.80    6.10
   1   7  -9   11.60    7.60
   0  -7   9   24.20   10.70
   0  -7  -9   30.70    5.50
   0   7  -9   21.00    5.50
   0   7   9   38.80    8.60
   1  -7   9   20.50   10.30
  -1  -7  -9   20.20    4.00
   1   7   9   29.60    7.20
  -1   7  -9   32.60    6.30
  -2  -7  -9    2.60    2.00
  -2   7  -9    2.90    6.50
 -10   0  10    2.80    6.60
  10   0 -10   12.10    4.10
   9   0 -10    9.60    6.20
  -9   0  10   23.40    8.60
   9   0 -10   11.30    3.00
   8   0 -10  159.78   14.80
   8   0 -10  134.89   11.90
  -7   0  10  184.68   22.10
   7   0 -10  158.18   16.20
  -6   0  10    4.60    6.70
   6   0 -10    7.50    4.00
  -5   0  10  236.98   24.30
   5   0 -10  261.47   22.00
  -4   0  10  394.86   40.50
  -4   0  10  467.85   35.70
  -4   0  10  390.76   38.00
   4   0 -10  424.26   34.20
  -3   0  10  152.78   19.70
  -3   0  10  141.49   17.50
   3   0 -10  146.39   13.40
  -3   0  10  132.89   12.70
   2   0 -10  229.58   22.40
  -2   0  10  274.27   25.70
   2   0 -10  247.58   20.90
  -2   0  10  240.98   23.30
   1   0 -10  838.12   66.29
   1   0 -10  864.71   67.99
  -1   0  10  889.81   69.49
   0   0 -10  123.39   14.90
   0   0 -10  124.09   11.30
   1   0  10   88.69   11.20
  -1   0 -10   85.49    8.80
  -2   0 -10   94.29   14.10
   2   0  10   74.79   12.20
   3   0  10   31.10    9.10
  -3   0 -10   39.30   10.70
  -4   0 -10   -0.90    5.80
   4   0  10    0.10    7.30
  -5   0 -10    7.20    6.40
   5   0  10   17.90    8.20
  -6   0 -10    3.60    4.90
   6   0  10   -1.30    5.20
  10  -1 -10   39.30    6.60
 -10  -1  10   25.90    9.00
  10   1 -10   39.30    6.30
 -10   1  10   17.40    9.00
   9  -1 -10   23.60    4.30
   9  -1 -10   17.70    4.90
  -9  -1  10   19.90    8.80
  -9   1  10   18.20    9.10
   9   1 -10   34.60    8.20
   8  -1 -10    6.80    2.80
   8  -1 -10   12.30    4.60
  -8  -1  10    8.10    7.60
   8   1 -10   13.30    5.40
  -8   1  10    7.70    8.20
   7  -1 -10   29.00    3.90
  -7  -1  10   26.60    9.70
   7  -1 -10   33.20    6.40
  -7   1  10   58.09   12.30
  -6  -1  10  261.97   29.80
   6  -1 -10  284.47   25.10
   6   1 -10  326.87   26.30
  -6   1  10  302.17   29.40
  -5  -1  10  209.68   23.00
   5  -1 -10  240.18   19.60
  -5   1  10  229.18   22.10
   5   1 -10  201.48   20.00
   4  -1 -10  230.68   19.60
  -4  -1  10  246.78   30.10
  -4  -1  10  197.78   23.60
  -4  -1  10  224.68   21.60
  -4   1  10  207.38   24.60
  -4   1  10  233.38   20.80
   4   1 -10  240.28   20.50
  -3  -1  10  610.84   51.19
  -3  -1  10  548.75   47.90
   3  -1 -10  543.65   48.40
   3  -1 -10  660.83   47.60
  -3  -1  10  722.83   58.19
  -3   1  10  621.14   48.50
   3   1 -10  625.54   48.20
  -3   1  10  549.15   50.19
  -3   1  10  601.64   53.09
  -2  -1  10  116.19   16.40
  -2  -1  10  104.09   13.80
   2  -1 -10   99.89   10.80
   2  -1 -10   92.09   14.10
   2   1 -10  153.98   12.40
   2   1 -10  138.59   13.20
   1  -1 -10   40.80    9.80
  -1  -1  10   44.60    8.50
   1  -1 -10   29.50    4.80
  -1   1  10   28.50    4.40
   1   1 -10   24.20    7.00
  -1   1  10   28.30    7.40
   1   1 -10   30.10    5.50
   0  -1 -10  117.29   11.30
   0  -1 -10  105.19   15.60
   0   1  10  141.59   15.00
   0   1 -10  121.29   11.50
   0   1 -10  141.09   15.20
   1  -1  10  174.58   16.90
  -1  -1 -10  192.78   22.70
  -1  -1 -10  172.28   15.30
   1   1  10  184.18   17.30
  -1   1 -10  210.38   20.30
  -2  -1 -10   28.50    9.40
   2  -1  10   23.70    7.50
  -2   1 -10   24.70    8.30
   2   1  10   10.50    6.00
  -3  -1 -10   73.39   14.50
  -3   1 -10   89.99   14.10
  -4  -1 -10   76.49   13.80
   4  -1  10   72.79   14.80
  -4   1 -10   70.39   13.00
   5  -1  10   -1.00    7.60
  -5  -1 -10    3.00    5.20
   5   1  10    5.70    5.70
  -5   1 -10    1.70    5.60
  -6  -1 -10   11.20    5.50
   6  -1  10   -0.20    6.40
   6   1  10    4.70    4.90
  -6   1 -10    6.10    5.60
 -10  -2  10    8.10    6.00
  10  -2 -10   14.40    3.90
  10  -2 -10   10.90    4.50
 -10   2  10    4.10    5.50
  10   2 -10   10.00    4.00
  -9  -2  10    3.40    6.30
   9  -2 -10    4.50    3.00
  -9   2  10   -2.30    6.00
   9   2 -10    9.20    4.50
   8  -2 -10  177.48   14.40
   8  -2 -10  168.28   16.00
  -8  -2  10  160.18   22.10
  -8   2  10  123.29   20.80
   8   2 -10  196.98   17.40
   7  -2 -10  176.38   14.40
   7  -2 -10  182.88   16.40
  -7  -2  10  169.48   27.50
  -7   2  10  138.79   27.30
   7   2 -10  182.88   17.90
  -6  -2  10   23.70    9.10
   6  -2 -10   18.30    4.80
  -6   2  10   22.90    9.20
   6   2 -10   36.30    7.70
  -5  -2  10  328.37   30.90
   5  -2 -10  305.57   25.90
  -5   2  10  319.57   29.10
   5   2 -10  294.67   27.20
   4  -2 -10  377.06   33.10
  -4  -2  10  432.46   36.70
   4   2 -10  410.06   34.70
  -4   2  10  433.16   35.20
  -3  -2  10  162.58   22.00
   3  -2 -10  157.88   14.20
   3  -2 -10  133.89   16.60
  -3  -2  10  171.08   24.20
  -3  -2  10  169.48   16.10
  -3   2  10  154.58   15.20
   3   2 -10  147.89   15.50
   2  -2 -10  136.39   13.80
   2  -2 -10  133.19   17.50
  -2  -2  10  150.28   14.10
  -2  -2  10  135.49   17.50
  -2  -2  10  141.19   20.80
   2   2 -10  166.88   15.10
   2   2 -10  167.88   15.40
  -2   2  10  171.48   19.20
  -2   2  10  171.18   14.50
   1  -2 -10  630.24   47.10
  -1  -2  10  510.85   46.00
   1  -2 -10  556.34   49.70
   1   2 -10  677.03   48.70
  -1   2  10  611.04   52.99
  -1   2  10  632.84   47.40
   1   2 -10  603.44   47.70
   0  -2  10  120.99   11.00
   0  -2 -10  115.49   10.90
   0  -2 -10  104.29   15.90
   0   2 -10   96.99   10.80
   0   2  10  116.19   11.50
   0   2 -10  126.79   14.20
  -1  -2 -10   55.39    6.10
  -1  -2 -10   58.09   11.60
   1  -2  10   53.59    8.50
  -1   2 -10   68.79   11.50
   1   2  10   48.60    8.00
   2  -2  10  134.89   16.10
  -2  -2 -10  141.59   17.40
  -2   2 -10  156.78   16.70
   2   2  10  108.99   13.90
   3  -2  10    2.50    7.10
  -3  -2 -10   -0.60    6.50
  -3   2 -10    5.40    7.10
   3   2  10    1.60    4.70
  -4  -2 -10    2.10    6.30
   4  -2  10    1.50    8.00
  -4   2 -10   -0.30    6.50
   4   2  10    2.50    4.80
   5  -2  10    2.90   12.30
  -5  -2 -10   -4.60    4.80
  -5   2 -10    0.30    4.90
   5   2  10    0.40    4.30
  -6  -2 -10    7.20    5.00
   6  -2  10    9.40    8.30
  -6   2 -10    2.70    4.20
   6   2  10    3.20    4.30
 -10  -3  10    2.10    5.30
  10   3 -10    8.90    3.70
 -10   3  10   -2.80    4.80
   9  -3 -10   40.30    5.20
  -9  -3  10   26.20   14.60
   9  -3 -10   48.20    6.20
   9   3 -10   50.59    7.60
   8  -3 -10    8.80    4.80
  -8  -3  10   11.30    7.90
   8  -3 -10    8.90    3.20
   8   3 -10    7.50    4.60
  -8   3  10    3.10    6.80
  -7  -3  10   53.09   12.80
   7  -3 -10   65.79    6.90
   7  -3 -10   75.09    8.50
   7   3 -10   55.09   10.30
   6  -3 -10  243.88   19.90
  -6  -3  10  276.87   32.50
   6  -3 -10  271.97   22.00
   6   3 -10  226.68   23.30
  -5  -3  10  126.59   17.10
   5  -3 -10  122.89   12.30
   5   3 -10  120.79   14.20
  -5   3  10  113.69   15.30
   4  -3 -10   82.79    9.40
  -4  -3  10   89.29   12.70
  -4   3  10   82.59   11.70
   4   3 -10   84.89   11.60
  -3  -3  10  439.06   35.30
   3  -3 -10  361.76   35.30
   3  -3 -10  435.06   33.30
  -3   3  10  420.56   35.10
   3   3 -10  372.16   38.60
   2  -3 -10  156.18   18.40
  -2  -3  10  131.49   13.80
  -2   3  10  156.68   15.20
   2   3 -10  141.59   14.30
   2   3 -10  149.59   15.00
   1  -3 -10   10.70    5.90
  -1  -3  10    8.40    3.60
   1  -3 -10    3.90    7.70
   1   3 -10   12.00    5.50
  -1   3  10   13.30    4.50
   1   3 -10   11.40    4.10
   0  -3 -10  148.19   18.60
   0  -3  10  142.59   14.30
   0  -3 -10  147.49   13.00
   0   3 -10  135.99   15.20
   0   3  10  130.09   14.20
   1  -3  10  101.09   12.90
  -1  -3 -10   99.19    9.50
  -1  -3 -10   98.29   15.50
  -1   3 -10  108.29   13.40
   1   3  10   94.19   11.30
   2  -3  10   25.50    8.90
  -2  -3 -10   21.70    8.70
  -2   3 -10   42.80    9.30
   2   3  10   35.60    7.10
  -3  -3 -10    1.40    7.00
   3  -3  10    4.30    8.30
  -3   3 -10    8.50    6.10
   3   3  10    3.30    4.30
   4  -3  10   22.20    9.70
  -4  -3 -10   17.40    9.70
   4   3  10   28.00    6.70
  -4   3 -10   47.60   14.80
  -5  -3 -10   -1.10    4.90
   5  -3  10   -0.10    7.80
  -5   3 -10    4.60    5.30
   5   3  10    2.70    4.00
   9  -4 -10   -0.10    2.90
  -9  -4  10    2.00    5.50
   9   4 -10    2.80    3.40
  -9   4  10    3.80    5.50
   8  -4 -10   75.79    8.10
   8  -4 -10   67.29    6.90
  -8  -4  10   56.19   12.70
   8   4 -10   61.49    9.70
  -7  -4  10   45.70   12.10
   7  -4 -10   38.00    6.20
   7  -4 -10   37.50    5.60
   7   4 -10   24.60    6.90
   6  -4 -10    3.60    2.90
  -6  -4  10   11.10    6.90
   6  -4 -10    6.50    3.80
   6   4 -10    7.20    5.40
  -6   4  10   -1.50    6.80
   5  -4 -10   89.59    8.20
  -5  -4  10   95.59   14.70
   5  -4 -10  108.69   10.60
   5   4 -10   85.09   12.40
  -5   4  10   79.19   13.50
   4  -4 -10  223.28   19.60
  -4  -4  10  240.38   23.00
   4   4 -10  198.88   21.50
  -4   4  10  212.48   22.40
  -3  -4  10   54.69    9.50
   3  -4 -10   60.09    8.20
   3   4 -10   59.39   10.10
  -3   4  10   57.99   10.20
  -2  -4  10   80.49   10.60
   2  -4 -10   65.99   13.80
   2  -4 -10   82.49    9.70
   2   4 -10   86.59   11.10
   2   4 -10   76.39    9.60
  -2   4  10   84.29   11.50
   1  -4 -10  224.88   18.90
  -1  -4  10  205.38   20.10
   1  -4 -10  215.38   23.80
  -1   4  10  229.98   21.10
   1   4 -10  194.58   19.40
   1   4 -10  208.18   19.60
   0  -4 -10   31.90    5.60
   0  -4  10   38.90    9.10
   0  -4 -10   34.00   10.90
   0   4 -10   24.00    5.30
   0   4  10   24.80    8.20
   0   4 -10   29.50    7.30
  -1  -4 -10    8.10    3.20
  -1  -4 -10    6.00    8.20
   1  -4  10   12.70    7.40
  -1   4 -10   11.90    6.50
   1   4  10   12.60    4.90
  -2  -4 -10   38.20   11.20
   2  -4  10   54.99   12.00
  -2  -4 -10   54.19    7.90
  -2   4 -10   62.59   10.20
   2   4  10   56.59    9.20
   3  -4  10   16.50    9.40
  -3  -4 -10   17.50    9.80
   3   4  10   12.90    5.60
  -4  -4 -10    4.60    5.90
   4  -4  10   -4.80    7.90
  -4   4 -10    0.10    4.80
   4   4  10    1.70    4.30
   5  -4  10   10.80    8.50
  -5  -4 -10   -0.40    3.80
  -5   4 -10    1.40    4.50
   5   4  10   -1.20    3.60
   8  -5 -10    4.20    2.60
  -8  -5  10    2.50    7.30
  -8   5  10   -2.80    5.80
   7  -5 -10   17.80    3.90
  -7   5  10   -1.80    8.70
   7   5 -10   21.50    6.60
   6  -5 -10   48.70    5.80
   5  -5 -10   11.20    4.00
   5   5 -10   21.50    7.20
  -5   5  10   23.20    8.40
   4  -5 -10   10.90    2.60
   4  -5 -10    7.40    4.00
  -4  -5  10   11.60    7.20
   4   5 -10    8.40    6.40
  -4   5  10   17.90    7.40
   3  -5 -10  116.09   12.20
  -3  -5  10  112.39   15.70
   3   5 -10  106.19   14.00
  -3   5  10  126.79   15.50
   2  -5 -10  102.99   10.50
  -2  -5  10   82.89   12.90
  -2   5  10   85.89   12.70
   2   5 -10   83.79   11.70
  -1  -5  10   20.90    7.40
   1  -5 -10   19.80    5.00
   1   5 -10   13.60    5.40
  -1   5  10   18.90    6.50
   0  -5 -10   35.90   10.90
   0  -5  10   41.80   10.10
   0  -5 -10   42.90    6.30
   0   5 -10   43.50    8.50
   0   5  10   45.00    9.10
  -1  -5 -10   44.00    7.80
  -1  -5 -10   48.60   11.40
   1  -5  10   46.50   11.70
   1   5  10   64.89    9.50
  -1   5 -10   57.89    9.50
  -2  -5 -10    0.60    2.20
  -2  -5 -10    3.60    6.90
   2  -5  10    4.80    8.40
   2   5  10    2.40    4.20
  -2   5 -10    1.90    4.70
  -3  -5 -10    9.20    6.60
   3  -5  10    9.40    9.00
  -3   5 -10    0.80    4.50
   3   5  10    9.50    4.70
  -4  -5 -10    3.80    4.40
   4  -5  10    5.50    8.20
  -4   5 -10    4.10    4.50
   4   5  10    2.50    3.70
  -7  -6  10   11.10    7.60
   7  -6 -10    7.30    3.50
  -7   6  10   -3.60    7.30
   6  -6 -10    3.70    2.40
  -6  -6  10    1.10    7.70
  -6   6  10   -4.10    6.20
   5  -6 -10   23.00    4.80
  -5  -6  10   19.00   10.70
  -5   6  10    7.00    8.50
  -4  -6  10   33.50   10.30
   4  -6 -10   44.20    6.70
  -4   6  10   28.50    9.00
   3  -6 -10    3.50    3.80
  -3  -6  10    4.40    6.10
  -3   6  10    0.30    5.10
  -2  -6  10   31.50    8.60
   2  -6 -10   18.10    4.60
  -2   6  10   26.20    8.00
   1  -6 -10   42.50    6.60
  -1  -6  10   41.80   10.60
   1   6 -10   51.59    7.70
  -1   6  10   41.00    9.20
   0  -6  10   14.20    9.00
   0  -6 -10    9.30    3.10
   0   6 -10    9.70    5.10
   0   6  10   12.80    5.60
  -1  -6 -10    5.70    2.50
   1  -6  10    3.40    8.10
  -1   6 -10   11.70    5.20
   1   6  10   13.20    8.40
   2  -6  10   14.80    9.80
   2   6  10   22.30    5.90
  -2   6 -10   24.30    6.00
   4  -7 -10    6.00    2.80
  -4  -7  10    8.10    8.10
  -4   7  10   17.80    7.30
  -3  -7  10   24.90    8.90
   3  -7 -10   16.00    3.60
  -3   7  10   26.30    7.70
  -2  -7  10    3.30    7.50
   2  -7 -10    6.90    3.30
  -2   7  10    9.10    5.40
  -1  -7  10    3.20    8.00
   1  -7 -10    2.20    2.60
  -1   7  10    3.90    4.90
   0  -7  10   12.90    8.80
   0  -7 -10    8.60    3.40
   0   7  10    6.60    4.70
   0   7 -10   10.40    5.30
 -10   0  11   25.60    7.80
  10   0 -11   11.60    5.40
  -9   0  11    3.70    6.10
   9   0 -11    7.50    3.90
  -8   0  11   55.09   12.50
   8   0 -11   50.99    8.10
  -7   0  11   93.19   16.10
   7   0 -11  111.39   12.20
   6   0 -11   26.10    6.30
  -6   0  11   31.30    9.10
   5   0 -11  233.68   20.60
  -5   0  11  225.58   22.70
   4   0 -11  481.75   37.70
  -4   0  11  446.96   38.60
  -3   0  11   48.90    6.40
   3   0 -11   45.70    7.80
   3   0 -11   35.60    8.10
   2   0 -11   96.99    9.90
   2   0 -11   88.99   12.60
   1   0 -11  192.28   19.90
   1   0 -11  196.68   17.00
   0   0 -11  135.69   13.10
   0   0 -11  166.28   17.60
  -1   0 -11   -7.30    6.40
   1   0  11    2.20    4.80
   2   0  11  103.79   14.30
  -2   0 -11  150.68   17.60
   3   0  11   28.10    8.30
  -3   0 -11   52.69   11.40
   4   0  11    5.00    5.80
  -4   0 -11    5.40    7.10
  -5   0 -11    2.00    5.80
   5   0  11    3.40    5.20
 -10  -1  11    9.60    6.20
 -10   1  11    5.20    5.90
  10   1 -11   23.00    5.30
   9  -1 -11   53.59    7.60
  -9  -1  11   49.70   11.80
   9   1 -11   57.09    7.90
  -8  -1  11    9.40    7.00
   8  -1 -11   16.20    4.80
   8   1 -11   16.30    5.70
  -8   1  11   -2.70    6.80
   7  -1 -11  108.89   11.90
  -7  -1  11  106.09   16.00
   7   1 -11  109.59   12.70
  -7   1  11  107.59   16.60
   6  -1 -11  338.47   28.00
  -6  -1  11  342.47   32.40
   6   1 -11  330.97   28.60
  -6   1  11  301.97   31.40
   5  -1 -11  132.49   13.30
  -5  -1  11  117.59   16.30
  -5   1  11  133.59   15.70
   5   1 -11  152.78   14.40
  -4  -1  11   53.79    8.90
   4  -1 -11   49.99    7.30
  -4   1  11   51.09    7.80
   4   1 -11   43.30    7.70
   3  -1 -11  353.76   28.60
   3  -1 -11  275.57   26.40
  -3  -1  11  271.37   25.40
  -3   1  11  317.77   25.30
   2  -1 -11  310.17   25.40
   2  -1 -11  279.57   26.80
  -2   1  11  295.17   23.80
   2   1 -11  285.67   25.60
   2   1 -11  296.37   24.90
   1  -1 -11   36.80    6.40
   1   1 -11   23.70    4.70
  -1   1  11   27.30    4.20
   1   1 -11   22.50    7.40
   0  -1 -11  211.58   20.10
   0  -1 -11  167.28   17.20
   0   1  11  159.38   14.70
   0   1 -11  156.88   14.80
  -1  -1 -11  205.28   20.60
   1  -1  11  172.18   17.00
  -1   1 -11  199.28   20.10
   1   1  11  155.48   16.30
   2  -1  11    0.60    5.60
  -2  -1 -11    5.40    7.90
   2   1  11   12.20    4.90
  -2   1 -11    5.80    8.10
  -3  -1 -11    9.80    7.80
   3  -1  11   10.00    7.60
   3   1  11    6.00    4.80
  -3   1 -11    4.70    7.30
  -4  -1 -11   12.30    6.90
   4  -1  11   14.40    8.60
  -4   1 -11   18.40    7.70
   4   1  11   11.90    5.50
   5  -1  11    9.70    6.40
  -5  -1 -11   10.60    5.40
   5   1  11    6.40    4.60
  -5   1 -11    3.50    5.30
  10  -2 -11   14.90    3.50
  10   2 -11   21.80    4.50
   9  -2 -11    7.60    3.40
  -9  -2  11    4.50    7.80
   9   2 -11   -1.00    3.40
  -9   2  11   -0.10    6.80
  -8  -2  11   67.09   12.80
   8   2 -11   58.19   10.20
  -8   2  11   45.20   11.30
   7  -2 -11  121.79   12.50
  -7  -2  11  104.89   16.80
   7   2 -11  124.09   13.90
   6  -2 -11   25.30    5.70
  -6  -2  11   16.50    8.00
  -6   2  11   20.50    8.30
   6   2 -11   20.50    6.20
   5  -2 -11   91.99   10.10
  -5  -2  11  104.59   13.40
  -5   2  11   81.19   12.20
   5   2 -11   78.79   10.90
  -4  -2  11  382.96   32.70
   4  -2 -11  334.87   29.90
   4   2 -11  356.86   31.10
  -4   2  11  395.26   32.00
   3  -2 -11  156.68   14.80
   3  -2 -11  141.79   22.40
  -3  -2  11  159.88   15.70
  -3   2  11  168.98   15.60
   3   2 -11  160.98   15.80
  -2  -2  11   75.29    9.10
   2  -2 -11   81.49    9.30
   2  -2 -11   83.29   13.30
  -2   2  11   95.19    9.70
   2   2 -11  103.69   11.20
   2   2 -11   92.39   10.20
   1  -2 -11  233.18   19.80
   1  -2 -11  216.28   23.30
  -1   2  11  240.68   20.10
   1   2 -11  251.77   22.10
   1   2 -11  222.18   20.20
   0  -2  11   34.50    6.30
   0  -2 -11   25.80    8.50
   0  -2 -11   32.60    5.40
   0   2  11   32.20    5.50
   0   2 -11   49.50    9.90
   0   2 -11   29.40    5.00
  -1  -2 -11   -0.50    6.60
  -1  -2 -11   -4.00    2.30
  -1   2 -11    5.60    6.80
  -2  -2 -11   43.80   10.70
   2  -2  11   53.09   10.60
   2   2  11   36.00    7.40
  -2   2 -11   61.59   11.90
   3  -2  11   25.70    8.80
  -3  -2 -11   27.70    9.20
  -3   2 -11   33.10    9.40
   3   2  11   25.90    6.20
   4  -2  11    1.50    6.90
  -4  -2 -11    4.70    5.80
  -4   2 -11    6.10    6.20
   4   2  11    4.90    6.90
   5  -2  11    1.70    6.30
  -5  -2 -11    0.40    4.70
   5   2  11    3.90    3.50
  -5   2 -11    6.60    5.30
  -9  -3  11   27.10    8.00
   9   3 -11   30.00    5.60
   8  -3 -11   16.60    4.50
  -8  -3  11   18.40    7.20
  -8   3  11    8.40    7.50
   8   3 -11   11.40    4.80
   7  -3 -11   15.70    4.60
  -7  -3  11   17.90    7.80
  -7   3  11    9.00    7.10
   7   3 -11   16.60    6.50
  -6  -3  11  155.28   19.20
   6  -3 -11  142.79   14.30
   6   3 -11  151.28   16.40
  -5  -3  11  123.59   15.40
   5  -3 -11  112.09   11.60
  -5   3  11  114.39   14.50
   5   3 -11  105.59   13.40
   4  -3 -11    7.50    3.70
  -4  -3  11   13.20    5.70
  -4   3  11   12.00    5.80
   4   3 -11   10.20    5.30
  -3  -3  11  224.08   20.10
   3  -3 -11  223.88   19.00
   3  -3 -11  192.88   21.00
   3   3 -11  213.28   19.90
  -3   3  11  209.78   20.40
   2  -3 -11  215.68   23.10
   2  -3 -11  260.87   20.10
  -2   3  11  236.48   21.00
   2   3 -11  198.88   20.00
   2   3 -11  226.98   20.60
   1  -3 -11   21.60    5.00
  -1  -3  11   17.70    5.00
   1  -3 -11   17.50    9.10
   1   3 -11   27.60    5.30
  -1   3  11   27.50    5.60
   1   3 -11   35.30    7.60
   0  -3 -11  105.49   16.60
   0  -3 -11  119.69   11.20
   0  -3  11  106.39   16.40
   0   3 -11  128.69   14.30
   0   3  11  113.59   12.70
  -1  -3 -11   26.10    9.30
  -1  -3 -11   35.50    5.40
   1  -3  11   52.29   10.30
  -1   3 -11   55.39   10.10
   1   3  11   43.50    7.10
   2  -3  11    5.40    7.20
  -2  -3 -11    4.50    7.60
  -2   3 -11    6.10    6.70
   2   3  11    6.10    3.80
  -3  -3 -11    1.10    6.50
   3  -3  11    8.60    8.40
  -3   3 -11    4.50    5.40
   3   3  11   -0.40    3.20
  -4  -3 -11    4.40    6.10
   4  -3  11    3.20    6.80
  -4   3 -11    3.00    5.20
   4   3  11    4.30    3.90
  -8  -4  11   18.60    7.60
   8  -4 -11   30.10    4.80
   8   4 -11   22.10    5.50
   7  -4 -11   68.89    8.10
  -7  -4  11   58.79   12.00
   7   4 -11   56.49   10.00
  -6  -4  11    9.00    6.10
   6  -4 -11   11.50    4.20
   6   4 -11    3.80    4.70
  -6   4  11   -2.30    5.40
   5  -4 -11   61.49    8.30
  -5  -4  11   74.89   11.60
  -5   4  11   69.99   11.90
   5   4 -11   64.69   10.80
  -4  -4  11  152.98   17.70
   4  -4 -11  172.88   15.80
  -4   4  11  170.88   18.60
   4   4 -11  179.18   17.90
   3  -4 -11   38.70    6.60
   3   4 -11   22.20    6.60
  -3   4  11   40.70    8.30
   2  -4 -11   15.70    4.30
  -2  -4  11   26.80    6.50
   2  -4 -11   21.60    8.80
  -2   4  11   20.80    6.20
   2   4 -11   25.20    6.00
   1  -4 -11   84.89   14.60
   1  -4 -11   95.49    9.60
  -1  -4  11   96.39   11.70
  -1   4  11   89.59   11.30
   1   4 -11   67.59    9.40
   1   4 -11   93.49   10.90
   0  -4 -11   34.80    9.50
   0  -4  11   55.29   10.20
   0  -4 -11   41.30    6.00
   0   4 -11   48.50    9.10
   0   4  11   45.60    7.80
   1  -4  11    1.30    6.60
  -1  -4 -11    3.90    2.60
  -1  -4 -11    5.50    6.90
   1   4  11   -1.50    3.00
  -1   4 -11   -2.00    4.90
   2  -4  11    7.00    9.20
  -2  -4 -11   10.50    7.50
   2   4  11   25.30    5.70
  -2   4 -11   31.00    7.20
   3  -4  11   20.70    8.60
  -3  -4 -11   19.60    7.60
  -3   4 -11   16.30    5.60
   3   4  11   13.20    5.20
  -4  -4 -11   -0.50    4.00
  -4   4 -11    1.30    4.30
   4   4  11   -2.50    2.70
  -7  -5  11   -4.20    5.90
   7  -5 -11    5.50    2.90
   7   5 -11    4.10    5.00
  -7   5  11   -4.50    5.60
  -6  -5  11   38.40   13.80
   6   5 -11   34.20    7.20
  -5  -5  11   42.30    9.80
  -5   5  11   25.30    8.50
   5   5 -11   27.20    7.10
   4  -5 -11    6.80    5.10
  -4  -5  11    2.10    5.20
   4   5 -11    2.10    5.80
  -4   5  11    7.10    5.70
  -3  -5  11   67.79   10.80
   3  -5 -11   72.89    8.60
   3   5 -11   51.19   11.80
  -3   5  11   80.09   11.30
   2  -5 -11   51.99    7.30
  -2  -5  11   46.50    9.50
  -2   5  11   70.79   10.10
  -1  -5  11    7.50    6.40
   1  -5 -11    4.40    3.20
  -1   5  11    3.00    4.60
   1   5 -11    9.80    4.90
   0  -5  11   27.50    8.90
   0  -5 -11   19.50    3.70
   0   5 -11   17.50    5.90
   0   5  11   16.50    5.50
   1  -5  11   16.50    9.30
  -1  -5 -11   19.60    7.80
   1   5  11   17.90    6.30
  -1   5 -11   35.00    7.40
  -2  -5 -11    3.80    5.90
   2  -5  11    4.20    7.90
   2   5  11   12.70    5.00
  -2   5 -11    6.80    4.70
  -5  -6  11   40.20    9.40
   5  -6 -11   33.40    5.70
   4  -6 -11   12.60    3.20
  -4  -6  11   21.70    8.20
   3  -6 -11    3.60    3.00
  -3  -6  11   12.50    6.90
  -3   6  11    2.90    5.00
  -2  -6  11    2.90    6.70
   2  -6 -11    5.40    3.00
  -2   6  11    1.90    4.30
  -1  -6  11   29.50    9.70
   1  -6 -11   32.70    5.00
  -1   6  11   28.30    7.10
   0  -6  11   32.80   10.10
   0  -6 -11   33.30    4.60
   0   6 -11   35.90    6.70
   0   6  11   33.10    6.80
  -1  -6 -11    0.10    2.20
   1  -6  11    6.80    7.90
  -1   6 -11   -1.80    4.00
   1   6  11   -0.80    2.60
  -9   0  12    7.10    5.20
   9   0 -12    0.40    3.30
  -8   0  12   62.79   12.50
   8   0 -12   82.69    9.90
   7   0 -12   47.80    8.10
  -7   0  12   41.30   10.20
   6   0 -12    5.30    4.60
  -6   0  12    8.60    6.20
  -5   0  12   46.80   13.40
   5   0 -12   65.99    8.50
  -4   0  12  258.17   25.30
   4   0 -12  318.87   25.00
   3   0 -12  149.49   14.20
  -3   0  12  144.59   14.00
   2   0 -12   12.20    3.90
   2   0 -12    7.60    6.20
   1   0 -12  252.37   23.60
   1   0 -12  231.68   20.30
   0   0 -12   55.19    7.10
   0   0 -12   81.29   13.30
   1   0  12    1.50    3.40
  -1   0 -12    1.20    7.70
  -2   0 -12   10.60    8.30
   2   0  12   -1.60    3.80
  -3   0 -12   14.30    7.60
   3   0  12   14.10    5.20
   4   0  12    9.90    4.20
  -4   0 -12    5.20    5.70
  -9  -1  12   71.59   12.30
   9  -1 -12   95.89    9.60
   9   1 -12   87.29    9.60
  -9   1  12   57.09   12.00
  -8  -1  12   39.50    9.60
   8  -1 -12   50.79    7.60
  -8   1  12   39.60   10.50
   7  -1 -12   33.90    6.30
  -7  -1  12   31.20    8.20
  -7   1  12   27.50    8.60
   7   1 -12   33.50    7.40
  -6  -1  12  170.88   19.50
   6  -1 -12  188.08   17.10
  -6   1  12  159.18   19.50
   6   1 -12  207.18   18.10
   5  -1 -12  195.38   16.70
  -5  -1  12  171.98   18.60
   5   1 -12  178.68   16.80
  -5   1  12  148.49   17.60
   4  -1 -12   15.30    4.60
  -4  -1  12   12.30    5.40
   4   1 -12    9.70    4.60
  -4   1  12   15.70    5.40
  -3  -1  12  179.78   18.20
   3  -1 -12  199.48   19.40
   3  -1 -12  211.78   18.10
  -3   1  12  206.88   17.90
   3   1 -12  202.58   18.30
   2  -1 -12  232.68   18.80
   2  -1 -12  209.38   21.20
   2   1 -12  197.98   19.90
   2   1 -12  203.28   18.50
  -2   1  12  209.78   17.80
   1  -1 -12    9.30    3.50
   1  -1 -12   10.10    7.50
   1   1 -12   10.30    6.60
   1   1 -12    2.80    2.90
   0  -1 -12   18.60    8.20
   0   1 -12    7.10    4.80
   0   1 -12   27.50    9.00
   0   1  12   21.40    3.70
  -1  -1 -12   94.39   14.20
   1   1  12   62.09    7.70
   2  -1  12   16.80    6.00
  -2  -1 -12   24.10    9.40
  -2   1 -12   18.30    7.90
   2   1  12   16.10    4.40
   3  -1  12   -1.80    4.90
  -3  -1 -12    4.80    6.50
   3   1  12    3.30    3.40
  -3   1 -12   -0.80    6.30
  -4  -1 -12    5.90    6.10
   4  -1  12    6.00    5.30
   4   1  12    5.40    3.70
  -4   1 -12    7.70    5.90
  -9  -2  12   -3.50    4.00
   9  -2 -12    3.60    2.80
  -9   2  12    2.20    4.50
   9   2 -12    2.60    3.40
   8  -2 -12   23.90    4.90
  -8  -2  12   25.30   10.20
  -8   2  12    5.00    6.40
   8   2 -12    5.80    4.20
  -7  -2  12  125.09   15.50
   7  -2 -12  120.99   13.20
   7   2 -12  107.59   13.50
   6  -2 -12   52.89    7.80
  -6  -2  12   46.80    9.80
   6   2 -12   52.99    8.90
  -6   2  12   32.80    9.40
   5  -2 -12   91.99   10.80
  -5  -2  12   77.99   12.20
  -5   2  12  125.69   13.80
   5   2 -12  111.99   12.30
   4  -2 -12  224.18   20.20
  -4  -2  12  204.48   21.40
  -4   2  12  257.57   21.80
   4   2 -12  240.18   21.20
   3  -2 -12   51.99    9.80
   3   2 -12   43.80    7.30
  -3   2  12   38.90    7.90
   2  -2 -12   34.60    5.90
   2  -2 -12   23.60    8.00
   2   2 -12   21.30    6.30
  -2   2  12   24.10    7.10
   2   2 -12   23.50    5.10
   1  -2 -12  146.29   13.10
   1  -2 -12  131.59   17.20
   1   2 -12  142.69   15.20
  -1   2  12  124.49   12.60
   1   2 -12  142.39   13.10
   0  -2 -12   77.09   13.80
   0  -2 -12   71.59    8.00
   0   2 -12  104.09   12.80
   0   2  12   74.19    8.40
   1  -2  12   -1.60    5.10
  -1  -2 -12   -0.20    7.10
   1   2  12    1.40    2.60
  -1   2 -12   -0.90    6.70
   2  -2  12   13.40    9.60
  -2  -2 -12   39.70   12.50
  -2   2 -12   34.00    8.20
   2   2  12   28.60    5.60
  -3  -2 -12   15.80    7.40
   3  -2  12    8.60    6.10
  -3   2 -12    8.20    5.90
   3   2  12   10.80    4.00
  -4  -2 -12   -1.80    5.00
   4  -2  12    2.00    5.20
  -4   2 -12   -1.90    4.90
   4   2  12    3.80    3.30
   8  -3 -12   12.20    3.50
  -8  -3  12   10.00    5.20
  -8   3  12    0.50    5.80
   8   3 -12   15.00    5.30
   7  -3 -12    8.10    3.90
  -7  -3  12    8.20    5.40
  -7   3  12    8.20    6.20
   7   3 -12   13.00    5.30
   6  -3 -12  103.29   10.80
  -6  -3  12   86.89   12.60
   6   3 -12  101.79   12.20
  -5  -3  12  116.49   14.60
   5  -3 -12  140.19   12.90
  -5   3  12  125.29   14.90
   5   3 -12  117.39   13.70
  -4  -3  12    8.30    4.10
   4  -3 -12    7.80    4.00
  -4   3  12    5.80    4.90
   4   3 -12    8.30    4.40
  -3  -3  12  119.69   13.10
   3   3 -12  127.09   13.30
  -3   3  12  124.59   13.30
   2  -3 -12  142.29   16.40
  -2  -3  12  117.89   13.40
   2  -3 -12  141.89   12.60
   2   3 -12  111.69   12.60
  -2   3  12  125.19   13.00
   1  -3 -12   23.30    8.90
  -1  -3  12   43.10    7.40
   1  -3 -12   35.30    5.60
   1   3 -12   25.00    5.30
  -1   3  12   34.20    6.00
   1   3 -12   33.20    7.60
   0  -3 -12   31.00    9.80
   0  -3 -12   33.00    8.40
   0  -3  12   41.60    7.90
   0   3 -12   45.30    9.00
   0   3  12   30.10    5.80
   1   3  12   50.09    7.50
  -1   3 -12   70.59   11.00
  -2  -3 -12    8.30    7.20
   2  -3  12    4.70    6.00
  -2   3 -12    8.90    5.90
   2   3  12    2.50    3.00
   3  -3  12    8.20    7.20
  -3  -3 -12    9.60    6.60
   3   3  12   11.80    4.10
  -3   3 -12    8.50    5.60
  -7  -4  12   57.09   10.70
   7  -4 -12   84.89    8.80
   7   4 -12   84.79   10.50
  -6  -4  12   10.10    8.20
   6  -4 -12    8.50    3.30
   6   4 -12   11.00    4.90
   5  -4 -12   37.30    6.30
  -5  -4  12   28.80    7.30
  -5   4  12   41.20    8.70
   5   4 -12   32.90    7.00
   4  -4 -12   57.59    7.90
  -4   4  12   54.69    9.10
   4   4 -12   50.69   12.90
  -3  -4  12   42.70    8.40
  -3   4  12   55.79    8.80
   3   4 -12   45.40    9.40
  -2  -4  12   -0.80    4.20
   2  -4 -12    4.60    2.90
  -2   4  12    3.60    3.50
   2   4 -12    4.40    3.70
  -1  -4  12   56.79   10.10
   1  -4 -12   75.89   14.60
   1  -4 -12   53.99    6.70
  -1   4  12   54.69    7.90
   1   4 -12   46.30    8.90
   0  -4 -12   30.30    4.50
   0  -4  12   38.20    9.20
   0  -4 -12   38.40    9.10
   0   4  12   28.60    5.90
   0   4 -12   36.90    7.30
   1  -4  12    1.40    6.10
  -1  -4 -12   10.00    7.20
  -1   4 -12   10.20    5.80
   1   4  12   10.50    4.00
  -2  -4 -12   10.70    6.50
   2  -4  12    4.00    6.10
   2   4  12    9.90    3.60
  -2   4 -12    8.70    5.30
  -6  -5  12   27.30    8.40
   6   5 -12   42.60    7.40
  -5  -5  12   29.20    7.80
   5  -5 -12   39.60    6.00
   5   5 -12   46.20    8.00
  -5   5  12   46.70    8.70
  -4  -5  12   -3.90    3.80
   4  -5 -12    2.80    3.00
  -4   5  12    1.40    4.20
   4   5 -12    0.00    3.80
  -3  -5  12   15.60    6.30
   3  -5 -12   17.20    4.00
  -2  -5  12   61.29   11.00
   2  -5 -12   68.69    7.60
  -2   5  12   66.09   10.80
  -1  -5  12   15.30    7.00
   1  -5 -12    8.90    2.70
  -1   5  12   11.80    4.40
   0  -5 -12   12.50    4.10
   0  -5  12   14.10    7.40
   0   5 -12   15.10    5.30
   0   5  12    9.40    4.20
   1  -5  12   24.30   11.00
   1   5  12   21.90    4.80
  -1   5 -12   16.10    5.40
   3  -6 -12   30.10    4.80
   2  -6 -12    3.30    2.50
   9   0 -13    4.30    3.10
   8   0 -13   50.89    7.50
  -8   0  13   40.30    8.70
   7   0 -13  191.68   16.50
  -7   0  13  142.09   17.60
   6   0 -13   16.40    5.30
  -6   0  13   29.90    7.00
  -5   0  13   44.40    8.40
   5   0 -13   56.79    8.00
  -4   0  13  102.99   12.10
   3   0 -13   67.39    8.70
   2   0 -13    2.40    5.80
   2   0 -13    3.90    3.00
   1   0 -13   60.79    7.20
   1   0 -13   54.89   11.40
   0   0 -13   67.09   13.00
  -1   0 -13    2.40    7.20
  -2   0 -13    8.50    6.50
  -3   0 -13    0.90    5.90
  -8  -1  13   41.80    8.40
   8  -1 -13   44.50    6.70
  -8   1  13   26.10    7.10
   8   1 -13   39.10    6.70
   7  -1 -13    2.90    3.70
  -7  -1  13    5.40    8.70
   7   1 -13    6.80    4.60
  -7   1  13   -5.90    4.30
   6  -1 -13   97.49    9.90
  -6  -1  13   62.99   10.30
   6   1 -13   75.39   10.20
  -6   1  13   69.59   10.80
  -5  -1  13   97.79   12.10
  -5   1  13   91.49   11.80
   5   1 -13  117.09   11.90
  -4  -1  13    0.20    4.30
   4  -1 -13    1.90    3.40
   4   1 -13    5.70    3.60
  -4   1  13    0.90    3.70
   3  -1 -13   89.99    9.50
   3  -1 -13   51.19   12.40
  -3   1  13   70.69    8.90
   3   1 -13   84.09    9.50
   2  -1 -13  139.79   12.90
   2  -1 -13  112.29   14.80
   2   1 -13  135.59   14.40
   2   1 -13  136.49   13.00
   1  -1 -13   12.20    7.20
   1  -1 -13    7.30    3.10
   1   1 -13    5.30    6.40
   1   1 -13   18.20    7.00
   0  -1 -13    1.30   10.70
   0   1 -13    3.90    8.90
  -1  -1 -13   18.60    7.60
  -1   1 -13   36.00    8.80
   1   1  13   26.90    4.50
  -2  -1 -13   23.20    8.00
  -2   1 -13   22.40    8.20
   2   1  13   23.50    4.30
  -3  -1 -13   -0.10    5.60
  -3   1 -13    0.70    5.40
   8  -2 -13   25.80    5.00
  -8  -2  13   11.50    5.70
  -8   2  13   16.30    5.80
  -7  -2  13   37.40    8.20
   7  -2 -13   56.59    7.60
   7   2 -13   56.39    8.10
  -6  -2  13   30.70    7.20
   6  -2 -13   25.00    5.30
   6   2 -13   28.50    6.60
  -5  -2  13   25.70    6.50
   5  -2 -13   19.20    4.70
   5   2 -13   15.20    5.10
   4  -2 -13  132.09   13.40
   4   2 -13  140.69   13.90
  -4   2  13  136.29   14.00
   3  -2 -13  153.48   14.00
  -3   2  13  144.99   14.00
   3   2 -13  134.09   13.90
   2  -2 -13   16.80    4.60
   2  -2 -13   19.90    8.80
   2   2 -13   10.60    4.10
  -2   2  13   12.10    3.60
   1  -2 -13  118.09   20.70
   1  -2 -13  141.79   12.50
   1   2 -13  110.69   11.50
   1   2 -13  136.59   14.20
  -1   2  13  110.89   11.40
   0  -2 -13   70.19    9.20
   0  -2 -13   61.99   12.60
   0   2 -13   76.19   11.60
  -1  -2 -13   -3.80    6.30
   1   2  13   -2.60    2.00
  -1   2 -13   -0.90    5.60
  -2  -2 -13    9.80    6.90
  -2   2 -13   18.80    7.00
   2   2  13   10.10    3.20
   7  -3 -13    2.40    2.90
  -7  -3  13    1.00    3.90
  -7   3  13   -0.20    4.80
   7   3 -13    5.90    3.80
   6  -3 -13   82.69    8.90
  -6  -3  13   62.79    9.70
   6   3 -13   68.89    9.50
  -5  -3  13  100.89   13.00
   5   3 -13  130.99   12.80
   4  -3 -13   17.60    4.50
  -4   3  13   17.30    4.90
   4   3 -13    6.10    4.10
   3  -3 -13   44.70    7.50
  -3  -3  13   40.50    9.70
  -3   3  13   53.09    7.40
   3   3 -13   52.69    7.50
   2  -3 -13   73.99   11.50
  -2   3  13   64.59    7.90
   2   3 -13   59.69    7.70
   1  -3 -13   34.20    8.40
   1  -3 -13   37.90    5.40
   1   3 -13   29.20    7.20
   0  -3 -13    1.20    3.50
   0  -3 -13    0.70    5.50
   0   3 -13    4.40    5.10
   0   3  13    4.90    2.70
  -1  -3 -13   47.60   10.10
  -1   3 -13   45.70    8.60
  -2  -3 -13    7.10    6.40
  -2   3 -13    5.20    4.80
   2   3  13    2.10    2.80
   6  -4 -13   26.60    4.90
   6   4 -13   15.10    4.50
  -5  -4  13   21.60    6.00
   5  -4 -13   13.60    3.80
   5   4 -13   21.60    5.40
  -4  -4  13   53.69    9.30
   4   4 -13   60.89    8.30
  -4   4  13   65.09    8.80
   3  -4 -13   38.60    5.90
  -3  -4  13   31.00    7.20
   3   4 -13   40.00    6.40
  -3   4  13   40.10    6.90
  -2  -4  13    4.60    5.40
   2  -4 -13    8.80    3.10
  -2   4  13   18.20    4.60
   2   4 -13    9.90    3.90
   1  -4 -13   32.30    4.50
  -1   4  13   26.00    5.30
   0  -4 -13   29.70    7.90
   0   4 -13   18.50    6.00
   0   4  13   19.90    4.40
  -1  -4 -13    8.90    5.80
  -1   4 -13    7.00    4.80
   1   4  13    4.30    4.10
   4  -5 -13    1.60    2.20
  -4  -5  13    1.40    4.60
  -4   5  13   -1.50    3.20
  -3  -5  13    6.70    5.90
   3  -5 -13   13.00    3.20
  -3   5  13   17.40    5.20
   2  -5 -13   22.60    4.80
  -2   5  13   30.70    5.40
  -7   0  14   36.60    7.50
   6   0 -14   49.10    7.50
  -5   0  14    5.20    4.10
   5   0 -14   -2.00    3.00
   4   0 -14  110.99   11.70
   3   0 -14  109.89   11.40
   2   0 -14    1.30    7.30
   2   0 -14   10.10    3.60
   1   0 -14   47.70    9.60
   0   0 -14   27.30    8.00
  -1   0 -14    4.50    5.90
  -7  -1  14    7.70    4.00
   7  -1 -14    0.60    3.00
   7   1 -14    0.70    3.30
  -7   1  14    3.60    3.50
  -6  -1  14   50.79    7.90
  -6   1  14   42.30    7.70
   6   1 -14   65.29    8.10
  -5  -1  14   71.99    9.00
  -5   1  14   58.59    9.20
   4  -1 -14    6.40    3.60
  -4   1  14   -1.20    4.00
   4   1 -14    1.20    3.30
   3  -1 -14   37.40    6.20
   3   1 -14   25.70    5.40
   2  -1 -14  101.89    9.70
   2  -1 -14   83.89   11.70
   2   1 -14   85.99    9.40
   1  -1 -14   20.10    4.20
   1  -1 -14   20.90    7.30
   0  -1 -14    7.80    6.50
   0   1 -14    7.10    5.90
  -1  -1 -14   12.00    6.80
  -1   1 -14   10.00    5.70
  -7  -2  14   35.50   10.40
  -7   2  14   35.80    7.00
   6  -2 -14   24.70    5.10
  -6  -2  14   21.50    5.50
   6   2 -14   25.90    5.80
  -5  -2  14   11.10    5.20
  -5   2  14    2.80    3.40
   5   2 -14   21.20    5.20
   4   2 -14   46.60    7.20
   3  -2 -14   60.69    7.10
  -3   2  14   48.10    7.00
   3   2 -14   50.29    7.00
   2  -2 -14   15.80    6.60
   2  -2 -14   25.30    4.80
   2   2 -14   21.50    4.40
   1  -2 -14   24.60    5.90
   1  -2 -14   22.90    7.20
   1   2 -14   20.20    8.30
   0  -2 -14   62.69   10.40
   0   2 -14   41.90   10.30
  -1  -2 -14   11.10    6.40
  -1   2 -14   13.40    5.50
   6  -3 -14   13.70    3.40
   6   3 -14   15.20    4.60
   5  -3 -14   68.49    8.60
   5   3 -14   84.09    9.30
   4   3 -14   37.20    6.60
  -4   3  14   47.70    6.80
  -3   3  14   28.90    5.10
   3   3 -14   21.40    4.70
   2  -3 -14   43.30    5.40
  -2   3  14   38.50    5.70
   2   3 -14   31.10    6.20
   1  -3 -14    4.40    2.90
   1  -3 -14    0.00    4.80
  -1   3  14    4.20    3.60
   0  -3 -14    1.40    6.10
   0   3 -14   -4.10    5.80
   3  -4 -14   24.30    5.00
  -3   4  14   23.70    7.40
   6   0 -15   58.39    7.50
   5   0 -15    3.60    3.30
   4   0 -15   57.79    7.40
   3   0 -15   34.60    5.70
   2   0 -15    5.70    3.50
   5  -1 -15   85.89    9.20
   5   1 -15   81.39    9.00
   4  -1 -15   37.90    5.60
   4   1 -15   32.30    5.70
   3  -1 -15   -0.60    2.80
   3   1 -15    7.40    3.90
   2  -1 -15   47.40    6.20
   1  -1 -15   21.40    6.20
   4  -2 -15   66.69    7.40
   4   2 -15   57.99    7.50
   3  -2 -15   34.50    5.40
   3   2 -15   40.40    5.70
   2  -2 -15    2.50    2.60
   0   0   0    0.00    0.00

_computing_structure_solution     'SHELXT 2014/5 (Sheldrick, 2014)'
;
_shelx_hkl_checksum              78425
_olex2_submission_special_instructions 'No special instructions were received'
loop_
_space_group_symop_operation_xyz
'x, y, z'
'-x, y+1/2, -z'
loop_
_atom_site_label
_atom_site_type_symbol
_atom_site_fract_x
_atom_site_fract_y
_atom_site_fract_z
_atom_site_U_iso_or_equiv
_atom_site_adp_type
_atom_site_occupancy
_atom_site_site_symmetry_order
_atom_site_calc_flag
_atom_site_refinement_flags_posn
I1 I 0.65015(7) 1.07479(14) 0.96602(4) 0.0813(3) Uani 1 1 d .
O1 O 0.7773(10) 0.3031(8) 0.5664(7) 0.083(2) Uani 1 1 d .
C2 C 0.6528(11) 0.5358(10) 0.7519(8) 0.064(2) Uani 1 1 d .
H2 H 0.5956 0.4030 0.7477 0.077 Uiso 1 1 calc R
C1 C 0.7650(8) 0.5795(15) 0.6718(6) 0.0524(14) Uani 1 1 d .
C3 C 0.7814(11) 0.4646(12) 0.5695(8) 0.061(2) Uani 1 1 d .
C4 C 0.7926(8) 0.5901(16) 0.4755(7) 0.0561(17) Uani 1 1 d .
C5 C 0.8070(11) 0.5364(11) 0.3679(8) 0.066(2) Uani 1 1 d .
H5 H 0.8166 0.4136 0.3523 0.079 Uiso 1 1 calc R
C6 C 0.8071(12) 0.6640(14) 0.2851(9) 0.073(3) Uani 1 1 d .
H6 H 0.8164 0.6278 0.2126 0.088 Uiso 1 1 calc R
C7 C 0.7934(12) 0.8484(14) 0.3079(8) 0.069(2) Uani 1 1 d .
H7 H 0.7937 0.9339 0.2504 0.083 Uiso 1 1 calc R
C8 C 0.7792(10) 0.9065(11) 0.4159(7) 0.0569(19) Uani 1 1 d .
H8 H 0.7721 1.0300 0.4310 0.068 Uiso 1 1 calc R
C9 C 0.7758(9) 0.7784(11) 0.5002(7) 0.0486(16) Uani 1 1 d .
B3 B 0.8462(14) 0.5408(15) 0.8169(9) 0.069(3) Uani 1 1 d .
H3 H 0.9170 0.4222 0.8542 0.083 Uiso 1 1 calc R
B7 B 0.7146(14) 0.6409(13) 0.8843(9) 0.066(3) Uani 1 1 d .
H7A H 0.7009 0.5879 0.9671 0.079 Uiso 1 1 calc R
B11 B 0.5558(13) 0.7254(15) 0.7716(9) 0.064(3) Uani 1 1 d .
H11 H 0.4401 0.7268 0.7823 0.077 Uiso 1 1 calc R
B6 B 0.5877(12) 0.6785(14) 0.6346(9) 0.057(2) Uani 1 1 d .
H6A H 0.4935 0.6469 0.5562 0.069 Uiso 1 1 calc R
B4 B 0.9112(12) 0.7181(13) 0.7401(9) 0.058(2) Uani 1 1 d .
H4 H 1.0267 0.7145 0.7289 0.070 Uiso 1 1 calc R
B5 B 0.7552(11) 0.8010(12) 0.6276(8) 0.0494(19) Uani 1 1 d .
B10 B 0.6227(12) 0.9016(13) 0.6931(8) 0.054(2) Uani 1 1 d .
H10 H 0.5509 1.0179 0.6530 0.065 Uiso 1 1 calc R
B12 B 0.7016(12) 0.8734(14) 0.8472(8) 0.057(2) Uani 1 1 d .
B8 B 0.8792(14) 0.7633(14) 0.8771(9) 0.064(2) Uani 1 1 d .
H8A H 0.9734 0.7912 0.9562 0.077 Uiso 1 1 calc R
B9 B 0.8229(12) 0.9263(12) 0.7592(8) 0.054(2) Uani 1 1 d .
H9 H 0.8798 1.0590 0.7622 0.065 Uiso 1 1 calc R
loop_
_atom_site_aniso_label
_atom_site_aniso_U_11
_atom_site_aniso_U_22
_atom_site_aniso_U_33
_atom_site_aniso_U_23
_atom_site_aniso_U_13
_atom_site_aniso_U_12
I1 0.1095(5) 0.0836(4) 0.0634(3) -0.0128(4) 0.0451(3) -0.0010(5)
O1 0.129(6) 0.042(3) 0.084(5) -0.005(3) 0.037(5) -0.006(3)
C2 0.087(6) 0.055(6) 0.059(4) 0.004(3) 0.034(4) -0.014(4)
C1 0.066(4) 0.042(3) 0.051(3) 0.001(4) 0.020(3) -0.003(5)
C3 0.068(5) 0.055(5) 0.061(5) -0.005(4) 0.023(4) -0.002(4)
C4 0.059(4) 0.054(4) 0.059(4) -0.005(4) 0.022(3) 0.003(5)
C5 0.078(5) 0.060(6) 0.069(5) -0.013(4) 0.037(5) 0.005(4)
C6 0.080(6) 0.091(7) 0.060(5) -0.015(5) 0.038(5) 0.002(5)
C7 0.082(7) 0.077(6) 0.059(5) 0.004(4) 0.038(5) 0.004(5)
C8 0.073(5) 0.055(4) 0.052(4) 0.005(3) 0.034(4) 0.004(4)
C9 0.051(4) 0.055(4) 0.041(4) -0.002(3) 0.016(3) 0.004(3)
B3 0.091(7) 0.064(8) 0.052(5) 0.018(4) 0.021(5) 0.005(5)
B7 0.088(7) 0.067(6) 0.047(5) 0.008(4) 0.027(5) -0.008(5)
B11 0.070(6) 0.077(6) 0.053(5) 0.006(4) 0.032(5) -0.006(5)
B6 0.055(6) 0.065(5) 0.056(5) 0.003(4) 0.021(5) -0.004(4)
B4 0.062(6) 0.054(5) 0.059(5) 0.005(4) 0.017(5) 0.006(4)
B5 0.061(5) 0.044(4) 0.047(4) 0.001(3) 0.022(4) 0.002(4)
B10 0.058(5) 0.062(5) 0.047(5) 0.005(4) 0.022(4) 0.004(4)
B12 0.071(6) 0.062(5) 0.046(4) -0.009(4) 0.029(5) 0.001(4)
B8 0.082(7) 0.055(5) 0.053(5) 0.004(4) 0.015(5) -0.001(5)
B9 0.064(6) 0.052(5) 0.050(5) 0.003(4) 0.021(4) -0.003(4)
loop_
_atom_type_symbol
_atom_type_description
_atom_type_scat_dispersion_real
_atom_type_scat_dispersion_imag
_atom_type_scat_source
C C 0.0150 0.0070 'International Tables Vol C Tables 4.2.6.8 and 6.1.1.4'
H H 0.0000 0.0000 'International Tables Vol C Tables 4.2.6.8 and 6.1.1.4'
B B 0.0070 0.0030 'International Tables Vol C Tables 4.2.6.8 and 6.1.1.4'
I I 0.0970 5.4980 'International Tables Vol C Tables 4.2.6.8 and 6.1.1.4'
O O 0.0410 0.0250 'International Tables Vol C Tables 4.2.6.8 and 6.1.1.4'
loop_
_geom_angle_atom_site_label_1
_geom_angle_atom_site_label_2
_geom_angle_atom_site_label_3
_geom_angle
C1 C2 H2 121.3
C1 C2 B3 61.3(5)
C1 C2 B7 111.0(7)
C1 C2 B11 111.1(7)
C1 C2 B6 61.8(5)
B3 C2 H2 117.0
B7 C2 H2 118.2
B7 C2 B3 62.9(7)
B7 C2 B6 115.2(7)
B11 C2 H2 118.2
B11 C2 B3 115.4(7)
B11 C2 B7 63.2(6)
B11 C2 B6 62.5(6)
B6 C2 H2 117.0
B6 C2 B3 115.4(7)
C2 C1 B3 62.1(6)
C2 C1 B6 61.8(5)
C2 C1 B4 112.4(6)
C2 C1 B5 112.6(7)
C3 C1 C2 125.8(8)
C3 C1 B3 127.4(8)
C3 C1 B6 109.1(7)
C3 C1 B4 118.3(6)
C3 C1 B5 106.8(6)
B3 C1 B6 116.1(7)
B3 C1 B5 116.3(7)
B4 C1 B3 63.6(6)
B4 C1 B6 115.3(8)
B4 C1 B5 62.6(6)
B5 C1 B6 63.4(6)
O1 C3 C1 124.6(9)
O1 C3 C4 127.5(9)
C4 C3 C1 107.8(8)
C5 C4 C3 124.8(10)
C5 C4 C9 120.7(9)
C9 C4 C3 114.3(7)
C4 C5 H5 120.1
C6 C5 C4 119.7(8)
C6 C5 H5 120.1
C5 C6 H6 119.7
C5 C6 C7 120.6(8)
C7 C6 H6 119.7
C6 C7 H7 119.5
C6 C7 C8 120.9(9)
C8 C7 H7 119.5
C7 C8 H8 120.4
C9 C8 C7 119.3(8)
C9 C8 H8 120.4
C4 C9 B5 110.3(7)
C8 C9 C4 118.8(7)
C8 C9 B5 131.0(7)
C2 B3 H3 125.2
C2 B3 B7 58.2(6)
C2 B3 B4 103.5(7)
C2 B3 B8 103.7(8)
C1 B3 C2 56.6(5)
C1 B3 H3 125.4
C1 B3 B7 103.6(8)
C1 B3 B4 58.0(5)
C1 B3 B8 103.4(7)
B7 B3 H3 122.5
B7 B3 B4 107.2(7)
B4 B3 H3 122.8
B8 B3 H3 123.5
B8 B3 B7 59.8(6)
B8 B3 B4 59.6(6)
C2 B7 B3 58.9(6)
C2 B7 H7A 125.3
C2 B7 B11 58.4(6)
C2 B7 B12 103.0(6)
C2 B7 B8 104.3(7)
B3 B7 H7A 121.5
B3 B7 B11 108.1(7)
B11 B7 H7A 121.5
B12 B7 B3 107.0(7)
B12 B7 H7A 123.5
B12 B7 B11 59.4(6)
B12 B7 B8 59.6(6)
B8 B7 B3 59.9(6)
B8 B7 H7A 122.5
B8 B7 B11 107.8(7)
C2 B11 B7 58.4(6)
C2 B11 H11 125.3
C2 B11 B6 59.1(5)
C2 B11 B10 104.4(6)
C2 B11 B12 103.2(7)
B7 B11 H11 121.2
B7 B11 B10 108.5(7)
B6 B11 B7 108.4(7)
B6 B11 H11 121.6
B6 B11 B10 59.5(5)
B10 B11 H11 122.2
B12 B11 B7 59.6(6)
B12 B11 H11 123.3
B12 B11 B6 107.1(7)
B12 B11 B10 60.2(6)
C2 B6 C1 56.4(5)
C2 B6 B11 58.4(6)
C2 B6 H6A 124.8
C2 B6 B5 104.0(7)
C2 B6 B10 105.2(7)
C1 B6 B11 103.5(7)
C1 B6 H6A 125.7
C1 B6 B5 58.0(5)
C1 B6 B10 103.8(7)
B11 B6 H6A 122.0
B11 B6 B5 108.1(7)
B11 B6 B10 61.1(6)
B5 B6 H6A 122.5
B10 B6 H6A 122.6
B10 B6 B5 59.7(5)
C1 B4 B3 58.4(5)
C1 B4 H4 125.4
C1 B4 B5 59.1(5)
C1 B4 B8 104.0(7)
C1 B4 B9 104.8(7)
B3 B4 H4 120.9
B5 B4 B3 109.1(7)
B5 B4 H4 120.7
B5 B4 B8 109.1(7)
B5 B4 B9 60.1(5)
B8 B4 B3 59.9(6)
B8 B4 H4 122.1
B8 B4 B9 61.3(5)
B9 B4 B3 109.4(7)
B9 B4 H4 121.5
C1 B5 B6 58.6(5)
C1 B5 B4 58.4(5)
C1 B5 B10 104.1(6)
C1 B5 B9 104.3(6)
C9 B5 C1 100.7(6)
C9 B5 B6 109.0(7)
C9 B5 B4 113.6(7)
C9 B5 B10 138.0(7)
C9 B5 B9 142.5(7)
B4 B5 B6 107.8(7)
B4 B5 B10 108.2(6)
B4 B5 B9 60.2(5)
B10 B5 B6 59.5(5)
B9 B5 B6 107.8(6)
B9 B5 B10 60.3(5)
B11 B10 H10 122.3
B6 B10 B11 59.5(6)
B6 B10 B5 60.8(5)
B6 B10 H10 121.9
B6 B10 B12 105.8(7)
B6 B10 B9 108.4(7)
B5 B10 B11 107.7(7)
B5 B10 H10 121.9
B5 B10 B12 106.2(7)
B5 B10 B9 59.7(5)
B12 B10 B11 58.6(6)
B12 B10 H10 123.6
B9 B10 B11 107.5(7)
B9 B10 H10 121.5
B9 B10 B12 59.6(5)
B7 B12 I1 120.3(6)
B7 B12 B10 110.5(7)
B7 B12 B9 110.7(7)
B11 B12 I1 118.6(6)
B11 B12 B7 61.0(6)
B11 B12 B10 61.2(6)
B11 B12 B9 110.0(6)
B10 B12 I1 119.3(6)
B8 B12 I1 122.4(6)
B8 B12 B7 60.6(6)
B8 B12 B11 109.9(7)
B8 B12 B10 110.0(6)
B8 B12 B9 61.6(5)
B9 B12 I1 121.3(6)
B9 B12 B10 60.1(5)
B3 B8 H8A 121.3
B3 B8 B9 108.5(7)
B7 B8 B3 60.3(6)
B7 B8 H8A 121.3
B7 B8 B9 108.4(8)
B4 B8 B3 60.6(6)
B4 B8 B7 108.3(7)
B4 B8 H8A 122.1
B4 B8 B9 59.4(5)
B12 B8 B3 107.5(8)
B12 B8 B7 59.8(6)
B12 B8 B4 106.5(7)
B12 B8 H8A 122.7
B12 B8 B9 59.7(6)
B9 B8 H8A 121.6
B4 B9 B10 107.6(7)
B4 B9 B8 59.3(6)
B4 B9 H9 122.7
B5 B9 B4 59.7(5)
B5 B9 B10 60.0(5)
B5 B9 B8 107.2(7)
B5 B9 H9 122.1
B10 B9 B8 107.8(7)
B10 B9 H9 121.3
B12 B9 B4 105.7(6)
B12 B9 B5 106.9(7)
B12 B9 B10 60.3(5)
B12 B9 B8 58.8(6)
B12 B9 H9 123.0
B8 B9 H9 122.3
loop_
_geom_bond_atom_site_label_1
_geom_bond_atom_site_label_2
_geom_bond_distance
I1 B12 2.189(9)
O1 C3 1.187(10)
C2 H2 1.1000
C2 C1 1.619(10)
C2 B3 1.714(16)
C2 B7 1.702(13)
C2 B11 1.702(14)
C2 B6 1.713(13)
C1 C3 1.524(12)
C1 B3 1.700(12)
C1 B6 1.714(13)
C1 B4 1.691(14)
C1 B5 1.704(14)
C3 C4 1.477(13)
C4 C5 1.383(11)
C4 C9 1.430(14)
C5 H5 0.9300
C5 C6 1.362(13)
C6 H6 0.9300
C6 C7 1.393(14)
C7 H7 0.9300
C7 C8 1.397(11)
C8 H8 0.9300
C8 C9 1.383(11)
C9 B5 1.590(11)
B3 H3 1.1000
B3 B7 1.782(16)
B3 B4 1.787(14)
B3 B8 1.775(15)
B7 H7A 1.1000
B7 B11 1.784(16)
B7 B12 1.759(14)
B7 B8 1.774(16)
B11 H11 1.1000
B11 B6 1.773(14)
B11 B10 1.802(13)
B11 B12 1.755(15)
B6 H6A 1.1000
B6 B5 1.795(13)
B6 B10 1.773(14)
B4 H4 1.1000
B4 B5 1.764(14)
B4 B8 1.770(14)
B4 B9 1.772(13)
B5 B10 1.776(12)
B5 B9 1.772(13)
B10 H10 1.1000
B10 B12 1.784(13)
B10 B9 1.782(15)
B12 B8 1.755(16)
B12 B9 1.772(12)
B8 H8A 1.1000
B8 B9 1.805(13)
B9 H9 1.1000
loop_
_geom_torsion_atom_site_label_1
_geom_torsion_atom_site_label_2
_geom_torsion_atom_site_label_3
_geom_torsion_atom_site_label_4
_geom_torsion
I1 B12 B8 B3 147.5(6)
I1 B12 B8 B7 109.2(7)
I1 B12 B8 B4 -148.9(6)
I1 B12 B8 B9 -110.9(7)
I1 B12 B9 B4 150.3(6)
I1 B12 B9 B5 -147.3(6)
I1 B12 B9 B10 -108.1(8)
I1 B12 B9 B8 112.6(8)
O1 C3 C4 C5 -3.0(16)
O1 C3 C4 C9 172.5(10)
C2 C1 C3 O1 -37.2(15)
C2 C1 C3 C4 139.2(8)
C2 C1 B3 B7 -36.0(7)
C2 C1 B3 B4 -138.0(8)
C2 C1 B3 B8 -97.7(8)
C2 C1 B6 B11 36.1(7)
C2 C1 B6 B5 139.2(7)
C2 C1 B6 B10 99.2(7)
C2 C1 B4 B3 39.8(7)
C2 C1 B4 B5 -104.8(8)
C2 C1 B4 B8 -0.7(9)
C2 C1 B4 B9 -64.2(9)
C2 C1 B5 C9 -144.4(7)
C2 C1 B5 B6 -38.6(7)
C2 C1 B5 B4 104.4(7)
C2 C1 B5 B10 1.4(8)
C2 C1 B5 B9 63.8(8)
C2 B3 B7 B11 -32.6(7)
C2 B3 B7 B12 -95.2(8)
C2 B3 B7 B8 -133.1(7)
C2 B3 B4 C1 -35.1(6)
C2 B3 B4 B5 -3.4(9)
C2 B3 B4 B8 98.2(8)
C2 B3 B4 B9 60.7(9)
C2 B3 B8 B7 39.7(6)
C2 B3 B8 B4 -97.8(7)
C2 B3 B8 B12 1.7(8)
C2 B3 B8 B9 -61.4(8)
C2 B7 B11 B6 -32.8(6)
C2 B7 B11 B10 -95.9(7)
C2 B7 B11 B12 -132.3(7)
C2 B7 B12 I1 148.4(7)
C2 B7 B12 B11 40.3(7)
C2 B7 B12 B10 3.0(10)
C2 B7 B12 B8 -99.0(8)
C2 B7 B12 B9 -61.8(9)
C2 B7 B8 B3 -40.2(7)
C2 B7 B8 B4 -1.9(9)
C2 B7 B8 B12 96.9(7)
C2 B7 B8 B9 61.1(9)
C2 B11 B6 C1 -35.2(7)
C2 B11 B6 B5 -95.6(8)
C2 B11 B6 B10 -133.7(7)
C2 B11 B10 B6 39.8(7)
C2 B11 B10 B5 1.3(9)
C2 B11 B10 B12 -97.2(8)
C2 B11 B10 B9 -61.6(9)
C2 B11 B12 I1 -151.1(6)
C2 B11 B12 B7 -40.4(6)
C2 B11 B12 B10 99.2(6)
C2 B11 B12 B8 -3.2(8)
C2 B11 B12 B9 62.8(8)
C2 B6 B5 C1 34.1(5)
C2 B6 B5 C9 125.2(7)
C2 B6 B5 B4 1.5(8)
C2 B6 B5 B10 -99.6(7)
C2 B6 B5 B9 -62.1(8)
C2 B6 B10 B11 -39.6(7)
C2 B6 B10 B5 97.6(7)
C2 B6 B10 B12 -2.4(8)
C2 B6 B10 B9 60.2(7)
C1 C2 B3 B7 137.8(7)
C1 C2 B3 B4 35.7(7)
C1 C2 B3 B8 97.2(7)
C1 C2 B7 B3 -39.2(7)
C1 C2 B7 B11 103.8(8)
C1 C2 B7 B12 63.0(9)
C1 C2 B7 B8 1.5(10)
C1 C2 B11 B7 -103.6(8)
C1 C2 B11 B6 39.5(7)
C1 C2 B11 B10 -0.5(10)
C1 C2 B11 B12 -62.7(8)
C1 C2 B6 B11 -137.7(8)
C1 C2 B6 B5 -34.8(6)
C1 C2 B6 B10 -96.7(7)
C1 C3 C4 C5 -179.3(8)
C1 C3 C4 C9 -3.8(10)
C1 B3 B7 C2 35.3(6)
C1 B3 B7 B11 2.6(10)
C1 B3 B7 B12 -60.0(9)
C1 B3 B7 B8 -97.8(8)
C1 B3 B4 B5 31.7(6)
C1 B3 B4 B8 133.2(8)
C1 B3 B4 B9 95.8(8)
C1 B3 B8 B7 98.1(8)
C1 B3 B8 B4 -39.4(7)
C1 B3 B8 B12 60.0(8)
C1 B3 B8 B9 -3.0(10)
C1 B6 B5 C9 91.1(7)
C1 B6 B5 B4 -32.6(6)
C1 B6 B5 B10 -133.7(6)
C1 B6 B5 B9 -96.2(7)
C1 B6 B10 B11 -98.0(7)
C1 B6 B10 B5 39.2(5)
C1 B6 B10 B12 -60.8(7)
C1 B6 B10 B9 1.8(8)
C1 B4 B5 C9 -88.2(7)
C1 B4 B5 B6 32.7(6)
C1 B4 B5 B10 95.6(7)
C1 B4 B5 B9 133.5(6)
C1 B4 B8 B3 39.8(7)
C1 B4 B8 B7 1.6(9)
C1 B4 B8 B12 -61.3(8)
C1 B4 B8 B9 -99.4(7)
C1 B4 B9 B5 -40.1(6)
C1 B4 B9 B10 -2.6(8)
C1 B4 B9 B12 60.6(8)
C1 B4 B9 B8 98.1(7)
C1 B5 B10 B11 -1.7(8)
C1 B5 B10 B6 -39.5(6)
C1 B5 B10 B12 59.9(8)
C1 B5 B10 B9 98.6(6)
C1 B5 B9 B4 39.6(6)
C1 B5 B9 B10 -98.3(6)
C1 B5 B9 B12 -59.0(8)
C1 B5 B9 B8 2.7(8)
C3 C1 B3 C2 -115.3(10)
C3 C1 B3 B7 -151.4(8)
C3 C1 B3 B4 106.7(9)
C3 C1 B3 B8 146.9(8)
C3 C1 B6 C2 121.1(8)
C3 C1 B6 B11 157.2(7)
C3 C1 B6 B5 -99.7(7)
C3 C1 B6 B10 -139.7(7)
C3 C1 B4 B3 -120.2(10)
C3 C1 B4 B5 95.2(8)
C3 C1 B4 B8 -160.7(8)
C3 C1 B4 B9 135.8(8)
C3 C1 B5 C9 -2.4(8)
C3 C1 B5 B6 103.4(7)
C3 C1 B5 B4 -113.7(7)
C3 C1 B5 B10 143.4(6)
C3 C1 B5 B9 -154.2(6)
C3 C4 C5 C6 176.0(9)
C3 C4 C9 C8 -177.8(8)
C3 C4 C9 B5 2.1(10)
C4 C5 C6 C7 0.3(16)
C4 C9 B5 C1 0.3(8)
C4 C9 B5 B6 -59.9(9)
C4 C9 B5 B4 60.3(9)
C4 C9 B5 B10 -125.1(10)
C4 C9 B5 B9 131.5(11)
C5 C4 C9 C8 -2.1(12)
C5 C4 C9 B5 177.8(8)
C5 C6 C7 C8 0.0(16)
C6 C7 C8 C9 -1.3(15)
C7 C8 C9 C4 2.3(13)
C7 C8 C9 B5 -177.6(9)
C8 C9 B5 C1 -179.8(8)
C8 C9 B5 B6 119.9(9)
C8 C9 B5 B4 -119.8(10)
C8 C9 B5 B10 54.7(15)
C8 C9 B5 B9 -48.6(17)
C9 C4 C5 C6 0.8(14)
C9 B5 B10 B11 122.7(10)
C9 B5 B10 B6 84.9(11)
C9 B5 B10 B12 -175.7(9)
C9 B5 B10 B9 -137.0(11)
C9 B5 B9 B4 -90.7(12)
C9 B5 B9 B10 131.5(12)
C9 B5 B9 B12 170.7(10)
C9 B5 B9 B8 -127.5(11)
B3 C2 C1 C3 117.8(10)
B3 C2 C1 B6 -148.1(8)
B3 C2 C1 B4 -40.4(7)
B3 C2 C1 B5 -108.8(8)
B3 C2 B7 B11 143.0(7)
B3 C2 B7 B12 102.2(8)
B3 C2 B7 B8 40.7(7)
B3 C2 B11 B7 -36.4(7)
B3 C2 B11 B6 106.8(7)
B3 C2 B11 B10 66.7(9)
B3 C2 B11 B12 4.6(9)
B3 C2 B6 C1 30.9(7)
B3 C2 B6 B11 -106.8(8)
B3 C2 B6 B5 -3.9(9)
B3 C2 B6 B10 -65.8(9)
B3 C1 C3 O1 42.8(14)
B3 C1 C3 C4 -140.8(9)
B3 C1 B6 C2 -31.4(7)
B3 C1 B6 B11 4.8(10)
B3 C1 B6 B5 107.8(9)
B3 C1 B6 B10 67.8(9)
B3 C1 B4 B5 -144.6(7)
B3 C1 B4 B8 -40.5(7)
B3 C1 B4 B9 -104.0(7)
B3 C1 B5 C9 146.6(7)
B3 C1 B5 B6 -107.6(8)
B3 C1 B5 B4 35.4(7)
B3 C1 B5 B10 -67.6(8)
B3 C1 B5 B9 -5.2(9)
B3 B7 B11 C2 32.8(7)
B3 B7 B11 B6 0.0(10)
B3 B7 B11 B10 -63.0(9)
B3 B7 B11 B12 -99.4(8)
B3 B7 B12 I1 -150.5(7)
B3 B7 B12 B11 101.4(8)
B3 B7 B12 B10 64.0(10)
B3 B7 B12 B8 -38.0(7)
B3 B7 B12 B9 -0.7(10)
B3 B7 B8 B4 38.3(7)
B3 B7 B8 B12 137.1(7)
B3 B7 B8 B9 101.3(8)
B3 B4 B5 C1 -31.5(6)
B3 B4 B5 C9 -119.7(7)
B3 B4 B5 B6 1.2(9)
B3 B4 B5 B10 64.1(8)
B3 B4 B5 B9 102.0(7)
B3 B4 B8 B7 -38.2(7)
B3 B4 B8 B12 -101.1(8)
B3 B4 B8 B9 -139.2(8)
B3 B4 B9 B5 -101.4(8)
B3 B4 B9 B10 -63.8(8)
B3 B4 B9 B12 -0.7(9)
B3 B4 B9 B8 36.8(7)
B3 B8 B9 B4 -36.9(7)
B3 B8 B9 B5 0.2(10)
B3 B8 B9 B10 63.4(9)
B3 B8 B9 B12 99.9(8)
B7 C2 C1 C3 157.7(8)
B7 C2 C1 B3 39.9(8)
B7 C2 C1 B6 -108.2(8)
B7 C2 C1 B4 -0.5(10)
B7 C2 C1 B5 -69.0(9)
B7 C2 B3 C1 -137.8(7)
B7 C2 B3 B4 -102.0(7)
B7 C2 B3 B8 -40.5(6)
B7 C2 B11 B6 143.2(7)
B7 C2 B11 B10 103.1(8)
B7 C2 B11 B12 41.0(6)
B7 C2 B6 C1 101.4(9)
B7 C2 B6 B11 -36.3(8)
B7 C2 B6 B5 66.6(9)
B7 C2 B6 B10 4.7(10)
B7 B3 B4 C1 -95.6(8)
B7 B3 B4 B5 -63.9(9)
B7 B3 B4 B8 37.7(8)
B7 B3 B4 B9 0.2(10)
B7 B3 B8 B4 -137.5(8)
B7 B3 B8 B12 -38.1(6)
B7 B3 B8 B9 -101.1(8)
B7 B11 B6 C2 32.6(7)
B7 B11 B6 C1 -2.7(9)
B7 B11 B6 B5 -63.1(9)
B7 B11 B6 B10 -101.1(8)
B7 B11 B10 B6 100.8(8)
B7 B11 B10 B5 62.4(9)
B7 B11 B10 B12 -36.1(7)
B7 B11 B10 B9 -0.6(9)
B7 B11 B12 I1 -110.8(7)
B7 B11 B12 B10 139.6(7)
B7 B11 B12 B8 37.2(7)
B7 B11 B12 B9 103.2(8)
B7 B12 B8 B3 38.3(6)
B7 B12 B8 B4 101.9(7)
B7 B12 B8 B9 139.9(7)
B7 B12 B9 B4 0.9(10)
B7 B12 B9 B5 63.3(9)
B7 B12 B9 B10 102.4(8)
B7 B12 B9 B8 -36.9(7)
B7 B8 B9 B4 -100.8(8)
B7 B8 B9 B5 -63.8(9)
B7 B8 B9 B10 -0.6(9)
B7 B8 B9 B12 35.9(7)
B11 C2 C1 C3 -134.0(9)
B11 C2 C1 B3 108.2(8)
B11 C2 C1 B6 -39.8(7)
B11 C2 C1 B4 67.8(10)
B11 C2 C1 B5 -0.6(10)
B11 C2 B3 C1 -101.2(8)
B11 C2 B3 B7 36.5(7)
B11 C2 B3 B4 -65.5(9)
B11 C2 B3 B8 -4.0(9)
B11 C2 B7 B3 -143.0(7)
B11 C2 B7 B12 -40.8(7)
B11 C2 B7 B8 -102.3(7)
B11 C2 B6 C1 137.7(8)
B11 C2 B6 B5 102.9(8)
B11 C2 B6 B10 41.0(7)
B11 B7 B12 I1 108.1(7)
B11 B7 B12 B10 -37.4(7)
B11 B7 B12 B8 -139.3(7)
B11 B7 B12 B9 -102.1(7)
B11 B7 B8 B3 -101.1(8)
B11 B7 B8 B4 -62.8(9)
B11 B7 B8 B12 36.1(7)
B11 B7 B8 B9 0.2(9)
B11 B6 B5 C1 95.0(7)
B11 B6 B5 C9 -173.9(7)
B11 B6 B5 B4 62.3(8)
B11 B6 B5 B10 -38.7(7)
B11 B6 B5 B9 -1.2(9)
B11 B6 B10 B5 137.2(8)
B11 B6 B10 B12 37.3(7)
B11 B6 B10 B9 99.8(7)
B11 B10 B12 I1 -108.6(7)
B11 B10 B12 B7 37.3(7)
B11 B10 B12 B8 102.4(8)
B11 B10 B12 B9 140.0(7)
B11 B10 B9 B4 63.3(8)
B11 B10 B9 B5 100.7(7)
B11 B10 B9 B12 -35.1(6)
B11 B10 B9 B8 0.7(9)
B11 B12 B8 B3 1.0(9)
B11 B12 B8 B7 -37.3(7)
B11 B12 B8 B4 64.6(8)
B11 B12 B8 B9 102.6(7)
B11 B12 B9 B4 -64.7(9)
B11 B12 B9 B5 -2.3(9)
B11 B12 B9 B10 36.8(7)
B11 B12 B9 B8 -102.5(8)
B6 C2 C1 C3 -94.1(9)
B6 C2 C1 B3 148.1(8)
B6 C2 C1 B4 107.7(9)
B6 C2 C1 B5 39.2(7)
B6 C2 B3 C1 -31.1(8)
B6 C2 B3 B7 106.7(8)
B6 C2 B3 B4 4.6(10)
B6 C2 B3 B8 66.1(9)
B6 C2 B7 B3 -107.0(8)
B6 C2 B7 B11 36.0(7)
B6 C2 B7 B12 -4.8(10)
B6 C2 B7 B8 -66.3(10)
B6 C2 B11 B7 -143.2(7)
B6 C2 B11 B10 -40.0(7)
B6 C2 B11 B12 -102.2(7)
B6 C1 C3 O1 -105.7(11)
B6 C1 C3 C4 70.7(8)
B6 C1 B3 C2 31.3(7)
B6 C1 B3 B7 -4.7(11)
B6 C1 B3 B4 -106.7(9)
B6 C1 B3 B8 -66.5(10)
B6 C1 B4 B3 108.0(7)
B6 C1 B4 B5 -36.6(6)
B6 C1 B4 B8 67.5(8)
B6 C1 B4 B9 4.1(8)
B6 C1 B5 C9 -105.8(7)
B6 C1 B5 B4 142.9(7)
B6 C1 B5 B10 40.0(6)
B6 C1 B5 B9 102.4(7)
B6 B11 B10 B5 -38.5(7)
B6 B11 B10 B12 -137.0(8)
B6 B11 B10 B9 -101.4(7)
B6 B11 B12 I1 147.6(6)
B6 B11 B12 B7 -101.6(8)
B6 B11 B12 B10 37.9(7)
B6 B11 B12 B8 -64.5(9)
B6 B11 B12 B9 1.5(10)
B6 B5 B10 B11 37.9(7)
B6 B5 B10 B12 99.4(7)
B6 B5 B10 B9 138.1(7)
B6 B5 B9 B4 100.7(7)
B6 B5 B9 B10 -37.2(6)
B6 B5 B9 B12 2.1(9)
B6 B5 B9 B8 63.8(8)
B6 B10 B12 I1 -146.2(6)
B6 B10 B12 B7 -0.4(9)
B6 B10 B12 B11 -37.7(7)
B6 B10 B12 B8 64.7(8)
B6 B10 B12 B9 102.3(7)
B6 B10 B9 B4 0.5(8)
B6 B10 B9 B5 37.9(6)
B6 B10 B9 B12 -97.9(7)
B6 B10 B9 B8 -62.1(8)
B4 C1 C3 O1 119.9(11)
B4 C1 C3 C4 -63.7(10)
B4 C1 B3 C2 138.0(8)
B4 C1 B3 B7 102.0(8)
B4 C1 B3 B8 40.2(7)
B4 C1 B6 C2 -103.0(7)
B4 C1 B6 B11 -66.8(8)
B4 C1 B6 B5 36.3(7)
B4 C1 B6 B10 -3.7(8)
B4 C1 B5 C9 111.2(7)
B4 C1 B5 B6 -142.9(7)
B4 C1 B5 B10 -102.9(7)
B4 C1 B5 B9 -40.5(6)
B4 B3 B7 C2 95.5(7)
B4 B3 B7 B11 62.9(9)
B4 B3 B7 B12 0.3(10)
B4 B3 B7 B8 -37.6(7)
B4 B3 B8 B7 137.5(8)
B4 B3 B8 B12 99.5(8)
B4 B3 B8 B9 36.4(7)
B4 B5 B10 B11 -62.5(8)
B4 B5 B10 B6 -100.4(7)
B4 B5 B10 B12 -1.0(9)
B4 B5 B10 B9 37.8(6)
B4 B5 B9 B10 -137.9(7)
B4 B5 B9 B12 -98.6(7)
B4 B5 B9 B8 -36.9(7)
B4 B8 B9 B5 37.1(7)
B4 B8 B9 B10 100.3(7)
B4 B8 B9 B12 136.8(8)
B5 C1 C3 O1 -172.7(9)
B5 C1 C3 C4 3.7(9)
B5 C1 B3 C2 103.0(7)
B5 C1 B3 B7 67.0(9)
B5 C1 B3 B4 -35.0(7)
B5 C1 B3 B8 5.2(10)
B5 C1 B6 C2 -139.2(7)
B5 C1 B6 B11 -103.1(7)
B5 C1 B6 B10 -40.0(5)
B5 C1 B4 B3 144.6(7)
B5 C1 B4 B8 104.1(7)
B5 C1 B4 B9 40.6(6)
B5 B6 B10 B11 -137.2(8)
B5 B6 B10 B12 -100.0(7)
B5 B6 B10 B9 -37.4(6)
B5 B4 B8 B3 101.5(8)
B5 B4 B8 B7 63.3(8)
B5 B4 B8 B12 0.3(9)
B5 B4 B8 B9 -37.7(6)
B5 B4 B9 B10 37.5(6)
B5 B4 B9 B12 100.7(7)
B5 B4 B9 B8 138.2(7)
B5 B10 B12 I1 150.3(6)
B5 B10 B12 B7 -63.9(9)
B5 B10 B12 B11 -101.2(7)
B5 B10 B12 B8 1.2(9)
B5 B10 B12 B9 38.8(6)
B5 B10 B9 B4 -37.4(6)
B5 B10 B9 B12 -135.8(7)
B5 B10 B9 B8 -100.0(7)
B10 B11 B6 C2 133.7(7)
B10 B11 B6 C1 98.5(7)
B10 B11 B6 B5 38.1(7)
B10 B11 B12 I1 109.7(7)
B10 B11 B12 B7 -139.6(7)
B10 B11 B12 B8 -102.4(7)
B10 B11 B12 B9 -36.4(7)
B10 B6 B5 C1 133.7(6)
B10 B6 B5 C9 -135.2(7)
B10 B6 B5 B4 101.1(7)
B10 B6 B5 B9 37.5(6)
B10 B5 B9 B4 137.9(7)
B10 B5 B9 B12 39.3(6)
B10 B5 B9 B8 101.0(7)
B10 B12 B8 B3 -64.6(9)
B10 B12 B8 B7 -102.9(8)
B10 B12 B8 B4 -1.0(9)
B10 B12 B8 B9 37.0(7)
B10 B12 B9 B4 -101.6(7)
B10 B12 B9 B5 -39.1(6)
B10 B12 B9 B8 -139.3(7)
B12 B7 B11 C2 132.3(7)
B12 B7 B11 B6 99.4(7)
B12 B7 B11 B10 36.4(6)
B12 B7 B8 B3 -137.1(7)
B12 B7 B8 B4 -98.8(8)
B12 B7 B8 B9 -35.9(6)
B12 B11 B6 C2 95.4(8)
B12 B11 B6 C1 60.2(9)
B12 B11 B6 B5 -0.2(10)
B12 B11 B6 B10 -38.3(7)
B12 B11 B10 B6 137.0(8)
B12 B11 B10 B5 98.5(7)
B12 B11 B10 B9 35.5(6)
B12 B10 B9 B4 98.4(7)
B12 B10 B9 B5 135.8(7)
B12 B10 B9 B8 35.8(6)
B12 B8 B9 B4 -136.8(8)
B12 B8 B9 B5 -99.7(7)
B12 B8 B9 B10 -36.5(6)
B8 B3 B7 C2 133.1(7)
B8 B3 B7 B11 100.4(8)
B8 B3 B7 B12 37.8(7)
B8 B3 B4 C1 -133.2(8)
B8 B3 B4 B5 -101.5(8)
B8 B3 B4 B9 -37.4(7)
B8 B7 B11 C2 96.1(8)
B8 B7 B11 B6 63.3(9)
B8 B7 B11 B10 0.3(10)
B8 B7 B11 B12 -36.1(6)
B8 B7 B12 I1 -112.5(8)
B8 B7 B12 B11 139.3(7)
B8 B7 B12 B10 102.0(7)
B8 B7 B12 B9 37.3(7)
B8 B4 B5 C1 -95.2(7)
B8 B4 B5 C9 176.6(7)
B8 B4 B5 B6 -62.5(8)
B8 B4 B5 B10 0.4(9)
B8 B4 B5 B9 38.2(6)
B8 B4 B9 B5 -138.2(7)
B8 B4 B9 B10 -100.7(7)
B8 B4 B9 B12 -37.5(7)
B8 B12 B9 B4 37.7(7)
B8 B12 B9 B5 100.2(7)
B8 B12 B9 B10 139.3(7)
B9 B4 B5 C1 -133.5(6)
B9 B4 B5 C9 138.3(8)
B9 B4 B5 B6 -100.8(7)
B9 B4 B5 B10 -37.8(6)
B9 B4 B8 B3 139.2(8)
B9 B4 B8 B7 101.0(8)
B9 B4 B8 B12 38.1(7)
B9 B5 B10 B11 -100.3(7)
B9 B5 B10 B6 -138.1(7)
B9 B5 B10 B12 -38.8(6)
B9 B10 B12 I1 111.4(7)
B9 B10 B12 B7 -102.7(8)
B9 B10 B12 B11 -140.0(7)
B9 B10 B12 B8 -37.6(7)
B9 B12 B8 B3 -101.6(7)
B9 B12 B8 B7 -139.9(7)
B9 B12 B8 B4 -38.0(6)
