#------------------------------------------------------------------------------
#$Date: 2019-11-26 00:03:41 +0200 (Tue, 26 Nov 2019) $
#$Revision: 242123 $
#$URL: file:///home/coder/svn-repositories/cod/cif/4/13/20/4132081.cif $
#------------------------------------------------------------------------------
#
# This file is available in the Crystallography Open Database (COD),
# http://www.crystallography.net/
#
# All data on this site have been placed in the public domain by the
# contributors.
#
data_4132081
loop_
_publ_author_name
'Purdum, Geoffrey E.'
'Telesz, Nicholas G.'
'Jarolimek, Karol'
'Ryno, Sean M.'
'Gessner, Thomas'
'Davy, Nicholas C.'
'Petty, 2nd, Anthony J'
'Zhen, Yonggang'
'Shu, Ying'
'Facchetti, Antonio'
'Collis, Gavin E.'
'Hu, Wenping'
'Wu, Chao'
'Anthony, John E.'
'Weitz, R. Thomas'
'Risko, Chad'
'Loo, Yueh-Lin'
_publ_section_title
;
 Presence of Short Intermolecular Contacts Screens for Kinetic Stability
 in Packing Polymorphs.
;
_journal_issue                   24
_journal_name_full               'Journal of the American Chemical Society'
_journal_page_first              7519
_journal_page_last               7525
_journal_paper_doi               10.1021/jacs.8b01421
_journal_volume                  140
_journal_year                    2018
_chemical_formula_sum            'C24 H24 Cl2 N2 O4'
_chemical_formula_weight         475.35
_chemical_name_common            GEP1
_space_group_crystal_system      triclinic
_space_group_IT_number           2
_space_group_name_Hall           '-P 1'
_space_group_name_H-M_alt        'P -1'
_atom_sites_solution_hydrogens   geom
_audit_creation_method           SHELXL-2014
_cell_angle_alpha                79.390(19)
_cell_angle_beta                 83.33(3)
_cell_angle_gamma                88.51(2)
_cell_formula_units_Z            1
_cell_length_a                   4.641(2)
_cell_length_b                   8.2418(17)
_cell_length_c                   14.425(4)
_cell_measurement_reflns_used    5858
_cell_measurement_temperature    100(2)
_cell_measurement_theta_max      72.1850
_cell_measurement_theta_min      3.1345
_cell_volume                     538.6(3)
_computing_cell_refinement       'SAINT V8.34A (Bruker AXS Inc., 2013)'
_computing_data_collection       'Bruker Instrument Service (Bruker AXS Inc.)'
_computing_data_reduction        'SAINT V8.34A (Bruker AXS Inc., 2013)'
_computing_structure_refinement  'SHELXL-2014 (Sheldrick, 2014)'
_computing_structure_solution    'SHELXL-2014 (Sheldrick, 2014)'
_diffrn_ambient_temperature      100(2)
_diffrn_detector_area_resol_mean 10.4167
_diffrn_measured_fraction_theta_full 0.964
_diffrn_measured_fraction_theta_max 0.964
_diffrn_measurement_device_type  'Bruker Photon 100 CMOS'
_diffrn_radiation_type           CuK\a
_diffrn_radiation_wavelength     1.54178
_diffrn_reflns_av_R_equivalents  0.0371
_diffrn_reflns_av_unetI/netI     0.0354
_diffrn_reflns_Laue_measured_fraction_full 0.964
_diffrn_reflns_Laue_measured_fraction_max 0.964
_diffrn_reflns_limit_h_max       5
_diffrn_reflns_limit_h_min       -5
_diffrn_reflns_limit_k_max       9
_diffrn_reflns_limit_k_min       -9
_diffrn_reflns_limit_l_max       17
_diffrn_reflns_limit_l_min       -17
_diffrn_reflns_number            6581
_diffrn_reflns_point_group_measured_fraction_full 0.964
_diffrn_reflns_point_group_measured_fraction_max 0.964
_diffrn_reflns_theta_full        67.679
_diffrn_reflns_theta_max         66.593
_diffrn_reflns_theta_min         3.137
_diffrn_source                   'ImuS micro--focus source'
_exptl_absorpt_coefficient_mu    3.010
_exptl_absorpt_correction_T_max  0.7536
_exptl_absorpt_correction_T_min  0.4576
_exptl_absorpt_correction_type   multi-scan
_exptl_absorpt_process_details   'SADABS V2014/5 (Bruker AXS Inc.)'
_exptl_crystal_density_diffrn    1.465
_exptl_crystal_density_method    'not measured'
_exptl_crystal_description       rod
_exptl_crystal_F_000             248
_exptl_crystal_size_max          0.385
_exptl_crystal_size_mid          0.112
_exptl_crystal_size_min          0.077
_refine_diff_density_max         0.409
_refine_diff_density_min         -0.301
_refine_diff_density_rms         0.065
_refine_ls_extinction_method     none
_refine_ls_goodness_of_fit_ref   1.066
_refine_ls_hydrogen_treatment    constr
_refine_ls_matrix_type           full
_refine_ls_number_parameters     146
_refine_ls_number_reflns         1848
_refine_ls_number_restraints     0
_refine_ls_restrained_S_all      1.066
_refine_ls_R_factor_all          0.0354
_refine_ls_R_factor_gt           0.0346
_refine_ls_shift/su_max          0.001
_refine_ls_shift/su_mean         0.000
_refine_ls_structure_factor_coef Fsqd
_refine_ls_weighting_details
'w=1/[\s^2^(Fo^2^)+(0.0526P)^2^+0.2766P] where P=(Fo^2^+2Fc^2^)/3'
_refine_ls_weighting_scheme      calc
_refine_ls_wR_factor_gt          0.0930
_refine_ls_wR_factor_ref         0.0936
_reflns_Friedel_coverage         0.000
_reflns_number_gt                1790
_reflns_number_total             1848
_reflns_threshold_expression     'I > 2\s(I)'
_cod_data_source_file            ja8b01421_si_002.cif
_cod_data_source_block           cu_PDJGEP_0m
_cod_original_cell_volume        538.7(3)
_cod_database_code               4132081
_shelx_space_group_comment
;
The symmetry employed for this shelxl refinement is uniquely defined
by the following loop, which should always be used as a source of
symmetry information in preference to the above space-group names.
They are only intended as comments.
;
_shelxl_version_number           2014-3
_shelx_res_file
;

TITL cu_PDJGEP_0m in P-1
CELL 1.54178   4.64110   8.24180  14.42530  79.3898  83.3294  88.5077
ZERR    1.00   0.00230   0.00170   0.00380   0.0192   0.0277   0.0206
LATT  1
SFAC C H O CL N
UNIT 24 24 4 2 2
TEMP -173.150
L.S. 10
ACTA
BOND $H
LIST 6
FMAP 2
PLAN 20
WGHT    0.052600    0.276600
FVAR       0.30116
CL1   4   -0.195400    0.095109    0.699971    11.00000    0.02164    0.01351 =
         0.01544   -0.00328    0.00365   -0.00230
N1    5    0.694894    0.373428    0.343958    11.00000    0.01975    0.01002 =
         0.01305   -0.00149   -0.00143   -0.00463
O1    3    0.312298    0.500908    0.414106    11.00000    0.02209    0.01129 =
         0.01849   -0.00204   -0.00071   -0.00111
C1    1    0.220961   -0.074701    0.603632    11.00000    0.01501    0.01246 =
         0.01198   -0.00307   -0.00381   -0.00543
O2    3    1.091542    0.251059    0.280516    11.00000    0.02119    0.01410 =
         0.01819   -0.00248    0.00235   -0.00509
C2    1    0.081717    0.073432    0.612333    11.00000    0.01521    0.01524 =
         0.01146   -0.00438   -0.00178   -0.00475
C3    1    0.163887    0.220293    0.548647    11.00000    0.01687    0.01101 =
         0.01427   -0.00395   -0.00394   -0.00285
AFIX  43
H3    2    0.062939    0.320228    0.554720    11.00000   -1.20000
AFIX   0
C4    1    0.543979    0.073716    0.468492    11.00000    0.01493    0.01314 =
         0.01221   -0.00435   -0.00512   -0.00511
C5    1    0.387803    0.219834    0.478234    11.00000    0.01652    0.01144 =
         0.01292   -0.00330   -0.00488   -0.00485
C6    1    0.457161    0.376481    0.410690    11.00000    0.01643    0.01267 =
         0.01266   -0.00331   -0.00391   -0.00469
C7    1    0.872236    0.235822    0.335186    11.00000    0.01736    0.01229 =
         0.01193   -0.00345   -0.00313   -0.00527
C8    1    0.774904    0.528231    0.276938    11.00000    0.02119    0.00970 =
         0.01549    0.00008    0.00007   -0.00604
AFIX  23
H8A   2    0.987400    0.543574    0.271763    11.00000   -1.20000
H8B   2    0.680192    0.622477    0.302313    11.00000   -1.20000
AFIX   0
C9    1    0.685963    0.528324    0.178446    11.00000    0.02365    0.01467 =
         0.01579   -0.00147   -0.00170   -0.00553
AFIX  23
H9A   2    0.779186    0.433906    0.152861    11.00000   -1.20000
H9B   2    0.473115    0.514982    0.183038    11.00000   -1.20000
AFIX   0
C10   1    0.775049    0.688740    0.111247    11.00000    0.03080    0.01593 =
         0.01566    0.00064   -0.00136   -0.00529
AFIX  23
H10A  2    0.987160    0.702927    0.108693    11.00000   -1.20000
H10B  2    0.678569    0.782323    0.136835    11.00000   -1.20000
AFIX   0
C11   1    0.697746    0.694087    0.010891    11.00000    0.03674    0.02239 =
         0.01628   -0.00038   -0.00224   -0.00346
AFIX  23
H11A  2    0.782002    0.595704   -0.012678    11.00000   -1.20000
H11B  2    0.484256    0.687909    0.013081    11.00000   -1.20000
AFIX   0
C12   1    0.803879    0.847485   -0.058654    11.00000    0.06178    0.02692 =
         0.01610    0.00371   -0.00034   -0.00213
AFIX 137
H12A  2    1.016082    0.851749   -0.063907    11.00000   -1.50000
H12B  2    0.721659    0.945719   -0.035990    11.00000   -1.50000
H12C  2    0.742508    0.844154   -0.121024    11.00000   -1.50000
REM #####
REM #####
REM #####
AFIX   0
HKLF 4

REM  cu_PDJGEP_0m in P-1
REM R1 =  0.0346 for    1790 Fo > 4sig(Fo)  and  0.0354 for all    1848 data
REM    146 parameters refined using      0 restraints

END

WGHT      0.0522      0.2873

REM Highest difference peak  0.409,  deepest hole -0.301,  1-sigma level  0.065
Q1    1  -0.0507  0.1523  0.7187  11.00000  0.05    0.41
Q2    1  -0.3453  0.0418  0.6788  11.00000  0.05    0.40
Q3    1   0.1718 -0.0115  0.6164  11.00000  0.05    0.31
Q4    1   0.4642  0.1553  0.4746  11.00000  0.05    0.31
Q5    1   0.7238  0.6962  0.0588  11.00000  0.05    0.31
Q6    1   0.7571  0.5347  0.2228  11.00000  0.05    0.30
Q7    1  -0.1272  0.0591  0.7621  11.00000  0.05    0.27
Q8    1   0.7514  0.3303  0.3399  11.00000  0.05    0.27
Q9    1  -0.2720  0.1457  0.6350  11.00000  0.05    0.25
Q10   1   1.0444  0.2365  0.2624  11.00000  0.05    0.22
Q11   1   0.2136  0.4928  0.4006  11.00000  0.05    0.19
Q12   1   0.0070  0.3279  0.5365  11.00000  0.05    0.18
Q13   1   0.1915  0.1689  0.5876  11.00000  0.05    0.18
Q14   1   1.2528  0.3140  0.2971  11.00000  0.05    0.17
Q15   1   0.5973  0.6491 -0.0083  11.00000  0.05    0.17
Q16   1   0.9503  0.5579  0.3013  11.00000  0.05    0.17
Q17   1   0.7627  0.7754 -0.0201  11.00000  0.05    0.17
Q18   1   0.8919  0.7516  0.1232  11.00000  0.05    0.17
Q19   1   0.7318  0.5964  0.1433  11.00000  0.05    0.15
Q20   1  -0.0465  0.2245  0.6432  11.00000  0.05    0.15
;
_shelx_res_checksum              17689
_shelx_hkl_file
;
  -1   0   0    8.34    0.48
  -1   0   0    7.99    0.45
  -2   0   0  185.65    9.96
  -2   0   0  201.06   10.03
   4   0   0    0.95    0.11
   4   0   0    0.79    0.14
   4   0   0    0.85    0.12
   5   0   0    0.40    0.08
   5  -1   0   15.84    0.85
   5  -1   0   16.33    0.84
   4  -1   0    1.25    0.11
   4  -1   0    1.27    0.12
   4  -1   0    1.09    0.13
   4  -1   0    1.21    0.12
   3  -1   0   21.11    1.11
  -2   1   0    2.08    0.21
   1  -1   0  221.91   11.21
  -1   1   0  226.12   11.25
  -1   1   0  205.86   11.21
   0  -1   0    0.16    0.03
   0   1   0    0.11    0.03
  -1  -1   0    3.52    0.21
  -2  -1   0    4.28    0.36
  -2  -1   0    4.54    0.38
   4   1   0    4.93    0.30
   4   1   0    5.21    0.31
   4   1   0    6.14    0.31
   4   1   0    5.21    0.30
   5   1   0    7.58    0.42
   5  -2   0    1.19    0.11
   5  -2   0    1.32    0.10
   5  -2   0    1.26    0.11
  -5   2   0    0.77    0.21
   4  -2   0   71.55    3.72
   4  -2   0   72.54    3.72
   4  -2   0   72.53    3.72
   4  -2   0   73.79    3.72
  -4   2   0   69.96    3.72
   3  -2   0   14.69    0.77
   3  -2   0   14.01    0.81
   3  -2   0   14.73    0.78
   3  -2   0   15.00    0.77
   2  -2   0   36.99    1.99
  -2   2   0   37.62    1.98
   1  -2   0  162.05    8.30
  -1   2   0  168.83    8.30
  -1   2   0  152.07    8.26
   0  -2   0    0.37    0.06
   0  -2   0    0.43    0.03
   0   2   0    0.42    0.06
   0   2   0    0.28    0.07
  -1  -2   0    5.45    0.32
   3   2   0    2.08    0.14
   3   2   0    1.84    0.14
   4   2   0    4.10    0.23
   4   2   0    3.63    0.23
   4   2   0    4.25    0.23
   4   2   0    3.49    0.22
   5  -3   0    0.54    0.08
   5  -3   0    0.42    0.07
   5  -3   0    0.45    0.06
   4  -3   0   23.28    1.21
   4  -3   0   21.97    1.20
   4  -3   0   22.85    1.19
   4  -3   0   22.85    1.19
   4  -3   0   23.00    1.19
  -4   3   0   22.56    1.19
   3  -3   0    6.68    0.39
   3  -3   0    6.96    0.39
   3  -3   0    7.31    0.39
   3  -3   0    7.26    0.39
  -3   3   0    7.05    0.38
   2  -3   0    2.95    0.19
   2  -3   0    2.92    0.19
   2  -3   0    2.79    0.19
  -2   3   0    2.97    0.90
  -2   3   0    2.88    0.16
  -1   3   0  177.56    9.23
  -1   3   0  173.06    9.18
  -1   3   0  185.64    9.24
   0  -3   0   34.00    1.78
   0  -3   0   32.92    1.73
   0   3   0   32.71    1.78
   0   3   0   35.15    1.74
  -1  -3   0   95.35    4.88
  -1  -3   0   99.90    4.84
   1   3   0   87.33    4.89
  -2  -3   0   30.58    1.67
  -2  -3   0   31.86    1.73
   2   3   0   35.78    1.68
   2   3   0   30.80    1.67
   3   3   0    3.75    0.23
   3   3   0    3.59    0.30
   3   3   0    4.21    0.24
  -4  -3   0    7.20    0.43
   4   3   0    7.88    0.42
   4   3   0    8.07    0.43
   4   3   0    8.23    0.43
   5   3   0    1.67    0.13
   4  -4   0    3.42    0.21
   4  -4   0    3.42    0.21
   4  -4   0    3.49    0.22
   4  -4   0    3.57    0.24
   4  -4   0    3.46    0.21
  -4   4   0    3.29    0.22
   3  -4   0   26.45    1.39
   3  -4   0   26.57    1.38
   3  -4   0   26.60    1.38
   3  -4   0   26.34    1.38
   3  -4   0   26.40    1.40
  -3   4   0   26.61    1.38
   2  -4   0    0.36    0.07
  -2   4   0    0.38    0.06
  -1   4   0   22.99    1.29
   0  -4   0    1.85    0.24
   0  -4   0    2.10    0.11
   0   4   0    1.85    0.12
  -1  -4   0   74.48    3.70
  -1  -4   0   69.32    3.77
  -2  -4   0    2.12    0.12
   3   4   0    2.04    0.15
   3   4   0    2.08    0.13
   3   4   0    2.12    0.14
   3   4   0    2.01    0.19
  -4  -4   0   76.11    3.88
   4   4   0   76.53    3.88
   4   4   0   70.88    3.89
   4   4   0   78.15    3.89
   5   4   0    7.79    0.41
   4  -5   0    0.67    0.09
   4  -5   0    0.59    0.09
   4  -5   0    0.48    0.08
  -4   5   0    0.50    0.15
   3  -5   0    7.89    0.43
   3  -5   0    7.92    0.43
   3  -5   0    7.64    0.45
   3  -5   0    7.82    0.42
   3  -5   0    7.64    0.43
  -3   5   0    8.00    0.43
   2  -5   0   28.68    1.56
   2  -5   0   28.20    1.53
   2  -5   0   29.27    1.53
   2  -5   0   28.91    1.53
  -2   5   0   32.09    1.53
   1  -5   0    0.98    0.09
   1  -5   0    0.91    0.09
   1  -5   0    0.76    0.09
  -1   5   0    1.09    0.09
   0  -5   0   97.75    4.76
   0  -5   0   94.04    4.77
   0  -5   0   92.86    4.77
   0  -5   0   92.56    4.88
   0   5   0   88.31    4.78
   0   5   0   90.49    4.77
  -1  -5   0    9.97    0.49
  -1  -5   0   10.30    0.80
   1   5   0    8.79    0.50
   1   5   0    9.64    0.50
   1   5   0    8.26    0.50
  -2  -5   0   43.85    2.21
   2   5   0   41.10    2.22
   2   5   0   47.71    2.22
   2   5   0   39.61    2.23
   2   5   0   42.25    2.22
  -3  -5   0    0.59    0.05
   3   5   0    0.58    0.09
   3   5   0    0.61    0.06
   3   5   0    0.55    0.07
   3   5   0    0.49    0.09
  -4  -5   0   49.80    2.52
   4   5   0   47.09    2.53
   4   5   0   50.17    2.53
   4  -6   0    2.11    0.13
   4  -6   0    2.11    0.13
   4  -6   0    2.03    0.13
   3  -6   0   50.76    2.61
   3  -6   0   47.49    2.62
   3  -6   0   51.00    2.61
   3  -6   0   52.18    2.60
   3  -6   0   49.41    2.61
  -3   6   0   47.80    2.61
  -3   6   0   54.49    2.61
   2  -6   0    0.32    0.09
   2  -6   0    0.40    0.08
   2  -6   0    0.26    0.07
  -2   6   0    0.42    0.07
  -2   6   0    0.25    0.05
   1  -6   0   30.72    1.49
   1  -6   0   27.74    1.47
   1  -6   0   27.23    1.47
  -1   6   0   27.25    1.48
  -1   6   0   28.99    1.48
   0  -6   0   33.25    1.71
   0  -6   0   33.64    1.70
   0   6   0   31.53    1.71
   0   6   0   33.49    1.72
  -1  -6   0    3.99    0.21
  -1  -6   0    4.13    0.25
   1   6   0    3.96    0.24
   1   6   0    3.88    0.23
   1   6   0    3.70    0.23
   1   6   0    3.37    0.24
  -2  -6   0    4.79    0.26
  -2  -6   0    4.87    0.27
  -2  -6   0    4.90    0.27
   2   6   0    4.82    0.30
  -3  -6   0    7.99    0.40
   3   6   0    7.50    0.42
   3   6   0    7.99    0.41
   3   6   0    7.10    0.43
   4   6   0   20.19    1.01
   4   6   0   18.74    1.02
   3  -7   0    7.24    0.40
   3  -7   0    7.25    0.39
   3  -7   0    7.17    0.40
  -3   7   0    7.33    0.40
  -3   7   0    7.36    0.40
   2  -7   0    8.59    0.46
   2  -7   0    8.32    0.45
   2  -7   0    8.21    0.47
   2  -7   0    8.33    0.47
  -2   7   0    8.65    0.46
   1  -7   0   49.50    2.61
   1  -7   0   50.74    2.63
   1  -7   0   49.23    2.61
  -1   7   0   52.35    2.62
  -1   7   0   51.01    2.62
   0   7   0   81.08    4.40
   0   7   0   89.72    4.42
   1   7   0   27.06    1.56
   1   7   0   30.13    1.56
   1   7   0   31.56    1.59
   1   7   0   30.98    1.57
  -2  -7   0    0.21    0.04
   2   7   0    0.20    0.05
   2   7   0    0.17    0.06
   2   7   0    0.11    0.06
  -3  -7   0   39.41    2.00
   3   7   0   37.64    2.02
   3   7   0   38.50    2.01
   3   7   0   39.94    2.01
   3  -8   0    0.98    0.07
   3  -8   0    0.95    0.08
  -3   8   0    0.73    0.13
  -3   8   0    0.89    0.13
   2  -8   0    5.75    0.32
   2  -8   0    6.22    0.37
   2  -8   0    5.52    0.32
  -2   8   0    5.71    0.33
  -2   8   0    5.94    0.32
   1  -8   0    4.40    0.27
  -1   8   0    4.34    0.26
  -1   8   0    4.56    0.27
   0  -8   0    4.09    0.22
   0  -8   0    3.27    0.22
   0  -8   0    3.30    0.23
   0   8   0    3.39    0.22
   0   8   0    3.47    0.22
   0   8   0    3.55    0.23
  -1  -8   0    5.56    0.32
  -1  -8   0    5.68    0.33
   1   8   0    6.03    0.34
   2   8   0    7.26    0.40
   2   8   0    7.14    0.39
   3   8   0    5.35    0.30
   3   8   0    5.73    0.32
   1  -9   0   19.10    1.03
   1  -9   0   19.57    1.03
   1  -9   0   19.66    1.03
  -1   9   0   20.69    1.03
  -1   9   0   19.81    1.04
   0  -9   0    0.48    0.07
   0   9   0    0.52    0.08
   0   9   0    0.37    0.07
   0   9   0    0.33    0.07
  -1  -9   0    1.18    0.10
   1   9   0    1.22    0.11
   1   9  -1   10.54    0.57
  -1  -9   1   10.34    0.56
   0   9  -1   13.34    0.69
   0   9  -1   12.90    0.69
   0   9  -1   13.25    0.69
   0  -9   1   12.14    0.68
  -1   9  -1    2.35    0.15
  -1   9  -1    2.45    0.16
   1  -9   1    2.25    0.15
   2   8  -1    0.28    0.06
   2   8  -1    0.37    0.06
   1   8  -1   10.51    0.57
   1   8  -1    9.55    0.57
   0   8  -1    5.67    0.33
   0   8  -1    5.95    0.34
   0  -8   1    6.07    0.33
   0  -8   1    6.18    0.34
   0  -8   1    5.71    0.34
  -1   8  -1    1.11    0.10
   1  -8   1    0.90    0.10
   1  -8   1    1.18    0.11
  -2   8  -1    6.53    0.36
  -2   8  -1    6.55    0.35
   2  -8   1    6.26    0.35
   2  -8   1    6.32    0.34
   2  -8   1    6.22    0.36
   3   7  -1    7.77    0.43
   3   7  -1    8.32    0.43
   3   7  -1    7.94    0.45
  -3  -7   1    8.14    0.43
   2   7  -1    1.74    0.28
   2   7  -1    2.01    0.14
   2   7  -1    1.95    0.16
   2   7  -1    1.99    0.15
  -2  -7   1    2.06    0.12
   1   7  -1    0.96    0.11
   1   7  -1    0.98    0.13
   1   7  -1    1.09    0.13
   1   7  -1    0.69    0.12
   0   7  -1   43.69    2.43
   0   7  -1   45.98    2.43
   0   7  -1   43.61    2.42
   0  -7   1   49.74    2.43
   0  -7   1   52.72    2.43
   0  -7   1   44.61    2.41
  -1   7  -1    0.07    0.06
  -1   7  -1    0.04    0.05
   1  -7   1   -0.04    0.06
   1  -7   1    0.09    0.06
   1  -7   1   -0.03    0.05
  -2   7  -1   15.31    0.85
  -2   7  -1   16.19    0.84
   2  -7   1   15.55    0.85
   2  -7   1   16.12    0.84
   2  -7   1   16.57    0.84
  -3   7  -1   10.91    0.56
  -3   7  -1   11.09    0.56
   3  -7   1   10.07    0.55
   3  -7   1   10.22    0.55
   3  -7   1    9.55    0.58
   3  -7   1   10.72    0.56
   4   6  -1    4.24    0.25
   4   6  -1    4.59    0.25
   3   6  -1    3.60    0.21
   3   6  -1    3.52    0.24
   3   6  -1    3.53    0.22
  -3  -6   1    3.71    0.20
   2   6  -1   38.49    2.02
   2   6  -1   39.82    2.01
   2   6  -1   38.10    2.01
  -2  -6   1   38.45    2.00
   1   6  -1    0.15    0.05
   1   6  -1    0.08    0.05
   1   6  -1    0.18    0.06
   1   6  -1    0.16    0.06
   1   6  -1    0.20    0.06
  -1  -6   1    0.18    0.04
   0   6  -1  140.81    7.17
   0   6  -1  139.63    7.18
   0  -6   1  139.06    7.16
   0  -6   1  138.12    7.17
  -1   6  -1    0.89    0.09
   1  -6   1    0.92    0.13
   1  -6   1    0.83    0.09
   1  -6   1    0.85    0.10
  -2   6  -1    1.41    0.12
  -2   6  -1    1.35    0.13
   2  -6   1    1.46    0.11
   2  -6   1    1.17    0.15
   2  -6   1    1.32    0.12
  -3   6  -1   24.77    1.37
  -3   6  -1   28.40    1.37
   3  -6   1   26.85    1.36
   3  -6   1   24.53    1.38
   3  -6   1   26.52    1.37
   3  -6   1   26.11    1.36
   4  -6   1    0.00    0.04
   4  -6   1    0.07    0.04
   4  -6   1   -0.04    0.04
   4   5  -1    4.87    0.29
   4   5  -1    5.30    0.28
   3   5  -1    0.21    0.05
   3   5  -1    0.18    0.07
   3   5  -1    0.30    0.05
  -3  -5   1    0.21    0.03
   2   5  -1    0.60    0.08
   2   5  -1    0.64    0.11
   2   5  -1    0.68    0.09
   2   5  -1    0.83    0.07
  -2  -5   1    0.87    0.06
   1   5  -1    2.15    0.14
   1   5  -1    2.08    0.14
   1   5  -1    1.72    0.13
  -1  -5   1    2.05    0.11
   0   5  -1    4.09    0.36
   0   5  -1    3.35    0.22
   0   5  -1    3.07    0.19
   0  -5   1    3.22    0.20
   0  -5   1    3.19    0.20
  -1   5  -1   29.93    1.57
  -1   5  -1   34.88    1.57
   1  -5   1   27.89    1.57
   1  -5   1   28.64    1.57
  -2   5  -1    6.49    0.34
   2  -5   1    6.51    0.35
   2  -5   1    5.51    0.37
   2  -5   1    6.63    0.34
   2  -5   1    5.97    0.34
  -3   5  -1    6.99    0.38
  -3   5  -1    7.72    0.40
   3  -5   1    6.34    0.40
   3  -5   1    7.12    0.38
   3  -5   1    6.79    0.38
   3  -5   1    6.90    0.38
   3  -5   1    6.54    0.38
  -4   5  -1    7.55    0.45
   4  -5   1    8.01    0.43
   4  -5   1    7.98    0.44
   4  -5   1    7.82    0.42
   4  -5   1    7.98    0.43
   4   4  -1  116.57    5.93
   4   4  -1  123.40    5.93
   4   4  -1  106.21    5.93
  -4  -4   1  114.63    5.92
   3   4  -1   30.31    1.73
   3   4  -1   32.66    1.72
   3   4  -1   33.62    1.71
   3   4  -1   34.84    1.71
  -3  -4   1   33.67    1.70
   2   4  -1    0.76    0.08
  -2  -4   1    0.70    0.05
  -1  -4   1  182.63    9.17
  -1  -4   1  174.55    9.26
  -1   4  -1   10.63    0.56
  -1   4  -1   10.71    0.67
  -2   4  -1   14.99    0.74
   2  -4   1   14.10    0.75
   2  -4   1   13.72    0.75
   2  -4   1   13.94    0.75
  -3   4  -1    3.54    0.21
   3  -4   1    3.58    0.21
   3  -4   1    3.18    0.24
   3  -4   1    3.66    0.22
   3  -4   1    3.71    0.21
   3  -4   1    3.22    0.21
  -4   4  -1   19.39    1.11
   4  -4   1   21.52    1.11
   4  -4   1   21.90    1.11
   4  -4   1   20.92    1.11
   4  -4   1   21.67    1.12
   4  -4   1   21.80    1.11
   5   3  -1    0.01    0.04
   4   3  -1   12.75    0.65
   4   3  -1   11.88    0.64
   4   3  -1   11.82    0.65
   3   3  -1   42.14    2.34
   3   3  -1   48.39    2.35
   3   3  -1   45.76    2.35
  -2  -3   1    0.02    0.21
  -1  -3   1  261.16   14.42
  -1  -3   1  298.63   14.37
   0   3  -1   43.16    2.33
   0  -3   1   44.37    2.33
   0  -3   1   45.38    2.28
  -1   3  -1    0.44    0.18
  -1   3  -1    0.26    0.10
  -1   3  -1    0.24    0.04
   1  -3   1    0.38    0.10
  -2   3  -1    4.38    0.25
  -2   3  -1    6.08    0.96
   2  -3   1    4.76    0.28
  -3   3  -1    5.63    0.31
   3  -3   1    5.87    0.32
   3  -3   1    5.60    0.32
   3  -3   1    5.82    0.32
   3  -3   1    5.72    0.34
   3  -3   1    5.52    0.32
  -4   3  -1    1.82    0.15
   4  -3   1    1.74    0.15
   4  -3   1    1.64    0.13
   4  -3   1    1.60    0.13
   4  -3   1    1.80    0.14
   4  -3   1    1.66    0.13
  -5   3  -1    1.75    0.21
   5  -3   1    1.96    0.12
   5  -3   1    1.66    0.13
   5  -3   1    1.71    0.12
   4   2  -1    0.74    0.09
   4   2  -1    0.64    0.08
   3   2  -1    0.03    0.05
   3   2  -1    0.03    0.06
   3   2  -1    0.05    0.05
  -2  -2   1    9.23    0.58
   1   2  -1    0.20    0.08
  -1  -2   1    0.22    0.07
   0   2  -1  140.90    7.25
   0  -2   1  140.34    7.26
   0  -2   1  140.98    7.23
  -1   2  -1    2.37    0.22
  -1   2  -1    2.55    0.18
  -1   2  -1    2.25    0.14
   1  -2   1    2.68    0.18
  -2   2  -1   43.91    2.42
   2  -2   1   48.09    2.53
   3  -2   1    8.08    0.46
   3  -2   1    8.40    0.45
   3  -2   1    8.24    0.45
   3  -2   1    8.40    0.45
  -4   2  -1   19.18    1.01
   4  -2   1   19.29    1.01
   4  -2   1   19.06    1.01
   4  -2   1   18.86    1.00
   4  -2   1   19.23    1.01
   5  -2   1    4.73    0.28
   5  -2   1    5.06    0.27
   5  -2   1    4.61    0.28
   5  -2   1    5.01    0.27
   4   1  -1   16.83    0.84
   4   1  -1   14.86    0.84
  -2  -1   1   23.97    1.33
  -2  -1   1   23.64    1.30
  -1  -1   1    3.93    0.24
   0   1  -1    6.08    0.34
   0  -1   1    6.41    0.34
  -1   1  -1   27.14    1.37
  -1   1  -1   24.99    1.34
   1  -1   1   24.68    1.34
  -2   1  -1    2.88    0.22
  -4   1  -1    0.39    0.18
   4  -1   1    0.43    0.08
   4  -1   1    0.36    0.07
   4  -1   1    0.27    0.07
   4  -1   1    0.32    0.06
   5  -1   1    7.41    0.39
   5  -1   1    7.06    0.40
   5  -1   1    7.17    0.39
   4   0  -1    2.78    0.17
   4   0  -1    2.50    0.18
   4   0  -1    2.45    0.17
  -3   0   1   16.91    1.25
  -2   0   1    2.67    0.29
  -2   0   1    2.52    0.23
  -2   0   1    2.37    0.33
   0   0  -1  284.33   15.43
   0   0   1  320.74   15.44
   0   0   1  295.30   15.43
  -1   0  -1   21.88    1.14
   1   0   1   20.95    1.14
  -2   0  -1   32.58    1.78
   4   0   1   15.43    0.86
   5   0   1    0.00    0.06
   5   0   1    0.05    0.05
   5   0   1    0.03    0.05
   4  -1  -1    0.32    0.08
   4  -1  -1    0.42    0.07
   4  -1  -1    0.44    0.08
   4  -1  -1    0.41    0.13
  -2   1   1    3.68    0.42
  -2   1   1    3.48    0.28
   1  -1  -1  209.76   10.48
  -1   1   1  197.32   10.47
   0  -1  -1   55.20    2.96
   0  -1  -1   56.06    2.96
   0   1   1   59.00    2.97
   0   1   1   56.87    2.96
  -1  -1  -1  379.60   19.23
   1   1   1  366.68   19.22
  -2  -1  -1   46.44    2.55
   4   1   1   11.81    0.63
   4   1   1   12.31    0.64
   4   1   1   11.81    0.64
   4   1   1   11.19    0.64
   5   1   1    2.73    0.17
   5   1   1    3.05    0.17
   5   1   1    2.45    0.17
   5  -2  -1    1.71    0.13
   5  -2  -1    1.68    0.13
   5  -2  -1    2.01    0.13
   4  -2  -1   58.04    3.28
   4  -2  -1   63.53    3.26
   4  -2  -1   64.12    3.25
   4  -2  -1   66.18    3.26
   3  -2  -1   23.51    1.24
   3  -2  -1   23.60    1.24
   3  -2  -1   23.56    1.25
   3  -2  -1   24.51    1.24
  -2   2   1    3.36    0.34
   1  -2  -1   11.05    0.61
  -1   2   1   11.29    0.62
  -1   2   1   10.60    0.61
   0  -2  -1    0.97    0.08
   0  -2  -1    0.67    0.09
   0   2   1    0.79    0.05
   0   2   1    0.69    0.08
  -1  -2  -1    4.84    0.27
  -1  -2  -1    5.02    0.29
  -2  -2  -1    0.02    0.16
   3   2   1    2.89    0.18
   3   2   1    2.64    0.18
   4   2   1    8.37    0.50
   4   2   1   10.06    0.50
   4   2   1    9.33    0.50
   5   2   1    4.35    0.24
   5  -3  -1    0.95    0.10
   5  -3  -1    0.82    0.09
   5  -3  -1    1.07    0.09
   4  -3  -1   19.25    1.04
   4  -3  -1   18.69    1.04
   4  -3  -1   20.49    1.03
   4  -3  -1   20.48    1.04
   3  -3  -1    4.71    0.27
   3  -3  -1    4.13    0.28
   3  -3  -1    4.81    0.28
   3  -3  -1    4.62    0.27
   3  -3  -1    5.04    0.27
   3  -3  -1    4.40    0.29
   2  -3  -1   26.87    1.33
   2  -3  -1   29.37    1.36
   2  -3  -1   22.56    1.32
  -2   3   1   22.99    1.31
  -1   3   1  111.72    5.50
  -1   3   1   99.66    5.43
   0  -3  -1  192.82   10.56
   0  -3  -1  207.38   10.60
   0   3   1  213.01   10.56
   0   3   1  216.38   10.64
   0   3   1  198.51   10.60
  -1  -3  -1   22.29    1.19
  -1  -3  -1   22.44    1.15
  -2  -3  -1   19.44    1.06
   2   3   1   21.58    1.08
   3   3   1    4.94    0.28
  -4  -3  -1    0.26    0.11
   4   3   1    0.60    0.09
   4   3   1    0.42    0.07
   4   3   1    0.57    0.09
   4   3   1    0.40    0.06
   5   3   1    3.14    0.17
   5   3   1    2.97    0.18
   4  -4  -1   11.03    0.57
   4  -4  -1   10.87    0.58
   4  -4  -1   10.52    0.58
   4  -4  -1   11.07    0.57
  -4   4   1    9.93    0.58
   3  -4  -1    5.49    0.32
   3  -4  -1    5.30    0.33
   3  -4  -1    5.34    0.31
   3  -4  -1    5.59    0.31
   3  -4  -1    5.48    0.32
  -3   4   1    5.91    0.31
   2  -4  -1   16.27    0.88
   2  -4  -1   16.28    0.87
   2  -4  -1   16.19    0.88
  -2   4   1   17.99    0.87
   0  -4  -1    4.39    0.33
   0  -4  -1    4.65    0.24
   0   4   1    4.59    0.25
  -1  -4  -1    1.83    0.23
  -1  -4  -1    2.52    0.13
  -2  -4  -1   19.11    0.97
   2   4   1   18.36    0.99
   3   4   1   16.32    0.83
   3   4   1   16.23    0.84
   3   4   1   15.23    0.85
   3   4   1   15.29    0.83
  -4  -4  -1    0.34    0.07
   4   4   1    0.22    0.05
   5   4   1    0.32    0.06
   4  -5  -1    7.62    0.42
   4  -5  -1    7.40    0.42
   4  -5  -1    7.81    0.41
   4  -5  -1    7.55    0.41
  -4   5   1    8.40    0.44
  -4   5   1    7.04    0.48
   3  -5  -1    3.07    0.20
   3  -5  -1    2.95    0.22
   3  -5  -1    3.20    0.19
   3  -5  -1    2.94    0.20
   3  -5  -1    3.17    0.20
  -3   5   1    3.29    0.20
   2  -5  -1   28.40    1.50
   2  -5  -1   29.14    1.50
   2  -5  -1   28.39    1.51
   2  -5  -1   28.10    1.54
  -2   5   1   30.39    1.50
   1  -5  -1   37.26    1.99
   1  -5  -1   40.39    1.99
   1  -5  -1   37.62    1.99
   1  -5  -1   36.31    2.00
  -1   5   1   43.43    1.99
  -1   5   1   35.61    2.00
   0  -5  -1    1.51    0.10
   0  -5  -1    1.47    0.11
   0   5   1    1.36    0.11
   1   5   1   22.19    1.18
   1   5   1   22.79    1.18
  -2  -5  -1    0.26    0.04
   2   5   1    0.32    0.05
   2   5   1    0.40    0.09
  -3  -5  -1    2.32    0.13
   3   5   1    2.44    0.14
   3   5   1    2.16    0.15
   3   5   1    2.13    0.19
   3   5   1    2.24    0.16
  -4  -5  -1    3.91    0.22
   4   5   1    4.03    0.22
   4   5   1    3.61    0.23
   4   5   1    3.90    0.22
   4  -6  -1    4.36    0.25
   4  -6  -1    4.45    0.25
   4  -6  -1    4.46    0.25
   3  -6  -1    1.23    0.12
   3  -6  -1    1.48    0.11
   3  -6  -1    1.38    0.12
   3  -6  -1    1.30    0.15
   3  -6  -1    1.18    0.11
  -3   6   1    1.45    0.13
  -3   6   1    1.20    0.13
   2  -6  -1    0.01    0.09
   2  -6  -1    0.04    0.06
  -2   6   1    0.15    0.06
   1  -6  -1   17.58    0.93
   1  -6  -1   17.07    0.91
   1  -6  -1   16.71    0.92
   1  -6  -1   16.22    0.92
  -1   6   1   16.98    0.93
  -1   6   1   20.21    0.92
   0  -6  -1    0.11    0.04
   0  -6  -1    0.06    0.05
   0   6   1    0.09    0.06
  -1  -6  -1   64.90    3.22
   1   6   1   62.31    3.23
   1   6   1   57.75    3.24
   1   6   1   64.16    3.23
   1   6   1   63.84    3.24
   2   6   1   22.69    1.19
   2   6   1   22.15    1.21
   2   6   1   23.62    1.19
   3   6   1   11.42    0.64
   3   6   1   12.47    0.62
   3   6   1   11.25    0.63
  -4  -6  -1   18.65    1.02
   4   6   1   20.68    1.03
   4   6   1   19.72    1.03
   3  -7  -1    4.96    0.28
   3  -7  -1    5.11    0.29
   3  -7  -1    5.18    0.28
  -3   7   1    5.05    0.29
   2  -7  -1    2.15    0.15
   2  -7  -1    2.07    0.17
   2  -7  -1    2.08    0.17
   2  -7  -1    2.16    0.14
  -2   7   1    2.41    0.15
   1  -7  -1    0.59    0.08
   1  -7  -1    0.43    0.06
  -1   7   1    0.63    0.10
  -1   7   1    0.58    0.07
   0  -7  -1  131.23    6.37
   0  -7  -1  127.05    6.37
   0   7   1  112.86    6.36
  -1  -7  -1    2.93    0.17
  -1  -7  -1    2.96    0.17
   1   7   1    2.72    0.21
   1   7   1    2.92    0.20
   1   7   1    2.54    0.24
  -2  -7  -1    0.18    0.07
  -2  -7  -1    0.08    0.03
   2   7   1    0.06    0.04
   2   7   1    0.15    0.06
   2   7   1    0.06    0.05
  -3  -7  -1    0.06    0.04
   3   7   1    0.02    0.06
   3   7   1    0.07    0.05
   3   7   1    0.09    0.04
   3  -8  -1    5.75    0.32
   3  -8  -1    6.02    0.32
  -3   8   1    5.86    0.33
  -3   8   1    6.18    0.33
   2  -8  -1   28.76    1.49
   2  -8  -1   28.85    1.48
  -2   8   1   28.36    1.49
  -2   8   1   28.57    1.49
   1  -8  -1    0.96    0.12
   1  -8  -1    0.91    0.09
   1  -8  -1    0.77    0.10
  -1   8   1    0.86    0.11
  -1   8   1    0.78    0.09
  -1   8   1    1.06    0.18
   0  -8  -1   51.14    2.73
   0  -8  -1   55.99    2.74
   0  -8  -1   51.15    2.72
   0   8   1   51.97    2.73
   0   8   1   53.21    2.74
   0   8   1   53.36    2.74
   1   8   1    3.37    0.22
   2   8   1   17.55    0.93
   2   8   1   17.51    0.92
   3   8   1    0.70    0.10
   3   8   1    0.62    0.08
   2  -9  -1    2.92    0.20
   2  -9  -1    2.95    0.19
  -2   9   1    3.39    0.19
  -2   9   1    3.59    0.20
   1  -9  -1   10.35    0.55
   1  -9  -1   10.19    0.55
  -1   9   1   10.43    0.56
  -1   9   1   11.04    0.56
   0  -9  -1   12.34    0.67
   0  -9  -1   12.08    0.67
   0  -9  -1   12.42    0.66
   0   9   1   12.87    0.68
   0   9   1   13.67    0.70
   0   9   1   12.97    0.68
  -1  -9  -1   11.67    0.62
   1   9   1   11.57    0.62
  -2  -9  -1    0.14    0.05
   2   9   1    0.00    0.05
   1   9  -2    0.72    0.10
  -1  -9   2    0.69    0.07
   0   9  -2   15.31    0.77
   0  -9   2   13.79    0.76
  -1   9  -2    9.37    0.49
  -1   9  -2    9.47    0.50
   1  -9   2    8.73    0.49
   2   8  -2    9.24    0.49
   2   8  -2    8.74    0.49
   1   8  -2    0.47    0.10
   1   8  -2    0.35    0.12
  -1  -8   2    0.30    0.06
   0   8  -2   13.13    0.69
   0   8  -2   12.95    0.70
  -1   8  -2   11.32    0.60
  -1   8  -2   11.44    0.60
   1  -8   2   11.51    0.60
   1  -8   2   10.52    0.60
   1  -8   2   11.06    0.59
  -2   8  -2    1.50    0.11
  -2   8  -2    1.26    0.12
   2  -8   2    1.47    0.11
   2  -8   2    1.17    0.10
   2  -8   2    1.29    0.11
   3   7  -2    4.82    0.27
   3   7  -2    4.87    0.28
   3   7  -2    4.47    0.27
  -3  -7   2    5.08    0.27
   2   7  -2    1.13    0.19
   2   7  -2    1.17    0.13
   2   7  -2    1.10    0.12
  -2  -7   2    1.16    0.09
   1   7  -2   17.13    0.90
   1   7  -2   16.44    0.89
   1   7  -2   16.47    0.90
   1   7  -2   16.95    0.89
   0   7  -2    0.20    0.06
   0   7  -2    0.26    0.07
   0   7  -2    0.14    0.05
  -1   7  -2    1.96    0.15
  -1   7  -2    2.10    0.16
   1  -7   2    2.07    0.15
  -2   7  -2    0.24    0.05
  -2   7  -2    0.28    0.07
   2  -7   2    0.37    0.08
   2  -7   2    0.29    0.07
   2  -7   2    0.31    0.06
  -3   7  -2    5.92    0.32
  -3   7  -2    6.18    0.32
   3  -7   2    5.43    0.33
   3  -7   2    5.16    0.29
   3  -7   2    4.88    0.31
   3  -7   2    5.13    0.30
   4   6  -2   10.75    0.57
   4   6  -2   10.90    0.57
   3   6  -2    3.57    0.26
   3   6  -2    3.51    0.25
  -3  -6   2    4.39    0.21
   2   6  -2    0.01    0.04
   2   6  -2   -0.03    0.06
   2   6  -2    0.06    0.04
   2   6  -2    0.13    0.09
  -2  -6   2    0.05    0.02
   1   6  -2    6.55    0.34
   1   6  -2    5.93    0.35
   1   6  -2    5.93    0.34
   1   6  -2    5.60    0.35
   1   6  -2    6.41    0.35
  -1  -6   2    6.24    0.33
   0   6  -2    2.13    0.17
   0   6  -2    2.05    0.16
   0   6  -2    2.04    0.14
  -1   6  -2   34.60    1.81
  -1   6  -2   34.16    1.80
   1  -6   2   33.78    1.80
   1  -6   2   33.84    1.81
   1  -6   2   37.74    1.82
  -2   6  -2   16.43    0.90
  -2   6  -2   17.80    0.90
   2  -6   2   16.67    0.90
   2  -6   2   17.31    0.90
   2  -6   2   16.81    0.91
   2  -6   2   17.08    0.89
  -3   6  -2    0.73    0.12
  -3   6  -2    0.99    0.13
   3  -6   2    0.87    0.13
   3  -6   2    1.09    0.10
   3  -6   2    0.94    0.11
   4  -6   2    2.46    0.14
   4  -6   2    2.25    0.15
   4  -6   2    2.58    0.15
   4   5  -2    1.37    0.10
   4   5  -2    1.39    0.10
  -4  -5   2    1.16    0.09
   3   5  -2   46.50    2.28
   3   5  -2   44.18    2.28
   3   5  -2   41.52    2.29
   2   5  -2    2.05    0.16
   2   5  -2    2.34    0.14
   2   5  -2    1.96    0.14
   1   5  -2   75.23    4.30
   1   5  -2   85.70    4.31
   1   5  -2   84.45    4.31
   1   5  -2   87.41    4.32
  -1  -5   2   85.09    4.30
   0   5  -2    8.43    0.47
   0   5  -2    8.17    0.46
   0  -5   2    9.03    0.45
  -1   5  -2   46.41    2.36
  -1   5  -2   46.38    2.36
   1  -5   2   43.84    2.36
   1  -5   2   49.46    2.37
   1  -5   2   42.30    2.36
  -2   5  -2    8.01    0.41
  -2   5  -2    8.59    0.42
   2  -5   2    7.66    0.44
   2  -5   2    7.38    0.41
   2  -5   2    7.46    0.41
   2  -5   2    6.73    0.44
   2  -5   2    7.24    0.41
  -3   5  -2    0.26    0.07
   3  -5   2    0.11    0.05
   3  -5   2    0.19    0.06
   3  -5   2    0.12    0.05
   3  -5   2    0.14    0.08
  -4   5  -2    0.09    0.08
   4  -5   2    0.14    0.04
   4  -5   2    0.18    0.05
   4  -5   2    0.07    0.07
   4  -5   2    0.14    0.05
   4   4  -2   47.18    2.50
   4   4  -2   49.12    2.48
   3   4  -2   24.29    1.27
   3   4  -2   23.37    1.21
  -3  -4   2   22.25    1.20
   2   4  -2    0.42    0.08
   2   4  -2    0.37    0.06
   2   4  -2    0.28    0.05
   2   4  -2    0.45    0.08
   2   4  -2    0.28    0.05
  -2  -4   2    0.35    0.04
   1   4  -2   45.57    2.38
   1   4  -2   45.72    2.36
   0   4  -2    0.26    0.04
   0  -4   2    0.20    0.03
  -1   4  -2   26.04    1.44
  -1   4  -2   25.78    1.34
  -1   4  -2   26.46    1.34
   1  -4   2   25.35    1.38
  -2   4  -2   21.65    1.09
   2  -4   2   20.39    1.09
   2  -4   2   20.05    1.09
   2  -4   2   18.90    1.11
   2  -4   2   21.62    1.09
   2  -4   2   22.51    1.09
  -3   4  -2    8.45    0.46
  -3   4  -2    9.85    0.53
   3  -4   2    8.41    0.47
   3  -4   2    8.50    0.47
   3  -4   2    8.38    0.46
   3  -4   2    8.89    0.46
   3  -4   2    7.69    0.49
  -4   4  -2    6.76    0.42
   4  -4   2    7.66    0.44
   4  -4   2    7.88    0.42
   4  -4   2    7.73    0.42
   4  -4   2    7.88    0.41
   5   3  -2    0.14    0.06
   4   3  -2   12.39    0.78
   4   3  -2   12.83    0.72
   4   3  -2   14.36    0.71
   4   3  -2   14.13    0.71
   3   3  -2    7.80    0.40
   3   3  -2    7.08    0.39
   3   3  -2    6.93    0.42
   3   3  -2    7.24    0.39
  -2  -3   2   75.94    4.57
  -2  -3   2   94.42    4.39
  -1  -3   2   50.17    2.70
  -1  -3   2   51.94    2.63
   0   3  -2   50.99    2.78
   0  -3   2   56.33    2.73
   0  -3   2   51.99    2.86
  -1   3  -2   31.55    1.76
   1  -3   2   33.81    1.75
  -2   3  -2   48.98    2.53
  -3   3  -2   10.06    0.54
   3  -3   2   10.61    0.55
   3  -3   2   10.23    0.54
   3  -3   2   10.18    0.54
   3  -3   2   10.20    0.55
   3  -3   2    9.74    0.57
  -4   3  -2   10.84    0.62
   4  -3   2   12.12    0.61
   4  -3   2   11.51    0.63
   4  -3   2   11.53    0.62
   4  -3   2   11.72    0.62
   5  -3   2    2.80    0.17
   5  -3   2    2.73    0.17
   5  -3   2    3.07    0.17
   4   2  -2    4.55    0.26
   3   2  -2    4.09    0.25
   3   2  -2    4.31    0.25
   3   2  -2    4.09    0.24
  -2  -2   2    5.04    0.44
   1   2  -2   22.59    1.26
  -1  -2   2   23.70    1.25
   0   2  -2   56.07    2.92
   0  -2   2   53.86    2.89
   0  -2   2   58.68    2.93
  -1   2  -2  138.54    7.20
  -1   2  -2  146.42    7.18
  -1   2  -2  131.59    7.14
   1  -2   2  139.43    7.18
  -2   2  -2   32.85    1.83
  -2   2  -2   34.83    1.89
   2  -2   2   39.19    1.91
  -3   2  -2   13.47    0.70
   3  -2   2   13.16    0.71
   3  -2   2   13.12    0.72
   3  -2   2   13.15    0.70
   3  -2   2   13.21    0.71
   3  -2   2   13.69    0.71
  -4   2  -2    5.73    0.34
   4  -2   2    6.24    0.33
   4  -2   2    5.90    0.35
   4  -2   2    6.17    0.34
   4  -2   2    5.72    0.33
   5  -2   2   31.52    1.74
   5  -2   2   33.12    1.74
   5  -2   2   33.38    1.74
   5  -2   2   36.33    1.75
   4   1  -2   20.55    1.08
  -2  -1   2    0.11    0.16
  -1  -1   2   10.09    0.58
   0   1  -2   17.99    0.96
   0  -1   2   18.19    0.96
  -1   1  -2   32.60    1.87
  -1   1  -2   37.73    1.89
  -1   1  -2   38.62    1.92
   1  -1   2   36.06    1.89
  -3   1  -2    9.78    0.60
   3  -1   2   11.81    0.59
   3  -1   2   11.93    0.60
  -4   1  -2   15.26    0.86
   4  -1   2   15.69    0.85
   4  -1   2   16.77    0.86
   4  -1   2   16.41    0.85
   4  -1   2   16.34    0.85
   5  -1   2    4.06    0.24
   5  -1   2    4.43    0.25
   5  -1   2    4.23    0.24
   5  -1   2    4.08    0.24
  -2   0   2   73.16    3.62
  -2   0   2   65.53    3.58
  -2   0   2   64.33    3.62
  -2   0   2   71.38    3.59
  -1   0   2  160.87    8.29
   0   0  -2    0.60    0.07
   0   0   2    0.69    0.07
   0   0   2    0.77    0.07
  -1   0  -2   75.96    3.83
   1   0   2   71.37    3.83
  -2   0  -2    0.39    0.18
  -4   0  -2    1.09    0.15
   4   0   2    1.46    0.13
   4   0   2    1.51    0.14
   4   0   2    1.59    0.15
  -5   0  -2    0.43    0.14
   5   0   2    0.69    0.09
   5   0   2    0.54    0.08
   5   0   2    0.49    0.07
   4  -1  -2    0.11    0.08
   4  -1  -2    0.09    0.07
   4  -1  -2    0.13    0.06
   3  -1  -2    3.77    0.23
  -3   1   2    2.70    0.81
  -2   1   2    0.49    0.14
  -2   1   2    0.46    0.16
  -1   1   2   89.23    5.06
  -1   1   2  106.61    5.12
   0  -1  -2   87.00    4.39
   0  -1  -2   81.52    4.39
   0   1   2   85.97    4.39
   0   1   2   86.27    4.39
  -1  -1  -2  511.16   25.12
   1   1   2  464.15   25.11
  -2  -1  -2   22.67    1.23
   2   1   2   20.74    1.20
  -4  -1  -2    1.75    0.23
   4   1   2    1.92    0.13
   4   1   2    1.79    0.17
   4   1   2    1.74    0.14
   4   1   2    1.98    0.15
   5   1   2    4.94    0.28
   5   1   2    4.68    0.28
   5   1   2    5.73    0.29
   4  -2  -2   18.11    0.93
   4  -2  -2   17.48    0.93
   4  -2  -2   17.20    0.93
   3  -2  -2    1.53    0.13
   3  -2  -2    1.60    0.14
   3  -2  -2    1.27    0.14
   3  -2  -2    1.63    0.13
   3  -2  -2    1.82    0.13
   1  -2  -2   11.30    0.64
  -1   2   2   11.04    0.64
  -1   2   2   12.24    0.66
   0  -2  -2  408.11   21.69
   0  -2  -2  401.58   21.69
   0   2   2  449.82   21.72
   0   2   2  418.21   21.62
   0   2   2  425.87   21.70
  -1  -2  -2    1.56    0.16
  -1  -2  -2    1.75    0.10
   1   2   2    1.66    0.16
  -2  -2  -2    4.29    0.41
   2   2   2    4.57    0.37
   3   2   2    6.11    0.35
   3   2   2    6.88    0.36
   3   2   2    6.20    0.35
   3   2   2    6.27    0.35
  -4  -2  -2    2.63    0.24
   4   2   2    2.96    0.20
   4   2   2    2.97    0.19
   4   2   2    2.95    0.19
   4   2   2    2.91    0.19
   4   2   2    2.91    0.18
   5   2   2   15.30    0.79
   5   2   2   13.79    0.78
   5   2   2   16.74    0.79
   5   2   2   14.21    0.78
   5  -3  -2    1.84    0.16
   5  -3  -2    1.84    0.13
   5  -3  -2    2.07    0.15
   4  -3  -2   22.62    1.15
   4  -3  -2   23.19    1.15
   4  -3  -2   21.25    1.16
   4  -3  -2   21.65    1.15
  -4   3   2   21.10    1.15
   3  -3  -2    0.99    0.12
   3  -3  -2    0.75    0.11
   2  -3  -2    3.62    0.20
  -2   3   2    2.98    0.56
  -2   3   2    3.56    0.20
   1  -3  -2    9.72    0.57
  -1   3   2    9.62    0.50
   0  -3  -2    4.49    0.28
   0  -3  -2    4.23    0.29
   0   3   2    4.61    0.29
   0   3   2    4.92    0.30
   0   3   2    4.65    0.25
  -1  -3  -2  135.44    7.03
  -1  -3  -2  138.32    7.06
  -2  -3  -2    1.93    0.12
   2   3   2    2.05    0.15
  -3  -3  -2    6.11    0.37
   3   3   2    6.67    0.36
   3   3   2    6.39    0.36
   3   3   2    7.59    0.40
  -4  -3  -2    0.69    0.12
   4   3   2    0.68    0.08
   4   3   2    0.81    0.10
   4   3   2    0.58    0.08
   4   3   2    0.71    0.09
   4   3   2    0.71    0.10
  -5  -3  -2   -0.01    0.07
   5   3   2    0.13    0.04
   5   3   2    0.12    0.07
   4  -4  -2    6.07    0.37
   4  -4  -2    6.04    0.38
   4  -4  -2    6.89    0.36
   4  -4  -2    6.88    0.36
  -4   4   2    6.39    0.37
   3  -4  -2    6.60    0.39
   3  -4  -2    7.21    0.38
   3  -4  -2    6.75    0.38
   3  -4  -2    7.07    0.39
   3  -4  -2    6.98    0.38
  -3   4   2    6.32    0.40
   2  -4  -2    0.02    0.06
   2  -4  -2    0.17    0.06
   2  -4  -2    0.07    0.05
  -2   4   2    0.13    0.04
  -1   4   2    7.04    0.37
   0  -4  -2    0.81    0.17
   0  -4  -2    0.88    0.06
   0   4   2    0.86    0.24
   0   4   2    1.03    0.07
  -1  -4  -2   15.59    0.90
  -2  -4  -2  122.26    6.28
   3   4   2    3.74    0.23
   3   4   2    4.04    0.24
   3   4   2    3.90    0.23
   3   4   2    3.96    0.28
  -4  -4  -2   35.73    1.94
   4   4   2   39.53    1.94
   4   4   2   36.86    1.95
   4   4   2   37.87    1.95
   5   4   2   11.50    0.60
   5   4   2   11.50    0.60
   4  -5  -2    2.57    0.17
   4  -5  -2    2.70    0.17
   4  -5  -2    2.72    0.18
   4  -5  -2    2.72    0.16
  -4   5   2    2.60    0.24
  -4   5   2    2.37    0.19
   3  -5  -2   47.94    2.40
   3  -5  -2   44.76    2.41
   3  -5  -2   45.57    2.41
   3  -5  -2   44.37    2.41
  -3   5   2   49.60    2.40
   2  -5  -2    3.85    0.23
   2  -5  -2    3.75    0.23
   2  -5  -2    3.70    0.23
   2  -5  -2    3.59    0.22
   2  -5  -2    3.53    0.25
  -2   5   2    3.91    0.22
   1  -5  -2   41.60    2.29
   1  -5  -2   41.54    2.28
  -1   5   2   49.39    2.28
   0  -5  -2   17.18    1.04
   1   5   2    0.92    0.14
   1   5   2    0.98    0.15
  -2  -5  -2   10.17    0.53
   2   5   2   11.38    0.58
   2   5   2    9.32    0.55
  -3  -5  -2    0.95    0.07
   3   5   2    0.77    0.12
   3   5   2    0.78    0.10
   3   5   2    1.07    0.08
   3   5   2    0.88    0.10
  -4  -5  -2    0.24    0.04
   4   5   2    0.19    0.04
   4   5   2    0.18    0.05
   4   5   2    0.24    0.05
   4  -6  -2    1.88    0.13
   4  -6  -2    2.05    0.13
   4  -6  -2    1.93    0.13
   3  -6  -2    3.52    0.21
   3  -6  -2    3.34    0.21
   3  -6  -2    3.23    0.22
   3  -6  -2    3.51    0.21
  -3   6   2    3.54    0.22
   2  -6  -2    7.20    0.44
  -2   6   2    7.30    0.40
   1  -6  -2    2.74    0.26
   1  -6  -2    3.00    0.18
   1  -6  -2    3.04    0.21
   1  -6  -2    2.78    0.19
   1  -6  -2    3.08    0.17
  -1   6   2    2.58    0.22
   0  -6  -2   57.79    2.91
   0  -6  -2   57.20    2.91
   0   6   2   54.40    2.92
  -1  -6  -2    8.27    0.45
  -1  -6  -2    9.39    0.47
  -1  -6  -2    8.88    0.46
   1   6   2    8.37    0.48
   1   6   2    8.04    0.47
   2   6   2   10.09    0.57
   2   6   2   10.70    0.56
   2   6   2   10.35    0.56
  -3  -6  -2   10.01    0.51
   3   6   2    9.53    0.53
   3   6   2    9.52    0.52
   3   6   2    9.70    0.55
   3   6   2   10.24    0.53
   4   6   2    2.29    0.15
   4   6   2    2.51    0.15
   3  -7  -2    0.13    0.05
   3  -7  -2    0.07    0.05
   3  -7  -2    0.07    0.05
  -3   7   2   -0.01    0.06
  -3   7   2    0.10    0.10
   2  -7  -2   41.68    2.32
   2  -7  -2   46.18    2.31
   2  -7  -2   45.27    2.31
   2  -7  -2   43.64    2.31
   2  -7  -2   46.26    2.31
   1  -7  -2    0.89    0.13
   1  -7  -2    0.86    0.09
   1  -7  -2    0.94    0.09
  -1   7   2    1.00    0.11
  -1   7   2    1.06    0.14
   0  -7  -2    0.38    0.06
   0  -7  -2    0.39    0.07
   0   7   2    0.38    0.06
   0   7   2    0.18    0.07
  -1  -7  -2   42.17    2.15
  -1  -7  -2   42.11    2.16
   1   7   2   40.87    2.17
  -2  -7  -2    5.74    0.30
  -2  -7  -2    5.64    0.30
  -2  -7  -2    5.55    0.30
   2   7   2    5.14    0.32
   2   7   2    5.36    0.31
  -3  -7  -2    8.06    0.41
  -3  -7  -2    7.45    0.39
  -3  -7  -2    7.13    0.39
   3   7   2    6.93    0.42
   3   7   2    7.35    0.40
   3   7   2    7.11    0.40
   3  -8  -2    6.82    0.36
   3  -8  -2    6.54    0.36
  -3   8   2    7.04    0.37
  -3   8   2    6.67    0.37
   2  -8  -2    5.65    0.31
   2  -8  -2    5.83    0.32
  -2   8   2    5.53    0.32
   1  -8  -2    3.33    0.23
   1  -8  -2    3.63    0.21
   1  -8  -2    3.39    0.21
  -1   8   2    4.15    0.31
  -1   8   2    3.35    0.21
   0  -8  -2    3.20    0.19
   0  -8  -2    3.09    0.19
   0  -8  -2    3.39    0.21
   0   8   2    3.28    0.22
   0   8   2    3.16    0.21
   0   8   2    3.25    0.22
  -1  -8  -2    9.04    0.48
  -1  -8  -2    8.69    0.48
   1   8   2    9.19    0.50
  -2  -8  -2    1.36    0.11
  -2  -8  -2    1.52    0.10
   2   8   2    1.37    0.12
   2   8   2    1.18    0.18
   3   8   2    0.38    0.07
   3   8   2    0.31    0.05
   2  -9  -2    1.50    0.10
   2  -9  -2    1.32    0.10
  -2   9   2    1.47    0.12
  -2   9   2    1.43    0.12
   1  -9  -2   13.85    0.75
   1  -9  -2   14.22    0.75
  -1   9   2   14.40    0.76
  -1   9   2   14.70    0.76
   0  -9  -2    0.53    0.07
   0  -9  -2    0.46    0.06
   0   9   2    0.61    0.11
  -1  -9  -2   22.37    1.18
  -1  -9  -2   23.40    1.19
  -1  -9  -2   22.41    1.18
   1   9   2   22.79    1.19
  -2  -9  -2   13.56    0.69
   2   9   2   12.49    0.69
   0   9  -3    0.25    0.06
   0   9  -3    0.24    0.06
  -1   9  -3   10.11    0.52
  -1   9  -3    9.88    0.52
   1  -9   3    9.05    0.51
   2   8  -3    0.15    0.05
  -2  -8   3    0.21    0.05
   1   8  -3    3.40    0.22
   1   8  -3    3.62    0.23
  -1  -8   3    3.58    0.21
   0   8  -3    0.25    0.09
   0   8  -3    0.08    0.05
   0   8  -3    0.08    0.06
   0  -8   3    0.08    0.05
  -1   8  -3    5.79    0.33
  -1   8  -3    6.17    0.33
   1  -8   3    5.73    0.33
  -2   8  -3   16.32    0.85
  -2   8  -3   16.92    0.85
   2  -8   3   15.30    0.85
   3   7  -3   11.96    0.62
   3   7  -3   11.15    0.61
   3   7  -3   11.64    0.61
   2   7  -3   16.99    0.90
   2   7  -3   16.51    0.90
  -2  -7   3   17.79    0.89
   1   7  -3    8.37    0.47
   1   7  -3    8.75    0.47
   1   7  -3    8.35    0.48
   0   7  -3    4.89    0.31
   0   7  -3    5.80    0.35
   0   7  -3    4.96    0.31
   0  -7   3    5.68    0.31
  -1   7  -3    1.07    0.12
  -1   7  -3    1.04    0.10
   1  -7   3    1.13    0.14
   1  -7   3    0.99    0.11
   1  -7   3    1.12    0.13
  -2   7  -3    1.05    0.17
  -2   7  -3    1.06    0.11
   2  -7   3    1.17    0.12
   2  -7   3    1.17    0.12
   2  -7   3    1.10    0.11
  -3   7  -3    0.77    0.13
  -3   7  -3    0.49    0.10
   3  -7   3    0.42    0.07
   3  -7   3    0.57    0.08
   3  -7   3    0.57    0.07
   3   6  -3   10.36    0.55
   3   6  -3   10.35    0.56
   3   6  -3   10.25    0.55
  -3  -6   3   10.05    0.54
   2   6  -3   31.79    1.57
   2   6  -3   30.83    1.56
   2   6  -3   30.59    1.56
   2   6  -3   26.60    1.58
  -2  -6   3   29.78    1.55
   1   6  -3    1.28    0.12
   1   6  -3    1.39    0.13
   1   6  -3    1.14    0.13
   1   6  -3    1.19    0.13
   1   6  -3    1.44    0.12
  -1  -6   3    1.35    0.09
   0   6  -3   18.96    0.96
   0   6  -3   17.60    0.96
   0   6  -3   17.60    0.95
  -1   6  -3  167.69    8.70
  -1   6  -3  175.44    8.71
   1  -6   3  161.30    8.70
   1  -6   3  163.18    8.69
   1  -6   3  178.33    8.71
  -2   6  -3    5.40    0.31
  -2   6  -3    5.08    0.30
   2  -6   3    5.13    0.29
   2  -6   3    5.17    0.31
   2  -6   3    5.05    0.30
  -3   6  -3   11.03    0.54
  -3   6  -3    9.54    0.55
  -3   6  -3    9.91    0.55
   3  -6   3    9.74    0.53
   3  -6   3    9.62    0.53
   3  -6   3    9.69    0.53
   4  -6   3    0.17    0.05
   4  -6   3    0.15    0.06
   4  -6   3    0.08    0.04
   4  -6   3    0.12    0.03
   4   5  -3    5.72    0.31
   4   5  -3    5.60    0.31
   3   5  -3    6.32    0.33
   3   5  -3    6.12    0.34
   3   5  -3    5.79    0.35
  -3  -5   3    6.01    0.32
   2   5  -3    9.45    0.56
   2   5  -3   10.18    0.53
   2   5  -3    9.79    0.55
   2   5  -3   10.15    0.53
  -2  -5   3    9.68    0.51
   1   5  -3    0.28    0.06
   1   5  -3    0.42    0.07
   1   5  -3    0.47    0.08
   1   5  -3    0.40    0.06
  -1  -5   3    0.40    0.04
   0   5  -3   25.29    1.37
   0   5  -3   26.64    1.38
   0   5  -3   25.48    1.38
   0  -5   3   28.29    1.37
  -1   5  -3   48.20    2.35
  -1   5  -3   41.73    2.33
   1  -5   3   44.96    2.33
  -2   5  -3    2.22    0.14
  -2   5  -3    1.68    0.16
   2  -5   3    2.16    0.16
   2  -5   3    1.99    0.15
   2  -5   3    2.03    0.14
   2  -5   3    2.06    0.17
  -3   5  -3    6.18    0.37
  -3   5  -3    7.09    0.45
  -3   5  -3    7.49    0.39
   3  -5   3    6.83    0.37
   3  -5   3    6.97    0.37
   3  -5   3    5.76    0.39
   3  -5   3    6.96    0.37
  -4   5  -3   23.42    1.27
   4  -5   3   24.97    1.27
   4  -5   3   22.03    1.28
   4  -5   3   26.20    1.27
   4  -5   3   25.14    1.26
   4   4  -3    9.08    0.52
   4   4  -3   10.34    0.52
   3   4  -3   84.72    4.28
   3   4  -3   86.60    4.27
   3   4  -3   73.47    4.29
   3   4  -3   85.81    4.27
  -3  -4   3   83.98    4.26
   2   4  -3   21.30    1.24
   2   4  -3   24.16    1.25
   2   4  -3   25.30    1.23
  -2  -4   3   23.73    1.22
   1   4  -3   23.36    1.32
   1   4  -3   26.79    1.32
  -1  -4   3   24.22    1.48
  -1  -4   3   27.03    1.31
   0   4  -3   36.99    1.96
   0   4  -3   37.43    1.97
   0  -4   3   39.07    1.95
  -1   4  -3    9.73    0.53
  -1   4  -3   10.23    0.70
  -2   4  -3    2.65    0.17
  -2   4  -3    3.23    0.18
   2  -4   3    2.96    0.19
   2  -4   3    2.71    0.21
   2  -4   3    2.71    0.19
   2  -4   3    2.92    0.18
   2  -4   3    2.84    0.18
  -3   4  -3   13.90    0.81
   3  -4   3   15.84    0.83
   3  -4   3   16.34    0.82
  -4   4  -3    3.46    0.22
   4   3  -3    0.41    0.07
   3   3  -3    8.12    0.48
   3   3  -3    8.82    0.45
   3   3  -3    8.78    0.46
   3   3  -3    8.46    0.47
   2   3  -3    3.43    0.24
  -2  -3   3    4.51    0.22
  -2  -3   3    3.59    0.70
  -1  -3   3   26.81    1.52
  -1  -3   3   25.38    1.34
   0  -3   3  290.90   14.80
   0  -3   3  285.32   14.86
  -1   3  -3    0.67    0.07
   1  -3   3    0.65    0.15
  -2   3  -3   46.91    2.36
  -2   3  -3   49.72    2.36
   2  -3   3   43.21    2.36
   2  -3   3   44.59    2.36
   2  -3   3   44.06    2.36
  -3   3  -3    0.38    0.07
   3  -3   3    0.37    0.06
   3  -3   3    0.26    0.07
   3  -3   3    0.28    0.08
   3  -3   3    0.30    0.06
   3  -3   3    0.19    0.06
  -4   3  -3    5.71    0.33
   4  -3   3    5.70    0.32
   4  -3   3    5.50    0.34
   4  -3   3    5.86    0.32
  -5   3  -3    0.18    0.11
   5  -3   3    0.34    0.05
   5  -3   3    0.35    0.05
   5  -3   3    0.38    0.06
   5  -3   3    0.29    0.06
   4   2  -3    0.24    0.06
   4   2  -3    0.29    0.08
   3   2  -3   35.17    2.00
   3   2  -3   38.16    2.00
   3   2  -3   42.61    2.01
   2   2  -3   12.93    0.69
   2   2  -3   11.87    0.65
   2   2  -3   11.68    0.65
   1   2  -3  138.11    7.30
  -1  -2   3  143.50    7.29
   0   2  -3   27.99    1.49
   0  -2   3   29.52    1.49
   0  -2   3   26.64    1.44
  -1   2  -3   41.49    2.12
  -1   2  -3   38.70    2.08
  -1   2  -3   40.25    2.14
   1  -2   3   40.96    2.12
  -2   2  -3  124.83    6.38
  -2   2  -3  111.20    6.32
   2  -2   3  133.08    6.41
  -3   2  -3    1.34    0.11
   3  -2   3    1.49    0.12
   3  -2   3    1.27    0.15
   3  -2   3    1.61    0.13
   3  -2   3    1.35    0.12
   3  -2   3    1.53    0.11
  -4   2  -3    7.78    0.43
   4  -2   3    7.63    0.44
   4  -2   3    7.57    0.42
   4  -2   3    7.62    0.42
   4  -2   3    7.72    0.42
   5  -2   3   45.97    2.33
   5  -2   3   43.50    2.33
   5  -2   3   46.13    2.33
   5  -2   3   44.67    2.34
  -2  -1   3   21.14    1.22
  -1  -1   3   19.04    1.04
   0   1  -3   32.59    1.67
   0  -1   3   29.20    1.64
   0  -1   3   33.72    1.67
  -1   1  -3    9.00    0.51
  -1   1  -3    7.65    0.45
   1  -1   3    8.98    0.51
   1  -1   3    8.61    0.47
  -2   1  -3   26.88    1.39
  -3   1  -3   11.55    0.60
   3  -1   3   11.67    0.61
   3  -1   3   11.46    0.60
   3  -1   3   10.71    0.62
   3  -1   3   11.41    0.61
  -4   1  -3    4.72    0.30
   4  -1   3    5.14    0.30
   4  -1   3    5.05    0.33
   4  -1   3    4.85    0.28
   4  -1   3    4.83    0.28
   4  -1   3    5.13    0.29
   5  -1   3   33.54    1.77
   5  -1   3   36.77    1.78
   5  -1   3   33.58    1.77
   5  -1   3   32.84    1.77
   3   0  -3   11.06    0.65
  -2   0   3  287.46   14.68
  -2   0   3  303.04   14.68
  -2   0   3  261.85   14.69
  -1   0   3   14.92    0.84
  -1   0   3   15.27    0.81
   0   0  -3  172.35    9.48
   0   0   3  195.07    9.48
   0   0   3  185.17    9.49
  -1   0  -3  197.51   10.64
  -1   0  -3  220.28   10.69
   1   0   3  203.77   10.69
  -2   0  -3    8.67    0.49
   2   0   3   10.12    0.62
   3   0   3    3.96    0.24
   3   0   3    4.53    0.26
   3   0   3    4.12    0.25
  -4   0  -3    1.69    0.18
   4   0   3    1.84    0.13
   4   0   3    1.67    0.14
   4   0   3    1.59    0.17
   4   0   3    1.87    0.15
   4   0   3    1.77    0.14
  -5   0  -3    0.07    0.14
   5   0   3    0.14    0.05
   5   0   3    0.11    0.06
   5   0   3    0.10    0.07
   4  -1  -3    4.85    0.31
   3  -1  -3    0.75    0.11
  -2   1   3   15.44    0.90
  -1   1   3   41.16    2.31
  -1   1   3   47.17    2.32
   0  -1  -3    8.42    0.52
   0   1   3    9.95    0.51
   0   1   3    9.69    0.52
  -1  -1  -3 1000.00   47.67
  -1  -1  -3  838.34   47.51
   1   1   3  937.86   47.72
  -2  -1  -3    0.05    0.30
   2   1   3    0.01    0.14
   3   1   3   12.50    0.67
  -4  -1  -3   24.25    1.44
   4   1   3   30.03    1.45
   4   1   3   28.15    1.44
   4   1   3   27.54    1.44
   4   1   3   28.31    1.45
  -5  -1  -3    0.29    0.10
   5   1   3    0.31    0.06
   5   1   3    0.39    0.06
   5   1   3    0.43    0.06
   4  -2  -3   22.94    1.21
   4  -2  -3   22.08    1.21
   4  -2  -3   24.08    1.21
   3  -2  -3    4.67    0.31
   3  -2  -3    4.89    0.32
   3  -2  -3    5.22    0.32
   3  -2  -3    5.04    0.30
   3  -2  -3    5.06    0.29
  -1   2   3    0.24    0.10
  -1   2   3    0.07    0.10
   0  -2  -3   43.38    2.42
   0  -2  -3   44.57    2.41
   0   2   3   47.61    2.41
   0   2   3   45.79    2.39
   0   2   3   50.62    2.47
  -1  -2  -3   11.33    0.66
  -1  -2  -3   11.76    0.60
   1   2   3   11.75    0.67
  -2  -2  -3   39.37    1.88
  -2  -2  -3   34.32    1.98
   2   2   3   34.85    1.97
  -3  -2  -3    0.05    0.06
   3   2   3    0.11    0.06
   3   2   3    0.07    0.05
   3   2   3    0.10    0.06
   3   2   3   -0.05    0.06
  -4  -2  -3   33.41    1.94
   4   2   3   39.22    1.95
   4   2   3   36.84    1.94
   4   2   3   40.01    1.95
   4   2   3   37.71    1.94
  -5  -2  -3    0.31    0.09
   5   2   3    0.19    0.05
   5   2   3    0.12    0.04
   5   2   3    0.18    0.05
   5   2   3    0.26    0.05
   5  -3  -3    8.02    0.43
   4  -3  -3   11.90    0.65
   4  -3  -3   12.56    0.66
   4  -3  -3   11.98    0.66
   4  -3  -3   12.58    0.65
   3  -3  -3  192.95    9.60
   3  -3  -3  189.87    9.60
   3  -3  -3  172.74    9.60
   3  -3  -3  203.18    9.61
   3  -3  -3  185.58    9.60
   3  -3  -3  175.90    9.60
   2  -3  -3    9.68    0.50
  -2   3   3    8.63    0.48
  -2   3   3    9.31    0.71
   1  -3  -3  276.25   14.70
  -1   3   3  300.46   14.71
  -1   3   3  278.46   14.64
   0  -3  -3  127.91    6.61
   0  -3  -3  116.00    6.61
   0   3   3  131.94    6.61
   0   3   3  132.24    6.57
   0   3   3  131.52    6.63
  -1  -3  -3   24.30    1.33
   1   3   3   25.01    1.37
  -2  -3  -3    9.34    0.49
   2   3   3    9.51    0.50
   2   3   3    8.75    0.65
  -3  -3  -3    1.48    0.12
   3   3   3    1.33    0.15
   3   3   3    1.26    0.15
   3   3   3    1.26    0.14
  -4  -3  -3    0.41    0.08
   4   3   3    0.64    0.11
   4   3   3    0.62    0.08
   4   3   3    0.56    0.08
   4   3   3    0.81    0.10
   4   3   3    0.60    0.08
   5   3   3   14.64    0.76
   5   3   3   14.15    0.75
   4  -4  -3    2.65    0.24
  -4   4   3    2.26    0.19
   3  -4  -3    4.36    0.27
   3  -4  -3    4.14    0.27
   3  -4  -3    4.45    0.27
   3  -4  -3    4.64    0.27
   3  -4  -3    4.07    0.28
  -3   4   3    4.59    0.26
   2  -4  -3    0.07    0.07
   2  -4  -3    0.08    0.05
   2  -4  -3    0.13    0.06
   2  -4  -3    0.09    0.06
  -2   4   3    0.06    0.04
   1  -4  -3   40.55    2.17
   1  -4  -3   41.08    2.18
  -1   4   3   44.62    2.17
   0  -4  -3   33.67    1.80
  -1  -4  -3    0.26    0.11
   1   4   3    0.04    0.21
  -2  -4  -3  123.57    6.99
   2   4   3  148.40    7.00
   3   4   3    5.13    0.29
   3   4   3    5.13    0.28
   3   4   3    4.78    0.29
  -4  -4  -3   15.25    0.86
   4   4   3   16.63    0.87
   4   4   3   16.33    0.87
   4   4   3   17.27    0.86
   5   4   3    7.08    0.37
   5   4   3    6.92    0.38
   4  -5  -3    9.33    0.53
   4  -5  -3    9.83    0.52
   4  -5  -3   10.30    0.52
   4  -5  -3    9.95    0.52
  -4   5   3    9.00    0.53
   3  -5  -3    7.52    0.44
   3  -5  -3    7.34    0.44
   3  -5  -3    8.42    0.43
   3  -5  -3    8.13    0.43
  -3   5   3    7.83    0.43
   2  -5  -3   47.42    2.56
   2  -5  -3   46.37    2.56
   2  -5  -3   48.81    2.56
   2  -5  -3   48.90    2.56
   2  -5  -3   52.41    2.57
  -2   5   3   52.97    2.56
   1  -5  -3    1.34    0.14
   1  -5  -3    1.28    0.10
   1  -5  -3    1.27    0.11
   1  -5  -3    1.72    0.13
  -1   5   3    1.40    0.10
   0  -5  -3    7.94    0.66
   0   5   3    8.00    0.43
  -1  -5  -3    1.51    0.09
   1   5   3    1.43    0.11
   1   5   3    1.25    0.14
  -2  -5  -3   12.01    0.59
   2   5   3   10.74    0.63
   2   5   3   11.07    0.60
  -3  -5  -3    2.32    0.14
   3   5   3    2.63    0.15
   3   5   3    2.23    0.17
   3   5   3    2.22    0.16
   3   5   3    2.20    0.21
  -4  -5  -3    0.51    0.07
   4   5   3    0.73    0.10
   4   5   3    0.65    0.07
   4   5   3    0.52    0.10
   4  -6  -3    2.96    0.17
   4  -6  -3    3.06    0.17
   4  -6  -3    2.72    0.18
   4  -6  -3    3.05    0.18
  -4   6   3    2.64    0.24
   3  -6  -3    0.02    0.06
   3  -6  -3    0.23    0.06
   3  -6  -3    0.13    0.06
   3  -6  -3    0.06    0.07
  -3   6   3    0.13    0.07
   2  -6  -3   16.46    0.88
   2  -6  -3   16.15    0.88
  -2   6   3   17.33    0.88
   1  -6  -3   17.34    0.90
   1  -6  -3   16.59    0.91
   1  -6  -3   17.69    0.90
  -1   6   3   16.30    0.91
  -1   6   3   17.76    0.90
   0   6   3   15.44    0.83
   0   6   3   15.19    0.84
  -1  -6  -3   50.70    2.41
  -1  -6  -3   44.80    2.41
  -1  -6  -3   51.52    2.41
   1   6   3   43.65    2.42
   1   6   3   43.14    2.43
  -2  -6  -3   13.79    0.70
   2   6   3   12.59    0.72
   2   6   3   13.43    0.71
   2   6   3   13.60    0.70
   2   6   3   13.42    0.71
  -3  -6  -3    4.53    0.24
   3   6   3    4.07    0.26
   3   6   3    4.36    0.25
   3   6   3    4.28    0.29
   3   6   3    4.37    0.24
   4   6   3    3.70    0.21
   4   6   3    3.47    0.21
   3  -7  -3    3.91    0.22
   3  -7  -3    3.83    0.23
   3  -7  -3    3.93    0.23
   3  -7  -3    3.87    0.22
  -3   7   3    3.83    0.24
  -3   7   3    3.82    0.23
   2  -7  -3   26.15    1.45
   2  -7  -3   28.43    1.46
   2  -7  -3   28.40    1.45
   2  -7  -3   26.00    1.45
  -2   7   3   30.77    1.46
   1  -7  -3    1.99    0.17
   1  -7  -3    2.01    0.14
   1  -7  -3    2.34    0.21
   1  -7  -3    2.09    0.21
   1  -7  -3    2.16    0.15
  -1   7   3    2.15    0.17
  -1   7   3    2.12    0.15
   0   7   3    0.11    0.05
  -1  -7  -3   86.45    4.39
  -1  -7  -3   86.33    4.38
   1   7   3   82.82    4.40
  -2  -7  -3   19.24    0.96
  -2  -7  -3   19.64    0.97
  -2  -7  -3   17.79    0.96
   2   7   3   17.63    0.99
   2   7   3   18.36    0.98
  -3  -7  -3    2.21    0.13
  -3  -7  -3    2.04    0.15
  -3  -7  -3    2.26    0.13
   3   7   3    2.04    0.15
   3   7   3    1.85    0.18
   3   7   3    2.05    0.15
   3  -8  -3   10.26    0.55
   3  -8  -3   10.49    0.54
   3  -8  -3   10.35    0.54
  -3   8   3    9.81    0.55
  -3   8   3   10.55    0.55
   2  -8  -3    2.62    0.16
   2  -8  -3    2.61    0.19
   2  -8  -3    2.65    0.17
  -2   8   3    2.43    0.17
   1  -8  -3   47.12    2.39
   1  -8  -3   47.49    2.38
  -1   8   3   43.72    2.39
   0  -8  -3   24.65    1.23
   0  -8  -3   23.12    1.22
   0  -8  -3   23.56    1.22
   0   8   3   22.01    1.23
   0   8   3   22.98    1.24
   0   8   3   24.41    1.24
  -1  -8  -3   61.91    3.17
  -1  -8  -3   61.82    3.17
   1   8   3   60.68    3.19
  -2  -8  -3    4.30    0.23
  -2  -8  -3    4.23    0.24
   2   8   3    4.14    0.25
   2   8   3    4.26    0.26
   3   8   3   -0.01    0.06
   3   8   3   -0.16    0.16
   2  -9  -3    1.70    0.11
   2  -9  -3    1.70    0.11
  -2   9   3    1.57    0.13
  -2   9   3    1.67    0.13
   1  -9  -3    0.05    0.04
   1  -9  -3    0.15    0.04
  -1   9   3    0.13    0.06
  -1   9   3    0.11    0.06
   0  -9  -3    0.12    0.05
   0  -9  -3    0.15    0.04
   0   9   3    0.21    0.06
  -1  -9  -3    8.90    0.46
  -1  -9  -3    8.13    0.45
  -1  -9  -3    8.13    0.44
   1   9   3    8.34    0.46
   2   9   3    5.90    0.33
   2   8  -4    1.89    0.13
  -2  -8   4    1.86    0.12
   1   8  -4    5.02    0.29
   1   8  -4    5.01    0.29
  -1  -8   4    4.78    0.28
   0   8  -4    7.01    0.37
   0   8  -4    6.68    0.38
   0  -8   4    6.39    0.37
  -1   8  -4   14.88    0.80
  -1   8  -4   15.46    0.79
   1  -8   4   14.68    0.79
  -2   8  -4    9.15    0.48
  -2   8  -4    9.10    0.48
   2  -8   4    8.20    0.47
   3   7  -4    2.19    0.15
   3   7  -4    2.25    0.14
   2   7  -4   12.68    0.69
   2   7  -4   13.68    0.71
  -2  -7   4   13.05    0.69
   1   7  -4    0.89    0.12
   1   7  -4    1.05    0.12
   1   7  -4    1.04    0.13
  -1  -7   4    1.10    0.11
   0   7  -4    8.63    0.48
   0   7  -4    8.42    0.49
   0   7  -4    8.94    0.49
   0  -7   4    9.12    0.48
  -1   7  -4    0.24    0.05
  -1   7  -4    0.17    0.05
   1  -7   4    0.25    0.06
  -2   7  -4    0.16    0.06
  -2   7  -4    0.07    0.06
   2  -7   4    0.08    0.06
   2  -7   4    0.14    0.08
   2  -7   4    0.02    0.07
  -3   7  -4    2.75    0.20
   3  -7   4    2.03    0.16
   3  -7   4    1.92    0.15
   3  -7   4    2.38    0.15
   3   6  -4    0.39    0.06
   3   6  -4    0.38    0.07
   3   6  -4    0.32    0.06
  -3  -6   4    0.44    0.06
   2   6  -4   19.68    1.06
   2   6  -4   18.92    1.03
   2   6  -4   20.58    1.05
   2   6  -4   19.63    1.03
   2   6  -4   20.15    1.06
  -2  -6   4   19.02    1.02
   1   6  -4    9.10    0.52
   1   6  -4    9.63    0.53
   1   6  -4    9.71    0.53
  -1  -6   4    9.67    0.50
   0   6  -4    0.04    0.06
   0   6  -4    0.00    0.08
   0   6  -4    0.07    0.05
   0  -6   4   -0.06    0.06
  -1   6  -4   89.38    5.02
  -1   6  -4  103.70    5.05
   1  -6   4   99.27    5.03
  -2   6  -4    0.35    0.07
  -2   6  -4    0.34    0.07
   2  -6   4    0.52    0.08
  -3   6  -4    9.70    0.51
  -3   6  -4   10.17    0.51
   3  -6   4    9.32    0.49
   3  -6   4    8.68    0.48
   3  -6   4    8.45    0.49
   3  -6   4    8.40    0.50
   4  -6   4    2.92    0.18
   4   5  -4    2.20    0.14
   4   5  -4    2.13    0.14
  -4  -5   4    2.36    0.16
   3   5  -4    1.25    0.11
   3   5  -4    1.38    0.11
   3   5  -4    1.44    0.14
  -3  -5   4    1.41    0.09
   2   5  -4    1.47    0.15
   2   5  -4    1.87    0.22
  -2  -5   4    1.47    0.09
   1   5  -4   10.02    0.50
   1   5  -4    8.35    0.50
   1   5  -4    8.76    0.49
   1   5  -4    8.64    0.49
  -1  -5   4    9.27    0.47
   0   5  -4    0.20    0.06
   0   5  -4    0.07    0.08
   0   5  -4    0.18    0.08
  -1   5  -4   49.70    2.68
  -1   5  -4   52.76    2.69
   1  -5   4   53.28    2.69
  -2   5  -4   18.11    1.02
  -2   5  -4   19.78    1.03
  -2   5  -4   20.33    1.02
   2  -5   4   19.82    1.03
   2  -5   4   19.82    1.04
   2  -5   4   19.86    1.03
   2  -5   4   19.22    1.02
  -3   5  -4    1.73    0.19
  -3   5  -4    1.31    0.18
  -3   5  -4    1.44    0.13
   3  -5   4    1.36    0.14
   3  -5   4    1.31    0.12
   3  -5   4    1.55    0.11
   3  -5   4    1.35    0.12
   4  -5   4   32.20    1.69
   4  -5   4   30.37    1.70
   4  -5   4   32.95    1.68
   4  -5   4   34.88    1.69
   4   4  -4    0.15    0.05
   4   4  -4    0.19    0.05
   3   4  -4   53.10    2.97
   3   4  -4   56.91    2.95
   3   4  -4   61.38    2.95
   2   4  -4   18.47    1.03
   2   4  -4   18.72    1.02
   2   4  -4   19.62    1.02
   2   4  -4   22.04    1.08
  -2  -4   4   18.99    1.01
   1   4  -4    5.52    0.29
   1   4  -4    4.66    0.29
  -1  -4   4    5.30    0.27
   0   4  -4   16.43    0.91
   0  -4   4   17.69    1.13
   0  -4   4   18.05    0.90
  -1   4  -4    0.82    0.12
  -1   4  -4    0.81    0.08
   1  -4   4    0.97    0.11
  -2   4  -4   20.45    1.06
  -2   4  -4   20.26    1.06
   2  -4   4   20.45    1.06
   2  -4   4   20.01    1.06
   2  -4   4   20.20    1.06
  -3   4  -4    0.09    0.06
  -3   4  -4   -0.01    0.11
   3  -4   4    0.01    0.08
   3  -4   4   -0.03    0.06
   3  -4   4    0.04    0.05
   3  -4   4    0.02    0.05
  -4   4  -4    2.80    0.21
   4  -4   4    2.92    0.18
   4  -4   4    2.90    0.18
   4  -4   4    2.71    0.21
   4  -4   4    2.89    0.17
   4   3  -4    0.01    0.05
   4   3  -4   -0.01    0.11
   4   3  -4    0.08    0.05
   3   3  -4  233.49   11.62
   3   3  -4  202.76   11.63
   3   3  -4  233.66   11.62
  -3  -3   4  234.24   11.61
   2   3  -4   11.52    0.69
   2   3  -4   12.64    0.70
   2   3  -4   13.72    0.68
   2   3  -4   13.19    0.69
  -2  -3   4   13.71    0.67
   1   3  -4   25.20    1.42
  -1  -3   4   29.46    1.41
  -2   3  -4    2.16    0.15
  -2   3  -4    2.07    0.13
   2  -3   4    2.11    0.15
   2  -3   4    2.03    0.15
   2  -3   4    2.24    0.16
  -3   3  -4    8.69    0.50
   3  -3   4    9.51    0.50
   3  -3   4    9.11    0.50
   3  -3   4    9.59    0.50
   3  -3   4    9.78    0.54
   3  -3   4    8.96    0.52
  -4   3  -4    2.89    0.20
   4  -3   4    2.96    0.18
   4  -3   4    3.02    0.18
   4  -3   4    3.35    0.27
   4  -3   4    2.84    0.21
   4  -3   4    3.06    0.19
   5  -3   4   12.36    0.60
   5  -3   4   11.85    0.60
   5  -3   4   12.02    0.60
   5  -3   4    9.72    0.61
   4   2  -4    0.71    0.10
   4   2  -4    0.71    0.11
   4   2  -4    0.69    0.13
   3   2  -4    3.47    0.21
   3   2  -4    3.48    0.20
   3   2  -4    3.26    0.24
  -1  -2   4   16.21    0.81
  -1  -2   4   15.27    0.92
   0   2  -4   74.95    3.94
   0  -2   4   81.23    3.94
   0  -2   4   70.31    3.88
  -1   2  -4   10.05    0.70
  -1   2  -4   10.56    0.59
  -1   2  -4    8.72    0.52
   1  -2   4   10.35    0.58
  -2   2  -4   16.85    0.92
  -2   2  -4   16.99    1.17
   2  -2   4   19.75    1.04
   2  -2   4   17.04    0.95
  -3   2  -4    2.20    0.15
   3  -2   4    2.07    0.17
   3  -2   4    2.09    0.15
   3  -2   4    2.07    0.19
   3  -2   4    2.18    0.16
   3  -2   4    2.10    0.20
  -4   2  -4    1.47    0.13
   4  -2   4    1.27    0.14
   4  -2   4    1.16    0.11
   4  -2   4    1.19    0.10
   4  -2   4    1.40    0.12
   5  -2   4    0.22    0.06
   5  -2   4    0.17    0.04
   5  -2   4    0.23    0.04
   5  -2   4    0.30    0.05
   3   1  -4    6.17    0.41
   3   1  -4    6.33    0.44
   3   1  -4    6.77    0.36
   2   1  -4    7.00    0.39
   1   1  -4   74.37    3.89
  -1  -1   4   76.65    3.95
   0   1  -4   21.79    1.13
   0  -1   4   19.39    1.08
   0  -1   4   20.23    1.12
   0  -1   4   22.10    1.12
  -1   1  -4   55.08    2.61
  -1   1  -4   46.25    2.56
  -1   1  -4   50.37    2.62
   1  -1   4   50.13    2.63
   1  -1   4   46.76    2.60
  -2   1  -4    3.39    0.19
  -3   1  -4   20.23    1.05
   3  -1   4   20.36    1.06
   3  -1   4   19.90    1.07
   3  -1   4   20.23    1.05
  -4   1  -4    8.98    0.48
   4  -1   4    8.90    0.47
   4  -1   4    8.63    0.47
   4  -1   4    8.33    0.47
   4  -1   4    8.56    0.49
  -5   1  -4   19.88    1.16
   5  -1   4   23.36    1.16
   5  -1   4   23.09    1.15
   5  -1   4   21.89    1.15
  -2   0   4  132.00    6.29
  -2   0   4  109.99    6.34
  -1   0   4   32.47    1.81
  -1   0   4   35.47    1.79
   0   0  -4    0.02    0.06
   0   0   4    0.02    0.05
   0   0   4    0.01    0.06
   0   0   4    0.01    0.02
  -1   0  -4   53.80    2.73
  -1   0  -4   49.37    2.67
   1   0   4   52.65    2.74
  -2   0  -4   46.58    2.40
  -3   0  -4    0.35    0.06
   3   0   4    0.59    0.08
   3   0   4    0.43    0.08
   3   0   4    0.50    0.06
   3   0   4    0.31    0.06
  -4   0  -4    9.80    0.54
   4   0   4   10.59    0.54
   4   0   4    9.21    0.53
   4   0   4    9.63    0.53
   4   0   4    9.69    0.52
   4   0   4   10.05    0.54
  -5   0  -4    2.97    0.24
   5   0   4    3.80    0.22
   5   0   4    3.59    0.21
   5   0   4    3.59    0.20
   3  -1  -4    4.87    0.29
   3  -1  -4    5.23    0.33
   3  -1  -4    4.81    0.30
  -2   1   4    0.65    0.23
  -1   1   4   36.06    1.90
   0  -1  -4    1.64    0.17
   0   1   4    1.87    0.10
   0   1   4    1.94    0.14
   0   1   4    1.86    0.18
  -1  -1  -4  869.44   47.39
  -1  -1  -4  953.82   47.51
   1   1   4  945.65   47.53
  -2  -1  -4    6.13    0.35
   2   1   4    6.98    0.52
  -3  -1  -4    0.63    0.10
   3   1   4    0.71    0.09
   3   1   4    0.65    0.11
   3   1   4    0.61    0.08
  -4  -1  -4   13.28    0.77
   4   1   4   13.34    0.76
   4   1   4   15.11    0.77
   4   1   4   15.53    0.78
   4   1   4   14.84    0.77
   4   1   4   14.64    0.76
   5   1   4    6.99    0.41
   5   1   4    8.17    0.41
   5   1   4    7.44    0.40
   4  -2  -4    0.10    0.07
   4  -2  -4    0.05    0.08
   4  -2  -4    0.12    0.08
   3  -2  -4   15.30    0.83
   3  -2  -4   15.37    0.82
   3  -2  -4   15.32    0.81
   3  -2  -4   14.50    0.82
   3  -2  -4   16.07    0.81
   2  -2  -4   33.42    1.81
  -2   2   4   36.49    2.00
  -1   2   4    4.52    0.40
  -1   2   4    4.54    0.32
   0  -2  -4    0.34    0.10
   0   2   4    0.47    0.04
   0   2   4    0.33    0.10
   0   2   4    0.36    0.10
  -1  -2  -4    3.51    0.20
  -1  -2  -4    3.69    0.30
   1   2   4    3.85    0.32
  -2  -2  -4    9.09    0.49
   2   2   4    9.48    0.66
  -3  -2  -4   12.55    0.66
   3   2   4   12.56    0.66
   3   2   4   12.41    0.65
   3   2   4   12.57    0.67
   3   2   4   12.08    0.67
  -4  -2  -4   26.06    1.55
   4   2   4   29.99    1.55
   4   2   4   32.04    1.56
   4   2   4   30.19    1.55
   4   2   4   30.81    1.56
   5   2   4   10.85    0.53
   5   2   4    9.71    0.52
   5   2   4    9.86    0.53
   5   2   4    9.22    0.52
   4  -3  -4    1.36    0.14
   4  -3  -4    2.06    0.27
   4  -3  -4    1.53    0.15
   4  -3  -4    1.51    0.15
   4  -3  -4    1.40    0.14
   3  -3  -4   69.29    3.64
   3  -3  -4   73.88    3.65
   3  -3  -4   69.88    3.64
   3  -3  -4   69.57    3.64
   3  -3  -4   71.09    3.64
   3  -3  -4   69.29    3.64
   2  -3  -4   23.05    1.13
  -2   3   4   20.05    1.13
  -1   3   4    6.80    0.48
  -1   3   4    5.94    0.34
   0  -3  -4   76.62    3.93
   0  -3  -4   67.67    3.94
   0   3   4   78.27    3.96
   0   3   4   74.14    4.01
   0   3   4   81.03    3.89
  -1  -3  -4   74.14    3.90
  -1  -3  -4   71.66    3.84
   1   3   4   77.87    3.95
   2   3   4    3.05    0.20
   2   3   4    3.24    0.22
  -3  -3  -4    2.25    0.16
   3   3   4    2.25    0.14
   3   3   4    2.17    0.16
   3   3   4    2.46    0.18
   3   3   4    2.30    0.15
   3   3   4    2.15    0.16
  -4  -3  -4    3.18    0.23
   4   3   4    4.21    0.26
   4   3   4    3.60    0.21
   4   3   4    3.68    0.22
   4   3   4    3.63    0.21
   4   3   4    3.78    0.23
   5   3   4    0.41    0.08
   5   3   4    0.33    0.06
   4  -4  -4   21.83    1.16
   4  -4  -4   22.30    1.16
   4  -4  -4   22.31    1.16
   4  -4  -4   21.97    1.16
   3  -4  -4    4.46    0.29
   3  -4  -4    4.48    0.29
  -3   4   4    3.48    0.24
   2  -4  -4   45.28    2.45
   2  -4  -4   45.04    2.45
   2  -4  -4   48.30    2.46
   2  -4  -4   49.62    2.45
  -2   4   4   48.58    2.44
   1  -4  -4   43.07    2.23
   0  -4  -4  155.89    7.94
   0   4   4  150.68    7.98
  -1  -4  -4   62.75    3.04
  -1  -4  -4   58.94    3.09
   1   4   4   53.65    3.20
   1   4   4   61.28    3.19
   2   4   4    1.03    0.12
   2   4   4    1.19    0.10
  -3  -4  -4   14.43    0.84
   3   4   4   16.51    0.84
   3   4   4   16.12    0.84
   3   4   4   16.68    0.85
   3   4   4   14.93    0.85
   3   4   4   17.66    0.84
  -4  -4  -4   13.35    0.78
   4   4   4   15.03    0.79
   4   4   4   15.15    0.79
   4   4   4   15.69    0.78
   5   4   4    1.73    0.11
   5   4   4    1.73    0.12
   4  -5  -4    6.87    0.37
   4  -5  -4    7.00    0.37
   4  -5  -4    6.95    0.37
   4  -5  -4    6.87    0.38
  -4   5   4    6.20    0.38
   3  -5  -4    1.35    0.15
   3  -5  -4    1.88    0.13
   3  -5  -4    1.62    0.14
   3  -5  -4    1.69    0.14
  -3   5   4    1.67    0.14
   2  -5  -4    2.78    0.19
   2  -5  -4    3.33    0.20
   2  -5  -4    3.11    0.19
   2  -5  -4    2.77    0.20
   2  -5  -4    3.25    0.20
  -2   5   4    2.81    0.20
   1  -5  -4    4.93    0.28
   1  -5  -4    4.89    0.27
   1  -5  -4    5.13    0.29
   1  -5  -4    4.59    0.28
   1  -5  -4    4.56    0.29
  -1   5   4    5.16    0.27
   0  -5  -4    0.56    0.25
  -1  -5  -4    2.05    0.11
   1   5   4    1.68    0.16
   1   5   4    1.99    0.13
  -2  -5  -4    5.40    0.27
   2   5   4    4.91    0.30
   2   5   4    4.98    0.30
  -3  -5  -4    1.89    0.11
   3   5   4    1.41    0.14
   3   5   4    1.52    0.21
   3   5   4    1.85    0.12
   3   5   4    1.48    0.14
  -4  -5  -4    0.53    0.07
   4   5   4    0.54    0.07
   4   5   4    0.44    0.07
   4   5   4    0.52    0.10
   4  -6  -4    3.41    0.19
   4  -6  -4    3.60    0.20
   4  -6  -4    3.54    0.20
   4  -6  -4    3.39    0.20
  -4   6   4    2.82    0.24
   3  -6  -4    8.49    0.45
   3  -6  -4    7.77    0.46
   3  -6  -4    8.08    0.45
   3  -6  -4    8.13    0.45
  -3   6   4    8.53    0.45
   2  -6  -4    1.47    0.13
   2  -6  -4    1.73    0.14
   2  -6  -4    1.47    0.13
   2  -6  -4    1.70    0.13
  -2   6   4    1.54    0.12
   1  -6  -4   33.97    1.72
   1  -6  -4   33.73    1.72
   1  -6  -4   32.25    1.72
   1  -6  -4   33.20    1.73
  -1   6   4   34.80    1.72
  -1   6   4   31.02    1.73
   0  -6  -4   21.40    1.12
   0  -6  -4   21.69    1.12
  -1  -6  -4    4.16    0.22
   1   6   4    4.07    0.25
   1   6   4    3.78    0.26
  -2  -6  -4   31.63    1.58
   2   6   4   30.34    1.60
   2   6   4   29.74    1.61
   2   6   4   31.10    1.59
  -3  -6  -4    1.33    0.09
   3   6   4    1.42    0.12
   3   6   4    1.29    0.17
   3   6   4    1.31    0.10
   3   6   4    1.38    0.12
  -4  -6  -4    3.18    0.18
   4   6   4    2.96    0.18
   4   6   4    3.17    0.19
   4   6   4    3.45    0.19
   3  -7  -4    6.05    0.35
   3  -7  -4    6.70    0.35
   3  -7  -4    6.50    0.35
   3  -7  -4    6.39    0.36
  -3   7   4    6.62    0.37
  -3   7   4    6.41    0.36
   2  -7  -4    2.50    0.17
   2  -7  -4    2.63    0.17
   2  -7  -4    2.38    0.17
   2  -7  -4    2.43    0.17
  -2   7   4    2.87    0.18
   1  -7  -4    0.84    0.12
   1  -7  -4    0.89    0.09
   1  -7  -4    0.77    0.10
   1  -7  -4    0.89    0.10
   0  -7  -4    0.52    0.07
   0  -7  -4    0.94    0.14
   0  -7  -4    0.58    0.09
   0   7   4    0.69    0.10
  -1  -7  -4    8.01    0.43
  -1  -7  -4    8.19    0.43
   1   7   4    7.76    0.45
  -2  -7  -4   16.69    0.82
  -2  -7  -4   17.23    0.83
   2   7   4   14.90    0.84
   2   7   4   15.31    0.83
   2   7   4   14.83    0.85
  -3  -7  -4   11.27    0.58
  -3  -7  -4   11.78    0.59
   3   7   4   11.25    0.60
   3   7   4   10.27    0.62
   3   7   4   11.25    0.60
   2  -8  -4   17.02    0.89
   2  -8  -4   17.34    0.89
   2  -8  -4   17.11    0.88
  -2   8   4   16.07    0.89
   1  -8  -4    0.23    0.06
   1  -8  -4    0.27    0.05
  -1   8   4    0.44    0.14
  -1   8   4    0.31    0.06
   0  -8  -4   13.15    0.70
   0  -8  -4   13.40    0.69
   0  -8  -4   12.76    0.71
   0   8   4   13.01    0.71
   0   8   4   13.48    0.71
  -1  -8  -4   20.89    1.09
  -1  -8  -4   21.12    1.08
   1   8   4   20.45    1.10
  -2  -8  -4    0.06    0.04
  -2  -8  -4    0.03    0.03
   2   8   4    0.11    0.07
   2   8   4   -0.01    0.05
  -3  -8  -4    2.61    0.15
  -3  -8  -4    2.58    0.16
   3   8   4    2.64    0.19
   3   8   4    2.61    0.16
   1  -9  -4    7.75    0.42
   1  -9  -4    7.89    0.41
  -1   9   4    7.63    0.43
  -1   9   4    7.78    0.43
  -1   9   4    7.87    0.44
   0  -9  -4    6.26    0.34
   0  -9  -4    6.30    0.34
   0   9   4    6.48    0.36
  -1  -9  -4   33.00    1.72
  -1  -9  -4   32.80    1.72
   1   9   4   34.22    1.74
  -2  -9  -4    0.57    0.08
  -2  -9  -4    0.49    0.07
   2   9   4    0.58    0.10
   1   8  -5   12.64    0.65
   1   8  -5   12.20    0.64
   1   8  -5   11.39    0.64
  -1  -8   5   11.58    0.63
   0   8  -5    0.38    0.07
   0   8  -5    0.39    0.07
  -1   8  -5   23.93    1.21
  -1   8  -5   23.42    1.21
   1  -8   5   22.20    1.21
  -2   8  -5    5.27    0.30
  -2   8  -5    5.49    0.31
   2  -8   5    5.01    0.29
   2   7  -5    5.06    0.29
   2   7  -5    4.81    0.28
  -2  -7   5    5.14    0.28
   1   7  -5    4.34    0.28
   1   7  -5    4.43    0.27
  -1  -7   5    4.60    0.30
   0   7  -5    0.22    0.06
   0   7  -5    0.26    0.07
   0  -7   5    0.21    0.06
  -1   7  -5    6.22    0.34
  -1   7  -5    5.88    0.34
   1  -7   5    5.84    0.34
  -2   7  -5   24.08    1.22
  -2   7  -5   22.56    1.23
   2  -7   5   23.37    1.22
   3  -7   5    1.00    0.09
   3   6  -5    8.41    0.45
   3   6  -5    7.61    0.45
   3   6  -5    8.87    0.46
  -3  -6   5    8.49    0.44
   2   6  -5    4.27    0.26
   2   6  -5    3.90    0.24
   2   6  -5    4.05    0.24
   2   6  -5    4.13    0.27
  -2  -6   5    4.07    0.22
   1   6  -5    0.45    0.08
   1   6  -5    0.40    0.08
   1   6  -5    0.27    0.06
  -1  -6   5    0.43    0.06
   0   6  -5   13.16    0.74
   0   6  -5   13.22    0.73
   0  -6   5   15.02    0.74
  -1   6  -5    7.49    0.43
  -1   6  -5    7.61    0.42
   1  -6   5    7.82    0.43
  -2   6  -5    3.64    0.22
  -2   6  -5    3.59    0.22
   2  -6   5    3.24    0.22
   2  -6   5    3.43    0.22
   2  -6   5    3.06    0.23
  -3   6  -5    1.59    0.20
   3  -6   5    1.33    0.12
   3  -6   5    1.24    0.11
   3  -6   5    1.27    0.12
   4   5  -5    1.50    0.14
   4   5  -5    1.10    0.10
  -3  -5   5    5.40    0.29
   2   5  -5    2.96    0.21
   2   5  -5    2.72    0.19
   2   5  -5    2.51    0.17
   2   5  -5    3.01    0.21
   2   5  -5    2.78    0.17
  -2  -5   5    2.64    0.15
   1   5  -5    0.56    0.10
   1   5  -5    0.67    0.10
   1   5  -5    0.82    0.11
   1   5  -5    0.69    0.09
   1   5  -5    0.59    0.11
  -1  -5   5    0.71    0.06
   0   5  -5    3.48    0.23
   0   5  -5    3.73    0.25
   0   5  -5    3.59    0.22
   0  -5   5    4.15    0.24
   0  -5   5    3.67    0.21
  -1   5  -5    0.49    0.06
  -1   5  -5    0.36    0.07
   1  -5   5    0.59    0.10
  -2   5  -5    3.53    0.21
   2  -5   5    3.51    0.23
   2  -5   5    3.15    0.22
   2  -5   5    3.24    0.21
  -3   5  -5   12.32    0.70
   3  -5   5   13.02    0.69
   3  -5   5   13.45    0.69
   3  -5   5   13.19    0.69
   3  -5   5   13.35    0.71
   4  -5   5    3.66    0.22
   4  -5   5    3.48    0.20
   4  -5   5    3.65    0.20
   4   4  -5   10.72    0.58
   4   4  -5   11.16    0.58
   3   4  -5    0.10    0.07
   3   4  -5   -0.01    0.04
   3   4  -5    0.04    0.04
  -3  -4   5    0.06    0.03
   2   4  -5   26.96    1.41
   2   4  -5   26.59    1.41
   2   4  -5   27.79    1.42
   2   4  -5   27.06    1.40
   2   4  -5   24.17    1.42
  -2  -4   5   29.23    1.39
   1   4  -5   12.38    0.70
   1   4  -5   14.17    0.71
   1   4  -5   12.87    0.70
   1   4  -5   14.16    0.70
   1   4  -5   11.98    0.71
  -1  -4   5   13.68    0.69
   0   4  -5    9.83    0.52
   0   4  -5    7.81    0.51
   0   4  -5    9.23    0.49
   0  -4   5    9.63    0.48
  -1   4  -5   15.25    0.81
  -1   4  -5   15.23    0.82
   1  -4   5   15.74    0.82
  -2   4  -5    9.53    0.49
  -2   4  -5    8.46    0.48
   2  -4   5    8.71    0.49
   2  -4   5    9.32    0.50
   2  -4   5    8.38    0.48
   2  -4   5    8.84    0.49
  -3   4  -5    6.00    0.37
   3  -4   5    6.94    0.37
   3  -4   5    6.67    0.39
   3  -4   5    7.14    0.37
   3  -4   5    6.88    0.37
   4  -4   5    0.80    0.08
   4  -4   5    0.88    0.09
   4  -4   5    0.95    0.12
   4  -4   5    0.83    0.09
   4   3  -5    1.73    0.13
   4   3  -5    1.69    0.13
   3   3  -5   47.15    2.54
   3   3  -5   46.94    2.54
   3   3  -5   49.17    2.53
   3   3  -5   52.13    2.53
   2   3  -5    0.09    0.07
   2   3  -5    0.12    0.05
   2   3  -5    0.04    0.08
   2   3  -5    0.12    0.06
   1   3  -5   30.15    1.60
  -1  -3   5   32.52    1.59
  -1  -3   5   29.68    1.77
   0   3  -5    8.05    0.68
   0   3  -5    7.37    0.41
   0  -3   5    7.61    0.40
  -1   3  -5   47.38    2.40
  -1   3  -5   48.67    2.43
  -1   3  -5   41.42    2.40
   1  -3   5   48.64    2.42
  -2   3  -5   12.26    0.67
  -2   3  -5   11.58    0.70
  -2   3  -5   13.12    0.68
   2  -3   5   12.76    0.69
   2  -3   5   13.31    0.69
   2  -3   5   12.90    0.68
   2  -3   5   13.43    0.69
  -3   3  -5    4.96    0.30
   3  -3   5    5.32    0.30
   3  -3   5    5.49    0.30
   3  -3   5    5.07    0.34
   3  -3   5    5.02    0.31
   3  -3   5    5.29    0.29
  -4   3  -5    2.63    0.19
   4  -3   5    2.61    0.18
   4  -3   5    2.66    0.20
   4  -3   5    2.85    0.17
   4  -3   5    2.81    0.17
   5  -3   5    0.62    0.06
   5  -3   5    0.68    0.08
   5  -3   5    0.61    0.07
   4   2  -5    5.67    0.33
   4   2  -5    5.09    0.34
   3   2  -5    8.57    0.42
   3   2  -5    7.48    0.44
   3   2  -5    7.64    0.42
   3   2  -5    6.72    0.46
   2   2  -5   57.54    2.82
   2   2  -5   51.15    2.81
   1   2  -5   13.23    0.73
  -1  -2   5   14.47    0.72
   0  -2   5  176.31    9.13
  -1   2  -5   16.54    0.95
  -1   2  -5   15.39    0.86
   1  -2   5   17.09    0.94
   1  -2   5   17.14    1.07
  -2   2  -5   30.24    1.55
   2  -2   5   29.43    1.56
   2  -2   5   29.73    1.55
   2  -2   5   30.31    1.56
  -3   2  -5   16.97    0.96
   3  -2   5   18.49    0.98
   3  -2   5   18.35    0.96
   3  -2   5   18.38    0.96
   3  -2   5   18.95    0.98
   3  -2   5   18.74    0.96
  -4   2  -5   22.74    1.17
   4  -2   5   22.16    1.18
   4  -2   5   22.02    1.16
   4  -2   5   22.17    1.16
   4  -2   5   22.20    1.16
   5  -2   5    2.58    0.15
   5  -2   5    2.59    0.17
   5  -2   5    2.66    0.15
   4   1  -5    0.61    0.14
   4   1  -5    0.81    0.14
   3   1  -5    5.35    0.34
   3   1  -5    5.92    0.31
   3   1  -5    5.75    0.32
   3   1  -5    4.75    0.35
   2   1  -5   61.62    3.18
  -2  -1   5   61.36    3.38
  -1  -1   5    0.02    0.13
   0  -1   5   59.28    3.08
   0  -1   5   58.44    3.02
  -1   1  -5   37.95    2.18
  -1   1  -5   42.41    2.23
  -1   1  -5   44.07    2.26
   1  -1   5   42.76    2.27
   1  -1   5   44.38    2.22
  -2   1  -5    1.47    0.10
  -3   1  -5    0.18    0.06
   3  -1   5    0.16    0.08
   3  -1   5    0.30    0.07
   3  -1   5    0.13    0.06
   3  -1   5    0.25    0.09
  -4   1  -5    0.01    0.07
   4  -1   5    0.08    0.06
   4  -1   5    0.10    0.05
   4  -1   5    0.00    0.05
   4  -1   5    0.06    0.08
   5  -1   5    0.09    0.04
   5  -1   5    0.16    0.06
   5  -1   5    0.11    0.05
   3   0  -5   40.75    2.15
   3   0  -5   40.94    2.14
   3   0  -5   41.73    2.15
   2   0  -5    4.26    0.26
  -2   0   5    4.49    0.47
  -1   0   5    1.62    0.24
  -1   0   5    1.76    0.21
   0   0  -5   35.55    1.99
   0   0   5   37.81    2.00
   0   0   5   38.56    1.94
   0   0   5   38.98    1.99
  -1   0  -5  229.14   11.10
  -1   0  -5  193.83   11.02
   1   0   5  220.98   11.11
  -2   0  -5    9.61    0.51
  -3   0  -5   28.53    1.38
   3   0   5   26.64    1.38
   3   0   5   26.68    1.39
   3   0   5   26.15    1.39
   3   0   5   26.69    1.37
   3   0   5   24.24    1.38
  -4   0  -5    5.15    0.32
   4   0   5    5.51    0.32
   4   0   5    5.48    0.32
   4   0   5    4.82    0.30
   4   0   5    5.71    0.30
   4   0   5    5.43    0.31
  -5   0  -5   10.32    0.60
   5   0   5   10.81    0.59
   5   0   5   12.22    0.60
   5   0   5   11.68    0.59
   4  -1  -5    7.29    0.44
   4  -1  -5    7.95    0.52
   3  -1  -5    0.04    0.09
   3  -1  -5    0.07    0.08
   3  -1  -5    0.01    0.08
   2  -1  -5   11.64    0.64
  -1   1   5   30.98    1.61
  -1   1   5   29.09    1.65
   0  -1  -5   89.32    4.73
   0   1   5   89.36    4.74
   0   1   5   94.41    4.68
  -1  -1  -5   57.25    2.89
  -1  -1  -5   49.66    2.81
   1   1   5   57.14    2.91
  -2  -1  -5   18.56    0.97
  -3  -1  -5    3.30    0.19
   3   1   5    2.94    0.20
   3   1   5    2.91    0.20
   3   1   5    2.89    0.19
   3   1   5    2.68    0.18
   3   1   5    2.96    0.18
  -4  -1  -5    2.50    0.19
   4   1   5    2.63    0.17
   4   1   5    2.85    0.20
   4   1   5    2.65    0.17
   4   1   5    2.72    0.19
  -5  -1  -5    0.79    0.13
   5   1   5    0.96    0.08
   5   1   5    0.85    0.08
   5   1   5    1.04    0.09
   4  -2  -5   14.19    0.73
   4  -2  -5   12.40    0.74
   4  -2  -5   14.38    0.74
   3  -2  -5    2.42    0.17
   3  -2  -5    2.63    0.20
   3  -2  -5    2.45    0.18
   3  -2  -5    2.41    0.19
   2  -2  -5   26.46    1.38
  -1   2   5   31.88    1.65
  -1   2   5   32.01    1.72
   0  -2  -5    5.03    0.37
   0   2   5    4.90    0.36
   0   2   5    4.97    0.33
   0   2   5    5.75    0.28
  -1  -2  -5    0.31    0.05
  -1  -2  -5    0.40    0.14
   1   2   5    0.38    0.17
  -2  -2  -5   11.27    0.59
  -3  -2  -5   19.79    1.05
   3   2   5   18.69    1.05
   3   2   5   20.38    1.05
   3   2   5   20.62    1.06
   3   2   5   21.56    1.05
   3   2   5   19.07    1.06
  -4  -2  -5    1.45    0.15
   4   2   5    1.90    0.13
   4   2   5    1.88    0.16
   4   2   5    1.89    0.13
   4   2   5    1.68    0.14
  -5  -2  -5    0.02    0.07
   5   2   5    0.08    0.04
   5   2   5    0.09    0.05
   5   2   5    0.13    0.06
   5   2   5    0.10    0.04
   4  -3  -5    5.17    0.32
   3  -3  -5    1.13    0.15
   3  -3  -5    1.30    0.14
   3  -3  -5    1.06    0.11
   3  -3  -5    1.10    0.13
   3  -3  -5    1.31    0.14
   3  -3  -5    1.10    0.12
  -3   3   5    1.08    0.14
   2  -3  -5   13.79    0.77
   2  -3  -5   14.14    0.73
   2  -3  -5   13.67    0.75
   1  -3  -5   55.57    2.81
  -1   3   5   53.35    2.80
   0  -3  -5    0.06    0.06
   0   3   5    0.07    0.14
   0   3   5    0.01    0.03
   1   3   5   31.49    1.78
  -2  -3  -5   16.49    0.84
   2   3   5   16.37    0.86
   2   3   5   15.45    0.85
  -3  -3  -5    2.25    0.16
   3   3   5    2.59    0.15
   3   3   5    2.32    0.18
   3   3   5    2.43    0.17
   3   3   5    2.50    0.16
   3   3   5    2.62    0.18
  -4  -3  -5   10.24    0.60
   4   3   5   11.28    0.66
   4   3   5   11.43    0.61
   4   3   5   11.67    0.59
   4   3   5   11.12    0.59
   4   3   5   11.31    0.60
   5   3   5    0.73    0.09
   5   3   5    0.83    0.07
   4  -4  -5    0.38    0.08
   4  -4  -5    0.29    0.06
  -4   4   5    0.23    0.11
   3  -4  -5   22.84    1.17
   3  -4  -5   22.63    1.17
   3  -4  -5   21.40    1.17
   3  -4  -5   22.43    1.17
   3  -4  -5   22.55    1.16
  -3   4   5   21.01    1.15
   2  -4  -5   23.02    1.12
   2  -4  -5   20.12    1.12
   2  -4  -5   19.87    1.13
  -2   4   5   22.46    1.11
   1  -4  -5    1.01    0.10
   1  -4  -5    1.00    0.13
  -1   4   5    1.03    0.08
   0   4   5    0.75    0.07
  -1  -4  -5   25.17    1.30
  -2  -4  -5   48.35    2.72
  -2  -4  -5   56.06    2.71
   2   4   5   56.55    2.71
   2   4   5   53.83    2.72
   2   4   5   48.15    2.72
  -3  -4  -5    0.42    0.08
   3   4   5    0.60    0.08
   3   4   5    0.66    0.08
   3   4   5    0.45    0.07
  -4  -4  -5    1.11    0.10
   4   4   5    0.99    0.13
   4   4   5    1.24    0.13
   4   4   5    1.22    0.10
   5   4   5    2.64    0.15
   5   4   5    2.57    0.16
   4  -5  -5    2.06    0.15
   4  -5  -5    2.46    0.16
   4  -5  -5    2.44    0.15
   4  -5  -5    2.51    0.16
   3  -5  -5   59.80    3.18
   3  -5  -5   61.50    3.18
   3  -5  -5   60.36    3.18
   3  -5  -5   61.03    3.17
   3  -5  -5   62.70    3.18
  -3   5   5   63.25    3.17
   2  -5  -5   11.73    0.65
   2  -5  -5   12.85    0.65
   2  -5  -5   11.50    0.65
   2  -5  -5   11.48    0.65
   2  -5  -5   12.22    0.64
  -2   5   5   12.41    0.64
   1  -5  -5   15.11    0.83
   1  -5  -5   15.41    0.83
   1  -5  -5   14.88    0.83
   1  -5  -5   17.12    0.84
   1  -5  -5   15.35    0.83
  -1   5   5   16.57    0.83
   0  -5  -5    0.57    0.08
   0  -5  -5    0.85    0.30
   0  -5  -5    0.54    0.08
   0   5   5    0.44    0.08
   0   5   5    0.40    0.62
   1   5   5   12.85    0.69
  -2  -5  -5    2.13    0.12
   2   5   5    1.98    0.19
   2   5   5    1.74    0.16
   2   5   5    1.68    0.17
   2   5   5    2.38    0.14
  -3  -5  -5   94.28    4.79
   3   5   5   88.82    4.80
   3   5   5   90.95    4.80
   3   5   5   98.34    4.79
  -4  -5  -5    4.77    0.27
   4   5   5    4.80    0.29
   4   5   5    5.18    0.27
   4   5   5    4.99    0.29
   4  -6  -5    3.24    0.19
   4  -6  -5    3.40    0.19
   4  -6  -5    3.51    0.19
   4  -6  -5    3.35    0.19
  -4   6   5    3.09    0.24
   3  -6  -5    1.85    0.22
   3  -6  -5    1.96    0.21
  -3   6   5    1.92    0.17
   2  -6  -5   21.91    1.17
   2  -6  -5   22.57    1.17
   2  -6  -5   22.26    1.17
   2  -6  -5   21.59    1.18
  -2   6   5   23.18    1.17
   1  -6  -5    0.11    0.08
   1  -6  -5    0.08    0.05
   1  -6  -5    0.17    0.06
   1  -6  -5    0.09    0.04
  -1   6   5    0.13    0.08
   0  -6  -5   54.24    2.76
   0  -6  -5   52.11    2.77
   0  -6  -5   54.71    2.76
   0   6   5   53.12    2.78
   1   6   5    5.95    0.36
   1   6   5    6.43    0.36
  -2  -6  -5    6.36    0.32
   2   6   5    5.65    0.34
   2   6   5    6.06    0.33
   2   6   5    5.73    0.37
  -3  -6  -5    0.60    0.06
   3   6   5    0.52    0.08
   3   6   5    0.59    0.12
   3   6   5    0.60    0.07
   3   6   5    0.61    0.08
   4   6   5    0.37    0.05
   4   6   5    0.33    0.06
   4   6   5    0.42    0.06
   3  -7  -5    0.05    0.06
   3  -7  -5    0.06    0.04
   3  -7  -5    0.07    0.05
   3  -7  -5    0.02    0.05
  -3   7   5    0.08    0.13
   2  -7  -5    0.09    0.06
   2  -7  -5    0.12    0.06
   2  -7  -5    0.11    0.06
   2  -7  -5    0.11    0.07
  -2   7   5    0.08    0.08
   1  -7  -5   16.20    0.84
   1  -7  -5   15.33    0.84
   1  -7  -5   15.26    0.84
   1  -7  -5   16.54    0.83
  -1   7   5   15.75    0.84
   0  -7  -5    0.31    0.05
   0  -7  -5    0.27    0.04
   0   7   5    0.40    0.08
   0   7   5    0.26    0.06
  -1  -7  -5   15.99    0.81
  -1  -7  -5   16.04    0.82
   1   7   5   15.15    0.84
   1   7   5   15.13    0.83
  -2  -7  -5    2.85    0.16
  -2  -7  -5    2.89    0.15
   2   7   5    2.34    0.18
   2   7   5    2.37    0.19
   3   7   5   11.12    0.64
   3   7   5   11.84    0.62
   2  -8  -5    2.89    0.17
   2  -8  -5    2.85    0.18
   2  -8  -5    2.74    0.18
  -2   8   5    2.85    0.18
   1  -8  -5   28.10    1.45
   1  -8  -5   29.82    1.44
  -1   8   5   24.86    1.42
  -1   8   5   26.78    1.43
   0  -8  -5    3.05    0.18
   0  -8  -5    3.07    0.27
   0  -8  -5    2.86    0.17
   0   8   5    2.91    0.21
  -1  -8  -5   18.00    0.94
  -1  -8  -5   18.20    0.95
   1   8   5   18.02    0.97
  -2  -8  -5   30.24    1.50
  -2  -8  -5   29.85    1.50
   2   8   5   26.44    1.52
   2   8   5   29.39    1.52
  -3  -8  -5    0.43    0.06
  -3  -8  -5    0.39    0.05
   3   8   5    0.42    0.06
   1  -9  -5   14.58    0.76
   1  -9  -5   14.58    0.76
  -1   9   5   14.01    0.78
  -1   9   5   14.98    0.77
  -1   9   5   14.47    0.77
   0  -9  -5   14.16    0.75
   0  -9  -5   14.14    0.74
   0   9   5   14.32    0.76
  -1  -9  -5    7.51    0.42
  -1  -9  -5    7.62    0.41
   1   9   5    8.31    0.43
  -2  -9  -5   21.23    1.08
  -2  -9  -5   19.89    1.05
  -2  -9  -5   19.69    1.05
   2   9   5   20.30    1.07
   1   8  -6    1.76    0.17
   1   8  -6    2.17    0.15
  -1  -8   6    2.16    0.13
   0   8  -6    8.39    0.45
   0   8  -6    8.45    0.45
   0  -8   6    7.94    0.44
  -1   8  -6    0.27    0.07
  -1   8  -6    0.37    0.06
   1  -8   6    0.34    0.05
   2   7  -6    7.66    0.52
   2   7  -6    9.09    0.47
   2   7  -6    8.69    0.47
  -2  -7   6    9.20    0.47
   1   7  -6    0.25    0.07
   1   7  -6    0.13    0.06
   1   7  -6    0.16    0.06
  -1  -7   6    0.29    0.06
   0   7  -6    2.31    0.16
   0  -7   6    2.19    0.16
  -1   7  -6   -0.07    0.05
  -1   7  -6    0.03    0.06
   1  -7   6    0.04    0.05
  -2   7  -6    0.44    0.08
  -2   7  -6    0.35    0.07
   3   6  -6    3.25    0.19
   3   6  -6    3.21    0.20
   2   6  -6   21.54    1.20
   2   6  -6   23.05    1.21
   2   6  -6   24.46    1.22
   2   6  -6   23.51    1.22
  -2  -6   6   22.64    1.19
   1   6  -6   24.64    1.37
   1   6  -6   26.14    1.38
   1   6  -6   25.41    1.38
   1   6  -6   25.87    1.38
  -1  -6   6   26.59    1.36
  -1  -6   6   28.86    1.37
   0   6  -6   15.63    0.85
   0   6  -6   15.84    0.86
   0  -6   6   16.43    0.85
  -1   6  -6   35.28    1.83
  -1   6  -6   34.71    1.83
   1  -6   6   35.35    1.83
  -2   6  -6    0.41    0.09
  -2   6  -6    0.40    0.07
   2  -6   6    0.47    0.09
   3  -6   6    6.09    0.34
   3   5  -6    0.54    0.08
   3   5  -6    0.67    0.08
   3   5  -6    0.43    0.07
  -3  -5   6    0.47    0.07
   2   5  -6    8.88    0.49
   2   5  -6    9.16    0.49
   2   5  -6    7.90    0.48
   2   5  -6    8.73    0.47
   2   5  -6    9.16    0.49
  -2  -5   6    8.78    0.46
   1   5  -6    9.73    0.55
   1   5  -6    9.62    0.53
   1   5  -6    9.83    0.54
  -1  -5   6   10.24    0.52
   0   5  -6    1.34    0.13
   0   5  -6    1.47    0.12
   0  -5   6    1.76    0.14
   0  -5   6    1.05    0.15
  -1   5  -6    3.68    0.22
  -1   5  -6    3.66    0.23
   1  -5   6    3.54    0.23
  -2   5  -6   89.37    4.55
  -2   5  -6   89.43    4.56
   2  -5   6   86.20    4.56
   3  -5   6    0.66    0.10
   3  -5   6    0.99    0.12
   3  -5   6    0.61    0.08
   3  -5   6    0.74    0.10
   4  -5   6    4.05    0.22
   4  -5   6    3.69    0.21
   4  -5   6    3.52    0.21
   4   4  -6    6.42    0.35
   3   4  -6   21.93    1.08
   3   4  -6   19.48    1.05
   3   4  -6   17.80    1.05
   3   4  -6   20.34    1.06
  -3  -4   6   20.66    1.04
   2   4  -6    0.58    0.09
   2   4  -6    0.56    0.10
  -2  -4   6    0.51    0.05
   1   4  -6    8.59    0.44
   1   4  -6    6.87    0.42
   1   4  -6    8.15    0.43
   1   4  -6    7.32    0.41
   1   4  -6    6.53    0.41
  -1  -4   6    7.32    0.39
   0   4  -6    0.06    0.04
   0   4  -6    0.32    0.12
   0   4  -6   -0.02    0.09
   0   4  -6    0.11    0.06
   0  -4   6   -0.01    0.08
   0  -4   6    0.05    0.03
  -1   4  -6    9.82    0.54
  -1   4  -6    9.98    0.54
   1  -4   6    9.85    0.54
  -2   4  -6    3.48    0.24
   2  -4   6    3.01    0.25
   2  -4   6    3.49    0.21
   2  -4   6    3.04    0.24
   2  -4   6    3.00    0.22
   2  -4   6    2.97    0.26
  -3   4  -6    0.06    0.07
   3  -4   6   -0.02    0.07
   3  -4   6    0.09    0.05
   3  -4   6    0.08    0.07
   3  -4   6   -0.02    0.05
   4  -4   6    4.38    0.25
   4  -4   6    4.51    0.27
   4  -4   6    4.35    0.25
   4  -4   6    4.65    0.25
   4   3  -6    0.14    0.05
   3   3  -6    0.08    0.11
   3   3  -6    0.04    0.05
   3   3  -6    0.06    0.05
  -3  -3   6    0.09    0.04
   2   3  -6  103.69    5.21
   2   3  -6  100.80    5.20
   2   3  -6  100.57    5.20
   2   3  -6  100.02    5.21
   2   3  -6   93.45    5.21
  -2  -3   6  107.06    5.19
   1   3  -6    7.59    0.42
   1   3  -6    7.82    0.41
   1   3  -6    7.09    0.40
  -1  -3   6    7.10    0.39
   0   3  -6   67.47    3.41
   0   3  -6   65.39    3.42
   0  -3   6   62.65    3.54
   0  -3   6   68.80    3.40
  -1   3  -6    1.60    0.16
  -1   3  -6    1.43    0.12
   1  -3   6    1.42    0.14
  -2   3  -6   14.85    0.73
  -2   3  -6   13.49    0.72
   2  -3   6   14.11    0.73
   2  -3   6   14.55    0.74
   2  -3   6   13.36    0.73
   2  -3   6   12.29    0.75
   2  -3   6   13.27    0.73
  -3   3  -6    0.11    0.06
   3  -3   6    0.12    0.09
  -4   3  -6    4.73    0.28
   4  -3   6    4.73    0.28
   4  -3   6    4.69    0.29
   4   2  -6    4.71    0.28
   3   2  -6    5.25    0.31
   3   2  -6    5.09    0.34
   3   2  -6    4.77    0.31
   3   2  -6    5.00    0.31
   3   2  -6    4.86    0.29
   2   2  -6   12.58    0.67
   2   2  -6   12.12    0.65
   2   2  -6   11.71    0.66
   2   2  -6   12.95    0.65
   2   2  -6   11.69    0.67
  -1  -2   6    6.13    0.32
   0   2  -6    0.45    0.06
  -1   2  -6   28.99    1.43
   1  -2   6   29.50    1.58
   1  -2   6   24.20    1.42
  -2   2  -6   10.27    0.57
   2  -2   6   11.23    0.59
   2  -2   6   11.22    0.59
   2  -2   6   10.09    0.58
   2  -2   6   10.83    0.57
  -3   2  -6   49.52    2.59
   3  -2   6   48.32    2.59
   3  -2   6   50.29    2.60
   3  -2   6   51.30    2.59
   3  -2   6   50.08    2.59
   3  -2   6   51.15    2.61
  -4   2  -6    0.23    0.07
   4  -2   6    0.15    0.08
   4  -2   6    0.16    0.06
   4  -2   6    0.09    0.05
   4  -2   6    0.23    0.05
   4  -2   6    0.25    0.10
   5  -2   6    9.20    0.47
   5  -2   6    8.15    0.45
   5  -2   6    8.52    0.45
   3   1  -6    3.81    0.25
   3   1  -6    3.48    0.27
   3   1  -6    3.83    0.23
   3   1  -6    3.48    0.24
   2   1  -6   34.42    1.79
   0   1  -6   26.54    1.50
   0  -1   6   27.57    1.47
   0  -1   6   27.17    1.47
  -1   1  -6    6.98    0.41
   1  -1   6    7.55    0.42
   1  -1   6    8.93    0.51
   1  -1   6    8.18    0.58
  -2   1  -6   18.83    1.05
   2  -1   6   20.91    1.07
   2  -1   6   20.97    1.36
  -3   1  -6   67.86    3.49
   3  -1   6   68.17    3.48
   3  -1   6   66.99    3.50
   3  -1   6   69.13    3.49
   3  -1   6   64.13    3.48
   3  -1   6   69.13    3.50
  -4   1  -6    0.68    0.11
   4  -1   6    0.54    0.09
   4  -1   6    0.58    0.11
   4  -1   6    0.78    0.09
   4  -1   6    0.65    0.08
   4  -1   6    0.88    0.15
   5  -1   6   11.71    0.61
   5  -1   6   11.10    0.61
   5  -1   6   12.24    0.62
   4   0  -6    2.72    0.31
   4   0  -6    2.67    0.27
   3   0  -6    0.51    0.12
   3   0  -6    0.36    0.07
   3   0  -6    0.57    0.14
   3   0  -6    0.24    0.09
   3   0  -6    0.31    0.09
   2   0  -6   20.86    1.10
  -1   0   6   55.99    2.69
  -1   0   6   45.51    2.61
   0   0  -6    0.24    0.16
   0   0   6    0.22    0.03
   0   0   6    0.19    0.13
   0   0   6    0.36    0.12
   1   0   6    4.37    0.40
  -3   0  -6    3.98    0.23
  -4   0  -6    0.23    0.07
   4   0   6    0.50    0.08
   4   0   6    0.26    0.09
   4   0   6    0.33    0.06
   4   0   6    0.32    0.06
   4   0   6    0.39    0.07
   5   0   6    1.15    0.08
   5   0   6    1.18    0.09
   5   0   6    1.24    0.10
   3  -1  -6   11.33    0.62
   3  -1  -6   11.60    0.62
   3  -1  -6   11.17    0.63
   3  -1  -6   11.27    0.63
   3  -1  -6   11.39    0.65
   2  -1  -6    3.39    0.20
  -2   1   6    2.48    0.64
  -1   1   6  194.42   10.25
  -1   1   6  204.77   10.33
   0  -1  -6   12.03    0.70
   0   1   6   11.40    0.70
   0   1   6   12.33    0.62
   0   1   6   11.55    0.68
   1   1   6   41.07    2.23
  -2  -1  -6  291.14   15.21
  -3  -1  -6    1.02    0.10
   3   1   6    0.94    0.13
  -4  -1  -6   24.16    1.29
   4   1   6   24.41    1.28
   4   1   6   24.24    1.30
   4   1   6   26.01    1.30
   4   1   6   24.74    1.29
  -5  -1  -6    1.02    0.16
   5   1   6    0.90    0.08
   5   1   6    0.99    0.09
   5   1   6    0.83    0.08
   5   1   6    1.07    0.12
   4  -2  -6    3.29    0.25
   4  -2  -6    3.61    0.25
   4  -2  -6    4.12    0.33
   3  -2  -6   19.79    1.12
   3  -2  -6   21.31    1.11
   3  -2  -6   21.82    1.12
   3  -2  -6   21.19    1.11
   2  -2  -6    4.20    0.25
   1  -2  -6   17.53    0.91
  -1   2   6   17.00    0.89
   0   2   6   43.40    2.32
   0   2   6   43.62    2.33
   1   2   6    0.07    0.20
  -2  -2  -6  164.02    9.65
   2   2   6  199.97    9.67
   2   2   6  199.76    9.68
  -3  -2  -6    0.41    0.07
   3   2   6    0.38    0.07
   3   2   6    0.55    0.07
   3   2   6    0.58    0.08
   3   2   6    0.44    0.08
  -4  -2  -6    1.30    0.14
   4   2   6    1.81    0.15
   4   2   6    1.38    0.11
   4   2   6    1.51    0.13
   4   2   6    1.43    0.12
   5   2   6   19.96    1.04
   5   2   6   19.56    1.04
   5   2   6   20.38    1.05
   5   2   6   20.29    1.04
   4  -3  -6    0.13    0.07
   4  -3  -6    0.12    0.08
   3  -3  -6   21.12    1.13
   3  -3  -6   21.30    1.13
   3  -3  -6   19.88    1.14
   3  -3  -6   22.95    1.14
  -3   3   6   21.96    1.12
   2  -3  -6   14.06    0.72
   2  -3  -6   13.39    0.73
   2  -3  -6   12.93    0.72
  -2   3   6   13.50    0.70
   1  -3  -6   23.00    1.19
   1  -3  -6   22.19    1.20
   1  -3  -6   23.73    1.17
  -1   3   6   21.71    1.40
  -1   3   6   21.56    1.16
   0  -3  -6   24.50    1.28
  -2  -3  -6    0.20    0.04
   2   3   6    0.24    0.08
   2   3   6    0.12    0.12
   2   3   6    0.22    0.11
   3   3   6   12.16    0.62
   3   3   6   12.37    0.64
   3   3   6   11.56    0.61
   3   3   6   11.25    0.63
   3   3   6   11.21    0.63
  -4  -3  -6    0.03    0.06
   4   3   6    0.06    0.05
   4   3   6    0.05    0.08
   4   3   6    0.17    0.06
   4   3   6    0.09    0.06
   4   3   6    0.13    0.05
   5   3   6   10.20    0.55
   5   3   6   10.48    0.54
   4  -4  -6   14.20    0.74
   4  -4  -6   12.68    0.74
  -4   4   6   14.94    0.76
   3  -4  -6   22.63    1.17
   3  -4  -6   21.84    1.17
   3  -4  -6   22.52    1.17
   3  -4  -6   23.03    1.19
   3  -4  -6   22.36    1.18
  -3   4   6   21.11    1.16
   2  -4  -6   89.33    4.53
   2  -4  -6   83.90    4.53
   2  -4  -6   90.35    4.53
   2  -4  -6   85.43    4.52
  -2   4   6   89.78    4.52
   1  -4  -6    4.49    0.29
   1  -4  -6    5.25    0.28
  -1   4   6    4.79    0.27
   0   4   6    6.50    0.36
  -1  -4  -6   26.82    1.26
  -1  -4  -6   22.16    1.27
  -2  -4  -6   17.11    0.94
  -2  -4  -6   19.30    0.93
   2   4   6   17.71    0.95
   2   4   6   16.67    0.95
   2   4   6   18.74    0.94
  -3  -4  -6   16.63    0.87
   3   4   6   16.78    0.88
   3   4   6   16.07    0.89
   3   4   6   17.24    0.89
  -4  -4  -6    0.84    0.09
   4   4   6    1.06    0.14
   4   4   6    1.01    0.12
   4   4   6    1.01    0.10
   5   4   6    3.85    0.20
   5   4   6    3.59    0.22
   4  -5  -6   11.37    0.61
   4  -5  -6   11.64    0.61
   3  -5  -6    0.03    0.06
   3  -5  -6    0.03    0.07
   3  -5  -6    0.03    0.08
   3  -5  -6    0.16    0.06
   3  -5  -6   -0.06    0.06
  -3   5   6    0.06    0.07
   2  -5  -6    4.03    0.25
   2  -5  -6    3.94    0.25
   2  -5  -6    4.03    0.24
   2  -5  -6    3.67    0.24
   2  -5  -6    3.82    0.24
  -2   5   6    3.92    0.23
   1  -5  -6   37.63    1.78
   1  -5  -6   35.29    1.73
   1  -5  -6   31.13    1.73
   1  -5  -6   31.75    1.72
   1  -5  -6   30.04    1.72
  -1   5   6   33.28    1.72
   0  -5  -6   24.06    1.31
   0  -5  -6   24.83    1.30
   0  -5  -6   25.33    1.29
   0  -5  -6   25.19    1.29
   0   5   6   25.23    1.30
  -1  -5  -6   21.17    1.14
   1   5   6   21.68    1.15
   1   5   6   22.55    1.15
   2   5   6    0.04    0.06
   2   5   6    0.19    0.10
  -3  -5  -6   43.79    2.15
   3   5   6   43.93    2.16
   3   5   6   38.31    2.16
   3   5   6   40.70    2.17
   4   5   6    0.14    0.06
   4   5   6    0.22    0.05
   4   5   6    0.15    0.06
   3  -6  -6    6.04    0.34
   3  -6  -6    6.20    0.35
   3  -6  -6    6.13    0.35
   3  -6  -6    6.41    0.35
  -3   6   6    6.20    0.35
   2  -6  -6   42.45    2.21
   2  -6  -6   41.70    2.21
   2  -6  -6   43.12    2.20
   2  -6  -6   41.66    2.20
  -2   6   6   43.33    2.20
   1  -6  -6   34.48    1.80
   1  -6  -6   35.36    1.80
   1  -6  -6   35.26    1.80
   1  -6  -6   32.78    1.80
  -1   6   6   35.25    1.80
   0  -6  -6    0.93    0.08
   0  -6  -6    0.89    0.13
   0  -6  -6    0.94    0.09
   1   6   6   13.60    0.74
   1   6   6   13.83    0.74
   2   6   6   27.97    1.44
   2   6   6   26.81    1.45
  -3  -6  -6    2.58    0.14
   3   6   6    2.24    0.17
   3   6   6    2.02    0.26
   3   6   6    2.39    0.18
   3   6   6    2.39    0.15
   4   6   6   19.13    0.97
   4   6   6   17.56    0.96
   4   6   6   18.87    0.97
   3  -7  -6    1.51    0.11
   3  -7  -6    1.60    0.12
   3  -7  -6    1.55    0.12
   3  -7  -6    1.54    0.11
   2  -7  -6    0.90    0.10
   2  -7  -6    0.92    0.11
  -2   7   6    0.74    0.12
  -2   7   6    0.57    0.11
   1  -7  -6   18.06    0.95
   1  -7  -6   18.03    0.94
   1  -7  -6   18.54    0.94
   1  -7  -6   17.21    0.94
  -1   7   6   17.73    0.95
   0  -7  -6    2.72    0.16
   0  -7  -6    2.54    0.20
   0  -7  -6    2.77    0.17
   0   7   6    2.54    0.19
   0   7   6    2.88    0.20
  -1  -7  -6   38.09    1.90
  -1  -7  -6   37.59    1.90
   1   7   6   36.23    1.92
   1   7   6   34.99    1.91
  -2  -7  -6   15.97    0.80
  -2  -7  -6   15.75    0.79
   2   7   6   14.13    0.82
   2   7   6   14.86    0.81
   3   7   6    0.42    0.06
   3   7   6    0.55    0.08
   2  -8  -6    6.45    0.35
   2  -8  -6    6.56    0.35
   2  -8  -6    6.62    0.36
  -2   8   6    6.23    0.36
   1  -8  -6   14.32    0.74
   1  -8  -6   13.88    0.75
   1  -8  -6   14.08    0.75
  -1   8   6   14.13    0.75
  -1   8   6   13.71    0.74
   0  -8  -6    7.65    0.42
   0  -8  -6    7.80    0.43
   0   8   6    8.28    0.45
  -1  -8  -6   16.25    0.86
  -1  -8  -6   16.32    0.86
   1   8   6   16.67    0.88
  -2  -8  -6   54.70    2.76
  -2  -8  -6   53.92    2.76
   2   8   6   52.05    2.78
   2   8   6   53.39    2.76
  -3  -8  -6   10.46    0.55
  -3  -8  -6   10.36    0.54
   3   8   6   10.45    0.55
   1  -9  -6    0.43    0.06
   1  -9  -6    0.25    0.04
  -1   9   6    0.22    0.06
   0  -9  -6   22.13    1.16
   0  -9  -6   22.00    1.16
   0   9   6   22.99    1.17
  -1  -9  -6   12.66    0.68
  -1  -9  -6   12.67    0.67
   1   9   6   13.40    0.69
  -2  -9  -6   10.11    0.53
  -2  -9  -6   10.06    0.53
   2   9   6   10.31    0.55
   0   8  -7    4.98    0.28
   0   8  -7    5.11    0.28
   0  -8   7    4.52    0.27
   2   7  -7    1.25    0.13
   2   7  -7    1.08    0.10
   2   7  -7    0.95    0.13
   1   7  -7    1.88    0.14
   1   7  -7    1.68    0.15
   1   7  -7    1.86    0.14
  -1  -7   7    1.84    0.13
   0   7  -7    0.00    0.06
   0   7  -7   -0.01    0.05
   0  -7   7   -0.02    0.05
  -1   7  -7    3.20    0.20
  -1   7  -7    3.15    0.20
   1  -7   7    3.16    0.19
  -2   7  -7    2.42    0.29
  -2   7  -7    2.77    0.23
   2  -7   7    2.92    0.17
   2   6  -7    0.01    0.06
   2   6  -7    0.04    0.04
   2   6  -7   -0.03    0.07
  -2  -6   7   -0.11    0.08
  -2  -6   7    0.08    0.05
   1   6  -7   40.07    2.05
   1   6  -7   37.78    2.05
   1   6  -7   39.92    2.04
   0   6  -7    0.59    0.14
   0   6  -7    0.64    0.10
   0   6  -7    0.66    0.10
   0  -6   7    0.53    0.10
  -1   6  -7    0.64    0.08
  -1   6  -7    0.67    0.11
  -1   6  -7    0.51    0.07
   1  -6   7    0.64    0.10
   1  -6   7    0.68    0.10
  -2   6  -7    2.54    0.18
  -2   6  -7    2.43    0.19
   2  -6   7    2.03    0.16
   3  -6   7    7.93    0.43
   3   5  -7    0.88    0.10
   3   5  -7    1.01    0.09
  -3  -5   7    0.97    0.09
   2   5  -7    0.30    0.06
   2   5  -7    0.32    0.07
   2   5  -7    0.16    0.08
   2   5  -7    0.17    0.07
  -2  -5   7    0.20    0.04
   1   5  -7   23.38    1.33
   1   5  -7   24.24    1.33
   1   5  -7   24.66    1.32
   1   5  -7   24.68    1.32
  -1  -5   7   25.50    1.31
  -1  -5   7   28.69    1.32
   0   5  -7   41.81    2.09
   0   5  -7   38.60    2.07
   0   5  -7   38.12    2.06
   0  -5   7   40.43    2.10
  -1   5  -7    6.10    0.35
  -1   5  -7    5.78    0.34
  -1   5  -7    6.20    0.34
   1  -5   7    6.04    0.35
  -2   5  -7  215.73   10.70
  -2   5  -7  217.07   10.71
   2  -5   7  197.76   10.71
   2  -5   7  202.14   10.71
   3  -5   7    1.12    0.11
  -4   5  -7   13.94    0.71
   4  -5   7   13.31    0.72
   3   4  -7   13.73    0.76
   3   4  -7   14.90    0.76
   3   4  -7   14.19    0.76
  -3  -4   7   12.69    0.72
   2   4  -7    0.96    0.12
   2   4  -7    1.32    0.11
   2   4  -7    1.41    0.13
   2   4  -7    1.30    0.15
   2   4  -7    1.30    0.14
  -2  -4   7    1.26    0.08
   1   4  -7    2.25    0.16
   1   4  -7    2.30    0.17
   1   4  -7    2.81    0.19
  -1  -4   7    2.24    0.14
   0   4  -7    1.63    0.21
   0   4  -7    1.57    0.13
   0   4  -7    1.79    0.17
   0   4  -7    1.68    0.15
   0  -4   7    1.71    0.11
   0  -4   7    1.64    0.17
  -1   4  -7    4.38    0.26
  -1   4  -7    4.58    0.28
   1  -4   7    4.55    0.27
  -2   4  -7    3.66    0.29
  -2   4  -7    3.76    0.25
   2  -4   7    3.93    0.25
   2  -4   7    3.85    0.27
   3  -4   7    8.94    0.48
   3  -4   7    8.84    0.48
   3  -4   7    8.73    0.49
   3  -4   7    9.01    0.49
   4  -4   7    1.90    0.13
   4  -4   7    1.95    0.13
   4  -4   7    2.21    0.14
   4   3  -7    1.38    0.11
   3   3  -7    0.04    0.09
   3   3  -7   -0.03    0.07
   3   3  -7    0.05    0.05
   3   3  -7   -0.16    0.11
   3   3  -7    0.07    0.06
  -3  -3   7    0.09    0.05
   2   3  -7  137.55    6.78
   2   3  -7  127.96    6.77
   2   3  -7  127.79    6.76
   2   3  -7  123.74    6.76
   2   3  -7  131.69    6.77
  -2  -3   7  139.26    6.75
   1   3  -7   21.17    1.26
   1   3  -7   25.48    1.26
   1   3  -7   23.79    1.27
   1   3  -7   25.21    1.27
  -1  -3   7   24.57    1.24
   0   3  -7   15.24    0.80
   0   3  -7   14.42    0.81
   0   3  -7   15.16    0.79
   0   3  -7   15.75    0.82
   0  -3   7   15.17    0.78
   0  -3   7   14.48    0.81
  -1   3  -7   30.99    1.58
  -1   3  -7   29.86    1.59
   1  -3   7   30.23    1.58
  -2   3  -7    0.47    0.10
  -2   3  -7    0.33    0.07
   2  -3   7    0.38    0.10
   2  -3   7    0.38    0.08
  -3   3  -7    3.20    0.22
   3  -3   7    3.72    0.22
   3  -3   7    3.69    0.23
   3  -3   7    3.54    0.22
   3  -3   7    3.32    0.27
   3  -3   7    3.92    0.22
  -4   3  -7    0.36    0.11
   4  -3   7    0.40    0.08
   4  -3   7    0.31    0.07
   3   2  -7    0.45    0.09
   3   2  -7    0.70    0.12
   3   2  -7    0.65    0.10
  -3  -2   7    0.57    0.09
   2   2  -7   75.54    3.93
   2   2  -7   79.33    3.94
   2   2  -7   70.24    3.92
   2   2  -7   75.85    3.93
   2   2  -7   75.62    3.94
  -2  -2   7   79.85    3.91
   1   2  -7   18.83    1.01
  -1  -2   7   19.52    0.99
   0   2  -7    1.29    0.15
   0   2  -7    1.55    0.16
   0  -2   7    1.50    0.09
  -1   2  -7  168.14    8.50
   1  -2   7  162.36    8.64
  -2   2  -7   14.29    0.83
   2  -2   7   16.24    0.86
   2  -2   7   16.91    0.85
   2  -2   7   16.43    0.84
  -3   2  -7    7.75    0.48
   3  -2   7    9.65    0.49
   3  -2   7    9.38    0.49
   3  -2   7    9.18    0.48
   3  -2   7    9.08    0.50
   3  -2   7    8.78    0.52
  -4   2  -7    5.05    0.30
   4  -2   7    5.07    0.30
   4  -2   7    5.41    0.30
   4  -2   7    4.94    0.31
   4  -2   7    4.97    0.29
   4  -2   7    6.09    0.40
   5  -2   7    0.55    0.06
   5  -2   7    0.63    0.06
   5  -2   7    0.56    0.07
   3   1  -7   16.23    0.85
   3   1  -7   16.34    0.85
   3   1  -7   13.92    0.85
   3   1  -7   16.65    0.86
   2   1  -7    0.01    0.08
   2   1  -7   -0.01    0.08
  -1  -1   7   41.05    2.11
   0   1  -7    1.09    0.11
   0  -1   7    0.98    0.23
   0  -1   7    1.05    0.31
  -1   1  -7   13.89    0.76
  -1   1  -7   12.09    0.75
   1  -1   7   16.42    0.87
   1  -1   7   14.13    0.75
   1  -1   7   15.45    0.94
  -2   1  -7    0.16    0.04
   2  -1   7    0.23    0.09
   2  -1   7    0.20    0.13
   2  -1   7    0.14    0.06
   2  -1   7    0.17    0.13
  -3   1  -7    6.71    0.40
   3  -1   7    7.10    0.41
   3  -1   7    7.17    0.39
   3  -1   7    7.06    0.39
   3  -1   7    7.68    0.40
   3  -1   7    7.48    0.43
  -4   1  -7    0.28    0.07
   4  -1   7    0.24    0.07
   4  -1   7    0.24    0.06
   4  -1   7    0.17    0.07
   4  -1   7    0.17    0.10
   5  -1   7    1.62    0.11
   5  -1   7    1.97    0.13
   5  -1   7    1.90    0.11
   3   0  -7   26.47    1.35
   3   0  -7   25.85    1.36
   3   0  -7   24.75    1.38
   2   0  -7    0.05    0.07
   2   0  -7    0.20    0.06
   2   0  -7    0.18    0.09
   1   0  -7   16.20    0.84
   1   0  -7   15.26    0.87
   1   0  -7   17.33    0.85
  -1   0   7   14.26    0.96
  -1   0   7   16.37    0.82
   0   0  -7  126.82    6.28
   0   0   7  118.71    6.34
   0   0   7  120.48    6.36
  -1   0  -7    0.49    0.06
   1   0   7    0.42    0.06
   1   0   7    0.66    0.18
  -2   0  -7   66.68    3.41
   2   0   7   63.85    3.41
   2   0   7   66.12    3.42
   2   0   7   68.21    3.41
  -3   0  -7    0.03    0.06
   3   0   7    0.05    0.06
   3   0   7    0.15    0.08
   3   0   7    0.10    0.07
   3   0   7    0.19    0.09
   3   0   7    0.14    0.05
  -4   0  -7   20.37    1.04
   4   0   7   19.35    1.03
   4   0   7   19.08    1.05
   4   0   7   19.35    1.04
   4   0   7   20.87    1.06
   5   0   7    0.12    0.05
   5   0   7    0.02    0.11
   5   0   7    0.05    0.03
   5   0   7    0.08    0.05
   3  -1  -7    9.11    0.50
   2  -1  -7    3.95    0.26
   2  -1  -7    3.61    0.28
   2  -1  -7    3.63    0.25
   2  -1  -7    3.61    0.23
   1  -1  -7  150.04    7.77
  -1   1   7  153.33    7.76
  -1   1   7  153.65    7.89
  -1   1   7  147.06    7.93
   0  -1  -7    9.13    0.50
   0   1   7   10.02    0.66
   0   1   7    8.50    0.61
  -1  -1  -7   54.54    2.82
   1   1   7   54.95    2.82
  -2  -1  -7    9.73    0.53
   2   1   7    9.39    0.55
   2   1   7   10.21    0.53
   2   1   7   11.39    1.45
  -3  -1  -7   13.64    0.69
   3   1   7   12.99    0.69
   3   1   7   12.77    0.68
   3   1   7   12.46    0.69
   3   1   7   12.77    0.70
  -4  -1  -7    8.71    0.50
   4   1   7    9.34    0.49
   4   1   7    9.35    0.49
   4   1   7    8.63    0.50
   4   1   7    9.42    0.51
   5   1   7    6.02    0.33
   5   1   7    6.16    0.34
   5   1   7    5.88    0.33
   5   1   7    6.63    0.35
   4  -2  -7    7.49    0.42
   3  -2  -7    0.25    0.08
   3  -2  -7    0.26    0.08
   3  -2  -7    0.27    0.07
   3  -2  -7    0.09    0.11
   2  -2  -7   17.55    0.97
   2  -2  -7   18.26    0.96
   2  -2  -7   19.63    0.97
   2  -2  -7   17.11    0.96
   1  -2  -7   35.98    1.86
   1  -2  -7   35.37    1.87
  -1   2   7   35.99    1.85
   0  -2  -7   14.35    0.76
  -1  -2  -7   55.45    3.21
   1   2   7   69.41    3.22
  -2  -2  -7  241.53   12.42
   2   2   7  256.34   12.43
   2   2   7  227.79   12.44
   3   2   7   18.55    0.93
   3   2   7   16.98    0.90
   3   2   7   17.55    0.91
   3   2   7   16.97    0.92
   3   2   7   16.52    0.91
  -4  -2  -7    1.27    0.13
   4   2   7    1.44    0.11
   4   2   7    1.48    0.13
   4   2   7    1.97    0.20
   4   2   7    1.71    0.16
   4   2   7    1.40    0.12
   5   2   7   28.60    1.43
   5   2   7   26.55    1.44
   5   2   7   29.60    1.43
   5   2   7   26.19    1.44
   4  -3  -7    7.68    0.43
   4  -3  -7    7.79    0.43
   3  -3  -7    5.24    0.34
   3  -3  -7    5.72    0.33
   3  -3  -7    5.53    0.33
   3  -3  -7    5.62    0.33
  -3   3   7    5.91    0.33
   2  -3  -7   44.31    2.25
   2  -3  -7   43.64    2.25
   2  -3  -7   43.40    2.27
   2  -3  -7   41.57    2.24
  -2   3   7   43.48    2.23
   1  -3  -7   23.78    1.26
  -1   3   7   24.44    1.25
   0  -3  -7    1.57    0.40
   0  -3  -7    1.22    0.13
   0   3   7    1.61    0.10
  -1  -3  -7   11.97    0.58
  -1  -3  -7   10.09    0.59
  -2  -3  -7   26.19    1.37
   2   3   7   28.50    1.37
   2   3   7   23.28    1.37
   2   3   7   30.41    1.37
   2   3   7   22.95    1.38
   2   3   7   26.99    1.38
  -3  -3  -7    2.58    0.17
   3   3   7    2.41    0.18
   3   3   7    2.90    0.16
   3   3   7    2.96    0.20
   3   3   7    2.86    0.17
   3   3   7    2.38    0.20
  -4  -3  -7    8.10    0.48
   4   3   7    9.39    0.48
   4   3   7    9.28    0.47
   4   3   7    8.31    0.49
   4   3   7    9.72    0.51
   4   3   7    8.49    0.48
   5   3   7    6.70    0.37
   5   3   7    6.90    0.36
   4  -4  -7    5.35    0.30
   4  -4  -7    5.27    0.31
   3  -4  -7   18.86    1.04
   3  -4  -7   19.41    1.03
   3  -4  -7   19.64    1.04
   3  -4  -7   20.05    1.03
  -3   4   7   19.88    1.03
   2  -4  -7   96.27    5.01
   2  -4  -7   97.17    5.00
   2  -4  -7  100.76    5.01
   2  -4  -7   94.60    5.02
   2  -4  -7   96.38    5.01
   2  -4  -7   97.82    5.02
   1  -4  -7   21.98    1.24
   1  -4  -7   24.62    1.24
   1  -4  -7   24.46    1.25
   1  -4  -7   22.45    1.24
  -1   4   7   24.83    1.23
   0  -4  -7    6.58    0.48
   0  -4  -7    6.81    0.37
   0   4   7    6.56    0.40
   0   4   7    6.76    0.36
  -1  -4  -7   74.29    3.55
  -1  -4  -7   62.57    3.56
   1   4   7   70.45    3.57
  -2  -4  -7   12.61    0.60
  -2  -4  -7   10.74    0.60
   2   4   7   11.75    0.60
   2   4   7   10.32    0.62
  -3  -4  -7    0.11    0.04
   3   4   7    0.03    0.07
   3   4   7    0.05    0.09
   3   4   7    0.23    0.10
  -4  -4  -7    4.57    0.24
   4   4   7    3.89    0.27
   4   4   7    3.58    0.32
   4  -5  -7    7.57    0.40
   4  -5  -7    7.30    0.40
   3  -5  -7    9.32    0.53
   3  -5  -7    9.80    0.53
   3  -5  -7    9.62    0.52
  -3   5   7    9.51    0.52
   2  -5  -7   -0.03    0.06
   2  -5  -7    0.10    0.09
   2  -5  -7   -0.06    0.06
   2  -5  -7    0.00    0.10
   2  -5  -7    0.11    0.07
  -2   5   7    0.05    0.05
   1  -5  -7    7.14    0.38
   1  -5  -7    6.29    0.41
   1  -5  -7    6.95    0.38
   1  -5  -7    7.22    0.40
   1  -5  -7    6.47    0.38
  -1   5   7    6.98    0.38
   0  -5  -7   54.66    2.70
   0  -5  -7   55.24    2.70
   0  -5  -7   50.97    2.71
   0   5   7   47.46    2.72
   0   5   7   53.33    2.70
  -1  -5  -7   12.20    0.65
   1   5   7   12.17    0.66
  -2  -5  -7   15.92    0.77
  -2  -5  -7   13.35    0.78
   2   5   7   16.67    0.77
   2   5   7   14.35    0.80
   2   5   7   13.16    0.79
   2   5   7   14.50    0.79
  -3  -5  -7    4.45    0.23
   3   5   7    3.82    0.25
   3   5   7    3.99    0.23
   3   5   7    3.84    0.25
  -4  -5  -7    7.56    0.38
   4   5   7    6.88    0.40
   4   5   7    7.61    0.39
   4   5   7    6.65    0.40
   3  -6  -7    8.58    0.47
   3  -6  -7    8.65    0.47
   3  -6  -7    8.96    0.46
   3  -6  -7    8.18    0.47
  -3   6   7    8.94    0.48
   2  -6  -7    6.54    0.38
   2  -6  -7    6.66    0.38
   2  -6  -7    6.70    0.38
   2  -6  -7    6.95    0.37
   2  -6  -7    6.71    0.38
  -2   6   7    6.78    0.37
  -1   6   7    9.43    0.51
   0  -6  -7   17.37    0.90
   0  -6  -7   17.65    0.90
   0  -6  -7   16.72    0.91
  -1  -6  -7    0.89    0.13
  -1  -6  -7    1.03    0.08
  -1  -6  -7    0.94    0.08
   1   6   7    0.86    0.14
   1   6   7    0.81    0.11
   2   6   7    0.29    0.09
   2   6   7    0.42    0.08
  -3  -6  -7    0.33    0.05
   3   6   7    0.33    0.06
   3   6   7    0.25    0.07
   4   6   7    9.15    0.51
   4   6   7    9.77    0.51
   3  -7  -7    4.76    0.26
   3  -7  -7    4.75    0.26
   3  -7  -7    4.49    0.26
   3  -7  -7    4.96    0.27
   2  -7  -7    6.42    0.36
   2  -7  -7    6.56    0.35
   2  -7  -7    6.29    0.36
   2  -7  -7    6.57    0.36
  -2   7   7    6.18    0.37
  -2   7   7    6.15    0.36
   1  -7  -7    0.08    0.11
   1  -7  -7    0.14    0.05
   1  -7  -7    0.05    0.04
   1  -7  -7    0.10    0.07
  -1   7   7    0.17    0.07
   0  -7  -7   14.97    0.79
   0  -7  -7   14.75    0.80
   0  -7  -7   15.03    0.79
   0   7   7   15.38    0.81
  -1  -7  -7   12.62    0.66
  -1  -7  -7   12.81    0.66
   1   7   7   12.49    0.68
   1   7   7   12.42    0.69
  -2  -7  -7   14.36    0.73
  -2  -7  -7   14.46    0.73
   2   7   7   13.53    0.75
   2   7   7   13.10    0.76
   3   7   7   61.24    3.17
   2  -8  -7   11.18    0.59
   2  -8  -7   10.98    0.59
   2  -8  -7   11.52    0.58
  -2   8   7   10.45    0.59
   1  -8  -7    3.60    0.21
   1  -8  -7    3.43    0.22
   1  -8  -7    3.57    0.20
  -1   8   7    3.38    0.22
  -1   8   7    3.08    0.21
   0  -8  -7    0.69    0.11
  -1  -8  -7    0.14    0.08
  -2  -8  -7   31.00    1.58
  -2  -8  -7   31.49    1.59
   2   8   7   29.55    1.60
   2   8   7   30.41    1.59
  -3  -8  -7    0.80    0.06
  -3  -8  -7    0.70    0.07
   3   8   7    0.91    0.10
   1  -9  -7   17.77    0.95
   1  -9  -7   17.94    0.95
  -1   9   7   18.14    0.96
  -1   9   7   19.09    0.96
   0  -9  -7    0.16    0.04
   0  -9  -7    0.13    0.04
   0   9   7    0.23    0.06
  -1  -9  -7   16.74    0.87
  -1  -9  -7   16.75    0.88
   1   9   7   16.96    0.89
  -2  -9  -7    1.82    0.12
  -2  -9  -7    1.82    0.11
   2   9   7    1.91    0.15
   1   7  -8    0.38    0.06
   1   7  -8    0.48    0.09
  -1  -7   8    0.31    0.12
   0   7  -8    3.28    0.21
   0   7  -8    3.18    0.20
   0  -7   8    3.03    0.19
  -1   7  -8    0.12    0.06
  -1   7  -8    0.06    0.05
   1  -7   8    0.02    0.06
  -2   7  -8   19.55    0.98
   2  -7   8   17.68    0.97
   2   6  -8   13.29    0.73
   2   6  -8   14.11    0.73
   2   6  -8   14.41    0.74
   2   6  -8   13.35    0.73
   1   6  -8    1.04    0.12
   1   6  -8    0.97    0.11
   1   6  -8    0.94    0.14
   1   6  -8    0.86    0.12
  -1  -6   8    0.91    0.13
   0   6  -8    4.98    0.28
   0   6  -8    4.58    0.29
   0  -6   8    4.79    0.30
  -1   6  -8    0.53    0.08
  -1   6  -8    0.51    0.07
   1  -6   8    0.66    0.12
   1  -6   8    0.67    0.11
  -2   6  -8    1.22    0.16
  -2   6  -8    1.30    0.11
  -2   6  -8    1.51    0.18
   2  -6   8    1.20    0.11
  -3   6  -8    2.48    0.15
   3  -6   8    2.35    0.15
   3   5  -8   -0.03    0.05
   3   5  -8    0.06    0.04
   2   5  -8   10.61    0.54
   2   5  -8    9.31    0.52
   2   5  -8    9.37    0.52
   2   5  -8    9.71    0.54
  -2  -5   8    8.95    0.51
   1   5  -8    0.19    0.07
   1   5  -8    0.20    0.08
   1   5  -8    0.20    0.06
   1   5  -8    0.19    0.06
  -1  -5   8    0.28    0.10
  -1  -5   8    0.22    0.05
   0   5  -8    0.12    0.10
   0   5  -8    0.13    0.12
   0   5  -8    0.04    0.05
   0  -5   8    0.17    0.08
  -1   5  -8    6.26    0.37
  -1   5  -8    7.30    0.42
  -1   5  -8    5.78    0.35
   1  -5   8    6.27    0.36
   1  -5   8    6.49    0.37
  -2   5  -8    2.16    0.19
  -2   5  -8    2.31    0.22
   2  -5   8    2.40    0.18
   2  -5   8    2.14    0.16
   3  -5   8    1.60    0.12
   3   4  -8    5.08    0.29
   3   4  -8    5.01    0.30
  -3  -4   8    5.03    0.28
   2   4  -8    3.31    0.22
   2   4  -8    3.28    0.21
   2   4  -8    3.35    0.22
   2   4  -8    3.29    0.23
  -2  -4   8    3.33    0.19
   1   4  -8   25.30    1.32
   1   4  -8   24.01    1.33
  -1  -4   8   26.22    1.31
   0   4  -8    0.88    0.12
   0   4  -8    1.09    0.20
   0   4  -8    0.78    0.10
   0   4  -8    0.59    0.09
   0  -4   8    0.86    0.12
   0  -4   8    0.74    0.09
  -1   4  -8   36.01    1.84
  -1   4  -8   35.89    1.83
  -1   4  -8   33.60    1.83
   1  -4   8   35.57    1.84
  -2   4  -8    6.09    0.37
  -2   4  -8    6.22    0.37
   2  -4   8    5.41    0.35
   2  -4   8    5.55    0.33
   3  -4   8    9.31    0.49
   3  -4   8    8.57    0.55
  -4   4  -8    3.49    0.20
   4  -4   8    3.43    0.20
   4   3  -8    1.59    0.12
   4   3  -8    1.58    0.15
   3   3  -8    3.37    0.26
   3   3  -8    3.28    0.22
  -3  -3   8    3.29    0.19
   2   3  -8   35.55    1.87
   2   3  -8   36.02    1.88
   2   3  -8   37.52    1.88
   2   3  -8   30.60    1.86
   2   3  -8   38.31    1.87
  -2  -3   8   37.16    1.85
   1   3  -8   10.98    0.65
   1   3  -8   13.06    0.64
   1   3  -8   12.17    0.65
   1   3  -8   12.80    0.66
   1   3  -8   11.70    0.64
  -1  -3   8   10.85    0.63
   0   3  -8    0.38    0.07
   0   3  -8    0.31    0.12
   0   3  -8    0.26    0.08
   0   3  -8    0.18    0.07
   0  -3   8    0.20    0.04
  -1   3  -8    0.29    0.09
  -1   3  -8    0.18    0.06
   1  -3   8    0.12    0.10
  -2   3  -8    6.23    0.38
   2  -3   8    6.67    0.38
   2  -3   8    6.73    0.39
  -3   3  -8    0.14    0.08
   3  -3   8    0.08    0.06
   3  -3   8    0.19    0.09
   4  -3   8    1.62    0.12
   4  -3   8    1.42    0.12
   4  -3   8    1.44    0.11
   4   2  -8    0.11    0.09
   3   2  -8    0.66    0.11
   3   2  -8    0.64    0.10
   3   2  -8    0.54    0.09
   3   2  -8    0.72    0.12
  -3  -2   8    0.73    0.12
   2   2  -8   43.45    2.24
   2   2  -8   41.24    2.23
   2   2  -8   41.13    2.24
   2   2  -8   43.21    2.23
  -2  -2   8   45.70    2.22
   1   2  -8    0.15    0.07
   1   2  -8    0.37    0.07
   1   2  -8    0.31    0.09
  -1  -2   8    0.34    0.05
   0   2  -8   29.12    1.48
   0   2  -8   27.30    1.48
   0   2  -8   28.37    1.47
   0   2  -8   28.00    1.49
   0  -2   8   28.60    1.46
  -1   2  -8   34.52    1.84
  -1   2  -8   34.43    1.82
  -1   2  -8   38.07    1.83
   1  -2   8   35.15    2.31
   1  -2   8   31.65    1.84
   1  -2   8   37.81    2.24
  -2   2  -8   34.97    1.97
   2  -2   8   40.22    1.99
   2  -2   8   39.02    1.99
  -3   2  -8    5.47    0.34
   3  -2   8    6.46    0.34
   3  -2   8    5.87    0.38
   3  -2   8    6.05    0.35
   3  -2   8    6.71    0.35
  -4   2  -8    1.94    0.16
   4  -2   8    1.84    0.20
   4  -2   8    1.87    0.15
   4  -2   8    1.84    0.13
   4  -2   8    1.76    0.14
   3   1  -8    5.34    0.32
   3   1  -8    5.13    0.32
   3   1  -8    4.80    0.30
   3   1  -8    4.81    0.31
   2   1  -8   39.50    2.02
   2   1  -8   38.57    2.03
   2   1  -8   39.55    2.03
   2   1  -8   36.03    2.03
   2   1  -8   40.81    2.03
  -2  -1   8   38.91    2.00
   1   1  -8    5.48    0.32
   1   1  -8    5.36    0.31
  -1  -1   8    5.53    0.29
   0   1  -8   11.79    0.68
   0   1  -8   12.77    0.66
   0  -1   8   11.41    0.87
   0  -1   8   13.08    0.64
  -1   1  -8   12.68    0.67
   1  -1   8   12.09    0.66
  -2   1  -8    3.34    0.20
   2  -1   8    3.54    0.24
   2  -1   8    3.38    0.24
  -3   1  -8    5.54    0.31
   3  -1   8    5.33    0.30
   3  -1   8    5.48    0.32
   3  -1   8    5.47    0.31
   3  -1   8    5.40    0.35
  -4   1  -8    8.19    0.45
  -4   1  -8    7.85    0.42
   4  -1   8    7.55    0.41
   4  -1   8    7.43    0.42
   4  -1   8    7.64    0.45
   4  -1   8    7.11    0.42
   5  -1   8    4.25    0.25
   5  -1   8    4.82    0.31
   5  -1   8    4.61    0.25
   5  -1   8    4.72    0.24
   3   0  -8   15.35    0.89
   3   0  -8   17.73    0.94
   3   0  -8   16.45    0.89
   2   0  -8   33.41    1.67
   2   0  -8   30.48    1.67
   2   0  -8   31.32    1.66
   1   0  -8   24.73    1.30
  -1   0   8   24.97    1.28
   0   0  -8   22.72    1.19
   1   0   8   44.62    2.75
   1   0   8   57.09    2.65
  -2   0  -8    0.15    0.04
  -2   0  -8    0.24    0.08
   2   0   8    0.33    0.13
   2   0   8    0.19    0.10
   2   0   8    0.24    0.10
  -3   0  -8    3.54    0.22
   3   0   8    3.65    0.22
   3   0   8    3.54    0.22
   3   0   8    3.73    0.26
   3   0   8    3.73    0.24
  -4   0  -8    2.95    0.19
   4   0   8    2.97    0.19
   4   0   8    3.14    0.23
   4   0   8    2.74    0.20
   4   0   8    2.93    0.18
   5   0   8    0.89    0.12
   5   0   8    0.86    0.08
   5   0   8    0.77    0.07
   5   0   8    0.74    0.06
   3  -1  -8    6.76    0.40
   3  -1  -8    6.89    0.40
   3  -1  -8    6.89    0.40
   3  -1  -8    6.50    0.40
   2  -1  -8   11.94    0.74
   2  -1  -8   13.30    0.74
   2  -1  -8   14.35    0.74
   2  -1  -8   13.35    0.73
   2  -1  -8   15.08    0.75
   1  -1  -8    0.89    0.11
  -1   1   8    0.89    0.08
  -1   1   8    0.81    0.39
   0   1   8    0.25    0.05
   0   1   8    0.31    0.37
  -1  -1  -8   56.57    2.91
  -2  -1  -8    2.90    0.18
  -2  -1  -8    2.53    0.26
   2   1   8    3.35    0.20
   2   1   8    2.85    0.23
   2   1   8    3.43    0.21
   2   1   8    3.70    0.23
  -3  -1  -8   34.07    1.85
   3   1   8   34.18    1.85
   3   1   8   39.25    1.87
   3   1   8   35.80    1.84
   3   1   8   34.79    1.86
   3   1   8   35.49    1.84
  -4  -1  -8    2.67    0.18
   4   1   8    2.77    0.17
   4   1   8    2.39    0.18
   4   1   8    2.84    0.17
   4   1   8    2.89    0.31
   4   1   8    2.99    0.22
   5   1   8    6.97    0.35
   5   1   8    6.37    0.38
   5   1   8    6.45    0.36
   5   1   8    7.07    0.36
   3  -2  -8   24.72    1.35
   3  -2  -8   25.57    1.34
   3  -2  -8   25.37    1.35
   3  -2  -8   26.15    1.35
  -3   2   8   25.96    1.33
   2  -2  -8    0.09    0.06
   2  -2  -8    0.06    0.08
   2  -2  -8    0.24    0.18
   2  -2  -8   -0.01    0.08
   2  -2  -8    0.18    0.08
  -2   2   8    0.10    0.05
   1  -2  -8    6.75    0.38
  -1   2   8    6.74    0.36
   0  -2  -8   -0.03    0.07
   0   2   8    0.07    0.04
   1   2   8    6.74    0.76
  -2  -2  -8  105.57    5.75
   2   2   8  114.79    5.75
   2   2   8  116.82    5.76
   2   2   8  114.15    5.74
   2   2   8  107.41    5.76
  -3  -2  -8   34.27    1.86
   3   2   8   37.31    1.86
   3   2   8   35.24    1.86
   3   2   8   39.62    1.88
   3   2   8   33.61    1.87
   3   2   8   35.58    1.88
  -4  -2  -8    0.14    0.06
   4   2   8    0.22    0.08
   4   2   8    0.22    0.05
   4   2   8    0.32    0.06
   4   2   8    0.28    0.13
   4   2   8    0.09    0.07
   5   2   8    2.89    0.17
   5   2   8    2.90    0.19
   4  -3  -8    3.67    0.22
   3  -3  -8    5.69    0.34
   3  -3  -8    6.06    0.34
   3  -3  -8    5.72    0.36
   3  -3  -8    5.83    0.34
   2  -3  -8    3.44    0.23
   2  -3  -8    3.92    0.24
   2  -3  -8    2.99    0.24
   2  -3  -8    3.68    0.24
   2  -3  -8    3.90    0.23
  -2   3   8    3.49    0.21
   1  -3  -8   35.68    1.80
   1  -3  -8   34.40    1.81
   1  -3  -8   36.69    1.81
   1  -3  -8   31.39    1.80
   1  -3  -8   32.76    1.80
  -1   3   8   36.42    1.79
   0  -3  -8  119.87    6.85
   0  -3  -8  137.61    6.86
   0   3   8  142.25    6.85
  -2  -3  -8   53.02    2.57
   2   3   8   48.58    2.58
   2   3   8   53.45    2.59
   2   3   8   44.18    2.60
  -3  -3  -8    2.04    0.15
   3   3   8    2.77    0.16
   3   3   8    2.12    0.19
   3   3   8    2.15    0.16
   3   3   8    2.43    0.20
   3   3   8    2.53    0.16
  -4  -3  -8   15.86    0.90
   4   3   8   15.98    0.92
   4   3   8   16.53    0.91
   4   3   8   18.14    0.90
   4   3   8   19.48    0.90
   5   3   8    3.50    0.21
   5   3   8    3.69    0.20
   4  -4  -8    5.07    0.32
   4  -4  -8    5.36    0.29
   4  -4  -8    5.05    0.29
   3  -4  -8    8.94    0.49
   3  -4  -8    8.42    0.49
   3  -4  -8    8.44    0.48
   3  -4  -8    9.00    0.48
  -3   4   8    8.96    0.48
   2  -4  -8   17.83    0.94
   2  -4  -8   16.66    0.94
   2  -4  -8   17.42    0.93
   2  -4  -8   17.67    0.94
  -2   4   8   17.94    0.92
   1  -4  -8   15.13    0.82
   1  -4  -8   14.96    0.80
   1  -4  -8   14.11    0.79
  -1   4   8   15.42    0.78
   0  -4  -8    6.22    0.39
   0  -4  -8    7.64    0.40
   0  -4  -8    7.51    0.46
   0  -4  -8    6.12    0.41
   0   4   8    7.35    0.41
   0   4   8    7.65    0.38
  -1  -4  -8    9.89    0.54
   1   4   8   10.59    0.56
  -2  -4  -8   25.34    1.45
  -2  -4  -8   30.46    1.44
   2   4   8   27.05    1.46
   2   4   8   28.52    1.45
  -3  -4  -8   18.35    0.92
  -3  -4  -8   17.37    0.92
   3   4   8   17.64    0.94
   3   4   8   16.58    0.93
   3   4   8   17.71    0.92
  -4  -4  -8    1.92    0.12
  -4  -4  -8    1.49    0.15
   4   4   8    1.85    0.17
   4   4   8    1.90    0.20
   4   4   8    1.68    0.12
   3  -5  -8    0.52    0.09
   3  -5  -8    0.54    0.08
   3  -5  -8    0.42    0.07
  -3   5   8    0.57    0.09
   2  -5  -8    0.61    0.08
   2  -5  -8    0.36    0.07
   2  -5  -8    0.65    0.11
  -2   5   8    0.45    0.07
   1  -5  -8    6.62    0.40
   1  -5  -8    7.10    0.37
   1  -5  -8    6.70    0.39
   1  -5  -8    6.33    0.38
   1  -5  -8    6.83    0.37
  -1   5   8    6.78    0.37
   0  -5  -8   10.71    0.55
   0  -5  -8   10.24    0.58
   0  -5  -8   10.82    0.54
   0  -5  -8   10.07    0.56
   0   5   8    9.71    0.57
   0   5   8   10.42    0.55
  -1  -5  -8    3.57    0.22
   1   5   8    3.71    0.24
  -2  -5  -8    5.29    0.32
  -2  -5  -8    6.10    0.30
   2   5   8    5.52    0.34
   2   5   8    6.18    0.33
   2   5   8    5.20    0.36
  -3  -5  -8   13.75    0.65
  -3  -5  -8   11.40    0.66
   3   5   8   12.98    0.65
   3   5   8   11.89    0.67
   3   5   8   11.94    0.67
   4   5   8    0.91    0.12
   4   5   8    0.92    0.08
   4   5   8    0.88    0.11
   3  -6  -8    0.06    0.05
   3  -6  -8    0.05    0.04
  -3   6   8    0.10    0.08
   2  -6  -8   26.40    1.40
   2  -6  -8   27.02    1.39
   2  -6  -8   27.02    1.40
   2  -6  -8   26.53    1.40
   2  -6  -8   26.59    1.40
  -2   6   8   27.02    1.40
   1  -6  -8    8.01    0.45
   1  -6  -8    7.60    0.43
   1  -6  -8    8.02    0.42
   1  -6  -8    7.78    0.43
  -1   6   8    7.62    0.43
   0  -6  -8    0.45    0.07
   0  -6  -8    0.58    0.07
   0  -6  -8    0.61    0.09
   0   6   8    0.35    0.12
  -1  -6  -8   14.28    0.76
   1   6   8   14.21    0.78
  -2  -6  -8    9.32    0.53
   2   6   8    9.44    0.55
   2   6   8   10.41    0.54
   3   6   8    0.86    0.14
   4   6   8   23.99    1.30
   4   6   8   25.85    1.29
   3  -7  -8    0.34    0.05
   3  -7  -8    0.26    0.05
   2  -7  -8    0.98    0.11
   2  -7  -8    1.12    0.10
   2  -7  -8    1.06    0.09
   2  -7  -8    0.78    0.12
  -2   7   8    1.04    0.13
  -2   7   8    1.03    0.14
   1  -7  -8   20.89    1.09
   1  -7  -8   20.42    1.10
   1  -7  -8   21.30    1.09
  -1   7   8   20.94    1.11
   0  -7  -8    1.36    0.14
   0  -7  -8    1.49    0.11
   0  -7  -8    1.50    0.11
   0   7   8    1.62    0.15
  -1  -7  -8   13.28    0.73
  -1  -7  -8   13.75    0.71
  -1  -7  -8   13.70    0.71
   1   7   8   13.40    0.73
   1   7   8   13.52    0.74
  -2  -7  -8    0.94    0.08
  -2  -7  -8    0.90    0.07
   2   7   8    0.80    0.13
  -3  -7  -8    0.42    0.05
  -3  -7  -8    0.33    0.05
   2  -8  -8    0.49    0.07
   2  -8  -8    0.60    0.07
   2  -8  -8    0.69    0.09
  -2   8   8    0.77    0.18
  -2   8   8    0.69    0.09
   1  -8  -8    0.13    0.06
   1  -8  -8    0.32    0.06
   1  -8  -8    0.28    0.05
  -1   8   8    0.21    0.07
   0  -8  -8   50.52    2.60
   0  -8  -8   50.42    2.61
   0  -8  -8   49.25    2.61
   0   8   8   51.54    2.62
  -1  -8  -8    1.80    0.12
  -1  -8  -8    1.89    0.12
   1   8   8    1.71    0.17
  -2  -8  -8   12.44    0.65
  -2  -8  -8   12.42    0.65
   2   8   8   12.00    0.67
   2   8   8   12.62    0.66
   1  -9  -8   17.58    0.92
   1  -9  -8   17.88    0.92
   0  -9  -8    6.24    0.34
   0  -9  -8    6.02    0.34
   0   9   8    6.56    0.35
  -1  -9  -8    1.35    0.09
  -1  -9  -8    1.30    0.09
   1   9   8    1.52    0.12
   0   7  -9    1.37    0.13
   0   7  -9    1.44    0.11
   0  -7   9    1.39    0.12
  -1   7  -9    8.19    0.43
  -1   7  -9    8.55    0.43
   1  -7   9    6.49    0.45
   2   6  -9    3.47    0.21
   2   6  -9    3.85    0.22
   2   6  -9    3.46    0.21
   1   6  -9    6.31    0.34
   1   6  -9    6.13    0.34
   1   6  -9    5.53    0.34
   0   6  -9    0.37    0.06
   0   6  -9    0.40    0.07
   0  -6   9    0.57    0.09
  -1   6  -9    2.63    0.24
  -1   6  -9    2.47    0.18
   1  -6   9    2.45    0.19
   1  -6   9    2.30    0.17
  -2   6  -9    1.76    0.18
  -2   6  -9    1.57    0.11
   2  -6   9    1.48    0.12
   2   5  -9    0.71    0.09
   2   5  -9    0.62    0.10
   2   5  -9    0.85    0.11
   2   5  -9    0.85    0.11
  -2  -5   9    0.86    0.08
   1   5  -9   22.79    1.17
   1   5  -9   22.12    1.18
  -1  -5   9   21.77    1.16
   0   5  -9   18.39    0.98
   0   5  -9   19.48    0.99
   0  -5   9   17.88    0.98
  -1   5  -9   17.15    0.93
  -1   5  -9   18.30    0.94
  -1   5  -9   17.88    0.95
   1  -5   9   17.74    0.94
   1  -5   9   17.88    0.94
  -2   5  -9    6.20    0.37
  -2   5  -9    6.68    0.38
   2  -5   9    5.36    0.34
   2  -5   9    5.55    0.34
  -3   5  -9    5.66    0.31
   3  -5   9    5.50    0.31
   3   4  -9    9.81    0.55
   3   4  -9   11.18    0.58
   3   4  -9   10.14    0.56
   2   4  -9    0.11    0.05
   2   4  -9    0.20    0.07
   2   4  -9    0.18    0.06
   2   4  -9    0.04    0.06
  -2  -4   9    0.14    0.04
   1   4  -9    0.37    0.08
   1   4  -9    0.28    0.08
   1   4  -9    0.25    0.07
  -1  -4   9    0.28    0.05
   0   4  -9    3.14    0.21
   0   4  -9    3.05    0.21
   0   4  -9    3.24    0.23
   0   4  -9    3.13    0.21
  -1   4  -9   10.15    0.54
  -1   4  -9    9.90    0.55
  -1   4  -9    9.18    0.53
   1  -4   9   10.20    0.54
   1  -4   9   10.00    0.55
  -2   4  -9    0.98    0.11
  -2   4  -9    1.08    0.15
  -2   4  -9    0.96    0.15
   2  -4   9    0.98    0.12
   2  -4   9    1.24    0.14
  -3   4  -9   71.84    3.60
   3  -4   9   70.04    3.60
   3  -4   9   67.29    3.61
  -4   4  -9    2.70    0.16
   4  -4   9    2.43    0.16
   3   3  -9   10.99    0.59
   3   3  -9   10.51    0.58
   3   3  -9   10.80    0.59
  -3  -3   9   10.72    0.57
   2   3  -9   48.01    2.49
   2   3  -9   48.64    2.50
   2   3  -9   47.85    2.50
   2   3  -9   47.02    2.49
  -2  -3   9   48.74    2.48
   1   3  -9    1.94    0.17
   1   3  -9    2.04    0.18
   1   3  -9    2.09    0.15
   1   3  -9    1.95    0.15
   1   3  -9    1.75    0.17
  -1  -3   9    1.79    0.12
   0   3  -9   83.51    4.62
   0   3  -9   93.10    4.64
   0   3  -9   89.46    4.63
   0   3  -9   88.88    4.62
   0   3  -9   93.14    4.62
  -1   3  -9    0.12    0.09
  -1   3  -9   -0.13    0.07
  -1   3  -9    0.06    0.06
   1  -3   9    0.06    0.11
   2  -3   9   33.00    1.71
   2  -3   9   32.19    1.71
   3  -3   9    0.22    0.09
   3  -3   9    0.25    0.08
  -4   3  -9    1.46    0.14
   4  -3   9    1.30    0.10
   4  -3   9    1.02    0.12
   4  -3   9    0.99    0.12
   4   2  -9    3.65    0.22
   3   2  -9    1.96    0.24
   3   2  -9    1.68    0.15
   3   2  -9    1.44    0.20
  -3  -2   9    1.56    0.13
   2   2  -9   20.60    1.10
   2   2  -9   20.97    1.11
   2   2  -9   20.83    1.12
   2   2  -9   21.26    1.12
  -2  -2   9   21.21    1.09
   1   2  -9   19.85    1.06
   1   2  -9   20.60    1.07
   1   2  -9   19.28    1.07
   1   2  -9   19.55    1.06
   1   2  -9   20.88    1.06
  -1  -2   9   20.52    1.04
   0   2  -9    0.35    0.10
   0   2  -9    0.34    0.07
   0   2  -9    0.31    0.08
   0   2  -9    0.41    0.14
   0   2  -9    0.42    0.09
   0  -2   9    0.38    0.06
  -1   2  -9    1.63    0.16
  -1   2  -9    1.48    0.22
  -1   2  -9    1.64    0.16
   2  -2   9    2.59    0.20
   2  -2   9    2.62    0.20
   3  -2   9   11.93    0.66
   3  -2   9   11.46    0.64
   3  -2   9   12.40    0.64
   3  -2   9   11.61    0.64
  -4   2  -9    3.40    0.23
   4  -2   9    3.22    0.20
   4  -2   9    3.37    0.20
   4  -2   9    3.21    0.19
   4  -2   9    3.22    0.24
   4   1  -9   15.34    0.81
   3   1  -9   14.86    0.79
   3   1  -9   14.21    0.78
   3   1  -9   14.31    0.79
   3   1  -9   14.66    0.79
   3   1  -9   14.75    0.80
  -3  -1   9   14.99    0.77
   2   1  -9    7.50    0.44
   2   1  -9    7.37    0.42
   2   1  -9    7.63    0.44
   2   1  -9    7.27    0.43
   2   1  -9    7.57    0.42
  -2  -1   9    7.49    0.40
   1   1  -9   11.59    0.62
   1   1  -9   12.06    0.64
   1   1  -9   10.79    0.61
   1   1  -9   10.54    0.60
  -1  -1   9   10.82    0.58
   0   1  -9    0.13    0.07
   0   1  -9    0.10    0.09
   0   1  -9    0.01    0.06
   0   1  -9   -0.02    0.13
   0   1  -9    0.03    0.06
   0  -1   9    0.03    0.03
  -1   1  -9    1.74    0.15
   1  -1   9    1.96    0.17
  -2   1  -9    4.14    0.25
  -2   1  -9    3.80    0.23
   2  -1   9    4.32    0.27
   2  -1   9    3.77    0.27
  -3   1  -9   10.97    0.59
  -3   1  -9    9.74    0.59
   3  -1   9   11.01    0.59
   3  -1   9   11.83    0.62
   3  -1   9   11.08    0.58
   3  -1   9   11.38    0.60
  -4   1  -9   26.56    1.32
  -4   1  -9   25.19    1.32
   4  -1   9   24.62    1.34
   4  -1   9   24.90    1.31
   4  -1   9   25.43    1.31
   4  -1   9   24.67    1.32
   3   0  -9    7.85    0.46
   3   0  -9    7.38    0.44
   3   0  -9    7.73    0.43
   3   0  -9    7.60    0.43
   3   0  -9    7.60    0.43
  -3   0   9    7.36    0.42
   2   0  -9    3.00    0.21
   2   0  -9    2.90    0.22
   2   0  -9    2.98    0.20
   2   0  -9    2.96    0.21
   2   0  -9    2.82    0.22
  -2   0   9    2.78    0.19
   1   0  -9   85.10    4.61
   1   0  -9   94.14    4.61
   1   0  -9   88.06    4.60
   1   0  -9   95.65    4.60
   1   0  -9   81.47    4.59
  -1   0   9   90.43    4.58
   0   0  -9   17.81    0.95
   0   0  -9   17.39    0.97
   0   0  -9   18.22    0.97
   0   0   9   18.55    0.94
  -1   0  -9   22.89    1.23
   1   0   9   24.01    1.24
   1   0   9   23.57    1.22
  -2   0  -9    2.32    0.15
  -2   0  -9    2.53    0.18
   2   0   9    1.96    0.21
  -3   0  -9    0.14    0.06
   3   0   9    0.24    0.14
   3   0   9    0.27    0.11
   3   0   9    0.31    0.10
   3   0   9    0.18    0.12
  -4   0  -9    8.55    0.48
   4   0   9    9.25    0.53
   3  -1  -9    0.50    0.10
   3  -1  -9    0.36    0.09
   3  -1  -9    0.38    0.09
   3  -1  -9    0.44    0.09
  -3   1   9    0.38    0.09
   2  -1  -9    1.15    0.15
   2  -1  -9    0.80    0.14
   2  -1  -9    1.11    0.14
   2  -1  -9    1.09    0.12
   2  -1  -9    0.99    0.15
  -2   1   9    0.88    0.10
   1  -1  -9   12.30    0.68
   1  -1  -9   11.50    0.67
   1  -1  -9   13.57    0.69
   1  -1  -9   12.74    0.69
  -1   1   9   12.91    0.66
   0  -1  -9   31.15    1.77
   0  -1  -9   32.89    1.77
   0  -1  -9   36.42    1.77
   0   1   9   34.71    1.75
  -1  -1  -9    0.04    0.08
   1   1   9    0.12    0.11
   1   1   9    0.26    0.06
  -2  -1  -9   46.56    2.49
  -2  -1  -9   47.28    2.48
   2   1   9   50.39    2.50
   2   1   9   44.53    2.49
   2   1   9   51.95    2.50
  -3  -1  -9   16.42    0.92
   3   1   9   18.45    0.92
   3   1   9   18.65    0.96
   3   1   9   17.64    0.92
   3   1   9   16.80    0.93
  -4  -1  -9    0.38    0.07
   4   1   9    0.49    0.09
   4   1   9    0.47    0.08
   4   1   9    0.35    0.10
   5   1   9    3.80    0.22
   5   1   9    4.03    0.24
   4  -2  -9    2.12    0.18
   3  -2  -9    9.87    0.56
   3  -2  -9    9.83    0.56
   3  -2  -9    9.75    0.56
   3  -2  -9   10.48    0.57
   3  -2  -9    9.68    0.56
  -3   2   9   11.72    0.57
   2  -2  -9   26.44    1.33
   2  -2  -9   25.48    1.32
   2  -2  -9   25.15    1.33
   2  -2  -9   25.24    1.33
   2  -2  -9   23.05    1.31
   1  -2  -9    0.38    0.07
   1  -2  -9    0.53    0.10
   1  -2  -9    0.56    0.08
   1  -2  -9    0.27    0.09
  -1   2   9    0.46    0.06
   0  -2  -9  157.00    7.57
   0  -2  -9  148.21    7.57
   0  -2  -9  132.71    7.57
   0  -2  -9  133.25    7.55
   0   2   9  163.34    7.55
  -1  -2  -9    0.88    0.12
   1   2   9    0.81    0.17
  -2  -2  -9   11.72    0.66
   2   2   9   11.87    0.69
   2   2   9   11.81    0.69
   2   2   9   13.93    0.66
   2   2   9   13.52    0.66
  -3  -2  -9   53.29    2.87
   3   2   9   57.98    2.94
   3   2   9   55.55    2.88
  -4  -2  -9    2.82    0.18
   4   2   9    3.11    0.23
   4   2   9    2.74    0.24
   4  -3  -9    0.91    0.11
   4  -3  -9    1.20    0.11
   3  -3  -9    8.13    0.46
   3  -3  -9    9.03    0.48
   3  -3  -9    8.11    0.47
   3  -3  -9    8.09    0.46
   3  -3  -9    8.20    0.47
  -3   3   9    8.55    0.46
   2  -3  -9   14.99    0.84
   2  -3  -9   15.79    0.84
   2  -3  -9   15.78    0.84
   2  -3  -9   15.56    0.83
  -2   3   9   15.62    0.82
   1  -3  -9    1.03    0.14
  -1   3   9    0.91    0.09
   0  -3  -9    0.29    0.10
   0  -3  -9    0.29    0.06
   0  -3  -9    0.30    0.09
   0  -3  -9    0.56    0.14
   0   3   9    0.41    0.07
  -1  -3  -9    9.53    0.51
   1   3   9    9.64    0.53
  -2  -3  -9   19.66    1.01
   2   3   9   19.23    1.03
  -3  -3  -9   22.17    1.11
   3   3   9   21.62    1.13
   3   3   9   20.60    1.11
   3   3   9   20.73    1.13
  -4  -3  -9    4.14    0.23
   4   3   9    4.02    0.23
   4   3   9    3.86    0.26
   4   3   9    3.32    0.27
   3  -4  -9    6.95    0.40
  -3   4   9    7.41    0.40
   2  -4  -9    0.90    0.12
   2  -4  -9    1.01    0.13
   2  -4  -9    0.94    0.13
   2  -4  -9    1.04    0.12
  -2   4   9    0.86    0.10
   1  -4  -9   45.70    2.32
   1  -4  -9   43.37    2.31
   1  -4  -9   45.70    2.31
   1  -4  -9   43.40    2.31
   0  -4  -9    5.21    0.31
   0  -4  -9    5.29    0.33
   0  -4  -9    4.88    0.35
   0   4   9    5.68    0.30
   0   4   9    5.51    0.32
  -1  -4  -9   35.52    1.85
  -2  -4  -9    0.28    0.05
   2   4   9    0.25    0.08
   2   4   9    0.25    0.11
  -3  -4  -9   12.35    0.58
  -3  -4  -9   10.79    0.59
   3   4   9   10.85    0.61
   3   4   9   10.12    0.60
  -4  -4  -9    7.75    0.43
   4   4   9    7.72    0.45
   4   4   9    8.79    0.43
   4   4   9    7.79    0.44
   3  -5  -9   15.25    0.80
   3  -5  -9   14.75    0.79
   3  -5  -9   14.27    0.79
  -3   5   9   15.40    0.79
   2  -5  -9   10.71    0.56
   2  -5  -9   10.35    0.57
   2  -5  -9    9.90    0.57
  -2   5   9   10.40    0.55
   1  -5  -9   54.55    2.87
   1  -5  -9   54.97    2.88
   1  -5  -9   54.71    2.87
   1  -5  -9   57.40    2.89
  -1   5   9   56.37    2.87
   0  -5  -9    1.99    0.13
   0  -5  -9    2.13    0.13
   0  -5  -9    2.06    0.15
   0  -5  -9    1.84    0.24
   0   5   9    1.76    0.19
   0   5   9    2.15    0.17
  -1  -5  -9    0.25    0.05
   1   5   9    0.41    0.08
  -2  -5  -9    4.18    0.25
   2   5   9    4.47    0.34
   2   5   9    4.27    0.27
  -3  -5  -9    8.04    0.44
   3   5   9    8.45    0.43
   3   5   9    7.59    0.45
   3   5   9    7.65    0.45
   4   5   9    9.63    0.48
   4   5   9    8.76    0.50
   4   5   9    9.17    0.50
   3  -6  -9    9.24    0.51
   3  -6  -9    9.81    0.51
   2  -6  -9    5.74    0.34
   2  -6  -9    6.73    0.40
   2  -6  -9    5.75    0.35
  -2   6   9    6.46    0.35
   1  -6  -9   11.55    0.64
   1  -6  -9   11.58    0.62
   1  -6  -9   11.77    0.63
   1  -6  -9   11.87    0.61
  -1   6   9   11.30    0.62
   0  -6  -9   11.24    0.60
   0  -6  -9   11.35    0.60
   0  -6  -9   11.49    0.61
  -1  -6  -9    2.10    0.13
  -1  -6  -9    2.05    0.12
  -1  -6  -9    1.88    0.15
   1   6   9    1.99    0.18
   1   6   9    2.11    0.18
   2   6   9   19.97    1.03
   2   6   9   18.66    1.09
   3   6   9    2.41    0.17
   3   6   9    2.18    0.19
   4   6   9   27.12    1.37
   4   6   9   25.82    1.38
   2  -7  -9    5.06    0.27
   2  -7  -9    4.50    0.27
   2  -7  -9    4.75    0.27
   2  -7  -9    4.38    0.26
  -2   7   9    4.88    0.28
  -1   7   9   10.62    0.61
   0  -7  -9   15.62    0.83
   0  -7  -9   15.81    0.83
   0  -7  -9   15.84    0.84
   0   7   9   16.04    0.85
  -1  -7  -9    1.96    0.12
  -1  -7  -9    1.99    0.13
  -1  -7  -9    1.89    0.20
   1   7   9    2.19    0.20
   1   7   9    2.08    0.18
  -2  -7  -9   17.72    0.89
  -2  -7  -9   17.56    0.88
   2   7   9   16.83    0.90
   2   7   9   15.53    0.91
  -3  -7  -9    7.19    0.38
  -3  -7  -9    7.28    0.38
   3   7   9    7.03    0.40
   2  -8  -9    7.76    0.45
   2  -8  -9    8.23    0.45
   2  -8  -9    8.43    0.44
  -2   8   9    9.31    0.50
   1  -8  -9    2.22    0.14
   1  -8  -9    2.05    0.13
   1  -8  -9    2.11    0.15
  -1   8   9    2.05    0.16
   0  -8  -9   16.03    0.83
   0  -8  -9   15.92    0.84
   0  -8  -9   15.76    0.84
   0   8   9   16.18    0.85
  -1  -8  -9    3.48    0.20
  -1  -8  -9    3.42    0.20
   1   8   9    3.73    0.23
  -2  -8  -9    0.91    0.07
  -2  -8  -9    0.99    0.08
   2   8   9    1.03    0.12
   2   8   9    1.25    0.13
   0  -9  -9   11.01    0.59
   0  -9  -9   11.07    0.59
   0   9   9   11.84    0.61
  -1  -9  -9   35.66    1.86
  -1  -9  -9   35.03    1.86
   1   9   9   37.58    1.87
   1   6 -10    1.79    0.14
   1   6 -10    1.77    0.17
   0   6 -10    6.46    0.36
   0   6 -10    6.31    0.36
   0  -6  10    6.46    0.35
  -1   6 -10    1.63    0.21
  -1   6 -10    1.28    0.12
   1  -6  10    1.17    0.11
   1  -6  10    1.15    0.14
  -2   6 -10    2.59    0.15
   2  -6  10    2.13    0.19
   2   5 -10   10.90    0.59
   2   5 -10   10.87    0.60
   2   5 -10   11.44    0.60
   2   5 -10   11.68    0.60
   1   5 -10    3.45    0.22
   1   5 -10    3.34    0.23
   1   5 -10    3.84    0.23
   1   5 -10    3.70    0.23
   0   5 -10   41.86    2.30
   0   5 -10   46.87    2.30
  -1   5 -10    0.06    0.07
  -1   5 -10    0.01    0.07
  -1   5 -10    0.06    0.07
   1  -5  10    0.02    0.09
  -2   5 -10    9.15    0.49
   2  -5  10    9.24    0.50
   2  -5  10    9.33    0.50
  -3   5 -10   12.50    0.63
   3  -5  10   11.38    0.63
   3   4 -10    0.05    0.06
   3   4 -10    0.03    0.05
   3   4 -10   -0.03    0.04
   2   4 -10    1.73    0.15
   2   4 -10    1.54    0.13
   2   4 -10    1.93    0.14
   2   4 -10    1.80    0.14
  -2  -4  10    1.78    0.14
   1   4 -10    1.62    0.15
   1   4 -10    1.76    0.15
   1   4 -10    1.78    0.20
   1   4 -10    1.68    0.16
   1   4 -10    1.68    0.16
  -1  -4  10    1.67    0.12
   0   4 -10   13.47    0.74
   0   4 -10   14.39    0.74
   0   4 -10   13.37    0.73
  -1   4 -10    5.58    0.34
  -1   4 -10    5.66    0.34
  -1   4 -10    5.66    0.32
   1  -4  10    5.64    0.33
   1  -4  10    5.69    0.34
  -2   4 -10    3.89    0.24
   2  -4  10    4.15    0.25
  -3   4 -10   77.02    3.87
   3  -4  10   71.64    3.88
   3  -4  10   76.97    3.89
   3   3 -10    0.18    0.06
   3   3 -10    0.26    0.08
   3   3 -10    0.16    0.06
   3   3 -10    0.07    0.04
   2   3 -10   15.57    0.83
   2   3 -10   15.47    0.83
   2   3 -10   15.12    0.82
   2   3 -10   15.46    0.82
  -2  -3  10   15.26    0.80
   1   3 -10    6.00    0.36
   1   3 -10    6.16    0.35
   1   3 -10    6.02    0.36
   1   3 -10    6.14    0.36
  -1  -3  10    6.18    0.33
   0   3 -10   12.69    0.68
   0   3 -10   12.62    0.70
   0  -3  10   12.59    0.67
  -1   3 -10    0.17    0.06
  -1   3 -10    0.06    0.08
   1  -3  10    0.06    0.07
  -2   3 -10   12.15    0.65
   2  -3  10   12.45    0.67
   3  -3  10   -0.01    0.08
  -4   3 -10   13.47    0.66
   4  -3  10   11.24    0.66
   4  -3  10   13.13    0.67
   3   2 -10   15.76    0.87
   3   2 -10   16.53    0.87
   3   2 -10   17.22    0.88
   3   2 -10   16.84    0.88
  -3  -2  10   15.79    0.86
   2   2 -10    0.35    0.08
   2   2 -10    0.23    0.07
   2   2 -10    0.32    0.07
   2   2 -10    0.30    0.06
  -2  -2  10    0.40    0.05
   1   2 -10  302.19   15.75
   1   2 -10  318.34   15.75
   1   2 -10  300.49   15.74
   1   2 -10  300.09   15.76
   1   2 -10  305.45   15.75
  -1  -2  10  311.88   15.73
   0   2 -10    3.32    0.27
   0   2 -10    3.40    0.22
   0   2 -10    2.90    0.20
   0   2 -10    3.06    0.23
   0   2 -10    2.90    0.21
  -1   2 -10   92.86    5.03
  -1   2 -10   96.13    5.00
   1  -2  10  102.10    5.01
  -2   2 -10   15.03    0.82
   2  -2  10   16.19    0.84
   2  -2  10   15.61    0.84
  -3   2 -10    1.85    0.15
   3  -2  10    2.17    0.18
   3  -2  10    1.97    0.17
  -4   2 -10    0.78    0.11
   4  -2  10    0.69    0.09
   4  -2  10    0.59    0.09
   4  -2  10    0.84    0.11
   4  -2  10    0.44    0.08
   3   1 -10    9.69    0.53
   3   1 -10    9.93    0.54
   3   1 -10    9.69    0.54
   3   1 -10    9.15    0.53
   2   1 -10    1.13    0.14
   2   1 -10    1.14    0.14
   2   1 -10    1.23    0.13
   2   1 -10    1.03    0.16
   2   1 -10    1.05    0.13
  -2  -1  10    1.08    0.10
   1   1 -10    3.23    0.23
   1   1 -10    3.36    0.23
   1   1 -10    3.49    0.23
   1   1 -10    3.99    0.25
   1   1 -10    3.36    0.24
   0   1 -10    0.04    0.14
   0   1 -10    0.03    0.06
   0   1 -10    0.01    0.09
  -1   1 -10   19.96    1.05
  -1   1 -10   19.48    1.03
  -2   1 -10   39.38    2.11
   2  -1  10   42.24    2.13
  -3   1 -10    3.97    0.24
   3  -1  10    3.90    0.24
   3  -1  10    4.22    0.26
   3  -1  10    3.89    0.24
   3  -1  10    3.52    0.25
  -4   1 -10   14.47    0.72
   4  -1  10   11.74    0.71
   4  -1  10   13.28    0.71
   4  -1  10   13.97    0.73
   4  -1  10   14.04    0.70
   4   0 -10    1.48    0.18
   3   0 -10   10.54    0.55
   3   0 -10    9.58    0.53
   3   0 -10    9.70    0.54
  -3   0  10    8.97    0.52
   2   0 -10   27.11    1.43
   2   0 -10   27.43    1.43
   2   0 -10   27.23    1.43
   2   0 -10   28.35    1.44
  -2   0  10   25.78    1.41
   1   0 -10    0.54    0.11
   1   0 -10    0.62    0.09
   1   0 -10    0.46    0.07
   1   0 -10    0.42    0.08
   1   0 -10    0.42    0.09
  -1   0  10    0.55    0.07
   0   0 -10   50.10    2.60
   0   0 -10   50.60    2.59
   0   0 -10   52.09    2.60
   0   0 -10   46.24    2.58
   0   0  10   50.82    2.58
  -1   0 -10    0.13    0.07
   1   0  10    0.29    0.09
  -2   0 -10    1.19    0.14
   2   0  10    1.38    0.19
   2   0  10    1.19    0.16
  -3   0 -10    0.16    0.06
  -3   0 -10    0.34    0.09
   3   0  10    0.26    0.09
   3   0  10    0.16    0.07
   3   0  10    0.22    0.09
   4   0  10    3.92    0.26
   4   0  10    4.67    0.25
   4   0  10    4.53    0.25
   4   0  10    4.78    0.29
   4  -1 -10    7.68    0.42
   3  -1 -10    1.14    0.14
   3  -1 -10    1.27    0.18
   3  -1 -10    0.96    0.14
   3  -1 -10    1.23    0.13
  -3   1  10    1.14    0.13
   2  -1 -10   18.95    1.02
   2  -1 -10   21.07    1.03
   2  -1 -10   19.57    1.03
   2  -1 -10   18.28    1.01
  -2   1  10   17.23    0.99
   1  -1 -10    0.01    0.10
   1  -1 -10    0.01    0.08
   1  -1 -10    0.03    0.06
   1  -1 -10    0.03    0.07
   1  -1 -10    0.08    0.09
  -1   1  10    0.01    0.04
   0  -1 -10   26.33    1.50
   0  -1 -10   31.58    1.56
   0  -1 -10   28.75    1.51
   0  -1 -10   28.45    1.56
   0   1  10   29.11    1.49
  -1  -1 -10   29.36    1.53
   1   1  10   29.57    1.54
  -2  -1 -10    1.62    0.14
  -2  -1 -10    1.69    0.22
   2   1  10    2.02    0.19
   2   1  10    1.95    0.19
   2   1  10    1.49    0.18
   2   1  10    1.94    0.16
  -3  -1 -10   21.83    1.24
   3   1  10   24.93    1.23
   3   1  10   21.96    1.24
   3   1  10   23.76    1.26
   3   1  10   26.34    1.24
   4   1  10    6.44    0.32
   4   1  10    5.08    0.33
   4   1  10    6.08    0.32
   4   1  10    5.78    0.35
   4  -2 -10   19.18    1.00
   3  -2 -10    4.99    0.30
   3  -2 -10    4.91    0.35
   3  -2 -10    5.13    0.31
  -3   2  10    4.91    0.29
   2  -2 -10   16.29    0.83
   2  -2 -10   13.79    0.75
   2  -2 -10   13.80    0.75
   2  -2 -10   13.40    0.75
   2  -2 -10   13.51    0.75
  -2   2  10   13.10    0.73
   1  -2 -10    3.96    0.25
   1  -2 -10    3.50    0.25
   1  -2 -10    4.42    0.27
   1  -2 -10    4.11    0.26
   1  -2 -10    4.13    0.27
  -1   2  10    4.01    0.23
   0  -2 -10   43.56    2.24
   0  -2 -10   42.79    2.23
   0  -2 -10   39.70    2.22
   0  -2 -10   42.82    2.22
   0   2  10   45.71    2.22
  -1  -2 -10    0.33    0.05
  -1  -2 -10    0.40    0.10
   1   2  10    0.30    0.14
  -2  -2 -10    0.29    0.06
   2   2  10    0.19    0.10
   2   2  10    0.38    0.10
  -3  -2 -10   56.55    2.98
   3   2  10   66.02    2.98
   3   2  10   55.62    3.00
   3   2  10   64.82    2.98
   3   2  10   52.73    3.00
   3   2  10   51.26    2.99
   4   2  10   16.62    0.89
   4   2  10   17.19    0.90
   3  -3 -10    5.40    0.30
   3  -3 -10    4.91    0.31
   3  -3 -10    4.88    0.30
   3  -3 -10    4.47    0.28
   3  -3 -10    4.96    0.30
  -3   3  10    4.64    0.29
   2  -3 -10    2.08    0.17
   2  -3 -10    1.83    0.16
   2  -3 -10    1.87    0.16
   2  -3 -10    2.00    0.16
   2  -3 -10    1.70    0.17
  -2   3  10    1.59    0.13
   1  -3 -10   48.16    2.63
   1  -3 -10   49.38    2.65
   1  -3 -10   52.03    2.64
   1  -3 -10   50.81    2.64
   1  -3 -10   53.93    2.65
   0  -3 -10    9.34    0.54
   0  -3 -10   10.19    0.54
   0  -3 -10   10.19    0.54
   0  -3 -10    9.21    0.57
   0   3  10    9.88    0.52
  -1  -3 -10   51.45    2.55
  -1  -3 -10   45.20    2.56
   1   3  10   51.25    2.56
  -2  -3 -10   12.87    0.64
   2   3  10   11.43    0.66
  -3  -3 -10   88.94    4.45
   3   3  10   85.73    4.46
   3   3  10   85.54    4.45
   3   3  10   85.46    4.47
  -4  -3 -10    0.21    0.05
   4   3  10    0.20    0.13
   4   3  10    0.19    0.06
   4   3  10    0.13    0.07
   3  -4 -10    4.25    0.26
   3  -4 -10    4.82    0.27
   3  -4 -10    4.12    0.26
   3  -4 -10    4.23    0.26
  -3   4  10    4.29    0.26
   2  -4 -10    9.88    0.55
   2  -4 -10   10.15    0.55
   2  -4 -10   10.16    0.55
   2  -4 -10    9.90    0.55
  -2   4  10    9.99    0.54
   1  -4 -10    9.75    0.53
   1  -4 -10    9.99    0.54
   1  -4 -10    9.29    0.53
   1  -4 -10    9.89    0.55
  -1   4  10    9.69    0.52
   0  -4 -10    0.26    0.18
   0  -4 -10    0.20    0.16
   0  -4 -10    0.22    0.09
   0   4  10    0.27    0.09
  -1  -4 -10    3.88    0.23
   1   4  10    3.98    0.26
   2   4  10    3.40    0.24
   2   4  10    3.17    0.26
  -3  -4 -10   39.39    1.96
   3   4  10   33.40    1.97
   3   4  10   38.08    1.98
   3   4  10   40.64    1.96
  -4  -4 -10    2.37    0.15
   4   4  10    2.50    0.15
   4   4  10    2.32    0.17
   4   4  10    2.26    0.18
   3  -5 -10   11.32    0.58
   3  -5 -10   11.22    0.59
   3  -5 -10   11.78    0.59
  -3   5  10    9.51    0.61
   2  -5 -10   90.72    4.49
   2  -5 -10   85.85    4.48
   2  -5 -10   85.82    4.49
  -2   5  10   85.38    4.48
   1  -5 -10   49.59    2.61
   1  -5 -10   51.15    2.62
   1  -5 -10   50.84    2.62
  -1   5  10   50.19    2.61
   0  -5 -10   65.92    3.29
   0  -5 -10   58.14    3.31
   0  -5 -10   67.50    3.29
   0  -5 -10   62.92    3.31
   0   5  10   62.77    3.30
   0   5  10   65.99    3.30
  -2  -5 -10   40.93    2.18
   2   5  10   43.26    2.19
  -3  -5 -10    0.68    0.11
   3   5  10    0.86    0.11
   3   5  10    0.71    0.11
   4   5  10    1.02    0.14
   4   5  10    1.15    0.12
   3  -6 -10   13.90    0.73
   3  -6 -10   13.99    0.73
   2  -6 -10    2.78    0.18
   2  -6 -10    2.79    0.19
   2  -6 -10    2.91    0.18
  -2   6  10    2.40    0.19
   1  -6 -10    0.45    0.09
   1  -6 -10    0.44    0.10
   1  -6 -10    0.32    0.07
   1  -6 -10    0.48    0.06
   1  -6 -10    0.45    0.07
  -1   6  10    0.52    0.09
   0  -6 -10    9.39    0.50
   0  -6 -10    9.19    0.48
   0  -6 -10    9.06    0.49
   0   6  10    8.78    0.52
  -1  -6 -10   32.82    1.74
  -1  -6 -10   34.27    1.73
  -1  -6 -10   33.97    1.72
   1   6  10   33.67    1.74
   1   6  10   32.01    1.75
  -2  -6 -10    2.98    0.20
   2   6  10    2.75    0.21
   2   6  10    2.95    0.26
   3   6  10    5.58    0.32
   2  -7 -10    7.40    0.42
   2  -7 -10    7.86    0.42
  -2   7  10    7.88    0.42
   1  -7 -10    0.01    0.06
   1  -7 -10    0.09    0.05
   1  -7 -10    0.07    0.05
  -1   7  10   -0.01    0.05
   0   7  10    8.02    0.45
  -1  -7 -10    3.90    0.26
   1   7  10    3.97    0.32
   1   7  10    4.21    0.32
  -2  -7 -10    0.13    0.04
  -2  -7 -10    0.17    0.03
   2   7  10    0.10    0.09
   2   7  10    0.07    0.07
  -3  -7 -10    6.42    0.34
  -3  -7 -10    6.29    0.33
   3   7  10    6.20    0.35
   1  -8 -10   10.97    0.57
   1  -8 -10   10.48    0.57
   1  -8 -10   10.40    0.58
  -1   8  10   11.46    0.58
   0  -8 -10    0.02    0.06
   0  -8 -10    0.02    0.04
   0  -8 -10    0.03    0.03
   0   8  10    0.06    0.06
  -1  -8 -10    7.76    0.43
  -1  -8 -10    7.89    0.43
   1   8  10    8.70    0.45
  -2  -8 -10    0.09    0.03
  -2  -8 -10    0.05    0.03
   2   8  10    0.01    0.09
   0   6 -11    5.15    0.29
   0   6 -11    5.20    0.30
   0  -6  11    4.94    0.28
  -1   6 -11    4.38    0.27
  -1   6 -11    3.77    0.27
   1  -6  11    3.57    0.22
   1   5 -11    5.54    0.36
   1   5 -11    6.79    0.36
   1   5 -11    6.79    0.36
   0   5 -11    3.80    0.24
   0   5 -11    3.80    0.24
   0  -5  11    3.97    0.23
  -1   5 -11    4.70    0.28
  -1   5 -11    4.67    0.26
  -1   5 -11    4.50    0.29
   1  -5  11    4.27    0.26
  -2   5 -11    1.21    0.10
   2  -5  11    1.01    0.15
   2  -5  11    1.34    0.11
   2   4 -11    1.44    0.12
   2   4 -11    1.45    0.11
   2   4 -11    1.50    0.12
   2   4 -11    1.58    0.13
  -2  -4  11    1.46    0.12
   1   4 -11    5.00    0.28
   1   4 -11    4.64    0.28
   1   4 -11    4.50    0.29
   1   4 -11    5.03    0.30
  -1  -4  11    4.64    0.27
   0   4 -11    0.00    0.07
   0   4 -11   -0.04    0.06
   0   4 -11    0.00    0.07
  -1   4 -11    3.21    0.23
  -1   4 -11    3.27    0.21
   1  -4  11    3.18    0.21
  -2   4 -11    1.93    0.14
   2  -4  11    1.90    0.18
   2  -4  11    2.08    0.15
  -3   4 -11   31.74    1.55
   3  -4  11   27.36    1.55
   3  -4  11   30.73    1.56
   3   3 -11   17.51    0.95
   3   3 -11   18.02    0.95
   3   3 -11   19.14    0.96
   2   3 -11    1.11    0.12
   2   3 -11    1.04    0.12
   2   3 -11    1.11    0.11
   2   3 -11    1.02    0.11
  -2  -3  11    0.98    0.10
   1   3 -11    8.57    0.48
   1   3 -11    8.69    0.49
   1   3 -11    8.16    0.48
   1   3 -11    8.72    0.47
   1   3 -11    8.66    0.47
  -1  -3  11    8.54    0.46
   0   3 -11   12.55    0.66
   0   3 -11   11.30    0.69
   0   3 -11   12.45    0.68
   0   3 -11   13.54    0.70
  -1   3 -11    0.14    0.10
  -1   3 -11    0.13    0.10
  -1   3 -11    0.31    0.06
   1  -3  11    0.44    0.08
  -2   3 -11    0.76    0.10
   2  -3  11    1.03    0.12
  -3   3 -11    0.21    0.05
   3  -3  11    0.21    0.07
   3  -3  11    0.19    0.08
   3   2 -11    0.07    0.06
   3   2 -11    0.10    0.06
   3   2 -11    0.17    0.05
   3   2 -11    0.12    0.06
   2   2 -11    0.71    0.11
   2   2 -11    0.70    0.11
   2   2 -11    0.85    0.13
   2   2 -11    0.78    0.12
  -2  -2  11    0.78    0.09
   1   2 -11   29.32    1.55
   1   2 -11   30.60    1.54
   1   2 -11   28.76    1.53
   1   2 -11   28.35    1.54
  -1  -2  11   29.62    1.52
   0   2 -11   10.14    0.57
   0   2 -11    9.54    0.54
   0   2 -11    9.49    0.56
   0  -2  11    9.80    0.52
  -1   2 -11   16.35    0.83
  -1   2 -11   13.36    0.76
   1  -2  11   13.78    0.77
  -2   2 -11    5.38    0.31
   2  -2  11    5.55    0.32
  -3   2 -11   31.35    1.55
   3  -2  11   27.62    1.53
   4  -2  11    0.26    0.06
   4  -2  11    0.20    0.07
   3   1 -11    0.32    0.07
   3   1 -11    0.27    0.06
   3   1 -11    0.32    0.06
   3   1 -11    0.35    0.06
  -3  -1  11    0.23    0.08
   2   1 -11   26.76    1.47
   2   1 -11   28.74    1.48
   2   1 -11   29.98    1.47
   2   1 -11   27.32    1.48
   2   1 -11   27.49    1.47
  -2  -1  11   28.00    1.45
   1   1 -11   20.96    1.05
   1   1 -11   19.41    1.05
   1   1 -11   18.99    1.10
   1   1 -11   19.73    1.04
  -1  -1  11   19.41    1.03
   0   1 -11   39.07    2.00
   0   1 -11   36.86    1.99
   0   1 -11   38.20    2.00
   0   1 -11   39.14    2.01
   0  -1  11   38.43    1.98
  -1   1 -11    8.18    0.48
  -1   1 -11    7.89    0.44
   1  -1  11    8.08    0.45
  -2   1 -11   57.68    3.06
   2  -1  11   60.82    3.07
  -3   1 -11   10.97    0.60
   3  -1  11   12.08    0.62
   3  -1  11   10.60    0.61
   4  -1  11    0.66    0.11
   4  -1  11    0.60    0.10
   3   0 -11    0.35    0.07
   3   0 -11    0.39    0.07
   3   0 -11    0.46    0.07
  -3   0  11    0.29    0.08
   2   0 -11    4.95    0.31
   2   0 -11    5.14    0.30
   2   0 -11    4.75    0.30
   2   0 -11    5.02    0.30
   2   0 -11    5.16    0.31
  -2   0  11    4.89    0.28
   1   0 -11   15.05    0.82
   1   0 -11   15.30    0.82
   1   0 -11   14.77    0.80
   1   0 -11   14.27    0.80
   1   0 -11   15.88    0.81
  -1   0  11   15.01    0.79
   0   0 -11    0.22    0.11
   0   0 -11    0.23    0.06
   0   0 -11    0.16    0.07
   0   0 -11    0.21    0.11
   0   0  11    0.23    0.13
   0   0  11    0.24    0.05
  -1   0 -11    2.99    0.18
  -1   0 -11    2.73    0.20
   1   0  11    2.77    0.22
  -2   0 -11    0.78    0.11
   2   0  11    0.93    0.16
   2   0  11    1.04    0.13
  -3   0 -11    0.61    0.11
   3   0  11    0.42    0.09
   3   0  11    0.40    0.11
   3   0  11    0.58    0.10
   3   0  11    0.48    0.09
   4   0  11    0.60    0.11
   4   0  11    0.37    0.08
   3  -1 -11    8.54    0.49
   3  -1 -11    8.95    0.49
   3  -1 -11    8.74    0.48
   3  -1 -11    9.55    0.49
  -3   1  11    8.36    0.48
   2  -1 -11    9.68    0.53
   2  -1 -11    9.54    0.54
   2  -1 -11   10.62    0.59
   2  -1 -11    9.59    0.54
  -2   1  11    9.30    0.52
   1  -1 -11   20.54    1.17
   1  -1 -11   22.64    1.19
   1  -1 -11   22.13    1.19
   1  -1 -11   24.64    1.22
   1  -1 -11   22.06    1.18
  -1   1  11   22.24    1.16
   0  -1 -11    4.98    0.32
   0  -1 -11    4.64    0.29
   0  -1 -11    5.22    0.33
   0  -1 -11    4.96    0.28
   0   1  11    5.02    0.28
  -1  -1 -11   22.36    1.15
  -1  -1 -11   23.36    1.14
   1   1  11   19.89    1.18
  -2  -1 -11   19.56    1.07
   2   1  11   20.51    1.07
   2   1  11   20.54    1.07
   3   1  11    1.54    0.15
   3   1  11    1.23    0.16
   4   1  11    4.65    0.27
   4   1  11    4.07    0.25
   3  -2 -11   31.48    1.69
   3  -2 -11   32.72    1.68
   3  -2 -11   32.00    1.69
   3  -2 -11   34.87    1.68
  -3   2  11   30.57    1.67
   2  -2 -11    0.11    0.07
   2  -2 -11    0.15    0.07
   2  -2 -11   -0.05    0.08
   2  -2 -11    0.04    0.08
  -2   2  11    0.06    0.06
   1  -2 -11    5.00    0.31
   1  -2 -11    5.19    0.32
   1  -2 -11    5.16    0.33
   1  -2 -11    5.44    0.33
   1  -2 -11    5.51    0.31
  -1   2  11    5.31    0.30
   0  -2 -11    2.22    0.15
   0  -2 -11    2.15    0.25
   0  -2 -11    2.10    0.18
   0  -2 -11    2.33    0.20
   0   2  11    2.37    0.15
  -1  -2 -11    6.13    0.33
  -1  -2 -11    5.82    0.35
   1   2  11    5.91    0.43
  -2  -2 -11    0.37    0.15
   2   2  11    0.42    0.10
   2   2  11    0.46    0.09
   3   2  11    0.50    0.09
   3   2  11    0.41    0.11
   4   2  11    4.83    0.27
   4   2  11    4.87    0.29
   3  -3 -11    9.70    0.55
   3  -3 -11    9.44    0.55
   3  -3 -11   10.30    0.55
  -3   3  11   11.14    0.56
   2  -3 -11   17.47    0.89
   2  -3 -11   16.15    0.88
   2  -3 -11   16.42    0.88
   2  -3 -11   17.25    0.89
   2  -3 -11   15.82    0.89
  -2   3  11   16.16    0.87
   1  -3 -11    1.15    0.14
   1  -3 -11    1.19    0.18
  -1   3  11    1.07    0.10
   0  -3 -11   24.25    1.29
   0  -3 -11   25.58    1.28
   0  -3 -11   24.29    1.31
   0  -3 -11   24.14    1.30
  -1  -3 -11   10.84    0.57
  -1  -3 -11   10.43    0.62
   1   3  11   11.02    0.59
  -2  -3 -11    3.47    0.21
   2   3  11    3.42    0.25
  -3  -3 -11   18.47    0.91
   3   3  11   16.10    0.93
   3   3  11   17.28    0.92
  -4  -3 -11    4.35    0.25
   4   3  11    4.00    0.26
   4   3  11    4.78    0.25
   3  -4 -11    0.29    0.06
   3  -4 -11    0.24    0.06
   3  -4 -11    0.27    0.06
  -3   4  11    0.22    0.12
   2  -4 -11    3.87    0.25
   2  -4 -11    4.22    0.25
   2  -4 -11    3.94    0.25
   2  -4 -11    3.86    0.24
  -2   4  11    3.73    0.23
   1  -4 -11    0.98    0.13
   1  -4 -11    0.91    0.14
   1  -4 -11    1.09    0.12
   1  -4 -11    0.88    0.14
  -1   4  11    0.83    0.10
  -1   4  11    1.16    0.16
   0  -4 -11   51.13    2.64
   0  -4 -11   50.06    2.65
   0  -4 -11   48.20    2.66
   0   4  11   52.57    2.64
   0   4  11   52.89    2.64
   1   4  11   13.41    0.73
  -2  -4 -11    8.93    0.46
   2   4  11    7.47    0.49
   2   4  11    8.92    0.48
  -3  -4 -11   28.74    1.43
   3   4  11   24.97    1.41
  -4  -4 -11    0.26    0.05
   4   4  11    0.24    0.07
   4   4  11    0.33    0.08
   3  -5 -11    0.05    0.04
   3  -5 -11    0.12    0.05
   3  -5 -11    0.07    0.04
  -3   5  11    0.03    0.11
   2  -5 -11    4.22    0.28
   2  -5 -11    4.73    0.28
   2  -5 -11    4.42    0.27
  -2   5  11    4.83    0.30
   1  -5 -11   42.52    2.28
   1  -5 -11   45.71    2.27
   1  -5 -11   43.37    2.27
  -1   5  11   43.22    2.26
   0  -5 -11    2.22    0.16
   0  -5 -11    1.82    0.24
   0  -5 -11    2.68    0.22
   0   5  11    2.28    0.19
  -1  -5 -11    0.70    0.07
  -1  -5 -11    0.82    0.08
  -1  -5 -11    0.60    0.09
   1   5  11    0.84    0.13
  -2  -5 -11    0.23    0.06
   2   5  11    0.27    0.08
  -3  -5 -11    6.21    0.35
   3   5  11    6.06    0.37
   3   5  11    6.77    0.40
   4   5  11   12.01    0.61
   4   5  11   11.03    0.61
   2  -6 -11    0.63    0.09
   2  -6 -11    0.51    0.07
   2  -6 -11    0.38    0.06
  -2   6  11    0.46    0.12
   1  -6 -11   27.00    1.41
   1  -6 -11   27.05    1.42
   1  -6 -11   26.84    1.42
   0  -6 -11    4.84    0.28
   0  -6 -11    5.15    0.29
   0  -6 -11    5.14    0.28
   0   6  11    4.90    0.33
  -1  -6 -11   41.01    2.10
  -1  -6 -11   41.45    2.09
  -1  -6 -11   40.80    2.09
   1   6  11   40.13    2.11
   1   6  11   39.10    2.11
  -2  -6 -11    0.07    0.04
  -2  -6 -11    0.16    0.07
  -2  -6 -11    0.10    0.06
   2   6  11   -0.10    0.12
  -3  -6 -11    1.18    0.17
   3   6  11    0.88    0.11
   2  -7 -11    2.20    0.16
   2  -7 -11    2.09    0.15
  -2   7  11    2.61    0.16
   1  -7 -11   10.50    0.56
  -1   7  11   10.32    0.56
   0  -7 -11    0.96    0.09
   0  -7 -11    0.92    0.08
   0  -7 -11    0.80    0.11
   0   7  11    0.96    0.12
  -1  -7 -11    0.74    0.11
  -1  -7 -11    0.82    0.08
  -1  -7 -11    0.74    0.07
   1   7  11    0.77    0.11
   1   7  11    0.75    0.13
  -2  -7 -11   11.87    0.62
  -2  -7 -11   11.46    0.63
  -2  -7 -11   11.70    0.61
   2   7  11   11.95    0.63
  -3  -7 -11    3.73    0.21
  -3  -7 -11    3.80    0.21
   3   7  11    4.03    0.23
   1  -8 -11    0.45    0.06
  -1   8  11    0.42    0.07
   0  -8 -11    8.04    0.44
   0  -8 -11    8.26    0.45
   0  -8 -11    8.11    0.44
   0   8  11    8.87    0.46
  -1  -8 -11    0.13    0.03
  -1  -8 -11    0.12    0.04
   1   8  11    0.02    0.06
  -2  -8 -11    2.74    0.15
  -2  -8 -11    2.67    0.15
   2   8  11    2.51    0.20
   1   5 -12   20.66    1.10
   1   5 -12   21.37    1.11
  -1  -5  12   21.40    1.10
   0   5 -12    5.46    0.32
   0  -5  12    5.55    0.31
  -1   5 -12    0.18    0.09
  -1   5 -12   -0.06    0.13
  -1   5 -12    0.31    0.05
   1  -5  12    0.25    0.05
  -2   5 -12    3.46    0.19
   2  -5  12    3.25    0.20
   2   4 -12    3.72    0.23
   2   4 -12    4.10    0.23
   2   4 -12    3.86    0.23
   1   4 -12    0.05    0.06
   1   4 -12    0.02    0.06
   1   4 -12    0.13    0.07
   0   4 -12   11.34    0.61
   0   4 -12   11.15    0.60
   0   4 -12   11.15    0.62
   0  -4  12   11.48    0.61
  -1   4 -12   10.83    0.61
  -1   4 -12   11.26    0.58
   1  -4  12   10.72    0.59
  -2   4 -12    8.36    0.44
   2  -4  12    8.02    0.44
   2   3 -12   13.28    0.70
   2   3 -12   13.48    0.69
   2   3 -12   12.34    0.69
  -2  -3  12   12.97    0.68
   1   3 -12    2.30    0.17
   1   3 -12    2.00    0.18
   1   3 -12    2.35    0.22
   1   3 -12    2.27    0.17
  -1  -3  12    2.09    0.15
   0   3 -12    3.84    0.25
   0   3 -12    3.91    0.24
   0   3 -12    4.07    0.27
  -1   3 -12    6.76    0.37
  -1   3 -12    6.50    0.40
   1  -3  12    6.57    0.38
  -2   3 -12    0.02    0.05
   2  -3  12    0.10    0.06
  -3   3 -12    0.52    0.08
   3  -3  12    0.50    0.09
   3   2 -12   10.20    0.55
   3   2 -12    9.95    0.54
   3   2 -12   10.47    0.54
   2   2 -12    7.42    0.40
   2   2 -12    7.44    0.41
   2   2 -12    7.85    0.41
  -2  -2  12    6.31    0.42
   1   2 -12    1.58    0.16
   1   2 -12    1.61    0.15
   1   2 -12    1.68    0.16
   1   2 -12    1.48    0.15
  -1  -2  12    1.74    0.12
   0   2 -12    2.33    0.19
   0   2 -12    1.61    0.22
   0   2 -12    2.14    0.16
   0   2 -12    2.41    0.19
   0  -2  12    2.20    0.18
  -1   2 -12    5.55    0.46
  -1   2 -12    7.13    0.44
  -1   2 -12    7.20    0.38
   1  -2  12    7.22    0.39
  -2   2 -12    0.19    0.06
   2  -2  12    0.35    0.08
  -3   2 -12    3.65    0.22
   3  -2  12    3.46    0.23
   3   1 -12    3.79    0.23
   3   1 -12    4.12    0.23
  -3  -1  12    3.78    0.26
   2   1 -12    7.41    0.41
   2   1 -12    7.33    0.43
  -2  -1  12    7.39    0.40
   1   1 -12   22.06    1.18
   1   1 -12   22.63    1.19
   1   1 -12   22.41    1.18
   1   1 -12   22.26    1.19
  -1  -1  12   22.78    1.17
   0   1 -12   72.67    3.45
   0   1 -12   64.35    3.41
   0   1 -12   64.84    3.42
   0   1 -12   62.85    3.41
   0  -1  12   64.30    3.40
   0  -1  12   67.16    3.41
  -1   1 -12    0.47    0.07
   1  -1  12    0.49    0.08
  -2   1 -12    3.38    0.21
   2  -1  12    3.39    0.22
  -3   1 -12    0.23    0.07
   3  -1  12    0.20    0.09
   4  -1  12   12.70    0.67
   3   0 -12   55.39    2.89
   3   0 -12   56.20    2.89
   3   0 -12   56.37    2.89
   2   0 -12    3.61    0.23
   2   0 -12    3.77    0.24
   2   0 -12    3.79    0.24
   2   0 -12    3.77    0.24
  -2   0  12    3.54    0.22
   1   0 -12   85.67    4.39
   1   0 -12   85.88    4.39
   1   0 -12   82.30    4.38
   1   0 -12   85.50    4.39
  -1   0  12   85.09    4.37
   0   0 -12    6.57    0.37
   0   0 -12    6.25    0.38
   0   0 -12    6.37    0.38
   0   0  12    5.94    0.35
  -1   0 -12    4.11    0.24
  -2   0 -12    0.17    0.07
   2   0  12    0.10    0.07
   2   0  12    0.33    0.11
  -3   0 -12    2.48    0.21
   3   0  12    2.49    0.20
   4   0  12    3.93    0.24
   3  -1 -12   -0.08    0.06
   3  -1 -12    0.04    0.05
   3  -1 -12    0.11    0.05
   3  -1 -12    0.08    0.06
  -3   1  12    0.15    0.11
   2  -1 -12    2.22    0.17
   2  -1 -12    2.07    0.17
   2  -1 -12    2.35    0.17
   2  -1 -12    2.20    0.17
  -2   1  12    2.17    0.15
   1  -1 -12    0.38    0.10
   1  -1 -12    0.26    0.08
   1  -1 -12    0.34    0.09
   1  -1 -12    0.28    0.07
  -1   1  12    0.36    0.06
   0  -1 -12   29.97    1.65
   0  -1 -12   31.20    1.63
   0  -1 -12   31.46    1.64
   0  -1 -12   31.50    1.63
   0  -1 -12   31.77    1.64
   0   1  12   31.81    1.62
  -1  -1 -12    3.19    0.22
  -1  -1 -12    3.29    0.20
   1   1  12    3.66    0.25
  -2  -1 -12   25.85    1.39
   2   1  12   25.35    1.36
   2   1  12   26.46    1.36
   3   1  12    2.93    0.22
   3   1  12    2.93    0.32
   4   1  12    0.03    0.06
   3  -2 -12    2.11    0.15
   3  -2 -12    1.92    0.15
   3  -2 -12    2.04    0.15
   3  -2 -12    2.10    0.15
   2  -2 -12    1.23    0.17
   2  -2 -12    1.21    0.14
   2  -2 -12    0.97    0.13
   2  -2 -12    1.25    0.13
   2  -2 -12    1.29    0.13
  -2   2  12    1.19    0.11
   1  -2 -12    0.99    0.14
   1  -2 -12    1.03    0.13
   1  -2 -12    1.10    0.15
   1  -2 -12    0.96    0.12
   1  -2 -12    1.04    0.15
  -1   2  12    1.16    0.10
   0  -2 -12    1.04    0.17
   0  -2 -12    1.21    0.11
   0  -2 -12    1.19    0.21
   0  -2 -12    1.08    0.13
   0  -2 -12    0.93    0.17
   0   2  12    1.08    0.11
  -1  -2 -12   20.74    1.06
  -1  -2 -12   22.37    1.06
   1   2  12   16.97    1.12
  -2  -2 -12   -0.02    0.12
  -2  -2 -12    0.08    0.04
   2   2  12    0.06    0.08
   2   2  12    0.08    0.09
   3   2  12   17.54    0.93
   3   2  12   17.00    0.92
  -4  -2 -12    4.19    0.23
   4   2  12    4.07    0.25
   3  -3 -12    0.99    0.09
   3  -3 -12    0.87    0.10
   3  -3 -12    0.80    0.11
   2  -3 -12   26.47    1.36
   2  -3 -12   25.74    1.36
   2  -3 -12   25.98    1.35
   2  -3 -12   26.11    1.35
  -2   3  12   24.57    1.34
   1  -3 -12   24.76    1.29
   1  -3 -12   23.74    1.28
   1  -3 -12   24.23    1.30
   1  -3 -12   26.11    1.30
  -1   3  12   23.68    1.28
   0  -3 -12    0.43    0.14
   0  -3 -12    0.53    0.09
   0   3  12    0.49    0.08
  -1  -3 -12   39.81    2.04
   1   3  12   38.95    2.05
  -2  -3 -12    4.31    0.25
   2   3  12    4.53    0.28
   3   3  12    6.88    0.42
  -4  -3 -12   38.29    1.91
   4   3  12   35.81    1.92
   3  -4 -12    1.33    0.11
   3  -4 -12    1.29    0.10
   2  -4 -12    0.94    0.13
   2  -4 -12    1.07    0.12
   2  -4 -12    0.74    0.12
   2  -4 -12    0.92    0.11
  -2   4  12    0.73    0.11
   1  -4 -12    7.47    0.42
   1  -4 -12    7.51    0.41
   1  -4 -12    7.58    0.43
   1  -4 -12    7.26    0.42
  -1   4  12    7.07    0.42
  -1   4  12    7.37    0.41
   0  -4 -12    0.22    0.13
   0  -4 -12    0.04    0.05
   0  -4 -12    0.12    0.12
   0   4  12    0.03    0.07
  -1  -4 -12   14.75    0.79
   1   4  12   15.17    0.80
  -2  -4 -12   21.48    1.12
   2   4  12   21.21    1.13
  -3  -4 -12    0.76    0.08
   3   4  12    0.79    0.15
   3   4  12    0.55    0.10
   4   4  12   15.26    0.81
   2  -5 -12    5.13    0.31
   2  -5 -12    5.43    0.30
   2  -5 -12    5.58    0.30
  -2   5  12    5.23    0.31
   1  -5 -12    0.33    0.13
   1  -5 -12    0.17    0.06
  -1   5  12    0.12    0.07
   0  -5 -12   12.27    0.65
   0  -5 -12   12.14    0.67
   0   5  12   12.11    0.66
  -1  -5 -12    5.57    0.32
  -1  -5 -12    5.81    0.31
   1   5  12    5.75    0.34
  -2  -5 -12    0.44    0.08
   2   5  12    0.39    0.09
  -3  -5 -12    3.77    0.22
   3   5  12    3.86    0.24
   2  -6 -12    1.87    0.13
   2  -6 -12    1.74    0.13
   1  -6 -12   13.35    0.69
   1  -6 -12   12.25    0.69
   0   6  12   16.87    0.90
  -1  -6 -12   10.97    0.61
  -1  -6 -12   11.12    0.60
   1   6  12   12.20    0.65
   1   6  12   11.79    0.66
  -2  -6 -12    2.58    0.17
  -2  -6 -12    2.54    0.15
  -2  -6 -12    2.56    0.15
   2   6  12    2.54    0.19
  -3  -6 -12    7.79    0.40
  -3  -6 -12    7.80    0.40
  -3  -6 -12    6.91    0.46
   3   6  12    7.49    0.41
   1  -7 -12    4.28    0.24
  -1   7  12    4.19    0.25
   0  -7 -12   25.09    1.31
   0   7  12   25.05    1.31
  -1  -7 -12    6.45    0.36
  -1  -7 -12    6.28    0.35
  -1  -7 -12    6.69    0.37
   1   7  12    7.01    0.38
   1   7  12    6.82    0.38
  -2  -7 -12    1.62    0.10
  -2  -7 -12    1.67    0.10
   2   7  12    1.63    0.14
   0  -8 -12    4.94    0.31
   0   8  12    5.37    0.29
  -1  -8 -12    5.28    0.30
  -1  -8 -12    5.18    0.30
   1   8  12    6.41    0.32
   1   4 -13    7.13    0.40
   1   4 -13    7.10    0.39
  -1  -4  13    7.15    0.39
   0   4 -13    5.37    0.32
   0   4 -13    6.06    0.35
   0  -4  13    5.39    0.31
  -1   4 -13   32.11    1.58
  -1   4 -13   30.03    1.56
   1  -4  13   28.19    1.56
  -2   4 -13    0.21    0.04
   2  -4  13    0.21    0.05
   2   3 -13    0.50    0.07
   2   3 -13    0.50    0.09
   2   3 -13    0.62    0.09
  -2  -3  13    0.63    0.11
   1   3 -13    6.07    0.34
   1   3 -13    6.20    0.34
   1   3 -13    5.31    0.34
  -1  -3  13    6.47    0.34
   0   3 -13    5.02    0.31
   0   3 -13    5.06    0.31
   0   3 -13    5.14    0.30
   0  -3  13    5.49    0.31
  -1   3 -13    6.10    0.33
  -1   3 -13    5.86    0.39
   1  -3  13    5.90    0.34
  -2   3 -13    6.51    0.35
   2  -3  13    6.48    0.36
  -3   3 -13    0.17    0.04
   3  -3  13    0.10    0.05
   2   2 -13    0.03    0.04
   2   2 -13   -0.03    0.05
   2   2 -13    0.04    0.05
   1   2 -13   20.13    1.16
   1   2 -13   22.42    1.15
   1   2 -13   22.66    1.17
   1   2 -13   22.75    1.16
  -1  -2  13   22.50    1.16
  -1  -2  13   21.74    1.15
   0   2 -13   11.43    0.63
   0   2 -13   10.95    0.64
   0   2 -13   11.81    0.62
   0  -2  13   11.95    0.63
  -1   2 -13    0.26    0.06
  -2   2 -13    3.71    0.22
   2  -2  13    3.64    0.23
  -3   2 -13    0.57    0.09
   3  -2  13    0.62    0.09
   2   1 -13   12.61    0.65
   2   1 -13   11.27    0.65
   2   1 -13   12.25    0.65
  -2  -1  13   12.32    0.64
   1   1 -13    6.59    0.36
   1   1 -13    6.38    0.36
   1   1 -13    5.82    0.37
   1   1 -13    6.60    0.38
  -1  -1  13    6.41    0.35
  -1  -1  13    6.43    0.42
   0   1 -13   86.22    4.44
   0   1 -13   88.58    4.44
   0   1 -13   86.70    4.45
   0   1 -13   82.10    4.44
   0  -1  13   86.86    4.44
  -1   1 -13    1.66    0.15
   1  -1  13    1.96    0.17
  -2   1 -13    4.34    0.27
   2  -1  13    4.56    0.28
   2  -1  13    4.73    0.36
  -3   1 -13   10.55    0.55
   3  -1  13   10.16    0.56
   3   0 -13    2.72    0.18
   3   0 -13    2.74    0.17
   3   0 -13    2.86    0.17
   2   0 -13   12.11    0.61
   2   0 -13   12.00    0.62
   2   0 -13   12.14    0.62
   2   0 -13   11.22    0.62
  -2   0  13    9.76    0.62
   1   0 -13    7.13    0.41
   1   0 -13    7.03    0.41
   1   0 -13    7.12    0.40
   1   0 -13    7.00    0.40
  -1   0  13    7.14    0.39
   0   0 -13    1.09    0.12
   0   0 -13    1.16    0.17
   0   0  13    1.08    0.12
  -1   0 -13   21.79    1.15
  -1   0 -13   22.84    1.15
   1   0  13   21.32    1.16
  -2   0 -13    9.21    0.52
  -2   0 -13   10.21    0.51
   2   0  13    9.64    0.53
   2   0  13    9.00    0.53
  -3   0 -13   19.11    0.98
   3   0  13   18.26    0.99
   3  -1 -13    2.63    0.17
   3  -1 -13    2.70    0.17
   3  -1 -13    2.73    0.17
   3  -1 -13    2.72    0.18
   2  -1 -13   27.74    1.42
   2  -1 -13   26.63    1.43
   2  -1 -13   28.34    1.42
   2  -1 -13   26.88    1.42
  -2   1  13   26.35    1.41
   1  -1 -13    8.58    0.46
   1  -1 -13    8.09    0.47
   1  -1 -13    8.03    0.46
   1  -1 -13    8.43    0.47
  -1   1  13    8.01    0.44
   0  -1 -13   29.36    1.52
   0  -1 -13   29.85    1.53
   0  -1 -13   29.22    1.52
   0  -1 -13   29.18    1.55
   0   1  13   28.34    1.52
  -1  -1 -13   26.11    1.30
  -1  -1 -13   25.06    1.31
   1   1  13   23.94    1.34
  -2  -1 -13    0.26    0.08
  -2  -1 -13    0.09    0.04
   2   1  13    0.04    0.09
   2   1  13    0.02    0.07
  -3  -1 -13    1.98    0.13
   3   1  13    1.76    0.16
  -4  -1 -13    8.70    0.43
   4   1  13    7.64    0.44
   3  -2 -13    1.40    0.10
   3  -2 -13    1.23    0.10
   3  -2 -13    1.13    0.12
   2  -2 -13   12.63    0.68
   2  -2 -13   12.86    0.69
   2  -2 -13   13.05    0.68
   2  -2 -13   12.84    0.69
  -2   2  13   12.09    0.67
   1  -2 -13    2.46    0.19
   1  -2 -13    2.37    0.17
   1  -2 -13    2.18    0.17
   1  -2 -13    2.22    0.19
   1  -2 -13    2.12    0.18
  -1   2  13    2.26    0.15
   0  -2 -13    1.56    0.14
   0  -2 -13    1.44    0.21
   0  -2 -13    1.19    0.12
   0   2  13    1.34    0.13
  -1  -2 -13   18.87    1.01
  -1  -2 -13   19.73    1.01
   1   2  13   18.97    1.01
  -2  -2 -13    4.04    0.28
  -2  -2 -13    3.65    0.21
   2   2  13    3.57    0.26
   2   2  13    3.51    0.24
  -3  -2 -13   12.10    0.60
   3   2  13   10.68    0.61
   3   2  13   10.88    0.61
  -4  -2 -13    9.56    0.49
   4   2  13    8.97    0.50
   2  -3 -13    1.00    0.12
   2  -3 -13    1.00    0.12
   2  -3 -13    1.15    0.11
   1  -3 -13   19.77    1.06
   1  -3 -13   19.23    1.05
   1  -3 -13   20.76    1.05
   1  -3 -13   20.26    1.05
  -1   3  13   19.33    1.04
   0  -3 -13    7.79    0.49
   0  -3 -13    8.41    0.46
   0  -3 -13    7.99    0.50
   0  -3 -13    8.47    0.45
  -1  -3 -13   14.47    0.74
   1   3  13   13.50    0.75
  -2  -3 -13    1.65    0.11
   2   3  13    1.27    0.19
   2   3  13    1.54    0.15
  -3  -3 -13    1.47    0.11
   3   3  13    1.45    0.14
   3   3  13    1.81    0.20
   2  -4 -13    2.66    0.18
   2  -4 -13    2.54    0.18
   2  -4 -13    2.70    0.17
   2  -4 -13    2.63    0.17
  -2   4  13    2.68    0.18
   1  -4 -13    3.33    0.23
   1  -4 -13    3.10    0.30
   1  -4 -13    3.78    0.22
  -1   4  13    3.62    0.22
  -1   4  13    3.48    0.24
   0  -4 -13   17.86    0.98
   0  -4 -13   19.04    0.98
   0   4  13   18.58    0.98
  -1  -4 -13    4.83    0.29
   1   4  13    5.20    0.30
  -2  -4 -13   13.60    0.73
   2   4  13   13.86    0.74
  -3  -4 -13   14.78    0.75
   3   4  13   13.87    0.76
   3   4  13   14.16    0.76
   2  -5 -13   10.92    0.57
   2  -5 -13   10.14    0.57
   2  -5 -13   10.93    0.57
   1  -5 -13    0.78    0.14
   1  -5 -13    1.30    0.11
   1  -5 -13    1.05    0.13
   0  -5 -13   19.99    1.12
   0  -5 -13   21.41    1.11
   0   5  13   22.12    1.13
  -1  -5 -13    7.76    0.44
   1   5  13    8.42    0.47
  -2  -5 -13    0.50    0.07
   2   5  13    0.55    0.08
  -3  -5 -13    5.67    0.31
   3   5  13    5.76    0.32
   1  -6 -13   44.78    2.25
   1  -6 -13   41.95    2.24
   0  -6 -13   58.45    2.97
   0   6  13   56.55    2.97
  -1  -6 -13   16.59    0.88
   1   6  13   16.52    0.89
   1   6  13   16.87    0.88
  -2  -6 -13    1.61    0.12
   2   6  13    1.51    0.13
   1  -7 -13    1.76    0.12
  -1   7  13    1.66    0.12
   0  -7 -13    2.36    0.16
   0   7  13    2.44    0.16
  -1  -7 -13    4.14    0.24
   1   7  13    4.01    0.32
   1   7  13    4.31    0.26
  -2  -7 -13   16.52    0.96
   2   7  13   19.98    0.96
   0   4 -14    4.46    0.28
   0  -4  14    5.10    0.27
  -1   4 -14    6.33    0.34
   1  -4  14    6.23    0.34
   1   3 -14    1.00    0.10
   1   3 -14    0.94    0.13
  -1  -3  14    0.99    0.12
   0   3 -14    7.82    0.45
   0   3 -14    8.27    0.43
   0  -3  14    8.07    0.44
  -1   3 -14    4.53    0.25
   1  -3  14    4.26    0.25
  -2   3 -14    1.92    0.13
   2  -3  14    1.90    0.13
   1   2 -14    0.61    0.09
   1   2 -14    0.73    0.10
   1   2 -14    0.68    0.09
   1   2 -14    0.57    0.08
  -1  -2  14    0.57    0.09
   0   2 -14   15.87    0.88
   0   2 -14   17.42    0.87
   0   2 -14   15.96    0.87
   0  -2  14   16.60    0.87
  -1   2 -14   14.58    0.75
   1  -2  14   14.00    0.76
   2  -2  14   -0.04    0.05
  -3   2 -14    3.61    0.22
   3  -2  14    3.43    0.21
   2   1 -14    1.13    0.11
   2   1 -14    1.04    0.12
   2   1 -14    1.07    0.10
   1   1 -14    4.31    0.27
   1   1 -14    4.11    0.27
   1   1 -14    4.37    0.26
   1   1 -14    4.27    0.27
  -1  -1  14    4.91    0.26
   0   1 -14   65.43    3.33
   0   1 -14   58.68    3.34
   0   1 -14   67.12    3.33
   0  -1  14   66.29    3.33
   1  -1  14    7.13    0.42
  -2   1 -14    1.18    0.11
   2  -1  14    0.91    0.12
  -3   1 -14   11.66    0.59
  -3   1 -14   10.94    0.60
   3  -1  14   10.98    0.60
   2   0 -14    3.03    0.18
   2   0 -14    2.74    0.18
   2   0 -14    2.83    0.17
   2   0 -14    2.61    0.17
  -2   0  14    2.31    0.19
   1   0 -14    6.97    0.40
   1   0 -14    7.38    0.39
   1   0 -14    6.66    0.39
   1   0 -14    6.81    0.39
  -1   0  14    6.78    0.38
   0   0 -14    0.50    0.07
   0   0 -14    0.33    0.11
  -1   0 -14    0.44    0.07
  -1   0 -14    0.47    0.08
   1   0  14    0.54    0.12
  -2   0 -14   13.39    0.71
  -2   0 -14   13.83    0.70
   2   0  14   13.57    0.72
   2   0  14   12.71    0.71
  -3   0 -14   10.53    0.55
  -3   0 -14   11.17    0.57
   3   0  14    9.89    0.56
   2  -1 -14    2.53    0.17
   2  -1 -14    2.36    0.17
   2  -1 -14    2.62    0.16
   2  -1 -14    2.75    0.17
  -2   1  14    2.31    0.17
   1  -1 -14    7.29    0.42
   1  -1 -14    7.12    0.40
   1  -1 -14    7.04    0.41
  -1   1  14    6.94    0.39
   0  -1 -14   31.98    1.67
   0  -1 -14   30.72    1.65
   0  -1 -14   31.76    1.64
   0  -1 -14   31.44    1.65
   0  -1 -14   31.92    1.64
  -1  -1 -14    1.70    0.13
  -1  -1 -14    1.75    0.15
   1   1  14    1.44    0.21
  -2  -1 -14    7.08    0.38
  -2  -1 -14    6.27    0.38
   2   1  14    6.83    0.41
   2   1  14    6.65    0.40
  -3  -1 -14    2.69    0.15
   3   1  14    2.50    0.18
   2  -2 -14   16.26    0.84
   2  -2 -14   15.96    0.84
   2  -2 -14   16.93    0.84
   2  -2 -14   15.81    0.84
  -2   2  14   14.50    0.83
   1  -2 -14   18.55    0.99
   1  -2 -14   18.34    1.02
   1  -2 -14   18.75    0.98
  -1   2  14   18.58    0.97
   0  -2 -14    5.58    0.48
   0  -2 -14    6.31    0.35
   0  -2 -14    5.65    0.39
   0  -2 -14    6.40    0.34
  -1  -2 -14    0.25    0.08
  -1  -2 -14    0.19    0.05
   1   2  14    0.21    0.07
  -2  -2 -14   10.47    0.57
   2   2  14    9.93    0.57
  -3  -2 -14    9.74    0.51
   3   2  14    9.40    0.52
   2  -3 -14   13.91    0.70
   2  -3 -14   13.24    0.70
   2  -3 -14   12.44    0.70
   1  -3 -14    0.64    0.10
   1  -3 -14    0.80    0.12
   1  -3 -14    0.93    0.14
   1  -3 -14    0.90    0.11
  -1   3  14    0.86    0.12
   0  -3 -14    3.50    0.23
   0  -3 -14    3.46    0.21
   0   3  14    3.49    0.23
  -1  -3 -14    1.77    0.13
   1   3  14    1.57    0.15
  -2  -3 -14    1.75    0.12
   2   3  14    1.77    0.15
  -3  -3 -14    1.27    0.09
   3   3  14    1.33    0.15
   3   3  14    1.20    0.12
   2  -4 -14    5.35    0.29
   2  -4 -14    5.52    0.29
   2  -4 -14    5.09    0.30
   1  -4 -14    6.38    0.34
   1  -4 -14    6.58    0.35
   1  -4 -14    5.83    0.35
   1  -4 -14    5.77    0.36
  -1   4  14    6.12    0.35
   0  -4 -14    3.69    0.24
   0   4  14    3.23    0.23
  -2  -4 -14    2.30    0.15
   2   4  14    2.29    0.17
  -3  -4 -14    6.47    0.34
   3   4  14    6.25    0.35
   1  -5 -14    0.89    0.14
   1  -5 -14    1.01    0.11
   1  -5 -14    0.86    0.09
   0  -5 -14    1.30    0.11
   0  -5 -14    1.30    0.17
   0   5  14    1.21    0.17
  -1  -5 -14    8.20    0.44
   1   5  14    8.10    0.45
  -2  -5 -14    6.49    0.36
   2   5  14    6.53    0.37
   1  -6 -14   23.14    1.20
   0  -6 -14    9.28    0.50
  -1  -6 -14    1.62    0.12
   1   6  14    1.72    0.14
  -2  -6 -14    4.75    0.27
   2   6  14    4.79    0.27
   0   3 -15    0.03    0.11
   0   3 -15    0.15    0.05
   0  -3  15    0.15    0.07
  -1   3 -15    1.17    0.09
   1  -3  15    1.25    0.11
   1   2 -15    8.02    0.45
   1   2 -15    8.67    0.45
   1   2 -15    8.23    0.46
   0   2 -15    5.45    0.29
   0   2 -15    5.03    0.32
   0  -2  15    5.28    0.31
  -1   2 -15    7.85    0.41
   1  -2  15    7.60    0.42
  -2   2 -15   22.61    1.16
   2  -2  15   21.95    1.16
   1   1 -15    3.02    0.17
   1   1 -15    3.10    0.19
   1   1 -15    2.49    0.20
   1   1 -15    2.67    0.19
   0   1 -15    2.35    0.27
   0   1 -15    2.81    0.22
   0   1 -15    3.14    0.18
   0  -1  15    2.95    0.22
  -1   1 -15    1.22    0.10
   1  -1  15    0.97    0.13
   1  -1  15    1.01    0.11
  -2   1 -15    2.15    0.14
   2  -1  15    2.04    0.15
   1   0 -15    0.25    0.08
   1   0 -15    0.24    0.05
   1   0 -15    0.39    0.07
   1   0 -15    0.26    0.07
   0   0 -15    3.26    0.19
   0   0 -15    2.46    0.26
  -1   0 -15   10.72    0.54
   1   0  15    9.38    0.55
   1   0  15    9.82    0.54
  -2   0 -15    1.79    0.13
   2   0  15    1.51    0.15
  -3   0 -15    1.99    0.12
   3   0  15    2.07    0.15
   2  -1 -15   12.17    0.64
   2  -1 -15   11.54    0.64
   2  -1 -15   12.63    0.64
   1  -1 -15    0.08    0.05
   1  -1 -15    0.01    0.06
   1  -1 -15    0.04    0.06
   1  -1 -15   -0.06    0.08
   0  -1 -15   22.40    1.30
   0  -1 -15   25.57    1.26
  -1  -1 -15    6.31    0.35
  -1  -1 -15    6.60    0.34
   1   1  15    6.27    0.35
   1   1  15    5.40    0.38
  -2  -1 -15    0.14    0.03
  -2  -1 -15    0.03    0.07
   2   1  15    0.13    0.09
   2   1  15    0.08    0.05
  -3  -1 -15    3.70    0.20
   3   1  15    3.54    0.22
   2  -2 -15    0.15    0.07
   2  -2 -15    0.34    0.05
   2  -2 -15    0.23    0.05
  -2   2  15    0.39    0.08
   1  -2 -15    1.38    0.12
   1  -2 -15    1.31    0.14
   1  -2 -15    1.48    0.15
   0  -2 -15    0.30    0.06
   0  -2 -15    0.33    0.07
  -1  -2 -15   21.26    1.07
  -1  -2 -15   20.41    1.07
   1   2  15   19.67    1.08
  -2  -2 -15    0.12    0.04
   2   2  15    0.19    0.12
   2   2  15    0.15    0.06
  -3  -2 -15    6.01    0.32
   3   2  15    5.82    0.35
   1  -3 -15    3.83    0.21
   1  -3 -15    3.20    0.23
  -1   3  15    3.51    0.22
   0  -3 -15    1.38    0.13
   0  -3 -15    1.45    0.11
   0   3  15    1.32    0.13
  -1  -3 -15    0.10    0.09
  -1  -3 -15    0.21    0.05
   1   3  15    0.19    0.07
  -2  -3 -15   38.39    1.95
   2   3  15   37.00    1.96
  -3  -3 -15    0.11    0.04
   3   3  15    0.13    0.05
   1  -4 -15   15.46    0.77
   1  -4 -15   13.01    0.77
   1  -4 -15   15.00    0.77
  -1   4  15   14.83    0.77
   0  -4 -15    5.45    0.31
   0  -4 -15    5.55    0.32
   0   4  15    5.52    0.31
  -1  -4 -15    6.80    0.36
   1   4  15    6.45    0.37
  -2  -4 -15    8.67    0.46
   2   4  15    8.55    0.47
   1  -5 -15    0.91    0.11
   1  -5 -15    1.20    0.09
   0  -5 -15    1.79    0.12
   0   5  15    1.63    0.15
  -1  -5 -15    0.40    0.06
   1   5  15    0.43    0.07
  -2  -5 -15    5.90    0.32
   2   5  15    5.63    0.32
   0  -6 -15    5.07    0.28
   0   6  15    5.08    0.29
  -1  -6 -15   15.73    0.84
   1   6  15   16.22    0.85
   0   1 -16    6.25    0.34
  -1   1 -16   33.03    1.66
   1  -1  16   30.97    1.66
   1  -1  16   32.31    1.68
   1   0 -16   15.75    0.73
   1   0 -16   11.99    0.75
   0   0 -16    7.23    0.39
  -1   0 -16   46.81    2.24
   1   0  16   45.40    2.24
   1   0  16   37.83    2.25
  -2   0 -16    1.28    0.11
   2   0  16    1.14    0.13
   1  -1 -16    7.81    0.49
   1  -1 -16    8.07    0.52
   1  -1 -16    9.15    0.45
   0  -1 -16    1.55    0.12
  -1  -1 -16    2.93    0.18
   1   1  16    2.90    0.18
  -2  -1 -16    5.97    0.31
  -2  -1 -16    5.88    0.39
   2   1  16    5.53    0.32
   2   1  16    5.72    0.37
   1  -2 -16    0.11    0.04
   1  -2 -16    0.08    0.11
  -1   2  16    0.14    0.05
   0  -2 -16    4.56    0.26
   0   2  16    4.38    0.26
  -1  -2 -16    4.83    0.28
  -1  -2 -16    4.90    0.27
   1   2  16    4.64    0.27
  -2  -2 -16   12.05    0.62
   2   2  16   11.66    0.63
   1  -3 -16    4.65    0.26
  -1   3  16    4.55    0.26
   0  -3 -16   12.85    0.68
   0  -3 -16   12.96    0.67
   0   3  16   12.49    0.68
  -1  -3 -16    1.78    0.13
  -1  -3 -16    1.51    0.17
   1   3  16    1.67    0.13
  -2  -3 -16    7.59    0.40
   2   3  16    7.57    0.41
   0  -4 -16   16.57    0.79
   0  -4 -16   12.76    0.79
   0   4  16   15.58    0.79
  -1  -4 -16   14.17    0.74
   1   4  16   14.05    0.75
  -2  -4 -16   11.29    0.58
   2   4  16   10.88    0.59
   0  -5 -16    3.49    0.20
   0   5  16    3.77    0.25
   0   5  16    2.94    0.23
  -1  -5 -16    1.82    0.12
   1   5  16    1.77    0.13
   0  -1 -17    4.51    0.25
   0   1  17    4.27    0.25
  -1  -1 -17    0.14    0.05
   1   1  17    0.09    0.04
   0  -2 -17    5.42    0.30
   0   2  17    5.45    0.30
  -1  -2 -17    2.09    0.17
   1   2  17    2.45    0.15
   0   0   0    0.00    0.00
;
_shelx_hkl_checksum              55247
loop_
_space_group_symop_operation_xyz
'x, y, z'
'-x, -y, -z'
loop_
_atom_site_label
_atom_site_type_symbol
_atom_site_fract_x
_atom_site_fract_y
_atom_site_fract_z
_atom_site_U_iso_or_equiv
_atom_site_adp_type
_atom_site_occupancy
_atom_site_site_symmetry_order
_atom_site_calc_flag
_atom_site_refinement_flags_posn
_atom_site_refinement_flags_adp
Cl1 Cl -0.19540(8) 0.09511(4) 0.69997(2) 0.01720(16) Uani 1 1 d . .
N1 N 0.6949(3) 0.37343(15) 0.34396(9) 0.0143(3) Uani 1 1 d . .
O1 O 0.3123(2) 0.50091(13) 0.41411(8) 0.0175(3) Uani 1 1 d . .
C1 C 0.2210(3) -0.07470(18) 0.60363(11) 0.0128(3) Uani 1 1 d . .
O2 O 1.0915(3) 0.25106(13) 0.28052(8) 0.0182(3) Uani 1 1 d . .
C2 C 0.0817(3) 0.07343(19) 0.61233(11) 0.0136(3) Uani 1 1 d . .
C3 C 0.1639(3) 0.22029(18) 0.54865(11) 0.0136(3) Uani 1 1 d . .
H3 H 0.0629 0.3202 0.5547 0.016 Uiso 1 1 calc R U
C4 C 0.5440(3) 0.07372(19) 0.46849(11) 0.0128(3) Uani 1 1 d . .
C5 C 0.3878(3) 0.21983(18) 0.47823(11) 0.0131(3) Uani 1 1 d . .
C6 C 0.4572(3) 0.37648(19) 0.41069(11) 0.0135(3) Uani 1 1 d . .
C7 C 0.8722(3) 0.23582(18) 0.33519(11) 0.0135(3) Uani 1 1 d . .
C8 C 0.7749(4) 0.52823(18) 0.27694(11) 0.0158(3) Uani 1 1 d . .
H8A H 0.9874 0.5436 0.2718 0.019 Uiso 1 1 calc R U
H8B H 0.6802 0.6225 0.3023 0.019 Uiso 1 1 calc R U
C9 C 0.6860(4) 0.52832(19) 0.17845(11) 0.0181(4) Uani 1 1 d . .
H9A H 0.7792 0.4339 0.1529 0.022 Uiso 1 1 calc R U
H9B H 0.4731 0.5150 0.1830 0.022 Uiso 1 1 calc R U
C10 C 0.7750(4) 0.6887(2) 0.11125(12) 0.0213(4) Uani 1 1 d . .
H10A H 0.9872 0.7029 0.1087 0.026 Uiso 1 1 calc R U
H10B H 0.6786 0.7823 0.1368 0.026 Uiso 1 1 calc R U
C11 C 0.6977(4) 0.6941(2) 0.01089(12) 0.0255(4) Uani 1 1 d . .
H11A H 0.7820 0.5957 -0.0127 0.031 Uiso 1 1 calc R U
H11B H 0.4843 0.6879 0.0131 0.031 Uiso 1 1 calc R U
C12 C 0.8039(5) 0.8475(2) -0.05865(13) 0.0362(5) Uani 1 1 d . .
H12A H 1.0161 0.8517 -0.0639 0.054 Uiso 1 1 calc R U
H12B H 0.7217 0.9457 -0.0360 0.054 Uiso 1 1 calc R U
H12C H 0.7425 0.8442 -0.1210 0.054 Uiso 1 1 calc R U
loop_
_atom_site_aniso_label
_atom_site_aniso_U_11
_atom_site_aniso_U_22
_atom_site_aniso_U_33
_atom_site_aniso_U_23
_atom_site_aniso_U_13
_atom_site_aniso_U_12
Cl1 0.0216(3) 0.0135(2) 0.0154(2) -0.00328(14) 0.00365(15) -0.00230(14)
N1 0.0198(7) 0.0100(6) 0.0131(6) -0.0015(5) -0.0014(5) -0.0046(5)
O1 0.0221(6) 0.0113(6) 0.0185(6) -0.0020(4) -0.0007(5) -0.0011(4)
C1 0.0150(8) 0.0125(8) 0.0120(7) -0.0031(6) -0.0038(6) -0.0054(6)
O2 0.0212(7) 0.0141(6) 0.0182(6) -0.0025(4) 0.0023(5) -0.0051(4)
C2 0.0152(8) 0.0152(8) 0.0115(7) -0.0044(6) -0.0018(6) -0.0047(6)
C3 0.0169(8) 0.0110(7) 0.0143(7) -0.0039(6) -0.0039(6) -0.0028(6)
C4 0.0149(8) 0.0131(8) 0.0122(7) -0.0043(6) -0.0051(6) -0.0051(6)
C5 0.0165(8) 0.0114(7) 0.0129(7) -0.0033(6) -0.0049(6) -0.0048(6)
C6 0.0164(8) 0.0127(8) 0.0127(7) -0.0033(6) -0.0039(6) -0.0047(6)
C7 0.0174(8) 0.0123(8) 0.0119(7) -0.0035(6) -0.0031(6) -0.0053(6)
C8 0.0212(9) 0.0097(7) 0.0155(8) 0.0001(6) 0.0001(6) -0.0060(6)
C9 0.0236(9) 0.0147(8) 0.0158(8) -0.0015(6) -0.0017(7) -0.0055(6)
C10 0.0308(10) 0.0159(8) 0.0157(8) 0.0006(6) -0.0014(7) -0.0053(7)
C11 0.0367(11) 0.0224(9) 0.0163(9) -0.0004(7) -0.0022(7) -0.0035(7)
C12 0.0618(14) 0.0269(10) 0.0161(9) 0.0037(7) -0.0003(9) -0.0021(9)
loop_
_atom_type_symbol
_atom_type_description
_atom_type_scat_dispersion_real
_atom_type_scat_dispersion_imag
_atom_type_scat_source
C C 0.0181 0.0091 'International Tables Vol C Tables 4.2.6.8 and 6.1.1.4'
H H 0.0000 0.0000 'International Tables Vol C Tables 4.2.6.8 and 6.1.1.4'
O O 0.0492 0.0322 'International Tables Vol C Tables 4.2.6.8 and 6.1.1.4'
Cl Cl 0.3639 0.7018 'International Tables Vol C Tables 4.2.6.8 and 6.1.1.4'
N N 0.0311 0.0180 'International Tables Vol C Tables 4.2.6.8 and 6.1.1.4'
loop_
_geom_angle_atom_site_label_1
_geom_angle_atom_site_label_2
_geom_angle_atom_site_label_3
_geom_angle
_geom_angle_site_symmetry_1
_geom_angle_site_symmetry_3
C6 N1 C7 125.38(13) . .
C6 N1 C8 117.97(13) . .
C7 N1 C8 116.64(13) . .
C2 C1 C4 118.31(14) . 2_656
C2 C1 C7 122.93(15) . 2_656
C4 C1 C7 118.73(14) 2_656 2_656
C1 C2 C3 120.91(15) . .
C1 C2 Cl1 124.04(12) . .
C3 C2 Cl1 115.04(12) . .
C5 C3 C2 120.43(15) . .
C5 C3 H3 119.8 . .
C2 C3 H3 119.8 . .
C5 C4 C4 118.19(19) . 2_656
C5 C4 C1 120.65(15) . 2_656
C4 C4 C1 121.15(18) 2_656 2_656
C3 C5 C4 120.94(15) . .
C3 C5 C6 118.16(14) . .
C4 C5 C6 120.88(15) . .
O1 C6 N1 121.82(14) . .
O1 C6 C5 121.76(15) . .
N1 C6 C5 116.43(14) . .
O2 C7 N1 119.77(14) . .
O2 C7 C1 122.95(14) . 2_656
N1 C7 C1 117.28(14) . 2_656
N1 C8 C9 112.38(12) . .
N1 C8 H8A 109.1 . .
C9 C8 H8A 109.1 . .
N1 C8 H8B 109.1 . .
C9 C8 H8B 109.1 . .
H8A C8 H8B 107.9 . .
C10 C9 C8 110.81(13) . .
C10 C9 H9A 109.5 . .
C8 C9 H9A 109.5 . .
C10 C9 H9B 109.5 . .
C8 C9 H9B 109.5 . .
H9A C9 H9B 108.1 . .
C9 C10 C11 113.12(14) . .
C9 C10 H10A 109.0 . .
C11 C10 H10A 109.0 . .
C9 C10 H10B 109.0 . .
C11 C10 H10B 109.0 . .
H10A C10 H10B 107.8 . .
C12 C11 C10 113.84(16) . .
C12 C11 H11A 108.8 . .
C10 C11 H11A 108.8 . .
C12 C11 H11B 108.8 . .
C10 C11 H11B 108.8 . .
H11A C11 H11B 107.7 . .
C11 C12 H12A 109.5 . .
C11 C12 H12B 109.5 . .
H12A C12 H12B 109.5 . .
C11 C12 H12C 109.5 . .
H12A C12 H12C 109.5 . .
H12B C12 H12C 109.5 . .
loop_
_geom_bond_atom_site_label_1
_geom_bond_atom_site_label_2
_geom_bond_distance
_geom_bond_site_symmetry_2
Cl1 C2 1.7256(17) .
N1 C6 1.380(2) .
N1 C7 1.400(2) .
N1 C8 1.4790(19) .
O1 C6 1.217(2) .
C1 C2 1.386(2) .
C1 C4 1.416(2) 2_656
C1 C7 1.496(2) 2_656
O2 C7 1.207(2) .
C2 C3 1.410(2) .
C3 C5 1.367(2) .
C3 H3 0.9500 .
C4 C5 1.410(2) .
C4 C4 1.415(3) 2_656
C5 C6 1.485(2) .
C8 C9 1.525(2) .
C8 H8A 0.9900 .
C8 H8B 0.9900 .
C9 C10 1.524(2) .
C9 H9A 0.9900 .
C9 H9B 0.9900 .
C10 C11 1.524(2) .
C10 H10A 0.9900 .
C10 H10B 0.9900 .
C11 C12 1.516(3) .
C11 H11A 0.9900 .
C11 H11B 0.9900 .
C12 H12A 0.9800 .
C12 H12B 0.9800 .
C12 H12C 0.9800 .
