#------------------------------------------------------------------------------
#$Date: 2019-11-26 04:09:45 +0200 (Tue, 26 Nov 2019) $
#$Revision: 242578 $
#$URL: file:///home/coder/svn-repositories/cod/cif/4/13/26/4132631.cif $
#------------------------------------------------------------------------------
#
# This file is available in the Crystallography Open Database (COD),
# http://www.crystallography.net/
#
# All data on this site have been placed in the public domain by the
# contributors.
#
data_4132631
loop_
_publ_author_name
'Doud, Evan A.'
'Inkpen, Michael S.'
'Lovat, Giacomo'
'Montes, Enrique'
'Paley, Daniel W.'
'Steigerwald, Michael L.'
'V\'azquez, H\'ector'
'Venkataraman, Latha'
'Roy, Xavier'
_publ_section_title
;
 In Situ Formation of N-Heterocyclic Carbene-Bound Single-Molecule
 Junctions.
;
_journal_issue                   28
_journal_name_full               'Journal of the American Chemical Society'
_journal_page_first              8944
_journal_page_last               8949
_journal_paper_doi               10.1021/jacs.8b05184
_journal_volume                  140
_journal_year                    2018
_chemical_formula_moiety         'C14 H20 Au Cl N2 S'
_chemical_formula_sum            'C14 H20 Au Cl N2 S'
_chemical_formula_weight         480.80
_space_group_crystal_system      triclinic
_space_group_IT_number           2
_space_group_name_Hall           '-P 1'
_space_group_name_H-M_alt        'P -1'
_atom_sites_solution_hydrogens   geom
_atom_sites_solution_primary     dual
_audit_creation_date             2018-03-15
_audit_creation_method
;
Olex2 1.2
(compiled 2017.08.10 svn.r3458 for OlexSys, GUI svn.r5381)
;
_cell_angle_alpha                80.472(4)
_cell_angle_beta                 72.891(5)
_cell_angle_gamma                73.520(4)
_cell_formula_units_Z            2
_cell_length_a                   9.3400(5)
_cell_length_b                   9.4284(5)
_cell_length_c                   9.9843(5)
_cell_measurement_reflns_used    4733
_cell_measurement_temperature    100
_cell_measurement_theta_max      72.6050
_cell_measurement_theta_min      4.9000
_cell_volume                     802.56(8)
_computing_cell_refinement       'CrysAlisPro 1.171.38.46 (Rigaku OD, 2015)'
_computing_data_collection       'CrysAlisPro 1.171.38.46 (Rigaku OD, 2015)'
_computing_data_reduction        'CrysAlisPro 1.171.38.46 (Rigaku OD, 2015)'
_computing_molecular_graphics    'Olex2 (Dolomanov et al., 2009)'
_computing_publication_material  'Olex2 (Dolomanov et al., 2009)'
_computing_structure_refinement  'XL (Sheldrick, 2008)'
_computing_structure_solution    'ShelXT (Sheldrick, 2015)'
_diffrn_ambient_environment      N~2~
_diffrn_ambient_temperature      100
_diffrn_detector                 'CCD plate'
_diffrn_detector_area_resol_mean 8.0549
_diffrn_detector_type            EosS2
_diffrn_measured_fraction_theta_full 0.998
_diffrn_measured_fraction_theta_max 0.987
_diffrn_measurement_details
;
List of Runs (angles in degrees, time in seconds):

  # Type    Start    End  Width  t~exp~   \w     \q     \k     \f   Frames
--------------------------------------------------------------------------
  1  \w      2.00  70.00   1.00    1.00    --   36.45 -99.00-120.00   68
  2  \w     51.00  97.00   1.00    1.00    --  111.00 -77.00  30.00   46
  3  \w     76.00 109.00   1.00    1.00    --  111.00 -94.00   0.00   33
  4  \w     91.00 116.00   1.00    1.00    --  111.00-111.00  30.00   25
  5  \w     84.00 113.00   1.00    1.00    --  111.00-111.00 -60.00   29
  6  \w     64.00  90.00   1.00    1.00    --  111.00 -94.00-120.00   26
  7  \w     58.00  84.00   1.00    1.00    --  111.00 -77.00 -60.00   26
  8  \w     55.00 109.00   1.00    1.00    --  111.00 -94.00 -60.00   54
  9  \w     85.00 115.00   1.00    1.00    --  111.00-111.00-180.00   30
 10  \w     59.00 108.00   1.00    1.00    --  111.00 -94.00-180.00   49
 11  \w     48.00  97.00   1.00    1.00    --  111.00 -45.00-150.00   49
 12  \w     95.00 121.00   1.00    1.00    --  111.00  30.00-150.00   26
 13  \w    100.00 126.00   1.00    1.00    --  111.00  61.00 -90.00   26
 14  \w     91.00 174.00   1.00    1.00    --  111.00  30.00 -90.00   83
 15  \w    149.00 178.00   1.00    1.00    --  111.00  45.00   0.00   29
 16  \w    107.00 157.00   1.00    1.00    --  111.00 111.00   0.00   50
 17  \w    124.00 150.00   1.00    1.00    --  111.00 178.00-120.00   26
 18  \w    110.00 135.00   1.00    1.00    --  111.00 111.00-150.00   25
 19  \w     61.00  96.00   1.00    1.00    --  111.00 178.00-120.00   35
 20  \w     93.00 130.00   1.00    1.00    --  111.00  30.00 150.00   37
 21  \w    146.00 172.00   1.00    1.00    --  111.00  30.00 150.00   26
 22  \w    111.00 137.00   1.00    1.00    --  111.00 -77.00 120.00   26
 23  \w     89.00 114.00   1.00    1.00    --  111.00 -30.00  90.00   25
 24  \w     55.00  81.00   1.00    1.00    --  111.00 -61.00  90.00   26
 25  \w     53.00  80.00   1.00    1.00    --  111.00 -30.00  90.00   27
 26  \w     51.00  77.00   1.00    1.00    --  111.00 -61.00 150.00   26
 27  \w     50.00  75.00   1.00    1.00    --  111.00 -94.00  90.00   25
 28  \w     42.00  73.00   1.00    1.00    --  111.00 -94.00 120.00   31
 29  \w     46.00  93.00   1.00    1.00    --  111.00 -77.00 120.00   47
 30  \w     42.00  75.00   1.00    1.00    --  111.00-111.00  30.00   33
 31  \w     43.00  68.00   1.00    1.00    --  111.00 -94.00   0.00   25
 32  \w     41.00 130.00   1.00    1.00    --  111.00 -30.00 -30.00   89
 33  \w     49.00  91.00   1.00    1.00    --  111.00 -30.00-120.00   42
 34  \w     43.00 149.00   1.00    1.00    --  111.00 -15.00-120.00  106
 35  \w     22.00  75.00   1.00    1.00    --   36.45 -99.00  60.00   53
 36  \w    -59.00  30.00   1.00    1.00    --  -36.45  19.00-180.00   89
 37  \w   -101.00 -15.00   1.00    1.00    --  -36.45 -19.00 -30.00   86
 38  \w   -104.00 -55.00   1.00    1.00    --  -36.45 -57.00-120.00   49
 39  \w   -108.00 -45.00   1.00    1.00    --  -36.45 178.00-150.00   63
 40  \w   -109.00 -78.00   1.00    1.00    --  -36.45 178.00  30.00   31
 41  \w     86.00 130.00   1.00    1.00    --  111.00 178.00 150.00   44
;
_diffrn_measurement_device       'four-circle diffractometer'
_diffrn_measurement_device_type  'SuperNova, Dual, Cu at zero, EosS2'
_diffrn_measurement_method       '\w scans'
_diffrn_orient_matrix_type
'CrysAlisPro convention (1999,Acta A55,543-557)'
_diffrn_orient_matrix_UB_11      0.1692258000
_diffrn_orient_matrix_UB_12      -0.0828637000
_diffrn_orient_matrix_UB_13      -0.0056441000
_diffrn_orient_matrix_UB_21      0.0071562000
_diffrn_orient_matrix_UB_22      -0.0803206000
_diffrn_orient_matrix_UB_23      -0.1250996000
_diffrn_orient_matrix_UB_31      0.0553975000
_diffrn_orient_matrix_UB_32      0.1262997000
_diffrn_orient_matrix_UB_33      -0.1029224000
_diffrn_radiation_monochromator  mirror
_diffrn_radiation_probe          x-ray
_diffrn_radiation_type           CuK\a
_diffrn_radiation_wavelength     1.54184
_diffrn_reflns_av_R_equivalents  0.0335
_diffrn_reflns_av_unetI/netI     0.0391
_diffrn_reflns_Laue_measured_fraction_full 0.998
_diffrn_reflns_Laue_measured_fraction_max 0.987
_diffrn_reflns_limit_h_max       11
_diffrn_reflns_limit_h_min       -11
_diffrn_reflns_limit_k_max       11
_diffrn_reflns_limit_k_min       -10
_diffrn_reflns_limit_l_max       12
_diffrn_reflns_limit_l_min       -12
_diffrn_reflns_number            6986
_diffrn_reflns_point_group_measured_fraction_full 0.998
_diffrn_reflns_point_group_measured_fraction_max 0.987
_diffrn_reflns_theta_full        67.684
_diffrn_reflns_theta_max         73.005
_diffrn_reflns_theta_min         4.653
_diffrn_source                   'micro-focus sealed X-ray tube'
_diffrn_source_type              'SuperNova (Cu) X-ray Source'
_exptl_absorpt_coefficient_mu    19.868
_exptl_absorpt_correction_T_max  0.758
_exptl_absorpt_correction_T_min  0.355
_exptl_absorpt_correction_type   gaussian
_exptl_absorpt_process_details
;
CrysAlisPro 1.171.38.46 (Rigaku Oxford Diffraction, 2015)
Numerical absorption correction based on gaussian integration over
			a multifaceted crystal model
Empirical absorption correction using spherical harmonics,
 implemented in SCALE3 ABSPACK scaling algorithm.
;
_exptl_crystal_colour            yellow
_exptl_crystal_colour_primary    yellow
_exptl_crystal_density_diffrn    1.990
_exptl_crystal_description       prism
_exptl_crystal_F_000             460
_exptl_crystal_size_max          0.16
_exptl_crystal_size_mid          0.128
_exptl_crystal_size_min          0.078
_refine_diff_density_max         1.953
_refine_diff_density_min         -3.577
_refine_diff_density_rms         0.199
_refine_ls_extinction_method     none
_refine_ls_goodness_of_fit_ref   1.064
_refine_ls_hydrogen_treatment    constr
_refine_ls_matrix_type           full
_refine_ls_number_parameters     177
_refine_ls_number_reflns         3175
_refine_ls_number_restraints     0
_refine_ls_restrained_S_all      1.064
_refine_ls_R_factor_all          0.0419
_refine_ls_R_factor_gt           0.0406
_refine_ls_shift/su_max          0.001
_refine_ls_shift/su_mean         0.000
_refine_ls_structure_factor_coef Fsqd
_refine_ls_weighting_details
'w=1/[\s^2^(Fo^2^)+(0.0573P)^2^+4.7526P] where P=(Fo^2^+2Fc^2^)/3'
_refine_ls_weighting_scheme      calc
_refine_ls_wR_factor_gt          0.1037
_refine_ls_wR_factor_ref         0.1055
_reflns_Friedel_coverage         0.000
_reflns_number_gt                3058
_reflns_number_total             3175
_reflns_threshold_expression     'I > 2\s(I)'
_cod_data_source_file            ja8b05184_si_002.cif
_cod_data_source_block           ed04091_2_corr
_cod_database_code               4132631
_shelx_shelxl_version_number     2014/7
_chemical_oxdiff_formula         'H19 C14 N2 S1 Cl1 Au1'
_shelx_space_group_comment
;
The symmetry employed for this shelxl refinement is uniquely defined
by the following loop, which should always be used as a source of
symmetry information in preference to the above space-group names.
They are only intended as comments.
;
_shelx_estimated_absorpt_t_max   0.306
_shelx_estimated_absorpt_t_min   0.143
_reflns_odcompleteness_completeness 97.54
_reflns_odcompleteness_iscentric 1
_reflns_odcompleteness_theta     73.59
_olex2_refinement_description
;
1. Fixed Uiso
 At 1.2 times of:
  All C(H) groups
 At 1.5 times of:
  All C(H,H,H) groups
2.a Ternary CH refined with riding coordinates:
 C8(H8), C11(H11)
2.b Aromatic/amide H refined with riding coordinates:
 C6(H6), C3(H3), C4(H4)
2.c Idealised Me refined as rotating group:
 C9(H9a,H9b,H9c), C10(H10a,H10b,H10c), C14(H14a,H14b,H14c), C12(H12a,H12b,
 H12c), C13(H13a,H13b,H13c)
;
_shelx_res_file
;
    ed04091_2_corr.res created by SHELXL-2014/7

TITL ed04091_2_corr_a.res in P-1
REM Old TITL ED04091_2_corr in P-1 #2
REM SHELXT solution in P-1
REM R1 0.136, Rweak 0.010, Alpha 0.030, Orientation as input
REM Formula found by SHELXT: C14 Au Cl N2 S
CELL 1.54184 9.34 9.4284 9.9843 80.472 72.891 73.52
ZERR 2 0.0005 0.0005 0.0005 0.004 0.005 0.004
LATT 1
SFAC C H Au Cl N S
UNIT 28 40 2 2 4 2

L.S. 50
PLAN  50
SIZE 0.078 0.128 0.16
TEMP -173.15
BOND $H
list 4
fmap 2
acta
REM <olex2.extras>
REM <HklSrc "%.\\ED04091_2_corr.hkl">
REM </olex2.extras>

WGHT    0.057300    4.752600
FVAR       0.39084
AU1   3    0.632249    0.379432    0.096257    11.00000    0.01949    0.04749 =
         0.01807    0.00186   -0.00446   -0.00457
CL1   4    0.745398    0.163098   -0.007248    11.00000    0.03151    0.04530 =
         0.02676   -0.00014   -0.00145   -0.00727
S1    6    0.154084    1.069747    0.588424    11.00000    0.03391    0.04102 =
         0.05293   -0.01232   -0.01364   -0.00790
N1    5    0.408534    0.597682    0.294205    11.00000    0.02117    0.03799 =
         0.01923    0.00723   -0.00780   -0.01051
N2    5    0.600501    0.686970    0.160497    11.00000    0.01931    0.05516 =
         0.01978    0.01197   -0.00696   -0.01424
C1    1    0.539463    0.567554    0.189447    11.00000    0.02120    0.04528 =
         0.01854    0.00236   -0.00941   -0.00653
C7    1    0.384354    0.738454    0.336410    11.00000    0.02256    0.03517 =
         0.02358    0.00879   -0.01219   -0.01061
C2    1    0.506924    0.796701    0.249462    11.00000    0.02465    0.04408 =
         0.02193    0.01357   -0.01316   -0.01446
C6    1    0.272123    0.816145    0.441768    11.00000    0.02101    0.03532 =
         0.02799    0.00632   -0.00803   -0.00841
AFIX  43
H6    2    0.189067    0.776758    0.499688    11.00000   -1.20000
AFIX   0
C5    1    0.286230    0.954851    0.459250    11.00000    0.02668    0.03874 =
         0.02967    0.00100   -0.01349   -0.00869
C9    1    0.306256    0.439551    0.503676    11.00000    0.03483    0.03830 =
         0.02783    0.01128   -0.01321   -0.01572
AFIX 137
H9A   2    0.411959    0.392993    0.511292    11.00000   -1.50000
H9B   2    0.243410    0.367058    0.537563    11.00000   -1.50000
H9C   2    0.261443    0.524404    0.560735    11.00000   -1.50000
AFIX   0
C8    1    0.309283    0.492428    0.351274    11.00000    0.02175    0.03504 =
         0.02530    0.00196   -0.00627   -0.00954
AFIX  13
H8    2    0.357224    0.403403    0.296388    11.00000   -1.20000
AFIX   0
C3    1    0.519979    0.934796    0.265532    11.00000    0.02911    0.04635 =
         0.03216    0.01897   -0.01382   -0.01889
AFIX  43
H3    2    0.602014    0.974708    0.206173    11.00000   -1.20000
AFIX   0
C4    1    0.409801    1.012155    0.370619    11.00000    0.03573    0.03659 =
         0.04465    0.01386   -0.02398   -0.01754
AFIX  43
H4    2    0.416734    1.107100    0.384258    11.00000   -1.20000
AFIX   0
C10   1    0.149881    0.559130    0.327561    11.00000    0.02105    0.05391 =
         0.03404    0.01026   -0.00777   -0.01456
AFIX 137
H10A  2    0.093976    0.638971    0.389289    11.00000   -1.50000
H10B  2    0.092645    0.482120    0.348863    11.00000   -1.50000
H10C  2    0.159906    0.599447    0.229189    11.00000   -1.50000
AFIX   0
C14   1    0.047093    0.947558    0.705025    11.00000    0.04142    0.05469 =
         0.02223   -0.01260   -0.00338   -0.00326
AFIX 137
H14A  2   -0.006740    0.909900    0.653297    11.00000   -1.50000
H14B  2   -0.028743    1.001775    0.782186    11.00000   -1.50000
H14C  2    0.118201    0.864120    0.743414    11.00000   -1.50000
AFIX   0
C11   1    0.742440    0.696562    0.047250    11.00000    0.02061    0.08506 =
         0.02956    0.01626   -0.00363   -0.01605
AFIX  13
H11   2    0.774056    0.595405    0.013310    11.00000   -1.20000
AFIX   0
C12   1    0.872270    0.692467    0.100867    11.00000    0.02736    0.12709 =
         0.02845   -0.00791   -0.00542   -0.02544
AFIX 137
H12A  2    0.852842    0.784789    0.143597    11.00000   -1.50000
H12B  2    0.966684    0.681941    0.023376    11.00000   -1.50000
H12C  2    0.884938    0.607906    0.171828    11.00000   -1.50000
AFIX   0
C13   1    0.709318    0.787200   -0.074574    11.00000    0.04814    0.10638 =
         0.02592    0.01234   -0.00986   -0.04192
AFIX 137
H13A  2    0.624875    0.761965   -0.097363    11.00000   -1.50000
H13B  2    0.801735    0.769965   -0.153976    11.00000   -1.50000
H13C  2    0.678577    0.891972   -0.056121    11.00000   -1.50000
AFIX   0
HKLF 4

REM  ed04091_2_corr_a.res in P-1
REM R1 =  0.0406 for    3058 Fo > 4sig(Fo)  and  0.0419 for all    3175 data
REM    177 parameters refined using      0 restraints

END

WGHT      0.0573      4.7526

REM Highest difference peak  1.953,  deepest hole -3.577,  1-sigma level  0.199
Q1    1   0.5670  0.4582  0.1356  11.00000  0.05    1.95
Q2    1   0.5733  0.4333  0.0264  11.00000  0.05    1.78
Q3    1   0.6560  0.4402  0.0602  11.00000  0.05    1.73
Q4    1   0.7091  0.2936  0.0505  11.00000  0.05    1.54
Q5    1   0.6870  0.3250  0.1633  11.00000  0.05    1.38
Q6    1   0.6455  0.2371  0.1559  11.00000  0.05    1.07
Q7    1   0.7542  0.6842 -0.0884  11.00000  0.05    0.93
Q8    1   0.1199  0.7653  0.6833  11.00000  0.05    0.91
Q9    1   0.7355  0.7831  0.0636  11.00000  0.05    0.89
Q10   1   0.5687  0.5442  0.0399  11.00000  0.05    0.87
Q11   1   0.6466  0.5375 -0.0164  11.00000  0.05    0.80
Q12   1   0.5954  0.3636  0.1331  11.00000  0.05    0.73
Q13   1   0.8815  0.5827  0.1014  11.00000  0.05    0.68
Q14   1   0.4964  0.2718  0.2403  11.00000  0.05    0.67
Q15   1   0.7440  0.3571 -0.0233  11.00000  0.05    0.65
Q16   1   0.6661  0.4221 -0.0576  11.00000  0.05    0.63
Q17   1   0.7693  0.4820 -0.0423  11.00000  0.05    0.62
Q18   1   0.2774  0.7064  0.7357  11.00000  0.05    0.62
Q19   1   1.1149  0.7303 -0.0244  11.00000  0.05    0.62
Q20   1   0.7175  0.6200 -0.1059  11.00000  0.05    0.62
Q21   1   0.4027  0.5452  0.1282  11.00000  0.05    0.58
Q22   1   0.5023  0.7225 -0.0179  11.00000  0.05    0.57
Q23   1   0.5217  0.7336 -0.0822  11.00000  0.05    0.55
Q24   1   0.7388  0.2846 -0.0816  11.00000  0.05    0.55
Q25   1   0.4288  0.5653  0.1002  11.00000  0.05    0.55
Q26   1   0.5722  0.1974  0.0224  11.00000  0.05    0.55
Q27   1   0.3103  0.8325  0.7943  11.00000  0.05    0.54
Q28   1   0.5685  0.2768  0.0619  11.00000  0.05    0.54
Q29   1   0.2797  0.6813  0.1145  11.00000  0.05    0.53
Q30   1   0.6063  0.2650  0.0483  11.00000  0.05    0.53
Q31   1   0.7558  0.2482 -0.0579  11.00000  0.05    0.53
Q32   1   0.8083  0.3669  0.1446  11.00000  0.05    0.50
Q33   1   0.1514  0.4568  0.3240  11.00000  0.05    0.50
Q34   1   0.8155  0.1657  0.1195  11.00000  0.05    0.49
Q35   1   0.5385  0.6135 -0.0307  11.00000  0.05    0.45
Q36   1   0.2947  0.5535  0.1206  11.00000  0.05    0.45
Q37   1   0.5756  0.3043  0.3343  11.00000  0.05    0.45
Q38   1   0.2353  0.9955  0.5260  11.00000  0.05    0.45
Q39   1   1.0915  0.7066 -0.1383  11.00000  0.05    0.45
Q40   1   0.3100  0.6343  0.1378  11.00000  0.05    0.45
Q41   1   0.5329  0.4581  0.2982  11.00000  0.05    0.44
Q42   1   0.8333  0.4242  0.0593  11.00000  0.05    0.44
Q43   1   0.5122  0.4637  0.2682  11.00000  0.05    0.44
Q44   1   0.6453  0.2033 -0.0661  11.00000  0.05    0.43
Q45   1   0.2559  0.9191  0.7696  11.00000  0.05    0.41
Q46   1   0.5297  1.1594  0.3161  11.00000  0.05    0.40
Q47   1   0.9270  0.6726 -0.1720  11.00000  0.05    0.40
Q48   1   0.7213  0.5805  0.1524  11.00000  0.05    0.40
Q49   1   0.2340  0.5229  0.3554  11.00000  0.05    0.39
Q50   1   0.5291  0.4039  0.2265  11.00000  0.05    0.39
;
_shelx_res_checksum              93662
_shelx_hkl_file
;
   0   0  -1 1514.53   40.61
   0   0  -1 1615.96   40.34
   0   0  -2  745.49   21.60
   0   0  -2  805.81   21.13
   0   0  -2  757.95   22.36
   0   0  -3   11.17    1.66
   0   0  -3   14.22    1.69
   0   0  -4  820.41   25.96
   0   0  -4  835.85   25.71
   0   0  -5 1414.31   42.90
   0   0  -5 1459.38   42.95
   0   0  -6  789.50   27.27
   0   0  -6  740.37   26.55
   0   0  -7   83.83    7.25
   0   0  -7   83.72    7.06
   0   0  -8   13.27    3.01
   0   0  -8   24.54    4.02
   0   0  -8   20.37    3.58
   0   0  -8   19.28    4.66
   0   0  -9  301.62   16.14
   0   0  -9  317.50   16.23
   0   0 -10  487.02   20.89
   0   0 -10  543.02   21.10
   0   0 -11  360.93   14.75
   0   0 -11  361.43   15.65
   0   0 -11  402.49   16.98
   0   1 -11   42.57    4.53
   0   1 -11   37.07    4.03
   0   1 -11   37.80    3.89
   0   1 -10  400.32   19.13
   0   1 -10  421.62   20.77
   0   1 -10  406.42   18.65
   0   1  -9  614.86   26.08
   0   1  -8  466.00   21.67
   0   1  -8  430.48   20.25
   0   1  -7   14.56    2.94
   0   1  -7   20.60    3.40
   0   1  -6   16.42    2.90
   0   1  -6   23.33    3.25
   0   1  -6   15.93    2.81
   0   1  -5 1531.32   47.21
   0   1  -5 1641.98   46.52
   0   1  -4 2724.75   72.58
   0   1  -4 2639.44   74.02
   0   1  -3 1970.61   53.27
   0   1  -3 2007.79   55.36
   0   1  -2 1113.16   32.25
   0   1  -2 1132.72   30.47
   0   1  -1 1457.41   37.57
   0   1  -1 1426.29   38.47
   0   1   0  977.07   24.92
   0   1   0 1030.08   25.22
   0  -1  -1 1844.18   48.02
   0  -1  -2 1737.05   46.34
   0  -1  -2 1736.44   46.49
   0  -1  -3  140.22    6.12
   0  -1  -3  130.12    6.21
   0  -1  -4   21.64    2.54
   0  -1  -4   27.53    2.61
   0  -1  -4   22.01    2.59
   0  -1  -5 1548.47   45.33
   0  -1  -5 1510.88   44.44
   0  -1  -5 1486.35   43.38
   0  -1  -6  645.31   23.62
   0  -1  -6  662.88   24.64
   0  -1  -7 1581.46   50.57
   0  -1  -8  455.49   21.01
   0  -1  -8  438.82   20.13
   0  -1  -9   13.95    3.62
   0  -1  -9   14.10    3.21
   0  -1  -9   12.34    2.82
   0  -1 -10   64.60    6.18
   0  -1 -11  224.87   11.40
   0  -1 -11  230.24   10.66
   0   2 -11   30.14    3.48
   0   2 -11   31.05    3.46
   0   2 -10   25.70    4.31
   0   2 -10   23.05    3.82
   0   2 -10   26.06    4.06
   0   2  -9  189.52   13.14
   0   2  -9  185.87   14.10
   0   2  -9  190.34   12.90
   0   2  -8  524.39   22.63
   0   2  -8  591.74   27.05
   0   2  -8  591.59   24.97
   0   2  -8  616.57   26.39
   0   2  -7  850.13   31.26
   0   2  -7  778.82   29.62
   0   2  -7  843.18   32.45
   0   2  -7  866.78   30.98
   0   2  -6  146.63    9.79
   0   2  -6  143.67    9.44
   0   2  -5  219.70   11.25
   0   2  -5  210.93   11.46
   0   2  -4  642.52   23.20
   0   2  -4  631.33   22.15
   0   2  -4  660.93   20.58
   0   2  -3 2360.06   64.97
   0   2  -3 2539.63   63.58
   0   2  -3 2363.86   66.86
   0   2  -2 1720.15   46.31
   0   2  -2 1759.41   45.29
   0   2  -1 2181.31   57.64
   0   2  -1 2227.69   59.34
   0   2   0   98.13    3.56
   0   2   0   94.29    3.44
   0   2   1   35.92    1.86
   0  -2  -2  884.29   25.25
   0  -2  -2  857.39   26.10
   0  -2  -3 2702.81   72.94
   0  -2  -3 2685.36   72.30
   0  -2  -4  168.77    8.42
   0  -2  -4  159.17    8.17
   0  -2  -5   96.58    6.53
   0  -2  -5  100.95    6.51
   0  -2  -5  109.84    7.24
   0  -2  -6  304.30   15.00
   0  -2  -7  999.65   36.05
   0  -2  -8  684.06   31.53
   0  -2  -8  606.59   25.77
   0  -2  -9  309.10   19.00
   0  -2  -9  251.79   14.64
   0  -2 -10   -0.14    1.08
   0  -2 -10    1.04    0.52
   0  -2 -11   26.32    3.23
   0   3 -10   63.39    6.12
   0   3 -10   68.91    6.50
   0   3 -10   55.00    5.72
   0   3 -10   68.22    6.58
   0   3  -9   23.51    4.26
   0   3  -9   33.97    5.42
   0   3  -9   29.17    4.81
   0   3  -9   19.85    3.82
   0   3  -8  562.31   26.34
   0   3  -8  550.36   27.77
   0   3  -8  519.84   22.78
   0   3  -8  548.27   25.17
   0   3  -8  537.60   24.10
   0   3  -7  810.87   31.82
   0   3  -7  850.26   31.51
   0   3  -7  839.87   33.33
   0   3  -7  841.30   35.56
   0   3  -7  843.85   37.20
   0   3  -6 1075.57   38.52
   0   3  -6 1117.86   38.11
   0   3  -5  765.87   28.71
   0   3  -5  725.40   27.11
   0   3  -4    6.81    1.98
   0   3  -4    6.75    1.70
   0   3  -4    5.54    1.70
   0   3  -3  167.01    8.37
   0   3  -3  161.82    9.78
   0   3  -3  168.81   10.15
   0   3  -2 1322.84   41.09
   0   3  -2 1355.18   38.49
   0   3  -2 1374.94   36.72
   0   3  -1  942.74   30.18
   0   3  -1  992.37   27.98
   0   3   0  658.72   18.36
   0   3   0  641.38   18.33
   0   3   0  652.42   21.53
   0   3   1   24.89    2.81
   0   3   1   27.96    1.83
   0  -3  -2 1473.90   40.69
   0   3   2 1328.33   36.61
   0  -3  -3 1836.14   52.06
   0  -3  -3 1763.39   50.37
   0  -3  -4 2904.97   80.09
   0  -3  -4 2920.79   81.13
   0  -3  -5  663.71   24.38
   0  -3  -5  648.73   23.96
   0  -3  -6  140.05    9.61
   0  -3  -7   70.65    6.94
   0  -3  -8  368.04   18.32
   0  -3  -9  190.08   14.50
   0  -3  -9  159.99   11.07
   0  -3 -10  188.17   12.95
   0  -3 -10  184.29   11.18
   0  -3 -11   12.56    2.20
   0   4 -10  374.45   16.50
   0   4 -10  381.03   16.37
   0   4  -9  147.22   11.17
   0   4  -9  134.53   10.38
   0   4  -9  118.23    9.10
   0   4  -9  137.80   10.83
   0   4  -9  133.59   10.31
   0   4  -8    7.89    2.85
   0   4  -8    6.54    2.17
   0   4  -8    5.81    2.43
   0   4  -8    6.46    2.00
   0   4  -8    7.18    2.77
   0   4  -7  126.44   10.36
   0   4  -7  127.98   10.19
   0   4  -7  133.35   12.00
   0   4  -7  127.84   12.54
   0   4  -7  126.03   12.02
   0   4  -7  134.64   11.39
   0   4  -6  671.61   29.02
   0   4  -6  591.41   29.87
   0   4  -6  672.32   31.95
   0   4  -6  641.59   26.41
   0   4  -6  633.72   26.29
   0   4  -5  703.31   27.44
   0   4  -4  384.16   19.99
   0   4  -4  357.72   16.42
   0   4  -3   31.20    3.54
   0   4  -3   37.90    5.31
   0   4  -2  509.61   21.23
   0   4  -2  487.87   17.36
   0   4  -1 1615.55   49.14
   0  -4   0 1405.32   40.25
   0   4   0 1363.69   37.47
   0   4   0 1362.60   42.06
   0   4   1 1115.63   30.76
   0   4   1 1156.65   35.80
   0  -4  -1 1169.68   34.98
   0   4   1 1115.83   32.05
   0  -4  -2  161.78    9.14
   0   4   2  163.98    9.32
   0  -4  -3  615.35   23.38
   0   4   3  674.52   23.71
   0   4   4  280.65   12.79
   0  -4  -4  263.26   13.85
   0  -4  -5  722.99   27.42
   0  -4  -6  507.98   22.63
   0  -4  -7    3.17    1.20
   0  -4  -7    2.91    1.39
   0  -4  -8   25.57    4.22
   0  -4  -8   29.97    5.59
   0  -4  -9  276.95   17.63
   0  -4  -9  272.28   14.96
   0  -4 -10  430.72   18.42
   0  -4 -10  419.33   20.04
   0  -4 -11  250.17   11.16
   0   5  -9  428.23   19.60
   0   5  -9  408.03   17.36
   0   5  -8  299.17   17.84
   0   5  -8  306.69   17.17
   0   5  -8  273.98   16.09
   0   5  -7   23.93    4.86
   0   5  -7   25.97    4.46
   0   5  -7   30.53    5.30
   0   5  -7   29.96    4.81
   0   5  -7   23.54    5.15
   0   5  -7   23.97    4.89
   0   5  -6   76.21    8.83
   0   5  -6   70.13    9.25
   0   5  -6   72.03    7.66
   0   5  -6   86.74   10.68
   0   5  -6   83.14    8.06
   0   5  -6   97.67   10.29
   0   5  -6   68.52    8.61
   0   5  -5  478.51   25.42
   0   5  -5  608.25   31.77
   0   5  -5  476.64   25.14
   0   5  -5  584.08   23.83
   0   5  -5  579.48   24.48
   0   5  -5  480.24   26.23
   0   5  -4  328.26   16.47
   0   5  -3  523.73   26.68
   0   5  -2   11.53    3.00
   0  -5   1   72.05    5.32
   0   5  -1   52.43    6.11
   0  -5   0  902.77   29.08
   0   5   0  831.04   30.95
   0   5   1 1478.65   47.03
   0  -5  -1 1486.43   45.27
   0   5   2  427.36   18.92
   0  -5  -2  415.60   18.00
   0   5   3  178.73   10.00
   0  -5  -3  212.33   12.19
   0   5   3  209.58   11.88
   0   5   4   14.42    2.99
   0  -5  -4   10.41    2.63
   0   5   4   13.93    2.88
   0   5   5  450.67   21.14
   0  -5  -5  381.52   19.23
   0  -5  -6  461.04   21.57
   0  -5  -6  478.43   21.21
   0  -5  -7  439.01   20.28
   0  -5  -7  402.15   22.64
   0  -5  -8  103.66   10.55
   0  -5  -8  100.89    8.64
   0  -5  -9    2.56    1.79
   0  -5  -9    2.94    2.06
   0  -5  -9    1.09    0.82
   0  -5 -10  124.78    8.93
   0  -5 -10  131.37    8.42
   0   6  -9  125.63    8.23
   0   6  -8  193.90   12.53
   0   6  -8  187.24   11.63
   0   6  -7  130.94   11.06
   0   6  -6    1.28    0.82
   0   6  -6    2.05    0.84
   0   6  -6    1.62    1.57
   0   6  -5   41.84    6.73
   0   6  -5   35.60    5.50
   0   6  -5   34.57    5.76
   0   6  -4  523.68   25.01
   0   6  -4  500.58   25.49
   0   6  -3  881.71   41.49
   0   6  -2 1038.76   42.56
   0   6  -1  330.92   19.01
   0  -6   0   33.41    4.23
   0   6   0   32.78    5.30
   0   6   1   95.26    8.86
   0  -6  -1   91.00    7.60
   0  -6  -2  606.29   24.75
   0   6   2  598.48   26.45
   0   6   3  359.46   19.03
   0  -6  -3  395.80   19.21
   0  -6  -4  168.34   11.98
   0  -6  -5   75.11    7.93
   0   6   5   78.67    8.49
   0   6   5   83.42   10.20
   0   6   6  289.27   18.35
   0  -6  -7  264.85   14.65
   0  -6  -7  247.70   17.47
   0  -6  -8  449.19   23.86
   0  -6  -8  475.51   20.55
   0  -6  -9  161.79   11.37
   0  -6  -9  179.84   12.28
   0  -6  -9  167.90   10.01
   0  -6 -10    1.19    0.87
   0  -6 -10    0.30    0.50
   0   7  -8   96.11    6.53
   0   7  -8  103.24    7.57
   0   7  -8   99.07    7.27
   0   7  -7  170.84   11.35
   0   7  -7  170.79   11.62
   0   7  -7  174.54   11.80
   0   7  -6  479.96   23.32
   0   7  -6  441.70   22.97
   0   7  -6  518.63   24.59
   0   7  -5   34.46    6.17
   0   7  -5   31.15    5.58
   0   7  -4    9.27    2.96
   0   7  -4   15.66    4.28
   0   7  -4   15.54    4.15
   0   7  -4   15.19    4.35
   0   7  -3  170.30   13.57
   0   7  -3  190.12   14.22
   0   7  -3  203.05   15.94
   0   7  -2  418.98   27.31
   0   7  -2  431.24   23.11
   0   7  -2  381.42   21.00
   0   7  -2  408.55   21.48
   0   7  -1  187.92   16.77
   0   7  -1  220.29   14.84
   0   7  -1  191.98   13.81
   0   7  -1  194.93   13.34
   0   7   0  144.42   13.74
   0   7   0  138.85   10.81
   0   7   1   42.81    6.91
   0   7   1   41.59    5.78
   0  -7  -1   38.73    5.21
   0   7   2  243.69   15.33
   0   7   2  266.95   17.84
   0   7   2  205.08   12.75
   0   7   2  242.62   17.49
   0  -7  -2  226.51   14.13
   0   7   3  488.25   23.31
   0   7   3  602.83   30.21
   0   7   3  515.96   26.78
   0   7   3  656.08   31.13
   0   7   4  430.40   25.76
   0   7   4  425.62   25.00
   0   7   5  206.54   16.32
   0   7   5  160.79   13.65
   0   7   5  196.05   17.77
   0   7   6   68.14    9.08
   0  -7  -6   84.37    9.62
   0   7   6   77.21    8.97
   0  -7  -7   66.10    8.39
   0   7   7   57.65    6.78
   0  -7  -8  123.73   10.93
   0  -7  -9   94.32    7.79
   0  -7  -9   81.90    6.84
   0   8  -7  179.78   10.39
   0   8  -7  167.08    9.34
   0   8  -7  149.29    8.80
   0   8  -7  165.52    9.34
   0   8  -6  114.19    9.48
   0   8  -6  129.68   10.27
   0   8  -6  119.26    8.97
   0   8  -6  127.42    9.90
   0   8  -5  246.09   16.03
   0   8  -5  239.94   16.12
   0   8  -4  199.32   15.48
   0   8  -4  169.51   13.75
   0   8  -4  178.72   12.76
   0   8  -3    3.43    1.91
   0   8  -3   -0.04    1.42
   0   8  -3    2.29    1.50
   0   8  -2   26.59    5.10
   0   8  -2   32.26    5.98
   0   8  -2   22.24    4.73
   0   8  -2   23.91    6.69
   0   8  -1  225.53   15.75
   0   8  -1  235.35   16.33
   0   8  -1  227.54   15.55
   0   8  -1  235.83   20.32
   0   8   0   67.13    7.85
   0   8   0   62.06    7.50
   0   8   0   62.28    9.53
   0   8   1  153.00   14.88
   0   8   1  148.97   12.10
   0   8   2    2.97    1.59
   0   8   2    3.04    2.55
   0   8   2    1.57    2.50
   0   8   3   39.31    7.29
   0   8   3   32.20    6.88
   0   8   3   39.90    7.41
   0   8   4  192.12   16.31
   0   8   4  228.99   18.73
   0   8   4  191.40   16.02
   0   8   5  266.07   18.86
   0   8   5  275.68   18.89
   0   8   6   57.20    7.12
   0  -8  -6   69.76    8.78
   0   8   7   16.65    3.30
   0  -8  -7   24.15    4.94
   0  -8  -8   20.51    4.07
   0   9  -6   25.10    3.46
   0   9  -5   70.95    7.32
   0   9  -5   78.56    7.44
   0   9  -4   79.22    8.81
   0   9  -4   73.36    7.73
   0   9  -3   30.45    5.61
   0   9  -3   32.48    5.15
   0   9  -3   33.95    5.38
   0   9  -2    0.16    1.86
   0   9  -2    0.90    0.91
   0   9  -1    1.58    2.53
   0   9  -1    2.84    1.80
   0   9  -1    5.05    2.34
   0   9   0  218.50   14.67
   0   9   0  214.59   15.07
   0   9   0  222.30   19.55
   0   9   1  243.43   20.13
   0   9   2  114.93   11.67
   0   9   2  115.67   13.19
   0   9   2  122.36   14.07
   0   9   3   80.54   10.49
   0   9   3   87.19   10.47
   0   9   3   79.14   10.84
   0   9   4   10.66    3.83
   0   9   4   15.29    4.23
   0  -9  -5   38.57    6.07
   0   9   5   33.40    5.64
   0   9   6  109.61    9.09
   0  -9  -6  139.85   11.42
   0   9   7   25.89    3.46
   0  -9  -7   43.68    5.67
   0  10  -4   97.88    7.80
   0  10  -3   56.31    5.69
   0  10  -3   63.56    6.87
   0  10  -2  151.58   13.36
   0  10  -2  146.52   11.17
   0  10  -1   11.16    2.96
   0  10   0   -0.48    2.10
   0  10   0    1.86    1.18
   0  10   0   -0.10    1.20
   0  10   1   27.32    4.91
   0  10   1   39.80    7.57
   0  10   2   99.44   11.82
   0  10   2   95.36    9.56
   0  10   3   24.04    5.58
   0 -10  -3   28.22    4.51
   0  10   3   27.37    5.06
   0 -10  -4   18.02    3.64
   0  10   4   18.89    4.35
   0 -10  -5    6.30    2.16
   0  10   5   10.00    2.68
   0 -10  -6   52.24    5.38
   0  11  -1   55.40    5.56
   0  11   0   14.20    3.79
   0  11   0   15.60    3.09
   0  11   1    1.78    1.33
   0  11   2    2.32    1.41
   0  11   3   80.38    8.30
   1 -10  -5   38.97    4.54
  -1  10   5   29.77    4.56
   1 -10  -4   25.69    4.02
  -1  10   4   19.56    4.33
  -1  10   3   84.64    9.94
  -1  10   3   78.51    8.23
  -1  10   2   13.25    4.02
  -1  10   2   17.33    4.11
  -1  10   1   14.26    3.67
  -1  10   1   10.17    3.81
  -1  10   0   28.79    5.24
  -1  10   0   24.47    5.47
  -1  10  -1  124.42    9.57
  -1  10  -2  120.88    9.49
  -1  10  -3   28.38    4.31
   1  -9  -7  173.35   10.05
  -1   9   6   24.23    3.98
   1  -9  -6   27.11    4.54
  -1   9   5   12.54    3.42
   1  -9  -5   16.53    3.78
  -1   9   4   43.46    6.77
  -1   9   4   33.09    6.19
  -1   9   4   39.82    6.74
  -1   9   3  104.69   12.01
  -1   9   3  101.57   10.66
  -1   9   3  101.41   11.88
  -1   9   2  102.72   11.91
  -1   9   2   76.99    9.26
  -1   9   2   93.33   11.68
  -1   9   1   86.38   11.41
  -1   9   1   76.34   10.77
  -1   9   1   93.27   10.18
  -1   9   0   -0.70    1.67
  -1   9   0    0.22    1.33
  -1   9  -1   26.43    6.33
  -1   9  -1   36.88    5.74
  -1   9  -1   38.43    5.86
  -1   9  -2  171.52   13.38
  -1   9  -2  157.84   12.75
  -1   9  -3   80.80    8.03
  -1   9  -3   89.92    8.97
  -1   9  -3   82.05    9.32
  -1   9  -4   60.96    7.49
  -1   9  -4   61.55    6.88
  -1   9  -4   55.05    6.31
  -1   9  -5   23.50    4.21
  -1   9  -5   22.38    3.78
   1  -8  -8   29.93    3.26
   1  -8  -8   38.09    4.32
  -1   8   7   26.39    4.01
   1  -8  -7   36.59    5.35
   1  -8  -6  214.55   15.27
  -1   8   6  191.49   13.70
  -1   8   5   32.80    6.06
  -1   8   5   43.09    7.05
  -1   8   4   11.35    4.39
  -1   8   4    9.31    3.23
  -1   8   4    5.92    3.52
  -1   8   3   87.34   10.41
  -1   8   3   98.93   11.93
  -1   8   3  104.98   11.68
  -1   8   3   94.79    9.43
  -1   8   2  270.03   16.46
  -1   8   2  306.63   21.23
  -1   8   2  340.79   20.14
  -1   8   2  303.85   21.98
  -1   8   2  344.06   21.45
  -1   8   1  193.99   16.35
  -1   8   1  180.11   16.42
  -1   8   1  157.74   12.82
  -1   8   1  156.41   11.39
  -1   8   0  366.20   22.93
  -1   8   0  328.18   19.33
  -1   8   0  332.60   23.24
  -1   8  -1   30.55    5.31
  -1   8  -1   29.39    6.50
  -1   8  -1   31.38    5.60
  -1   8  -2   -0.60    1.31
  -1   8  -2    2.16    2.26
  -1   8  -2   -0.04    1.58
  -1   8  -2    2.83    2.21
  -1   8  -3   24.32    5.52
  -1   8  -3   34.26    6.37
  -1   8  -3   26.82    5.08
  -1   8  -4  239.20   17.37
  -1   8  -4  253.44   17.98
  -1   8  -4  250.76   16.25
  -1   8  -5  136.05   12.13
  -1   8  -5  135.05   11.89
  -1   8  -5  116.71    9.49
  -1   8  -6    2.23    1.24
  -1   8  -6    2.76    1.22
  -1   8  -7    7.97    2.04
  -1   8  -7    4.70    1.47
  -1   8  -7    6.48    1.78
   1  -7  -9   28.04    3.06
   1  -7  -8   36.41    5.15
  -1   7   7   87.28    8.57
   1  -7  -7   99.67    9.89
  -1   7   6  177.80   14.50
  -1   7   6  170.44   14.55
   1  -7  -5  511.60   24.18
  -1   7   5  539.38   29.70
  -1   7   4  250.57   17.42
   1  -7  -4  284.95   16.89
  -1   7   4  344.19   23.62
  -1   7   4  326.30   22.76
  -1   7   3   50.80    7.38
   1  -7  -3   45.91    6.02
  -1   7   3   51.98    6.91
  -1   7   3   55.13    8.48
  -1   7   3   44.27    8.06
  -1   7   2   36.22    7.01
  -1   7   2   49.86    7.01
  -1   7   2   38.76    6.39
  -1   7   2   38.21    5.53
  -1   7   1  327.14   18.44
  -1   7   1  303.86   20.88
  -1   7   1  300.31   19.50
  -1   7   1  289.81   16.08
  -1   7   0  276.12   18.33
  -1   7   0  221.48   13.45
  -1   7   0  245.40   15.36
  -1   7   0  239.78   16.85
  -1   7   0  226.39   17.69
  -1   7  -1  325.47   19.85
  -1   7  -1  275.90   20.20
  -1   7  -1  275.54   16.92
  -1   7  -2  104.66   12.24
  -1   7  -2   93.76   10.10
  -1   7  -2   86.21    9.30
  -1   7  -3   23.34    5.05
  -1   7  -3   19.65    4.58
  -1   7  -4  215.42   15.42
  -1   7  -4  206.27   16.23
  -1   7  -5  425.26   24.27
  -1   7  -5  415.89   23.97
  -1   7  -5  432.64   21.93
  -1   7  -6  329.09   19.65
  -1   7  -6  358.96   20.96
  -1   7  -7  120.42    9.65
  -1   7  -7  130.33   10.19
  -1   7  -7  134.26   10.74
  -1   7  -8    0.78    0.78
  -1   7  -8   -0.11    0.51
   1  -6  -9  214.99   10.76
   1  -6  -9  185.82   10.95
   1  -6  -8  146.47    9.82
   1  -6  -8  139.77   11.29
   1  -6  -7   88.75    7.87
   1  -6  -7   79.44    9.11
  -1   6   6   49.98    7.18
   1  -6  -6   61.62    7.31
  -1   6   5  191.43   14.31
   1  -6  -5  230.88   14.75
  -1   6   4  313.45   18.80
   1  -6  -4  307.69   16.93
  -1   6   4  266.87   16.70
   1  -6  -3  965.18   35.95
  -1   6   3  984.37   38.04
  -1   6   2   54.77    7.04
   1  -6  -2   45.45    5.47
   1  -6  -1    3.97    1.48
  -1   6   1    1.13    1.66
  -1   6   0  264.53   16.42
  -1   6  -1  391.23   21.08
  -1   6  -2  534.13   26.94
  -1   6  -3  360.26   20.45
  -1   6  -3  348.65   20.24
  -1   6  -3  406.86   24.63
  -1   6  -4   22.91    5.26
  -1   6  -4   27.17    5.46
  -1   6  -5  105.97   11.22
  -1   6  -5  109.99   11.55
  -1   6  -6  192.57   15.13
  -1   6  -6  207.07   16.02
  -1   6  -7  340.52   19.93
  -1   6  -7  322.85   18.65
  -1   6  -7  298.94   17.86
  -1   6  -8  117.19    9.53
  -1   6  -8  112.26    8.71
  -1   6  -9   13.76    2.34
  -1   6  -9   12.72    2.40
   1  -5 -10   32.66    3.60
   1  -5 -10   26.25    3.36
   1  -5  -9  130.73   10.22
   1  -5  -9  145.10    9.75
   1  -5  -8  600.33   28.08
   1  -5  -8  704.62   27.34
   1  -5  -7  462.01   21.23
   1  -5  -7  416.37   22.74
   1  -5  -6  248.52   15.22
   1  -5  -6  282.25   15.47
   1  -5  -5   98.45    9.15
  -1   5   5   98.45    9.38
   1  -5  -5   98.78    8.66
  -1   5   4  262.61   14.76
   1  -5  -4  261.78   14.88
  -1   5   4  245.31   14.17
   1  -5  -3  250.45   13.72
  -1   5   3  264.40   15.02
  -1   5   2  568.71   24.08
   1  -5  -2  514.04   21.16
  -1   5   2  522.94   20.59
  -1   5   1  211.75   12.95
   1  -5  -1  192.26   10.69
  -1   5   0    4.47    1.67
   1  -5   0    3.44    1.33
  -1   5  -1  286.30   15.56
  -1   5  -2 1172.79   42.17
  -1   5  -3  492.74   24.48
  -1   5  -3  440.47   18.84
  -1   5  -4  653.09   26.33
  -1   5  -5   81.97   10.10
  -1   5  -5   89.19    8.32
  -1   5  -5   72.24    9.38
  -1   5  -5   73.42    9.33
  -1   5  -6   45.05    5.97
  -1   5  -6   39.12    6.92
  -1   5  -6   52.86    8.00
  -1   5  -6   45.09    7.43
  -1   5  -6   38.65    7.07
  -1   5  -7  219.86   16.68
  -1   5  -7  209.65   16.14
  -1   5  -7  218.82   16.10
  -1   5  -8  384.42   20.51
  -1   5  -8  403.90   21.51
  -1   5  -8  417.85   22.29
  -1   5  -9  153.65   10.30
  -1   5  -9  147.79    9.66
  -1   5 -10   18.77    2.71
   1  -4 -10  159.01   10.24
   1  -4 -10  171.00    9.90
   1  -4  -9    1.57    1.33
   1  -4  -9    0.90    1.81
   1  -4  -8  190.46   12.68
   1  -4  -7  243.14   14.60
   1  -4  -7  258.43   16.60
   1  -4  -7  256.35   14.93
   1  -4  -6  517.12   23.88
   1  -4  -6  510.68   22.46
   1  -4  -6  534.47   22.74
   1  -4  -5  174.89   11.77
  -1   4   5  185.15   12.04
   1  -4  -4   48.46    5.54
  -1   4   4   46.96    5.16
   1  -4  -3  777.56   26.76
  -1   4   3  686.03   24.81
   1  -4  -2  964.38   30.64
  -1   4   2  871.43   28.79
   1  -4  -1 2145.05   62.01
  -1   4   1 2241.63   61.33
   1  -4   0 1627.00   46.50
  -1   4   0 1614.95   45.64
  -1   4   0 1618.16   49.43
   1  -4   1  145.50    7.15
  -1   4  -1  148.62    9.21
  -1   4  -2    2.50    1.26
  -1   4  -2    5.84    1.42
  -1   4  -3  688.46   24.48
  -1   4  -3  755.66   28.71
  -1   4  -4  641.83   24.70
  -1   4  -5  332.89   17.04
  -1   4  -6  174.97   11.85
  -1   4  -6  170.01   11.79
  -1   4  -6  221.87   17.24
  -1   4  -6  175.11   15.14
  -1   4  -6  192.39   14.14
  -1   4  -7  343.35   19.63
  -1   4  -7  356.07   21.78
  -1   4  -7  326.67   21.40
  -1   4  -7  314.74   17.44
  -1   4  -8  389.25   20.70
  -1   4  -8  397.84   21.28
  -1   4  -8  356.41   21.39
  -1   4  -8  362.14   21.60
  -1   4  -9  527.02   24.25
  -1   4  -9  555.72   25.23
  -1   4  -9  546.51   24.28
  -1   4 -10  398.74   17.25
  -1   4 -10  356.72   15.43
  -1   4 -10  392.75   17.29
  -1   4 -10  356.26   15.75
   1  -3 -11  284.81   11.46
   1  -3 -10  245.79   13.92
   1  -3 -10  236.23   12.33
   1  -3 -10  218.26   11.27
   1  -3  -9  201.80   12.60
   1  -3  -9  221.39   15.34
   1  -3  -8   19.09    4.65
   1  -3  -8   23.29    4.10
   1  -3  -7   50.13    5.81
   1  -3  -7   55.45    6.35
   1  -3  -6  468.56   21.25
  -1   3   6  477.83   22.03
   1  -3  -5 1158.29   38.73
   1  -3  -4  494.57   19.74
   1  -3  -3  122.25    7.65
  -1   3   3  124.13    7.24
  -1   3   2  196.38    8.98
   1  -3  -2  233.82   10.45
  -1   3   1 2532.68   68.63
   1  -3  -1 2595.36   69.86
   1  -3   0 1572.42   44.13
  -1   3   0 1594.09   43.69
  -1   3  -1 1549.11   45.83
  -1   3  -1 1652.18   43.33
  -1   3  -1 1572.70   42.88
   1  -3   1 1509.63   42.75
  -1   3  -2   26.36    3.23
   1  -3   2   24.36    1.79
  -1   3  -2   23.96    2.51
  -1   3  -3   31.89    3.11
  -1   3  -3   22.26    3.21
  -1   3  -3   32.31    3.34
  -1   3  -4 1023.22   33.53
  -1   3  -5 1748.70   54.04
  -1   3  -6  587.09   24.63
  -1   3  -7  325.48   18.15
  -1   3  -7  317.62   17.11
  -1   3  -7  354.91   20.39
  -1   3  -7  295.76   16.10
  -1   3  -7  331.85   21.38
  -1   3  -8    2.76    1.63
  -1   3  -8    7.58    3.07
  -1   3  -8    4.24    1.75
  -1   3  -8    9.39    3.09
  -1   3  -9  211.18   13.73
  -1   3  -9  214.55   14.08
  -1   3  -9  222.39   15.34
  -1   3 -10  330.99   16.49
  -1   3 -10  353.31   16.44
  -1   3 -10  347.39   17.43
  -1   3 -11  258.44   11.63
   1  -2 -11    5.58    1.31
   1  -2 -10  163.61    9.47
   1  -2 -10  165.07    9.99
   1  -2 -10  172.65   11.84
   1  -2  -9  376.53   21.24
   1  -2  -9  366.89   18.02
   1  -2  -8  208.62   13.23
   1  -2  -8  247.54   17.30
   1  -2  -7  126.26    9.56
   1  -2  -6  253.53   13.52
   1  -2  -5 1240.04   39.17
   1  -2  -4 2687.12   74.64
   1  -2  -3 1117.67   33.90
   1  -2  -2 1332.58   38.37
  -1   2   1   16.12    1.70
   1  -2  -1   13.08    1.71
  -1   2   0  729.49   23.32
   1  -2   0  777.37   23.60
  -1   2  -1 1040.39   28.41
   1  -2   1 1007.06   28.04
  -1   2  -1 1060.93   28.78
  -1   2  -2  713.47   20.64
  -1   2  -2  749.07   21.88
  -1   2  -3  558.58   19.11
  -1   2  -3  598.52   18.93
  -1   2  -4  147.84    7.50
  -1   2  -4  137.23    8.09
  -1   2  -5  342.27   13.82
  -1   2  -5  304.73   14.24
  -1   2  -6 2072.45   58.99
  -1   2  -6 1781.90   56.76
  -1   2  -7 1206.67   43.75
  -1   2  -7 1141.83   40.87
  -1   2  -7 1181.15   40.39
  -1   2  -7 1138.80   40.16
  -1   2  -8  493.85   24.04
  -1   2  -8  486.52   21.13
  -1   2  -8  506.23   23.42
  -1   2  -9   16.12    3.51
  -1   2  -9   12.72    3.15
  -1   2  -9   13.44    3.81
  -1   2 -10  128.53   10.41
  -1   2 -10  112.67    8.89
  -1   2 -10  110.43    8.93
  -1   2 -11  128.16    8.43
   1  -1 -11   17.96    2.27
   1  -1 -11   18.45    2.63
   1  -1 -10   19.51    3.06
   1  -1 -10   21.24    3.29
   1  -1  -9  543.36   26.13
   1  -1  -9  553.37   23.11
   1  -1  -9  468.30   21.24
   1  -1  -9  510.43   22.24
   1  -1  -8 1271.27   46.84
   1  -1  -8 1147.52   40.28
   1  -1  -8 1138.46   40.61
   1  -1  -7  841.11   31.78
   1  -1  -7  874.46   36.58
   1  -1  -7  785.41   30.94
   1  -1  -6  393.99   17.91
   1  -1  -5   38.15    4.33
   1  -1  -4  226.58   10.12
   1  -1  -4  215.22    9.85
   1  -1  -3 1974.62   53.48
   1  -1  -3 1896.37   52.99
   1  -1  -2 3362.72   88.51
  -1   1   1  115.30    4.79
   1  -1  -1  112.17    5.03
   1  -1   0   59.57    2.95
  -1   1   0   64.49    2.27
  -1   1   0   59.28    3.06
  -1   1  -1  150.63    5.72
   1  -1   1  151.96    4.86
  -1   1  -2 4083.99  105.88
  -1   1  -2 4250.09  107.02
  -1   1  -2 4024.86  106.54
  -1   1  -3 5199.04  134.37
  -1   1  -3 5146.14  134.56
  -1   1  -3 5183.27  133.47
  -1   1  -4 1204.66   35.04
  -1   1  -4 1179.52   35.14
  -1   1  -5  183.16    9.24
  -1   1  -5  171.16    8.90
  -1   1  -6  106.23    7.41
  -1   1  -6   87.96    6.60
  -1   1  -7  581.51   22.57
  -1   1  -8  602.20   25.78
  -1   1  -9   69.64    7.70
  -1   1  -9   78.59    7.83
  -1   1 -10   40.66    5.13
  -1   1 -10   51.42    6.77
  -1   1 -10   41.67    5.32
  -1   1 -11  158.31    9.27
  -1   1 -11  178.70   10.82
   1   0 -11  260.53   11.10
   1   0 -11  296.63   12.59
   1   0 -10   42.62    4.49
   1   0 -10   51.38    5.79
   1   0 -10   42.37    4.81
   1   0  -9   51.76    6.01
   1   0  -9   55.99    6.02
   1   0  -9   56.54    6.12
   1   0  -8  156.92   11.45
   1   0  -8  147.02   10.67
   1   0  -8  151.83   13.07
   1   0  -8  153.08   11.14
   1   0  -7 1355.16   49.82
   1   0  -7 1340.80   45.12
   1   0  -6  804.30   29.68
   1   0  -5  491.12   18.37
   1   0  -5  488.57   17.21
   1   0  -5  492.30   19.67
   1   0  -4   20.92    2.47
   1   0  -4   21.42    2.95
   1   0  -3  654.48   20.00
   1   0  -2 2495.20   65.34
   1   0  -1 2492.57   62.84
  -1   0   1 2418.35   64.00
  -1   0   0 2988.32   75.91
   1   0   0 2926.99   74.73
  -1   0  -1  174.94    6.13
  -1   0  -2 2118.82   56.92
  -1   0  -2 2164.35   56.02
  -1   0  -3 2280.01   57.04
  -1   0  -3 2160.50   59.64
  -1   0  -3 2250.91   58.94
  -1   0  -4  900.50   27.39
  -1   0  -4  879.92   26.42
  -1   0  -5 1150.90   34.29
  -1   0  -5 1058.37   32.71
  -1   0  -6   34.95    4.14
  -1   0  -6   40.28    3.92
  -1   0  -7  232.69   12.95
  -1   0  -8  370.57   18.19
  -1   0  -8  392.53   18.68
  -1   0  -8  413.72   22.27
  -1   0  -9  691.06   27.56
  -1   0  -9  693.08   27.50
  -1   0 -10  239.56   13.33
  -1   0 -10  266.16   13.75
  -1   0 -11  100.56    8.17
  -1   0 -11   86.29    6.62
  -1   0 -11   79.97    6.02
   1   1 -11  311.52   12.74
   1   1 -11  345.05   13.77
   1   1 -10  447.68   19.97
   1   1 -10  443.55   19.07
   1   1 -10  461.17   20.38
   1   1  -9  532.46   23.59
   1   1  -9  538.06   23.20
   1   1  -8    1.18    0.99
   1   1  -8    3.61    1.75
   1   1  -8    2.57    1.65
   1   1  -7   14.26    3.31
   1   1  -7   12.45    3.33
   1   1  -7   14.12    3.10
   1   1  -6  631.14   24.53
   1   1  -6  569.81   21.63
   1   1  -5  902.23   28.11
   1   1  -5  822.01   27.43
   1   1  -5  871.79   30.26
   1   1  -4  537.50   17.94
   1   1  -4  526.57   17.55
   1   1  -4  531.17   20.09
   1   1  -3   37.61    3.68
   1   1  -3   33.77    2.69
   1   1  -3   35.24    2.60
   1   1  -2 1259.08   32.54
   1   1  -2 1163.81   32.72
   1   1  -1 1729.32   44.89
   1   1  -1 1767.90   45.31
  -1  -1   1 1695.59   44.65
  -1  -1   0 3701.65   96.72
   1   1   0 3821.03   96.87
   1   1   0 3933.67   97.94
   1   1   1 1055.03   27.94
  -1  -1  -1 1016.10   27.87
  -1  -1  -2    8.53    1.24
   1   1   2    8.21    0.70
  -1  -1  -3    8.41    1.36
  -1  -1  -3    9.90    1.15
  -1  -1  -4  491.39   16.97
  -1  -1  -4  458.59   15.06
  -1  -1  -4  470.03   15.19
  -1  -1  -5 1420.00   41.31
  -1  -1  -5 1523.04   44.11
  -1  -1  -6  364.91   16.22
  -1  -1  -7  109.39    8.55
  -1  -1  -8   32.49    5.78
  -1  -1  -8   35.80    4.92
  -1  -1  -9  321.82   19.44
  -1  -1  -9  298.75   16.13
  -1  -1 -10  758.66   28.53
  -1  -1 -11  316.25   13.88
  -1  -1 -11  316.30   14.38
  -1  -1 -12   50.92    4.04
   1   2 -11   63.31    4.70
   1   2 -11   58.63    4.37
   1   2 -10  344.62   16.28
   1   2 -10  367.83   17.10
   1   2 -10  365.40   16.73
   1   2  -9  211.00   14.04
   1   2  -9  220.46   13.27
   1   2  -9  222.54   13.95
   1   2  -9  223.16   14.44
   1   2  -8  377.65   18.90
   1   2  -8  376.12   21.18
   1   2  -8  401.97   20.47
   1   2  -7    3.16    1.81
   1   2  -7    5.90    2.15
   1   2  -7    2.20    0.54
   1   2  -7    3.57    1.90
   1   2  -6  351.82   15.95
   1   2  -6  340.82   17.07
   1   2  -5 1152.12   38.53
   1   2  -5 1147.51   36.39
   1   2  -4 3638.33   99.91
   1   2  -4 3877.18  103.33
   1   2  -3  880.16   25.09
   1   2  -3  867.28   26.71
   1   2  -2  781.85   20.82
   1   2  -2  721.80   22.38
   1   2  -2  717.44   26.07
  -1  -2   2  787.76   21.07
   1   2  -1    3.95    0.73
   1   2  -1    2.43    0.59
   1   2   0  683.29   18.37
   1   2   0  599.48   18.47
   1   2   1 1800.93   47.46
   1   2   1 1806.54   48.32
  -1  -2  -1 1788.88   46.93
   1   2   2 1062.96   29.18
  -1  -2  -2 1047.04   29.45
   1   2   3   69.67    3.44
  -1  -2  -3   73.15    4.50
  -1  -2  -4   67.23    4.95
  -1  -2  -4   74.40    5.12
  -1  -2  -4   67.52    3.91
  -1  -2  -5  982.54   31.03
  -1  -2  -5 1015.68   32.61
  -1  -2  -6 2044.20   61.29
  -1  -2  -7 1105.28   38.46
  -1  -2  -8  450.29   20.91
  -1  -2  -8  513.68   25.88
  -1  -2  -9    7.56    2.28
  -1  -2  -9    4.52    2.20
  -1  -2 -10  130.10    9.38
  -1  -2 -10  128.34   10.92
  -1  -2 -11  222.62   11.33
   1   3 -10    8.95    2.16
   1   3 -10    7.63    1.98
   1   3 -10    9.91    2.25
   1   3  -9  297.38   16.49
   1   3  -9  311.51   16.63
   1   3  -9  315.42   16.66
   1   3  -9  287.11   16.14
   1   3  -9  264.37   13.66
   1   3  -8  469.92   21.16
   1   3  -8  499.78   22.68
   1   3  -8  490.50   24.42
   1   3  -8  484.86   24.41
   1   3  -8  522.43   24.15
   1   3  -7  424.93   19.87
   1   3  -7  413.11   22.77
   1   3  -7  435.20   20.67
   1   3  -7  422.53   23.04
   1   3  -7  422.32   21.47
   1   3  -6   13.32    3.14
   1   3  -6   13.66    2.83
   1   3  -5  176.50   11.56
   1   3  -5  169.16   10.29
   1   3  -4  577.04   21.48
   1   3  -4  638.82   24.76
   1   3  -3 2612.35   71.79
   1   3  -3 2347.90   75.63
   1   3  -2 1304.57   41.92
   1   3  -2 1412.36   42.42
   1   3  -2 1309.53   37.59
   1   3  -1  155.46    8.66
   1   3  -1  152.98    8.01
   1   3  -1  144.98    6.34
   1   3   0   25.27    1.11
   1   3   0   31.26    3.26
   1   3   0   32.45    2.33
   1   3   1 2927.41   75.59
   1   3   1 2795.69   77.60
  -1  -3  -1 2894.00   74.71
   1   3   2 1436.40   40.34
  -1  -3  -2 1410.57   39.19
  -1  -3  -3 3189.58   87.14
   1   3   3 3351.94   86.74
   1   3   4  585.52   18.59
  -1  -3  -4  581.24   21.38
  -1  -3  -4  631.41   21.10
  -1  -3  -5   57.85    5.39
  -1  -3  -5   64.80    5.70
  -1  -3  -6  240.18   12.57
  -1  -3  -6  240.90   13.39
  -1  -3  -7  772.73   30.50
  -1  -3  -8  525.53   23.35
  -1  -3  -8  609.17   29.35
  -1  -3  -9  133.30   11.95
  -1  -3  -9  127.21    9.78
  -1  -3 -10    3.64    1.45
  -1  -3 -10    6.71    2.44
  -1  -3 -11   45.00    4.57
   1   4 -10   28.82    3.34
   1   4  -9   41.67    5.48
   1   4  -9   40.82    5.17
   1   4  -9   41.24    5.42
   1   4  -9   36.15    4.92
   1   4  -8  433.28   21.67
   1   4  -8  444.87   20.36
   1   4  -8  418.41   22.19
   1   4  -8  441.51   22.57
   1   4  -8  455.84   21.35
   1   4  -8  450.61   22.60
   1   4  -7  766.28   34.06
   1   4  -7  769.90   30.78
   1   4  -7  787.54   34.14
   1   4  -7  812.73   32.93
   1   4  -7  767.21   31.16
   1   4  -6  656.83   30.67
   1   4  -6  695.63   29.72
   1   4  -6  750.05   29.01
   1   4  -6  691.22   28.04
   1   4  -6  674.10   31.83
   1   4  -6  672.68   28.02
   1   4  -5  998.70   37.39
   1   4  -5  923.75   33.73
   1   4  -4   91.89    7.19
   1   4  -4  101.50    9.40
   1   4  -3  194.71    9.85
   1   4  -3  196.98   13.24
   1   4  -3  185.64   13.02
   1   4  -2  839.55   31.11
   1   4  -2  827.96   31.53
   1   4  -1 1364.84   38.62
   1   4  -1 1348.31   43.66
   1   4   0   31.82    2.69
   1   4   0   26.78    3.50
   1   4   1   20.71    2.13
   1   4   1   29.85    3.66
   1   4   2  722.17   22.05
   1   4   2  734.48   24.61
   1   4   3 1937.77   53.28
  -1  -4  -3 1846.43   52.18
   1   4   3 1815.83   51.42
  -1  -4  -4 1087.84   34.04
   1   4   4 1084.12   32.91
  -1  -4  -4 1075.43   35.70
  -1  -4  -5  713.29   27.27
  -1  -4  -5  740.06   26.65
  -1  -4  -6    1.01    1.07
  -1  -4  -6    0.57    0.49
  -1  -4  -7   21.43    4.73
  -1  -4  -7   15.14    3.23
  -1  -4  -8  482.46   25.61
  -1  -4  -8  436.43   20.63
  -1  -4  -9  206.98   12.79
  -1  -4  -9  208.50   15.26
  -1  -4  -9  247.40   16.63
  -1  -4 -10  196.04   11.49
  -1  -4 -10  188.97   12.86
  -1  -4 -11   35.37    4.22
  -1  -4 -11   38.26    4.05
   1   5  -9  106.30    8.33
   1   5  -8    1.41    1.25
   1   5  -8    0.07    0.90
   1   5  -8    1.11    1.13
   1   5  -8    0.27    0.55
   1   5  -7  130.34   10.53
   1   5  -7  141.01   11.60
   1   5  -7  143.25   12.21
   1   5  -7  154.31   12.97
   1   5  -7  142.78   11.01
   1   5  -6  539.77   23.52
   1   5  -6  510.41   26.40
   1   5  -6  552.57   24.81
   1   5  -6  497.09   24.89
   1   5  -6  585.09   27.36
   1   5  -6  567.04   24.77
   1   5  -6  562.29   28.77
   1   5  -5  464.85   21.43
   1   5  -5  533.63   22.77
   1   5  -5  424.62   22.71
   1   5  -5  520.39   27.42
   1   5  -5  524.69   23.02
   1   5  -5  507.44   24.35
   1   5  -5  441.31   23.69
   1   5  -5  618.97   27.78
   1   5  -4  190.15   15.44
   1   5  -3   10.06    3.50
   1   5  -2  641.14   29.31
   1   5  -1  558.74   24.72
   1   5   0 2298.17   62.21
   1   5   0 2225.60   68.19
   1   5   1  996.79   34.41
   1   5   1 1000.60   29.54
   1   5   2  212.59   11.98
  -1  -5  -3   58.25    5.98
   1   5   3   71.28    6.15
   1   5   4  386.44   16.51
  -1  -5  -4  382.95   18.04
  -1  -5  -5  212.98   13.07
  -1  -5  -6  541.56   23.85
  -1  -5  -7    2.26    1.57
  -1  -5  -7    1.83    0.96
  -1  -5  -8  141.67   12.78
  -1  -5  -8  130.10   10.08
  -1  -5  -9  206.19   12.33
  -1  -5  -9  203.41   14.86
  -1  -5 -10  431.27   18.08
  -1  -5 -10  414.04   19.63
  -1  -5 -10  406.68   19.03
  -1  -5 -11  164.73    9.08
  -1  -5 -11  182.76    8.92
   1   6  -9  243.64   11.84
   1   6  -8  113.09    8.95
   1   6  -8  102.01    8.01
   1   6  -7    3.25    1.80
   1   6  -7    0.49    1.12
   1   6  -7    1.07    0.78
   1   6  -6   69.25    7.90
   1   6  -6   64.65    7.66
   1   6  -6   75.26    7.62
   1   6  -6   75.01    7.87
   1   6  -6   84.74    9.54
   1   6  -5  423.84   19.94
   1   6  -5  357.89   20.39
   1   6  -5  394.51   20.30
   1   6  -5  385.86   21.65
   1   6  -4  339.84   18.23
   1   6  -4  327.79   19.68
   1   6  -4  302.84   17.80
   1   6  -3  504.42   30.24
   1   6  -2  126.67   13.00
   1   6  -1  209.96   15.43
   1   6   0  536.93   25.21
  -1  -6   0  535.14   21.58
  -1  -6  -1  694.64   26.31
   1   6   1  647.52   27.99
  -1  -6  -2  642.26   25.83
   1   6   2  620.27   26.62
   1   6   3   12.53    2.98
  -1  -6  -3    5.06    2.08
  -1  -6  -4    6.40    2.22
   1   6   5  708.78   31.82
   1   6   5  742.08   31.29
  -1  -6  -5  714.72   29.68
   1   6   6  311.97   19.07
  -1  -6  -6  311.94   18.89
  -1  -6  -7  237.74   16.84
  -1  -6  -8   88.55    7.83
  -1  -6  -8   95.99   10.24
  -1  -6  -9    6.66    2.27
  -1  -6  -9    1.34    1.39
  -1  -6 -10   61.46    5.17
  -1  -6 -10   59.55    5.86
  -1  -6 -10   54.27    5.69
   1   7  -8   76.28    5.78
   1   7  -8   75.96    6.19
   1   7  -7  103.44    8.55
   1   7  -7  105.65    8.81
   1   7  -6   28.96    4.65
   1   7  -6   21.56    4.22
   1   7  -6   30.44    5.05
   1   7  -6   27.25    4.54
   1   7  -5   57.22    7.29
   1   7  -5   66.65    8.02
   1   7  -5   78.58    8.25
   1   7  -5   60.77    7.99
   1   7  -4  349.53   21.27
   1   7  -4  311.39   18.96
   1   7  -4  387.09   20.69
   1   7  -4  347.22   19.71
   1   7  -3  477.07   24.15
   1   7  -3  516.98   27.58
   1   7  -2  343.87   18.81
   1   7  -2  322.26   18.05
   1   7  -2  352.37   26.32
   1   7  -2  358.55   20.74
   1   7  -1  163.32   12.63
   1   7  -1  170.60   12.10
   1   7  -1  184.86   12.73
   1   7  -1  169.20   16.43
   1   7   0   43.37    7.09
   1   7   1  200.19   15.33
  -1  -7  -1  198.19   12.80
  -1  -7  -2  263.83   15.68
   1   7   2  264.63   17.77
   1   7   3  337.95   21.17
   1   7   3  387.26   21.88
  -1  -7  -3  322.85   18.68
   1   7   3  350.06   21.00
   1   7   4    4.37    2.15
   1   7   4    0.77    1.57
   1   7   4    6.76    2.94
   1   7   5    1.86    1.77
   1   7   5    0.56    1.82
   1   7   5    6.10    3.25
   1   7   6  169.38   12.88
  -1  -7  -6  136.78   12.56
  -1  -7  -7  322.17   20.23
  -1  -7  -8  154.34   13.08
  -1  -7  -9  192.38   13.13
  -1  -7 -10    5.79    1.56
  -1  -7 -10    8.76    1.89
   1   8  -7  253.40   12.11
   1   8  -7  239.53   12.15
   1   8  -6  205.50   12.59
   1   8  -6  206.13   12.94
   1   8  -6  207.45   12.43
   1   8  -6  209.89   12.06
   1   8  -5   38.15    5.44
   1   8  -5   40.85    6.06
   1   8  -5   39.31    6.07
   1   8  -5   44.04    5.93
   1   8  -4    9.06    3.19
   1   8  -4   10.65    3.37
   1   8  -3  111.92   11.63
   1   8  -3   93.90    9.52
   1   8  -3   96.27    9.41
   1   8  -2  298.24   18.11
   1   8  -2  307.31   19.77
   1   8  -2  266.00   16.85
   1   8  -2  284.75   17.27
   1   8  -1   63.44   10.61
   1   8  -1   67.49    7.44
   1   8  -1   71.79    8.52
   1   8  -1   64.49    7.73
   1   8  -1   70.73    8.19
   1   8   0   16.05    3.78
   1   8   0   16.14    3.81
   1   8   0   13.56    4.45
   1   8   1    4.49    2.28
   1   8   1    1.64    1.66
   1   8   1    2.72    2.66
   1   8   2  322.41   22.97
   1   8   2  273.96   19.80
   1   8   3  199.04   16.44
   1   8   3  208.96   17.73
   1   8   3  195.44   16.19
   1   8   4  447.58   26.76
   1   8   4  518.41   29.28
   1   8   4  478.27   26.59
   1   8   5  185.41   17.11
   1   8   5  157.03   13.60
   1   8   6    6.97    2.41
  -1  -8  -6    7.51    2.94
  -1  -8  -7   16.59    3.82
  -1  -8  -8  169.00   12.86
  -1  -8  -9   66.60    6.53
   1   9  -6   85.68    6.56
   1   9  -5  155.73   10.82
   1   9  -5  152.56   10.66
   1   9  -4   44.47    6.40
   1   9  -4   46.21    6.15
   1   9  -3    9.75    3.46
   1   9  -3    7.70    2.79
   1   9  -3    7.57    2.97
   1   9  -2   35.73    5.56
   1   9  -2   39.41    6.54
   1   9  -1  125.13   10.32
   1   9  -1  132.43   15.41
   1   9  -1  160.89   12.96
   1   9   0  194.71   18.46
   1   9   0  215.54   14.77
   1   9   1   95.62   12.29
   1   9   1  101.49    9.53
   1   9   2   27.52    6.65
   1   9   2   25.23    5.18
   1   9   3   65.76    9.04
   1   9   3   41.58    7.56
   1   9   4   90.08   10.78
   1   9   4   97.39   11.60
  -1  -9  -5  131.53   11.47
   1   9   5  133.43   11.89
   1   9   6   47.60    6.02
  -1  -9  -6   65.28    7.68
  -1  -9  -7    4.05    2.02
  -1  -9  -8    5.19    1.97
   1  10  -4   38.22    4.78
   1  10  -4   35.45    4.31
   1  10  -3   48.09    6.04
   1  10  -3   45.04    5.31
   1  10  -3   40.27    5.35
   1  10  -2    3.45    1.62
   1  10  -2    1.53    2.12
   1  10  -2    2.58    1.29
   1  10  -1   18.52    4.07
   1  10   0  103.34    9.09
   1  10   1  178.60   16.94
   1  10   1  156.75   11.91
   1  10   2   58.31    9.25
   1  10   2   53.25    6.94
   1  10   3   42.87    6.35
   1  10   3   52.15    8.33
  -1 -10  -4    3.15    0.69
   1  10   4    7.66    2.92
   1  10   4    8.29    3.24
   1  10   5   48.95    6.24
  -1 -10  -5   46.41    5.81
   1  10   6   28.07    3.82
  -1 -10  -6   36.59    4.87
   1  11  -1   26.82    3.68
   1  11  -1   26.01    4.41
   1  11  -1   24.05    3.53
   1  11   0    1.40    1.01
   1  11   0    1.15    1.34
   1  11   1    5.08    1.78
   1  11   2   41.81    5.17
   1  11   2   49.08    6.06
   1  11   3   10.21    3.15
   1  11   3   10.99    2.85
   1  11   4    7.67    2.30
   1  11   4    9.45    2.62
   2 -10  -3   17.23    3.04
  -2  10   3   20.47    4.63
  -2  10   2    3.40    2.27
  -2  10   1   11.68    3.32
  -2  10   1   17.23    3.87
  -2  10   0  104.34    9.92
  -2  10   0   86.04    9.15
  -2  10  -1   32.22    5.40
  -2  10  -2    7.72    2.56
   2  -9  -6    0.52    0.45
   2  -9  -5   33.25    4.76
  -2   9   5   27.29    4.89
  -2   9   4   89.44    9.70
  -2   9   4   86.40    9.88
  -2   9   3   50.11    7.59
  -2   9   3   47.54    7.67
  -2   9   3   37.16    5.72
  -2   9   2   40.51    7.68
  -2   9   2   42.46    6.37
  -2   9   2   39.99    6.95
  -2   9   1   23.25    4.10
  -2   9   1   19.85    5.15
  -2   9   1   26.42    5.20
  -2   9   1   32.93    6.61
  -2   9   0   66.81    6.97
  -2   9   0   67.92    8.06
  -2   9   0   73.25    9.75
  -2   9  -1  114.74   12.32
  -2   9  -1  147.64   12.12
  -2   9  -2  235.36   15.49
  -2   9  -2  218.70   15.19
  -2   9  -3   21.34    4.44
  -2   9  -3   25.01    4.59
  -2   9  -4    3.51    1.59
  -2   9  -4    6.74    2.67
  -2   9  -5    8.44    2.19
   2  -8  -7  158.52    9.40
  -2   8   7  130.82    8.87
  -2   8   6   40.48    5.76
   2  -8  -6   48.71    6.11
  -2   8   5    2.96    1.75
  -2   8   5    4.13    2.79
  -2   8   4   21.12    4.75
  -2   8   4   28.80    6.14
  -2   8   3  261.26   18.20
  -2   8   3  300.03   18.44
  -2   8   3  270.98   18.64
  -2   8   3  282.28   21.40
  -2   8   2  256.91   16.18
  -2   8   2  261.41   20.47
  -2   8   2  261.30   17.90
  -2   8   2  263.02   19.11
  -2   8   1   80.61    9.10
  -2   8   1   67.84    7.56
  -2   8   1   58.68    9.10
  -2   8   1   69.68    9.66
  -2   8   0   15.86    4.26
  -2   8   0   18.74    3.85
  -2   8   0   22.81    5.36
  -2   8   0   23.11    5.44
  -2   8  -1   31.37    5.73
  -2   8  -1   31.93    4.94
  -2   8  -1   32.82    6.59
  -2   8  -1   23.82    4.77
  -2   8  -2   61.14    8.10
  -2   8  -2   61.05    9.05
  -2   8  -2   64.17    8.28
  -2   8  -2   87.14   10.99
  -2   8  -3  214.41   16.48
  -2   8  -3  221.12   16.09
  -2   8  -4   47.03    6.75
  -2   8  -4   45.92    7.26
  -2   8  -4   44.15    7.62
  -2   8  -5   30.00    4.76
  -2   8  -5   29.65    5.52
  -2   8  -5   29.72    5.81
  -2   8  -6   54.38    6.48
  -2   8  -6   58.48    6.84
  -2   8  -7  156.28    9.18
  -2   8  -7  180.74    9.89
  -2   7   8   21.69    3.18
   2  -7  -8   22.60    2.76
  -2   7   7   79.71    8.10
   2  -7  -7   91.88    8.24
  -2   7   6  199.98   15.65
   2  -7  -6  185.86   13.80
  -2   7   6  175.18   14.71
   2  -7  -5  162.56   12.41
  -2   7   5  143.12   12.94
  -2   7   5  182.92   16.87
   2  -7  -4   19.42    4.35
  -2   7   4   18.24    5.67
  -2   7   4   11.06    3.67
   2  -7  -3   88.49    8.73
  -2   7   3   69.44    8.61
  -2   7   3  100.95   10.54
  -2   7   3   82.81   12.03
  -2   7   2  286.84   18.49
  -2   7   2  245.19   16.35
  -2   7   2  222.75   16.62
  -2   7   2  255.30   20.83
  -2   7   2  268.28   18.49
   2  -7  -2  249.92   16.14
  -2   7   1  420.77   22.76
  -2   7   1  404.22   25.51
  -2   7   1  410.07   23.67
  -2   7   1  407.19   21.15
  -2   7   0  343.00   19.65
  -2   7   0  324.21   21.75
  -2   7   0  328.21   20.58
  -2   7  -1   86.98    9.26
  -2   7  -1   80.94   10.17
  -2   7  -1   98.82   10.98
  -2   7  -2   60.36    8.73
  -2   7  -3  111.04   12.55
  -2   7  -4  262.45   20.16
  -2   7  -5  311.69   18.92
  -2   7  -5  308.66   21.35
  -2   7  -6    7.28    2.94
  -2   7  -6    5.65    2.09
  -2   7  -6    4.35    2.35
  -2   7  -7   11.44    2.98
  -2   7  -7   11.19    2.96
  -2   7  -7    9.81    2.35
  -2   7  -8  149.56    8.66
  -2   7  -8  176.48    9.94
   2  -6  -9   25.82    2.75
   2  -6  -8   13.40    2.77
  -2   6   8   19.38    3.72
   2  -6  -8   12.87    2.56
   2  -6  -7   91.31    7.73
   2  -6  -7   86.17    8.59
   2  -6  -6  393.79   20.85
  -2   6   6  389.29   22.90
  -2   6   5  356.17   20.98
   2  -6  -5  396.20   20.73
  -2   6   4  564.46   28.51
   2  -6  -4  492.98   23.23
  -2   6   3  202.54   15.14
   2  -6  -3  183.57   12.76
   2  -6  -2   30.92    5.38
   2  -6  -2   17.71    3.59
  -2   6   2   24.43    4.73
   2  -6  -1  172.40   11.22
  -2   6   0  400.36   22.54
  -2   6  -1  113.55   11.10
  -2   6  -2   80.27    9.31
  -2   6  -3   78.09    9.80
  -2   6  -3   84.63   10.09
  -2   6  -4  482.48   28.55
  -2   6  -4  510.14   28.73
  -2   6  -5  513.81   29.37
  -2   6  -5  557.15   30.52
  -2   6  -6  393.02   23.91
  -2   6  -6  389.62   24.10
  -2   6  -7   91.19    9.66
  -2   6  -7   90.13    9.75
  -2   6  -8   18.29    3.62
  -2   6  -8   17.52    3.33
  -2   6  -8   12.64    3.00
  -2   6  -9   45.99    4.64
  -2   6  -9   44.84    4.55
   2  -5  -9  289.73   13.27
   2  -5  -9  232.09   12.33
   2  -5  -8  286.15   14.98
   2  -5  -8  225.82   14.60
   2  -5  -7   55.50    6.58
   2  -5  -7   69.82    7.60
   2  -5  -7   50.74    6.91
   2  -5  -6   17.27    3.94
   2  -5  -6   16.40    3.56
   2  -5  -5  468.30   21.29
   2  -5  -5  465.55   22.44
  -2   5   5  436.40   22.49
  -2   5   4  324.25   19.01
  -2   5   4  438.29   22.46
   2  -5  -4  363.52   19.42
   2  -5  -4  405.59   19.54
   2  -5  -3  667.00   26.86
  -2   5   3  619.39   26.49
   2  -5  -2  128.00    9.36
  -2   5   2  140.20   10.06
   2  -5  -1   62.30    5.91
  -2   5   1   59.44    7.36
  -2   5   0  283.32   16.83
   2  -5   0  301.43   13.80
  -2   5  -1  966.10   36.36
  -2   5  -2  830.09   33.17
  -2   5  -3  241.82   16.02
  -2   5  -3  232.90   12.88
  -2   5  -4   22.99    5.34
  -2   5  -4   21.33    3.87
  -2   5  -5  210.86   18.03
  -2   5  -5  256.89   19.81
  -2   5  -5  223.22   17.89
  -2   5  -6  195.09   16.95
  -2   5  -6  224.29   18.15
  -2   5  -6  196.80   16.91
  -2   5  -7  450.88   25.54
  -2   5  -7  476.85   26.39
  -2   5  -7  444.66   25.57
  -2   5  -8  153.47   12.36
  -2   5  -8  158.44   12.63
  -2   5  -8  156.63   12.81
  -2   5  -9    0.44    0.65
  -2   5  -9    0.34    0.64
  -2   5 -10  141.48    8.09
   2  -4 -10   54.36    4.52
   2  -4 -10   46.75    3.82
   2  -4  -9  260.50   14.79
   2  -4  -9  299.06   14.83
   2  -4  -8  633.24   26.44
   2  -4  -8  589.09   27.91
   2  -4  -7  523.17   23.79
   2  -4  -7  486.04   23.00
   2  -4  -6   82.61    8.00
   2  -4  -6   85.85    8.32
  -2   4   5   26.95    4.73
   2  -4  -5   25.29    4.55
   2  -4  -5   24.31    4.10
  -2   4   4  297.36   16.14
   2  -4  -4  360.21   17.70
  -2   4   3  846.95   31.20
   2  -4  -3  944.78   32.59
   2  -4  -2  470.54   19.38
  -2   4   2  479.36   19.55
   2  -4  -1  779.60   26.92
  -2   4   1  814.81   27.77
   2  -4   0   47.51    4.29
  -2   4   0   44.61    4.33
   2  -4   1  426.63   15.43
  -2   4  -1  429.95   19.28
  -2   4  -2 1146.30   39.68
  -2   4  -2 1208.31   36.17
  -2   4  -3 1378.89   43.13
  -2   4  -3 1441.77   47.03
  -2   4  -4  553.60   22.76
  -2   4  -5   51.45    6.22
  -2   4  -6  101.94   11.85
  -2   4  -6   92.77    9.38
  -2   4  -6  119.85   11.16
  -2   4  -7  479.34   27.08
  -2   4  -7  447.65   26.42
  -2   4  -8  571.27   28.76
  -2   4  -8  626.09   29.65
  -2   4  -8  590.33   29.38
  -2   4  -9  177.98   12.62
  -2   4  -9  175.63   12.62
  -2   4  -9  169.85   12.66
  -2   4 -10   13.34    2.58
  -2   4 -10    9.93    2.31
  -2   4 -10    9.66    2.31
   2  -3 -10  108.76    6.80
   2  -3 -10  109.98    7.17
   2  -3  -9    3.53    1.64
   2  -3  -9    2.44    1.19
   2  -3  -8  137.24   12.34
   2  -3  -8  135.85   10.57
   2  -3  -7  183.28   12.05
   2  -3  -7  180.68   12.51
   2  -3  -6  568.98   23.60
   2  -3  -6  539.91   23.53
  -2   3   5  155.52   10.98
   2  -3  -4    5.70    1.89
  -2   3   4    4.98    1.82
   2  -3  -3  407.34   17.28
  -2   3   3  369.12   16.04
   2  -3  -2 2871.10   78.03
  -2   3   2 2714.98   77.20
  -2   3   1 1586.16   45.06
   2  -3  -1 1471.34   44.57
  -2   3   0 1956.79   53.44
   2  -3   0 1812.55   52.10
  -2   3  -1  167.46    7.20
  -2   3  -1  156.37    7.80
   2  -3   1  148.04    6.91
  -2   3  -2  184.85    8.54
  -2   3  -2  200.44    9.05
  -2   3  -2  196.81   10.66
  -2   3  -3  394.10   15.97
  -2   3  -3  425.92   16.59
  -2   3  -3  431.50   17.73
  -2   3  -4 1046.41   35.79
  -2   3  -4 1156.05   35.91
  -2   3  -5  334.64   16.64
  -2   3  -6  104.51    9.15
  -2   3  -7  240.35   15.57
  -2   3  -7  245.96   18.53
  -2   3  -7  223.72   15.43
  -2   3  -7  257.13   16.94
  -2   3  -8  439.23   22.37
  -2   3  -8  434.71   22.30
  -2   3  -8  461.08   25.27
  -2   3  -9  569.38   24.71
  -2   3  -9  565.42   26.93
  -2   3 -10  486.44   21.86
  -2   3 -10  494.01   21.90
  -2   3 -11  107.33    6.60
  -2   3 -11   97.59    6.10
  -2   3 -11  112.26    6.77
  -2   3 -11  111.45    7.04
   2  -2 -10  244.67   11.78
   2  -2 -10  245.04   11.45
   2  -2  -9  157.35   10.44
   2  -2  -9  153.05   11.88
   2  -2  -8   79.74    9.26
   2  -2  -8   81.42    7.92
   2  -2  -7  237.33   16.74
   2  -2  -7  225.09   13.86
  -2   2   6  800.12   31.40
   2  -2  -6  742.67   29.67
  -2   2   5 1674.52   52.71
  -2   2   4 1389.72   43.22
  -2   2   3    9.31    1.96
   2  -2  -3    5.29    1.71
   2  -2  -2    5.80    1.52
  -2   2   2    6.66    1.55
  -2   2   1 1545.18   44.18
   2  -2  -1 1571.19   44.35
   2  -2   0 1137.13   37.13
  -2   2   0 1144.49   37.87
   2  -2   1  711.25   21.46
  -2   2  -1  767.14   21.39
  -2   2  -1  744.44   23.02
  -2   2  -2  304.20   11.65
  -2   2  -3  388.63   15.05
  -2   2  -3  406.39   15.06
  -2   2  -4  424.91   16.78
  -2   2  -5 1990.94   58.22
  -2   2  -7  360.28   19.36
  -2   2  -7  335.48   17.93
  -2   2  -7  346.51   19.31
  -2   2  -7  337.99   16.99
  -2   2  -7  353.96   18.31
  -2   2  -8    1.32    0.64
  -2   2  -8    0.25    0.68
  -2   2  -9  327.66   17.53
  -2   2  -9  353.43   18.77
  -2   2  -9  322.77   19.91
  -2   2 -10  357.65   17.23
  -2   2 -10  402.30   20.24
  -2   2 -11  190.00   10.74
  -2   2 -11  208.61   11.31
   2  -1 -11   20.89    2.41
   2  -1 -10  154.12    8.60
   2  -1 -10  155.43    8.75
   2  -1 -10  149.04    8.54
   2  -1  -9  446.32   20.07
   2  -1  -9  455.86   20.04
   2  -1  -8  252.12   14.64
   2  -1  -8  256.23   14.72
   2  -1  -8  243.91   16.63
   2  -1  -7    2.88    2.15
   2  -1  -7    5.22    1.82
  -2   1   6  321.37   17.15
   2  -1  -6  298.23   16.30
  -2   1   5 1657.33   51.63
  -2   1   4 1371.37   42.14
  -2   1   3 2123.91   59.64
   2  -1  -2  157.61    7.98
  -2   1   2  150.19    7.40
  -2   1   1    5.71    1.11
   2  -1  -1    4.54    1.13
  -2   1   0 1551.08   45.77
   2  -1   0 1697.45   42.85
  -2   1  -1 1948.61   53.24
  -2   1  -2  367.56   13.03
  -2   1  -3 2349.50   66.14
  -2   1  -3 2460.97   64.24
  -2   1  -4  279.48   12.05
  -2   1  -5  964.38   31.16
  -2   1  -6 1269.69   40.53
  -2   1  -7  898.93   32.44
  -2   1  -8  142.29   11.61
  -2   1  -8  123.10   10.19
  -2   1  -8  124.51    9.99
  -2   1  -9    0.23    0.96
  -2   1  -9    0.61    0.61
  -2   1 -10  229.42   13.18
  -2   1 -10  232.83   13.55
  -2   1 -10  248.36   16.03
  -2   1 -11  306.20   13.66
  -2   1 -11  331.69   16.07
   2   0 -11    2.99    0.89
   2   0 -10   74.28    5.51
   2   0 -10   71.36    5.84
   2   0 -10   69.84    5.31
   2   0  -9  433.85   19.18
   2   0  -9  372.12   17.61
   2   0  -9  415.06   19.02
   2   0  -8  732.15   30.01
   2   0  -8  745.99   32.83
   2   0  -8  752.99   29.41
   2   0  -8  814.35   31.58
   2   0  -7  519.03   22.49
   2   0  -7  485.56   24.99
   2   0  -6  219.43   13.73
  -2   0   6  264.80   14.68
   2   0  -5    1.31    1.20
  -2   0   5    4.97    1.64
  -2   0   4  519.43   19.51
   2   0  -3  686.79   19.81
  -2   0   3  752.30   23.25
  -2   0   2  688.68   21.31
   2   0  -1   96.27    3.93
  -2   0   1   81.35    4.48
   2   0   0  562.84   15.43
  -2   0   0  534.03   17.25
  -2   0  -1  637.56   19.77
  -2   0  -2 9827.16  253.23
  -2   0  -2 9999.00  253.24
  -2   0  -3 1056.97   28.32
  -2   0  -3 1302.16   33.18
  -2   0  -4  578.46   19.89
  -2   0  -5   14.08    2.37
  -2   0  -5   15.99    2.09
  -2   0  -6  186.71    9.08
  -2   0  -6  177.90   10.28
  -2   0  -7  596.17   23.92
  -2   0  -8  695.05   27.78
  -2   0  -8  758.21   28.77
  -2   0  -8  721.90   31.10
  -2   0  -9   84.79    7.85
  -2   0  -9   94.24    8.28
  -2   0 -10    9.44    2.52
  -2   0 -10    6.67    1.89
  -2   0 -10    6.01    2.08
  -2   0 -11   71.72    5.84
  -2   0 -11   78.70    7.49
  -2   0 -12  251.44   11.14
   2   1 -10   74.08    6.06
   2   1 -10   81.04    6.75
   2   1 -10   71.92    5.19
   2   1  -9    1.51    1.18
   2   1  -9    3.45    1.64
   2   1  -9    2.07    1.19
   2   1  -8  367.30   18.39
   2   1  -8  394.85   19.31
   2   1  -8  355.10   18.98
   2   1  -7  701.88   29.28
   2   1  -7  717.04   29.52
   2   1  -7  658.74   27.06
   2   1  -6  934.41   35.03
  -2  -1   5  220.22   11.41
   2   1  -5  193.44   12.04
   2   1  -4   16.52    2.90
   2   1  -4   24.29    2.50
  -2  -1   4   25.42    3.14
   2   1  -3  955.45   27.52
   2   1  -3  890.04   31.07
   2   1  -2 2904.65   77.15
  -2  -1   2 3100.22   78.75
  -2  -1   1 4285.21  111.35
   2   1  -1 4314.20  110.83
   2   1   0 1531.34   41.64
  -2  -1   0 1637.47   43.20
  -2  -1  -1   73.91    4.13
  -2  -1  -2   48.10    3.51
  -2  -1  -3 1795.99   50.17
  -2  -1  -4 1405.86   41.66
  -2  -1  -4 1433.31   38.67
  -2  -1  -5  288.38   12.90
  -2  -1  -6   90.77    7.06
  -2  -1  -7  587.63   23.78
  -2  -1  -8  485.20   23.93
  -2  -1  -8  446.63   20.55
  -2  -1  -9 1161.79   43.62
  -2  -1  -9 1133.14   39.97
  -2  -1 -10  531.27   22.51
  -2  -1 -11   72.25    5.87
  -2  -1 -11   80.13    6.31
  -2  -1 -12    8.01    1.73
   2   2 -10  478.53   18.87
   2   2 -10  429.28   17.85
   2   2  -9  104.76    9.05
   2   2  -9   98.25    7.48
   2   2  -9  103.80    8.71
   2   2  -9  105.41    8.27
   2   2  -8   10.00    2.75
   2   2  -8   12.61    2.94
   2   2  -8   11.67    3.08
   2   2  -8    7.28    2.55
   2   2  -7  119.61   10.42
   2   2  -7  116.98    9.51
   2   2  -7  117.95   10.17
   2   2  -7  111.92    9.65
   2   2  -7  118.68   10.33
   2   2  -6 1032.67   37.84
   2   2  -5 1530.57   46.11
   2   2  -5 1587.25   50.52
   2   2  -4  328.47   15.96
   2   2  -4  311.71   12.62
   2   2  -3   57.23    3.91
  -2  -2   3   63.95    4.20
   2   2  -3   65.67    5.99
   2   2  -2  502.44   19.13
   2   2  -2  474.72   16.04
  -2  -2   2  509.54   15.44
   2   2  -2  455.17   15.01
   2   2  -1 4297.37  119.21
   2   2  -1 4506.32  122.97
  -2  -2   0 2660.30   67.58
  -2  -2   0 2578.40   68.53
   2   2   0 2529.32   70.60
   2   2   0 2596.35   68.46
   2   2   1 3448.07   90.00
   2   2   1 3625.50   91.80
  -2  -2  -1 3448.32   91.48
   2   2   2    8.23    1.43
  -2  -2  -2    7.02    1.28
   2   2   3   66.69    3.78
  -2  -2  -3   58.78    4.36
  -2  -2  -4 1059.46   32.96
  -2  -2  -5 2175.87   60.26
  -2  -2  -5 1979.98   57.90
  -2  -2  -6  700.93   26.12
  -2  -2  -7  216.62   12.88
  -2  -2  -8  115.58   10.87
  -2  -2  -8   96.22    8.33
  -2  -2  -8  105.55   10.85
  -2  -2  -9  471.51   24.41
  -2  -2  -9  411.46   20.08
  -2  -2  -9  465.54   23.75
  -2  -2 -10  456.75   22.32
  -2  -2 -10  439.38   19.96
  -2  -2 -11  308.12   14.24
  -2  -2 -12    4.21    0.98
   2   3 -10  220.22   11.04
   2   3 -10  223.57   11.05
   2   3  -9  192.77   12.20
   2   3  -9  183.25   11.26
   2   3  -9  198.94   12.23
   2   3  -9  175.90   10.96
   2   3  -9  179.44   10.64
   2   3  -8  129.42   10.00
   2   3  -8  119.48   10.58
   2   3  -8  121.66    9.10
   2   3  -8  134.01    9.74
   2   3  -8  137.24   10.99
   2   3  -8  131.58   10.66
   2   3  -8  129.26   10.14
   2   3  -7    6.98    2.38
   2   3  -7    6.42    2.33
   2   3  -7    5.91    2.09
   2   3  -7    9.23    2.88
   2   3  -7    5.71    2.33
   2   3  -7   10.61    2.99
   2   3  -6  671.11   27.65
   2   3  -6  608.32   26.18
   2   3  -6  642.26   27.36
   2   3  -6  701.84   28.94
   2   3  -6  634.33   27.65
   2   3  -6  591.13   27.36
   2   3  -5  842.26   29.83
   2   3  -5  892.37   33.31
   2   3  -4 1507.72   46.12
   2   3  -4 1665.90   51.54
   2   3  -3 1868.77   56.12
   2   3  -3 1731.37   50.01
   2   3  -2  218.62    9.58
   2   3  -2  235.32   12.80
   2   3  -2  208.23   12.68
   2   3  -1   98.67    5.31
   2   3  -1  108.55    7.44
   2   3  -1  100.34    7.89
   2   3   0  627.06   22.17
   2   3   0  584.85   18.02
   2   3   1 1427.56   38.04
   2   3   1 1425.51   40.65
   2   3   2 1265.66   35.49
  -2  -3  -2 1149.70   33.34
   2   3   3   36.01    3.16
  -2  -3  -3   38.96    3.39
  -2  -3  -4  402.23   15.95
  -2  -3  -5  661.78   24.81
  -2  -3  -5  770.44   26.36
  -2  -3  -6 2436.38   72.37
  -2  -3  -7  625.86   26.36
  -2  -3  -8  265.34   17.75
  -2  -3  -8  254.12   14.71
  -2  -3  -8  297.52   19.69
  -2  -3  -9   -0.59    1.34
  -2  -3  -9   -1.14    1.41
  -2  -3 -10  145.69   10.09
  -2  -3 -10  151.30   11.54
  -2  -3 -10  151.97   11.72
  -2  -3 -11  106.22    7.40
  -2  -3 -12  102.90    5.78
   2   4 -10   38.24    3.62
   2   4  -9  176.65   10.98
   2   4  -9  168.12   10.65
   2   4  -9  160.52    9.16
   2   4  -8  734.15   30.07
   2   4  -8  728.49   27.13
   2   4  -8  686.36   27.09
   2   4  -8  745.82   29.53
   2   4  -8  718.76   30.02
   2   4  -8  657.51   27.53
   2   4  -8  742.23   28.63
   2   4  -7  522.62   25.90
   2   4  -7  538.52   24.13
   2   4  -7  520.97   24.67
   2   4  -7  523.70   25.70
   2   4  -7  525.72   23.55
   2   4  -7  552.47   23.85
   2   4  -7  503.70   24.30
   2   4  -6  100.91   10.37
   2   4  -6  104.90    9.52
   2   4  -6  103.58    9.74
   2   4  -6  113.59    9.72
   2   4  -6   96.16    9.47
   2   4  -6  109.69    9.82
   2   4  -6  109.30    9.18
   2   4  -4  514.68   24.21
   2   4  -3 1206.13   43.01
   2   4  -2 1086.27   39.55
   2   4  -2 1058.27   38.04
   2   4  -1    2.56    1.38
   2   4  -1    2.61    0.88
   2   4  -1    1.71    1.10
   2   4   0    9.59    2.46
   2   4   0    8.33    1.45
   2   4   1 1489.32   46.31
   2   4   1 1518.45   42.69
  -2  -4  -2 1041.88   30.61
   2   4   2 1101.74   34.55
   2   4   2 1152.64   32.66
   2   4   3 1423.19   42.15
   2   4   3 1475.30   43.12
  -2  -4  -3 1446.02   41.56
  -2  -4  -4  735.70   25.14
  -2  -4  -5   32.00    4.21
  -2  -4  -5   35.76    4.53
  -2  -4  -6  124.40    9.35
  -2  -4  -6  145.51   10.47
  -2  -4  -7  404.01   20.74
  -2  -4  -8  477.40   25.70
  -2  -4  -8  452.10   21.21
  -2  -4  -8  493.62   26.88
  -2  -4  -9   56.28    6.39
  -2  -4  -9   77.26    9.23
  -2  -4  -9   60.79    7.72
  -2  -4 -10    0.76    0.50
  -2  -4 -10   -0.07    0.64
  -2  -4 -10   -0.47    1.00
  -2  -4 -11   95.34    6.80
  -2  -4 -11   94.62    7.23
   2   5  -9   62.26    5.51
   2   5  -9   62.77    5.77
   2   5  -8  314.50   16.27
   2   5  -8  302.06   15.16
   2   5  -8  308.26   16.85
   2   5  -8  287.09   15.29
   2   5  -7  760.56   32.63
   2   5  -7  779.20   30.35
   2   5  -7  736.49   29.82
   2   5  -7  756.97   31.01
   2   5  -7  741.22   31.76
   2   5  -7  707.41   30.17
   2   5  -6  438.00   21.42
   2   5  -6  410.88   22.35
   2   5  -6  405.73   20.40
   2   5  -6  458.65   21.76
   2   5  -6  377.11   21.03
   2   5  -6  431.58   23.60
   2   5  -6  474.90   22.77
   2   5  -6  409.54   21.89
   2   5  -6  418.80   19.71
   2   5  -5  235.46   14.31
   2   5  -5  185.67   14.67
   2   5  -5  221.45   13.76
   2   5  -5  214.32   13.15
   2   5  -5  237.86   15.93
   2   5  -5  214.06   15.07
   2   5  -5  183.53   13.53
   2   5  -4   21.65    4.82
   2   5  -3  694.06   31.20
   2   5  -3  649.92   31.83
   2   5  -2  376.90   21.96
   2   5  -1  873.30   28.55
   2   5  -1  933.38   36.87
   2   5   0  270.80   11.59
   2   5   0  276.41   16.02
   2   5   1    2.72    1.70
   2   5   1    2.80    1.05
   2   5   2  524.38   21.63
   2   5   2  508.07   18.21
   2   5   3 1264.33   38.06
   2   5   3 1244.92   40.48
  -2  -5  -4  546.64   20.25
   2   5   4  540.28   20.46
  -2  -5  -5  417.06   18.11
  -2  -5  -5  369.53   18.35
  -2  -5  -6    1.45    1.12
  -2  -5  -6    1.27    1.10
  -2  -5  -7  112.16    9.26
  -2  -5  -7  105.58   10.79
  -2  -5  -8  420.51   24.01
  -2  -5  -8  432.06   20.45
  -2  -5  -8  452.57   25.03
  -2  -5  -9  354.26   19.80
  -2  -5  -9  375.69   18.04
  -2  -5  -9  400.16   22.48
  -2  -5 -10   93.87    7.45
  -2  -5 -10   90.07    8.54
  -2  -5 -10   89.44    8.11
  -2  -5 -11   10.26    1.97
  -2  -5 -11    7.25    1.82
  -2  -5 -11    8.47    1.95
   2   6  -8   11.35    2.52
   2   6  -8   12.70    2.40
   2   6  -7   88.95    7.86
   2   6  -7   85.53    7.79
   2   6  -7   75.22    7.42
   2   6  -7   87.01    8.14
   2   6  -7   81.40    8.19
   2   6  -6  165.64   11.78
   2   6  -6  178.17   13.21
   2   6  -6  154.22   12.48
   2   6  -6  154.95   11.07
   2   6  -6  164.39   11.92
   2   6  -5  226.83   14.09
   2   6  -5  215.50   15.43
   2   6  -5  222.34   15.36
   2   6  -5  232.32   14.76
   2   6  -5  214.60   13.64
   2   6  -4   16.00    3.47
   2   6  -4   16.38    4.16
   2   6  -4   12.99    3.49
   2   6  -4   16.03    3.34
   2   6  -3   -2.29    1.94
   2   6  -2  600.17   32.50
   2   6  -1  740.37   35.04
   2   6   0 1427.03   43.77
   2   6   0 1555.27   53.67
   2   6   1  537.79   25.46
   2   6   1  526.57   19.28
   2   6   2    2.39    1.24
   2   6   3   21.51    4.11
  -2  -6  -4  517.26   23.64
  -2  -6  -5  290.19   16.61
  -2  -6  -6  180.13   13.81
  -2  -6  -7    2.73    1.72
  -2  -6  -8  105.36    8.71
  -2  -6  -8  108.08   11.20
  -2  -6  -9  127.71   10.57
  -2  -6  -9  134.00    9.37
  -2  -6  -9  149.57   12.54
  -2  -6 -10  258.78   14.72
  -2  -6 -10  263.28   14.04
  -2  -6 -10  263.97   12.53
  -2  -6 -11  140.28    6.97
  -2  -6 -11  123.30    7.22
   2   7  -7    2.61    1.16
   2   7  -7    1.73    0.97
   2   7  -7    4.72    1.55
   2   7  -6   61.57    7.13
   2   7  -6   56.28    5.79
   2   7  -6   57.60    6.84
   2   7  -6   62.98    6.81
   2   7  -6   54.83    5.95
   2   7  -5  243.74   15.16
   2   7  -5  235.81   15.79
   2   7  -5  225.76   15.45
   2   7  -5  227.22   15.47
   2   7  -5  225.84   13.56
   2   7  -4  724.24   29.55
   2   7  -4  737.66   33.68
   2   7  -4  746.30   36.76
   2   7  -4  841.34   33.30
   2   7  -4  796.88   33.37
   2   7  -3  113.14   10.51
   2   7  -3   92.16    8.82
   2   7  -3  100.55   10.65
   2   7  -3  104.65    9.46
   2   7  -3   97.57   12.71
   2   7  -2  117.62   11.04
   2   7  -2   99.81    8.80
   2   7  -1   70.22    8.09
   2   7  -1   77.99   11.38
   2   7  -1   67.74    7.17
   2   7   0  534.28   29.40
   2   7   1  231.21   17.32
   2   7   2  297.58   19.36
  -2  -7  -2  310.07   17.97
  -2  -7  -3    3.18    1.99
   2   7   3    7.15    2.57
   2   7   4  133.75   11.66
   2   7   4   96.93   10.22
   2   7   5  374.61   22.20
  -2  -7  -5  335.10   19.64
  -2  -7  -6  290.53   18.62
  -2  -7  -7  282.99   18.36
  -2  -7  -8  144.90   12.58
  -2  -7  -9    9.20    2.54
  -2  -7  -9   10.69    3.05
  -2  -7 -10   35.51    4.21
  -2  -7 -10   35.55    4.52
   2   8  -7  113.91    7.01
   2   8  -6   15.37    2.98
   2   8  -6   13.76    2.86
   2   8  -5  163.04   12.10
   2   8  -5  169.26   11.93
   2   8  -5  172.38   12.63
   2   8  -5  174.50   11.93
   2   8  -4  118.49   11.99
   2   8  -4  140.31   11.42
   2   8  -4  111.69    9.94
   2   8  -4  118.53   11.08
   2   8  -4   99.65    8.39
   2   8  -4  114.09   10.80
   2   8  -4  102.48    9.39
   2   8  -3  353.81   20.65
   2   8  -3  374.12   22.35
   2   8  -3  361.53   25.33
   2   8  -3  320.34   18.52
   2   8  -2  348.73   21.31
   2   8  -2  321.92   18.20
   2   8  -2  352.71   19.65
   2   8  -1    7.35    2.49
   2   8  -1   12.87    3.81
   2   8  -1    7.73    4.24
   2   8  -1   11.81    3.00
   2   8   0   10.21    4.22
   2   8   0    9.60    2.91
   2   8   0    8.37    2.84
   2   8   1  215.91   14.56
   2   8   1  229.34   18.50
   2   8   2  111.81   10.07
   2   8   2  105.53   11.70
   2   8   3  363.05   21.28
   2   8   3  360.38   22.62
   2   8   4   28.18    5.88
   2   8   4   24.87    5.51
   2   8   5    4.10    1.85
   2   8   5   -0.85    1.35
  -2  -8  -5    2.50    1.52
  -2  -8  -6   84.06    9.35
  -2  -8  -7  271.05   17.58
   2   8   8   71.35    8.04
  -2  -8  -8   92.84    9.34
  -2  -8  -9   52.24    6.21
   2   9  -6   63.05    5.14
   2   9  -5   87.53    7.45
   2   9  -5   99.42    8.12
   2   9  -4    2.67    0.95
   2   9  -4    2.37    1.43
   2   9  -3   52.68    7.31
   2   9  -3   43.18    7.25
   2   9  -3   49.12    6.77
   2   9  -2  114.03   11.41
   2   9  -2   89.78   11.62
   2   9  -2  112.78   10.12
   2   9  -1   71.92    8.69
   2   9  -1   73.36    7.83
   2   9   0    5.49    2.26
   2   9   0    6.77    2.27
   2   9   0    4.40    2.64
   2   9   1    8.81    2.83
   2   9   1   11.17    4.17
   2   9   2  173.77   13.46
   2   9   2  215.91   18.07
   2   9   2  188.89   13.62
   2   9   3  260.08   19.50
   2   9   3  232.26   16.61
   2   9   4  136.68   13.06
   2   9   4  141.41   13.55
  -2  -9  -4  125.48   11.43
   2   9   5  145.71   12.59
  -2  -9  -5  147.70   12.38
  -2  -9  -6    3.61    2.28
  -2  -9  -7   11.40    2.88
  -2  -9  -8   70.97    6.75
   2   9   8   77.80    7.17
  -2  -9  -8   89.25    8.09
   2  10  -4   23.29    3.58
   2  10  -4   28.40    3.85
   2  10  -3   -0.32    0.66
   2  10  -3    1.58    1.07
   2  10  -3    0.96    1.14
   2  10  -2   69.87    7.82
   2  10  -2   62.03    6.68
   2  10  -2   54.44    7.56
   2  10  -1   44.42    5.47
   2  10  -1   42.58    7.31
   2  10  -1   48.95    6.53
   2  10   0  177.44   12.04
   2  10   0  205.94   13.57
   2  10   1   29.50    4.67
   2  10   1   36.23    7.25
   2  10   1   28.82    4.65
   2  10   2   16.57    5.18
   2  10   2   11.59    3.00
   2  10   3   11.86    3.28
   2  10   3   16.22    4.68
   2  10   4   74.20    8.56
   2  10   4   73.74    9.28
   2  10   5   37.84    5.56
  -2 -10  -5   38.71    5.39
  -2 -10  -6   37.00    5.04
   2  10   7   -0.35    0.50
  -2 -10  -7    0.67    0.60
   2  11  -2    7.02    1.90
   2  11  -1   13.56    2.56
   2  11  -1   16.42    3.38
   2  11  -1   17.52    3.13
   2  11   0   24.31    4.65
   2  11   0   19.75    3.33
   2  11   0   24.07    3.62
   2  11   1   56.74    5.80
   2  11   1   65.61    8.18
   2  11   2   24.44    4.33
   2  11   2   14.70    3.78
   2  11   2   19.75    3.41
   2  11   3   -1.47    1.55
   2  11   3    1.12    0.95
   2  11   3   -1.32    1.23
   2  11   4   -0.76    1.03
   2  11   4   -0.66    1.04
   2  11   5   58.43    5.84
  -3   9   4   54.76    7.45
   3  -9  -4   64.96    6.18
  -3   9   3   33.36    6.00
  -3   9   3   40.01    6.60
  -3   9   2    9.46    3.43
  -3   9   2    7.66    2.86
  -3   9   1   36.01    5.30
  -3   9   1   34.05    6.08
  -3   9   1   33.86    6.35
  -3   9   0  108.11    9.14
  -3   9   0  122.27   10.76
  -3   9   0   98.99   10.13
  -3   9  -1  126.08   11.23
  -3   9  -1   98.23    8.32
  -3   9  -1  125.47   11.60
  -3   9  -2    0.56    1.16
  -3   9  -3    0.09    1.95
  -3   9  -3    4.55    1.80
  -3   9  -4   76.75    7.00
  -3   9  -4   80.83    7.44
  -3   8   6    9.28    2.73
   3  -8  -6    7.51    1.71
  -3   8   5    8.11    3.20
  -3   8   5   10.26    3.08
   3  -8  -5   11.31    2.73
  -3   8   4  197.25   14.81
  -3   8   4  202.80   16.82
  -3   8   3   49.18    8.09
  -3   8   3   46.19    7.07
  -3   8   2   39.18    7.14
  -3   8   2   38.66    6.14
  -3   8   2   37.08    6.75
  -3   8   1   22.60    4.73
  -3   8   1   27.84    4.92
  -3   8   1   29.19    6.11
  -3   8   1   21.13    5.48
  -3   8   0  206.41   15.16
  -3   8   0  194.80   13.67
  -3   8   0  163.39   14.52
  -3   8   0  179.54   15.41
  -3   8  -1   91.10    8.99
  -3   8  -1   96.98   10.35
  -3   8  -1   89.51   10.25
  -3   8  -2  279.41   18.56
  -3   8  -2  232.58   15.11
  -3   8  -2  293.11   18.49
  -3   8  -3   69.81    8.71
  -3   8  -3   74.42    8.99
  -3   8  -4    0.65    1.01
  -3   8  -4    0.16    1.68
  -3   8  -4    1.37    2.04
  -3   8  -5   16.88    3.43
  -3   8  -5   18.42    4.09
  -3   8  -5   22.07    4.82
  -3   8  -6   98.30    7.08
  -3   8  -6  110.19    8.73
  -3   8  -6  122.51    9.34
  -3   7   7   50.65    5.88
  -3   7   6   95.72    9.99
   3  -7  -6   76.21    7.28
  -3   7   6   95.88   10.35
  -3   7   5   23.99    5.02
   3  -7  -5   42.39    5.83
  -3   7   5   32.87    7.24
   3  -7  -4  127.04   10.49
  -3   7   4  104.03   10.64
  -3   7   4  138.94   15.97
  -3   7   3  372.75   22.36
   3  -7  -3  375.05   19.74
  -3   7   3  369.63   26.86
  -3   7   3  313.02   20.06
  -3   7   2  317.83   19.50
  -3   7   2  291.57   22.53
  -3   7   2  257.05   18.31
  -3   7   1   96.53   10.19
   3  -7  -1  110.54   10.76
  -3   7   1   93.44    9.84
  -3   7   1   85.26   10.96
  -3   7   1   75.23    9.61
  -3   7   0   81.18    9.45
   3  -7   0   83.29    9.30
  -3   7   0   74.04    9.77
  -3   7   0   76.75    9.60
  -3   7  -1  111.45   11.79
  -3   7  -1  125.16   11.85
  -3   7  -2  147.03   14.64
  -3   7  -3  358.30   25.06
  -3   7  -4   98.31   12.59
  -3   7  -5    1.58    1.21
  -3   7  -6   57.67    6.94
  -3   7  -6   78.38    9.48
  -3   7  -7  301.35   15.96
  -3   7  -7  274.48   13.57
  -3   7  -7  269.94   13.18
  -3   7  -8  260.88   12.05
  -3   6   8   27.82    3.90
   3  -6  -8   36.10    3.41
   3  -6  -7  248.67   12.62
   3  -6  -6  255.30   15.57
  -3   6   6  258.09   17.62
  -3   6   5  238.91   17.02
   3  -6  -5  253.94   16.07
  -3   6   4    6.66    2.84
  -3   6   4    3.22    1.58
   3  -6  -4    6.37    2.60
  -3   6   3  101.11   11.10
   3  -6  -3  103.95    9.78
   3  -6  -2  305.30   19.00
  -3   6   2  262.92   18.01
   3  -6  -2  253.85   15.72
   3  -6  -1 1053.42   41.22
  -3   6   1  968.53   45.56
  -3   6   1  971.53   39.50
   3  -6   0  138.25   12.02
  -3   6   0  121.15   12.46
  -3   6  -1   45.05    6.40
  -3   6  -1   50.77    7.32
  -3   6  -2   82.22    8.84
  -3   6  -2  105.64   11.35
  -3   6  -3  293.85   18.44
  -3   6  -3  376.40   24.20
  -3   6  -4  466.96   29.37
  -3   6  -4  467.38   28.79
  -3   6  -5  471.90   29.91
  -3   6  -5  486.18   29.62
  -3   6  -6    3.00    2.54
  -3   6  -6    5.61    3.41
  -3   6  -7   34.60    6.00
  -3   6  -7   28.33    5.72
  -3   6  -8  117.00    9.14
  -3   6  -8  124.04    9.75
  -3   6  -9  150.70    8.28
  -3   6  -9  159.13    8.67
   3  -5  -9   68.91    4.73
   3  -5  -8    6.64    1.72
   3  -5  -8    7.72    2.03
   3  -5  -7   85.16    7.96
   3  -5  -7  102.68    8.97
   3  -5  -7  118.31    9.40
   3  -5  -6  785.92   32.71
   3  -5  -6  806.42   31.96
   3  -5  -5  678.88   29.78
  -3   5   5  656.38   30.67
   3  -5  -5  694.17   28.51
  -3   5   4  508.12   27.01
   3  -5  -4  465.43   23.20
   3  -5  -3  233.57   16.08
  -3   5   3  263.14   17.78
   3  -5  -3  241.14   15.02
   3  -5  -2  114.16    9.38
  -3   5   2  114.20    9.98
   3  -5  -1  179.17   11.37
  -3   5   0  531.11   27.47
  -3   5  -1  292.04   18.53
  -3   5  -2   71.46    8.38
  -3   5  -3   92.80   10.86
  -3   5  -4  617.15   33.39
  -3   5  -4  647.80   33.97
  -3   5  -5  342.26   20.49
  -3   5  -5  406.69   27.59
  -3   5  -5  427.22   22.38
  -3   5  -5  399.44   26.51
  -3   5  -6  703.87   37.10
  -3   5  -6  672.35   35.56
  -3   5  -7  117.94   12.34
  -3   5  -7  111.63   12.27
  -3   5  -8    7.41    3.33
  -3   5  -8    5.90    2.92
  -3   5  -9   49.12    5.40
  -3   5  -9   52.45    5.84
   3  -4  -9  254.41   12.14
   3  -4  -8  309.93   16.26
   3  -4  -8  397.69   18.16
   3  -4  -7   38.85    5.73
   3  -4  -7   31.66    5.23
   3  -4  -7   41.71    5.63
   3  -4  -6   55.37    7.01
   3  -4  -6   61.93    7.16
   3  -4  -5  198.64   13.67
   3  -4  -5  196.55   13.28
  -3   4   4  556.79   25.75
   3  -4  -4  501.41   22.76
   3  -4  -4  541.70   23.96
  -3   4   3  321.56   17.51
  -3   4   2  163.76   11.22
   3  -4  -2  159.34   10.61
  -3   4   1  196.26   12.10
   3  -4  -1  212.88   11.63
   3  -4   0  400.18   16.69
  -3   4   0  413.85   18.16
  -3   4  -1 1363.42   42.81
  -3   4  -2 1336.08   46.01
  -3   4  -3  322.56   17.15
  -3   4  -4   50.02    5.92
  -3   4  -5  303.02   23.01
  -3   4  -5  257.06   16.03
  -3   4  -5  296.60   17.85
  -3   4  -5  283.52   21.52
  -3   4  -5  321.75   22.34
  -3   4  -6  425.88   26.89
  -3   4  -6  423.60   27.98
  -3   4  -6  385.44   21.77
  -3   4  -6  373.19   25.68
  -3   4  -7  294.79   21.48
  -3   4  -7  272.56   17.91
  -3   4  -7  252.51   19.73
  -3   4  -7  296.67   20.67
  -3   4  -8  246.63   16.92
  -3   4  -8  256.80   18.06
  -3   4  -8  251.18   17.88
  -3   4  -9   41.88    5.93
  -3   4  -9   44.38    6.29
  -3   4  -9   46.23    6.00
  -3   4 -10  134.89    8.99
  -3   4 -10  135.40    8.71
   3  -3 -10   10.41    1.62
   3  -3  -9  330.04   15.41
   3  -3  -9  340.50   15.38
   3  -3  -8  293.14   16.78
   3  -3  -8  356.17   17.61
   3  -3  -7  399.66   19.29
   3  -3  -7  395.50   21.47
   3  -3  -7  434.26   21.07
   3  -3  -6  181.14   12.81
   3  -3  -6  196.97   12.79
   3  -3  -5    5.44    1.79
   3  -3  -5    6.45    2.10
  -3   3   4  261.42   15.27
  -3   3   3 1134.47   39.05
  -3   3   2  913.40   32.53
   3  -3  -2  952.62   32.42
  -3   3   1  690.17   25.23
   3  -3  -1  675.36   24.26
  -3   3   0    6.34    1.78
  -3   3  -1  817.70   27.57
  -3   3  -2  833.97   26.32
  -3   3  -2  825.12   27.84
  -3   3  -3 1131.77   35.66
  -3   3  -3 1137.40   37.48
  -3   3  -3 1073.23   35.78
  -3   3  -4  288.85   14.48
  -3   3  -4  271.95   14.17
  -3   3  -5    8.02    2.46
  -3   3  -6  368.16   24.14
  -3   3  -6  333.90   18.42
  -3   3  -6  307.02   18.65
  -3   3  -7  763.36   34.17
  -3   3  -7  901.80   39.93
  -3   3  -8  554.26   27.23
  -3   3  -8  556.32   28.44
  -3   3  -9  422.18   21.71
  -3   3 -10   43.51    5.47
  -3   3 -10   38.40    5.27
  -3   3 -10   47.24    5.47
  -3   3 -11   29.76    3.30
  -3   3 -11   31.81    3.28
  -3   3 -11   31.30    3.48
  -3   3 -11   29.51    3.27
   3  -2 -10   57.76    4.25
   3  -2 -10   61.54    4.47
   3  -2  -9    1.99    1.29
   3  -2  -9    3.30    1.31
   3  -2  -8  139.66    9.95
   3  -2  -8  144.08   11.27
   3  -2  -8  156.05   10.96
   3  -2  -7  396.32   21.26
   3  -2  -7  384.75   19.49
   3  -2  -6  461.27   23.21
   3  -2  -6  468.02   20.62
   3  -2  -6  461.90   21.61
  -3   2   5  417.62   20.94
  -3   2   4  115.12    9.08
  -3   2   3  772.68   28.12
  -3   2   2 2631.34   74.79
  -3   2   1 1318.08   40.31
  -3   2   0 1329.99   40.17
  -3   2  -1   47.15    3.06
  -3   2  -1   51.29    4.50
  -3   2  -2  299.17   12.93
  -3   2  -3  767.16   26.12
  -3   2  -4  680.66   25.01
  -3   2  -5  498.61   20.64
  -3   2  -6    9.19    2.41
  -3   2  -7  129.37   10.63
  -3   2  -7  126.27   11.46
  -3   2  -8 1104.31   43.26
  -3   2  -8 1105.46   44.80
  -3   2  -9  754.08   32.86
  -3   2 -10  359.34   18.57
  -3   2 -11   46.13    4.90
  -3   2 -11   50.11    5.18
  -3   2 -11   48.05    4.89
   3  -1 -10  218.51    9.59
   3  -1 -10  190.42    8.80
   3  -1 -10  210.95    9.25
   3  -1  -9   33.96    4.41
   3  -1  -9   32.66    4.09
   3  -1  -9   33.41    4.17
   3  -1  -8    0.77    1.18
   3  -1  -8    1.10    1.08
   3  -1  -8    1.36    0.84
   3  -1  -7  394.21   20.96
   3  -1  -7  390.49   19.18
   3  -1  -6 1291.21   45.61
   3  -1  -6 1235.45   42.60
  -3   1   5  952.29   35.97
  -3   1   4  765.88   28.85
  -3   1   3    9.34    2.18
  -3   1   2  101.09    6.84
  -3   1   1 1150.28   35.02
  -3   1   0 1814.39   56.01
   3  -1   0 2057.12   52.00
  -3   1  -1  123.30    7.14
  -3   1  -2  132.96    7.59
  -3   1  -3   96.09    6.45
  -3   1  -4 1657.56   49.50
  -3   1  -5 3055.00   85.88
  -3   1  -6 1009.21   34.78
  -3   1  -7  205.73   12.66
  -3   1  -8    9.09    3.14
  -3   1  -8    7.45    2.57
  -3   1 -10  394.00   20.63
  -3   1 -11  129.27    9.13
   3   0 -10  222.70   10.81
   3   0 -10  203.40    9.33
   3   0 -10  206.04    9.70
   3   0  -9  394.74   17.53
   3   0  -9  377.36   16.31
   3   0  -9  377.06   17.24
   3   0  -8  225.39   13.92
   3   0  -8  247.78   14.88
   3   0  -8  231.33   13.31
   3   0  -7    0.50    0.58
   3   0  -7    1.56    1.00
   3   0  -6   30.72    5.10
   3   0  -6   28.60    4.21
   3   0  -5 1257.64   46.33
  -3   0   5 1545.59   48.21
  -3   0   4  911.81   32.34
  -3   0   3 1339.55   41.72
  -3   0   2  237.19   10.96
   3   0  -1  138.26    5.66
  -3   0   1  121.54    6.89
  -3   0   0 1169.82   36.08
   3   0   0 1258.01   33.32
  -3   0  -1 3244.52   87.88
  -3   0  -2 3516.70   94.76
  -3   0  -3  559.73   19.98
  -3   0  -4  224.68   11.02
  -3   0  -5  869.24   29.50
  -3   0  -6  785.55   28.39
  -3   0  -7 1066.48   37.32
  -3   0  -8  179.90   12.19
  -3   0  -8  202.33   14.06
  -3   0  -8  161.99   11.15
  -3   0  -8  185.19   14.87
  -3   0  -9    4.77    1.73
  -3   0  -9    4.90    1.84
  -3   0  -9    4.30    1.66
  -3   0 -10  146.11    9.83
  -3   0 -11  440.24   20.20
  -3   0 -12  261.40   11.51
   3   1 -10  100.70    6.66
   3   1 -10   95.25    5.58
   3   1 -10   93.93    6.15
   3   1  -9  399.50   17.24
   3   1  -9  371.46   17.36
   3   1  -8  965.15   36.56
   3   1  -8 1027.95   35.85
   3   1  -8 1006.91   36.66
   3   1  -7 1121.45   39.88
   3   1  -7 1155.09   42.03
   3   1  -6   36.43    5.62
   3   1  -5   17.86    3.61
  -3  -1   4  728.54   25.80
   3   1  -4  599.56   25.70
  -3  -1   3 2363.95   67.28
  -3  -1   2 1255.04   37.56
   3   1  -1  792.78   22.57
  -3  -1   1  707.78   23.66
  -3  -1   0  519.93   17.93
   3   1   0  522.56   15.98
  -3  -1  -1 1300.78   38.51
   3   1   1 1303.67   36.22
  -3  -1  -2 4358.68  115.80
  -3  -1  -2 4370.09  115.33
  -3  -1  -3 1551.29   45.48
  -3  -1  -4  537.37   19.95
  -3  -1  -5   41.44    4.42
  -3  -1  -6  262.26   13.44
  -3  -1  -7  871.51   31.95
  -3  -1  -8  458.91   21.03
  -3  -1  -8  482.22   25.46
  -3  -1  -9  229.18   14.98
  -3  -1  -9  252.56   14.47
  -3  -1  -9  258.87   17.53
  -3  -1 -10    2.38    1.37
  -3  -1 -11   93.72    6.99
  -3  -1 -12  361.30   14.83
   3   2 -10   74.14    5.29
   3   2 -10   65.89    5.03
   3   2  -9    7.66    2.24
   3   2  -9    5.57    1.64
   3   2  -9    9.60    2.08
   3   2  -9    6.45    1.87
   3   2  -8  470.70   21.08
   3   2  -8  494.92   21.71
   3   2  -8  478.86   22.51
   3   2  -7  258.16   15.96
   3   2  -7  258.59   14.97
   3   2  -7  245.11   15.35
   3   2  -6  566.06   24.65
   3   2  -6  554.76   25.47
   3   2  -6  648.31   27.91
   3   2  -6  625.58   27.20
   3   2  -5   90.52    8.68
   3   2  -4  121.96    9.48
   3   2  -3 1268.47   41.77
   3   2  -2 2826.62   85.23
   3   2  -2 2953.20   82.02
  -3  -2   1 1551.10   41.15
   3   2  -1 1415.62   39.91
   3   2   0 1892.68   53.03
  -3  -2   0 2056.66   54.88
   3   2   1   21.05    2.23
  -3  -2  -1   18.91    2.25
  -3  -2  -2  304.79   12.52
  -3  -2  -3  408.86   15.98
  -3  -2  -4 1407.15   42.77
  -3  -2  -5  152.09    9.32
  -3  -2  -6   10.47    2.44
  -3  -2  -7  314.69   16.41
  -3  -2  -8  927.24   37.93
  -3  -2  -8  810.85   31.96
  -3  -2  -8  914.99   38.29
  -3  -2  -9  713.65   30.44
  -3  -2  -9  741.09   33.27
  -3  -2  -9  685.70   28.25
  -3  -2 -10  343.81   17.99
  -3  -2 -10  317.13   16.41
  -3  -2 -10  344.64   19.53
  -3  -2 -11   13.31    2.49
  -3  -2 -12   21.66    2.58
   3   3 -10  300.47   12.01
   3   3  -9   56.78    5.61
   3   3  -9   47.06    4.85
   3   3  -9   48.49    5.26
   3   3  -9   54.19    4.88
   3   3  -8   -0.78    1.56
   3   3  -8   -0.53    1.08
   3   3  -8    0.37    0.83
   3   3  -8    0.37    0.56
   3   3  -8    0.98    1.01
   3   3  -8    0.40    0.37
   3   3  -7  128.61   11.13
   3   3  -7  130.95   10.24
   3   3  -7  122.92   10.10
   3   3  -7  128.72   10.91
   3   3  -7  126.54   10.78
   3   3  -6  420.24   21.78
   3   3  -6  428.80   22.25
   3   3  -6  426.19   20.94
   3   3  -6  464.39   22.81
   3   3  -6  421.62   21.58
   3   3  -6  463.57   22.43
   3   3  -5 1006.03   37.96
   3   3  -4  201.98   13.16
   3   3  -3   13.66    3.07
   3   3  -2    2.64    1.04
   3   3  -2    7.55    2.26
   3   3  -1 2497.50   68.01
   3   3  -1 2508.41   72.73
   3   3   0 1454.46   44.05
   3   3   0 1494.99   42.04
   3   3   1  353.58   12.69
   3   3   1  348.68   15.53
   3   3   1  340.03   11.06
   3   3   2  114.23    6.51
  -3  -3  -2  122.47    6.52
   3   3   2  132.06    8.14
  -3  -3  -3  781.73   26.45
   3   3   3  857.23   27.28
  -3  -3  -4  947.06   31.62
  -3  -3  -5 2055.78   61.42
  -3  -3  -6  858.93   31.81
  -3  -3  -7   24.97    4.36
  -3  -3  -8   27.24    5.65
  -3  -3  -8   23.54    4.19
  -3  -3  -8   24.54    5.28
  -3  -3  -9  364.09   21.16
  -3  -3  -9  375.19   22.09
  -3  -3  -9  346.63   19.73
  -3  -3  -9  358.09   18.18
  -3  -3 -10  278.78   14.94
  -3  -3 -10  284.27   16.21
  -3  -3 -10  295.40   17.80
  -3  -3 -11  177.13   10.15
  -3  -3 -11  182.90   11.30
  -3  -3 -12    3.24    0.89
   3   4  -9  165.02    9.47
   3   4  -9  142.81    7.57
   3   4  -8   77.21    7.47
   3   4  -8   80.58    7.18
   3   4  -8   86.56    7.96
   3   4  -8   85.69    7.15
   3   4  -8   78.82    7.51
   3   4  -8   64.72    6.12
   3   4  -7    6.40    2.31
   3   4  -7    5.80    2.16
   3   4  -7   10.44    2.83
   3   4  -7    8.58    2.97
   3   4  -7    8.71    2.64
   3   4  -6  286.11   17.95
   3   4  -6  288.11   16.89
   3   4  -6  328.42   18.15
   3   4  -6  335.03   18.29
   3   4  -6  324.12   19.00
   3   4  -6  312.25   17.42
   3   4  -6  294.42   17.58
   3   4  -5  959.49   39.03
   3   4  -5 1072.92   39.59
   3   4  -5 1039.72   40.02
   3   4  -5 1066.69   40.08
   3   4  -5 1059.08   38.97
   3   4  -5 1103.74   39.31
   3   4  -4  982.22   37.50
   3   4  -3 1416.63   48.59
   3   4  -2   25.80    4.36
   3   4  -2   34.63    3.78
   3   4  -1  138.43    9.43
   3   4  -1  141.62   11.25
   3   4  -1  136.12    7.52
   3   4   0  823.64   26.17
   3   4   0  809.94   26.88
   3   4   0  878.02   32.67
   3   4   1 1294.90   43.02
   3   4   1 1292.82   38.38
  -3  -4  -2  223.71    8.97
   3   4   2  243.48   10.87
   3   4   2  260.51   13.26
   3   4   3   90.91    6.30
  -3  -4  -3   90.76    5.86
   3   4   3   91.50    7.13
  -3  -4  -4  341.50   15.03
  -3  -4  -5 1045.46   36.05
  -3  -4  -6 1123.12   37.87
  -3  -4  -6  884.33   33.70
  -3  -4  -7  903.87   35.69
  -3  -4  -8   23.53    5.52
  -3  -4  -8   25.30    4.39
  -3  -4  -8   24.85    5.42
  -3  -4  -9    0.68    1.07
  -3  -4  -9    2.13    1.55
  -3  -4  -9   -0.48    1.34
  -3  -4  -9    1.95    1.46
  -3  -4 -10  232.82   15.32
  -3  -4 -10  212.61   13.54
  -3  -4 -10  231.06   12.97
  -3  -4 -11  204.77   10.73
  -3  -4 -11  204.38   11.05
  -3  -4 -11  207.23   12.06
  -3  -4 -12  144.98    7.15
   3   5  -9  210.52    9.82
   3   5  -8  509.88   21.71
   3   5  -8  491.00   20.71
   3   5  -8  490.17   19.70
   3   5  -8  490.61   20.38
   3   5  -7  300.10   16.85
   3   5  -7  277.34   15.56
   3   5  -7  310.17   16.20
   3   5  -7  268.60   16.47
   3   5  -7  274.56   15.81
   3   5  -7  282.29   15.52
   3   5  -6   36.54    5.80
   3   5  -6   35.65    5.51
   3   5  -6   31.09    5.01
   3   5  -6   35.43    5.54
   3   5  -6   34.39    5.74
   3   5  -6   35.72    5.37
   3   5  -6   35.26    5.09
   3   5  -5  115.61   10.70
   3   5  -5  119.71   10.28
   3   5  -5  137.41   10.99
   3   5  -5  143.04   11.97
   3   5  -5  132.29   10.48
   3   5  -5  130.81   11.12
   3   5  -5  128.24   11.54
   3   5  -5  118.71   10.62
   3   5  -4  347.71   19.05
   3   5  -4  337.13   19.98
   3   5  -4  400.98   20.66
   3   5  -4  371.18   18.67
   3   5  -4  400.22   21.32
   3   5  -4  386.51   18.51
   3   5  -3  566.28   26.81
   3   5  -2  428.01   21.52
   3   5  -1   16.33    2.63
   3   5  -1   12.60    2.90
   3   5  -1   22.01    4.84
   3   5   0  304.36   13.38
   3   5   0  346.83   19.77
   3   5   1  394.62   15.81
   3   5   1  395.04   20.53
   3   5   2 2501.23   69.89
   3   5   2 2450.90   74.89
   3   5   3 1141.19   36.43
   3   5   3 1151.55   39.33
   3   5   4  264.51   13.27
  -3  -5  -5    0.95    1.00
   3   5   5    1.86    1.20
  -3  -5  -6  211.15   13.38
  -3  -5  -6  239.04   14.74
  -3  -5  -7  176.18   14.56
  -3  -5  -7  179.51   12.30
  -3  -5  -8  523.57   28.00
  -3  -5  -8  536.24   23.73
  -3  -5  -8  508.04   27.68
  -3  -5  -9   16.62    4.09
  -3  -5  -9   18.37    3.63
  -3  -5  -9   23.00    5.23
  -3  -5 -10   29.46    4.60
  -3  -5 -10   29.95    4.48
  -3  -5 -10   27.88    3.92
  -3  -5 -10   29.70    5.01
  -3  -5 -11   74.75    5.82
  -3  -5 -11   77.93    5.75
  -3  -5 -11   70.09    6.30
   3   6  -8  159.53    8.91
   3   6  -7  390.23   18.18
   3   6  -7  382.81   17.95
   3   6  -7  383.15   19.17
   3   6  -7  404.16   18.21
   3   6  -6  226.49   13.80
   3   6  -6  231.16   13.90
   3   6  -6  210.83   14.56
   3   6  -6  208.34   13.79
   3   6  -6  214.46   13.87
   3   6  -6  219.61   12.74
   3   6  -6  229.89   14.15
   3   6  -5    3.41    1.52
   3   6  -5    3.86    1.67
   3   6  -5    5.38    2.38
   3   6  -5    3.68    2.07
   3   6  -4    2.37    1.29
   3   6  -4    5.42    1.80
   3   6  -4    1.98    1.79
   3   6  -4    2.85    1.90
   3   6  -4    3.83    1.69
   3   6  -4    8.58    2.77
   3   6  -4    2.98    1.69
   3   6  -3  334.86   22.32
   3   6  -3  375.27   19.36
   3   6  -3  352.20   20.16
   3   6  -3  331.18   16.81
   3   6  -3  364.19   19.46
   3   6  -1  697.70   26.08
   3   6  -1  756.61   36.37
   3   6   0  362.87   16.00
   3   6   0  412.52   24.04
   3   6   1   19.13    4.54
   3   6   1    9.96    2.23
   3   6   2  363.14   16.19
   3   6   2  428.86   22.06
   3   6   3  573.40   22.51
   3   6   3  633.09   27.03
   3   6   4  529.05   21.74
  -3  -6  -5   94.08    8.98
  -3  -6  -6   15.07    3.89
  -3  -6  -7  411.73   23.43
  -3  -6  -8  174.06   11.70
  -3  -6  -8  159.02   13.85
  -3  -6  -9  254.74   16.60
  -3  -6  -9  267.26   14.18
  -3  -6  -9  270.44   17.58
  -3  -6 -10  137.15    9.72
  -3  -6 -10  147.86    9.91
  -3  -6 -10  148.68    8.98
  -3  -6 -10  159.30   11.37
  -3  -6 -11    5.21    1.32
  -3  -6 -11    3.78    1.09
  -3  -6 -11    3.97    1.60
   3   7  -7   64.50    5.71
   3   7  -6  110.31    8.87
   3   7  -6  108.67    8.39
   3   7  -6  116.13    9.58
   3   7  -6  118.15    9.22
   3   7  -6  118.19    8.75
   3   7  -5  212.02   13.05
   3   7  -5  214.22   13.49
   3   7  -5  231.75   15.05
   3   7  -5  228.59   14.28
   3   7  -5  221.00   15.04
   3   7  -4  192.61   14.14
   3   7  -4  176.53   13.90
   3   7  -4  183.00   15.40
   3   7  -4  175.61   12.48
   3   7  -4  185.91   14.08
   3   7  -4  184.12   12.00
   3   7  -4  191.04   13.45
   3   7  -3   20.19    5.49
   3   7  -3   13.22    3.92
   3   7  -3   18.19    4.01
   3   7  -3   15.15    3.75
   3   7  -3   21.02    3.72
   3   7  -2  336.73   20.14
   3   7  -2  359.24   24.94
   3   7  -2  341.19   18.84
   3   7  -2  321.72   17.10
   3   7  -2  297.13   15.93
   3   7  -1  402.32   21.72
   3   7  -1  417.34   20.34
   3   7   0  559.87   25.71
   3   7   0  584.51   23.14
   3   7   1  567.72   31.44
   3   7   2   27.23    5.78
   3   7   3   70.71    9.01
   3   7   4  180.07   13.26
  -3  -7  -4  214.32   14.86
   3   7   5  365.07   21.15
  -3  -7  -5  395.65   21.82
  -3  -7  -6   37.10    6.31
  -3  -7  -7   11.13    3.60
  -3  -7  -8   36.08    6.32
  -3  -7  -9  205.98   13.94
  -3  -7  -9  229.55   15.06
  -3  -7 -10  116.01    7.75
  -3  -7 -10  106.06    7.57
  -3  -7 -10  119.48    8.92
   3   8  -6  134.00    8.79
   3   8  -6  131.72    8.59
   3   8  -5  246.57   13.85
   3   8  -5  253.34   13.35
   3   8  -5  230.88   14.09
   3   8  -5  234.72   14.28
   3   8  -5  239.86   14.03
   3   8  -4  396.97   20.44
   3   8  -4  394.39   19.26
   3   8  -4  404.20   21.52
   3   8  -4  392.87   22.54
   3   8  -4  424.35   20.78
   3   8  -4  402.32   21.48
   3   8  -3   72.40   10.13
   3   8  -3   77.05    9.31
   3   8  -3   75.12    7.90
   3   8  -3   82.14    9.09
   3   8  -2   63.73    8.45
   3   8  -2   66.74    7.93
   3   8  -2   61.39    9.93
   3   8  -1   22.40    4.29
   3   8  -1   22.28    4.67
   3   8   0  275.10   17.54
   3   8   0  329.69   24.23
   3   8   0  282.06   16.50
   3   8   1  120.23   10.02
   3   8   1  113.41   13.08
   3   8   1  103.10    9.77
   3   8   2   40.75    5.92
   3   8   2   42.58    6.16
   3   8   2   35.97    5.32
   3   8   2   37.82    7.16
   3   8   3   19.84    4.27
   3   8   3   20.65    4.38
   3   8   3   18.06    4.81
   3   8   4  117.95   11.84
   3   8   4   97.79   10.10
   3   8   5  139.14   12.76
  -3  -8  -5  136.58   12.29
  -3  -8  -6  317.35   19.60
  -3  -8  -7  132.40   11.86
   3   8   8   40.24    5.83
  -3  -8  -8   46.67    6.46
  -3  -8  -9    2.94    1.31
  -3  -8  -9    5.07    2.00
  -3  -8 -10   69.35    5.73
   3   9  -5   22.19    3.17
   3   9  -5   23.31    3.59
   3   9  -4   85.49    6.86
   3   9  -4   84.95    8.05
   3   9  -4   88.71    8.24
   3   9  -3  111.78    8.83
   3   9  -3  134.39   11.48
   3   9  -3  137.09   11.34
   3   9  -3  118.54   11.41
   3   9  -2   94.19   11.23
   3   9  -2  110.06   10.07
   3   9  -2  109.83   10.97
   3   9  -1   -0.14    1.29
   3   9  -1   -1.32    1.53
   3   9  -1    0.06    0.72
   3   9   0   14.85    3.63
   3   9   0   11.25    3.18
   3   9   1  138.56   13.75
   3   9   1  126.78   14.41
   3   9   1  135.96   10.85
   3   9   1  111.84    9.59
   3   9   1  128.17   11.07
   3   9   2  149.39   11.85
   3   9   2  161.58   15.66
   3   9   2  126.32   10.55
   3   9   3  225.76   18.16
   3   9   3  185.12   13.65
   3   9   4   52.73    7.42
   3   9   4   72.04    9.58
  -3  -9  -5   22.12    4.84
  -3  -9  -6   32.34    5.43
   3   9   7   84.09    8.67
  -3  -9  -7  111.24    9.89
  -3  -9  -8  101.05    8.92
   3   9   8   80.01    7.21
  -3  -9  -8   85.65    7.94
  -3  -9  -9    0.69    0.41
   3  10  -4    3.42    1.51
   3  10  -4    0.20    0.53
   3  10  -3   44.55    5.27
   3  10  -3   44.11    5.54
   3  10  -3   41.19    5.26
   3  10  -2   42.79    6.23
   3  10  -2   48.71    4.97
   3  10  -2   51.82    6.14
   3  10  -2   49.18    6.40
   3  10  -1   77.01    8.33
   3  10  -1   76.45    7.42
   3  10  -1   65.31    6.43
   3  10  -1   62.41    8.32
   3  10   0    7.87    2.20
   3  10   0    8.12    2.52
   3  10   0    3.37    1.65
   3  10   1    4.80    1.98
   3  10   1    2.26    1.15
   3  10   1    5.93    3.41
   3  10   2   50.15    6.23
   3  10   2   49.09    6.04
   3  10   2   67.11    8.90
   3  10   3  230.70   18.16
   3  10   3  181.44   12.85
   3  10   3  240.10   18.34
   3  10   4   41.79    5.97
   3  10   4   65.76    8.89
   3  10   4   53.11    7.71
   3  10   5   54.71    6.65
   3  10   5   52.83    7.34
   3  10   6    0.35    0.95
  -3 -10  -6   -2.48    1.53
   3  10   7   21.50    3.53
  -3 -10  -7   24.78    3.68
   3  11  -1   75.03    6.87
   3  11  -1   68.02    6.62
   3  11   0   63.08    7.08
   3  11   0   49.28    5.01
   3  11   1   58.87    7.37
   3  11   1   46.30    5.03
   3  11   2   -2.50    1.22
   3  11   2   -0.14    1.55
   3  11   3    2.77    1.52
   3  11   3    2.65    1.49
   3  11   4   48.90    6.07
   3  11   5   11.06    2.57
  -4   9   2   67.32    8.80
  -4   9   1   47.94    7.22
  -4   9  -1    0.33    0.86
  -4   9  -2   47.99    6.39
  -4   9  -3   91.86    7.93
  -4   8   5  118.76   10.29
  -4   8   4   56.82    7.40
  -4   8   4   50.77    7.67
  -4   8   3    6.67    2.90
  -4   8   3    7.87    3.18
  -4   8   2   15.49    3.65
  -4   8   2   18.44    4.87
  -4   8   2   20.41    4.79
  -4   8   1  168.63   12.89
  -4   8   1  133.82   12.09
  -4   8   1  154.27   13.92
  -4   8   0  202.35   14.34
  -4   8   0  205.83   14.48
  -4   8   0  156.69   12.75
  -4   8   0  164.07   14.24
  -4   8  -1  132.76   12.46
  -4   8  -1  116.90   10.82
  -4   8  -2   38.55    6.63
  -4   8  -2   25.38    4.75
  -4   8  -3    3.79    2.10
  -4   8  -3    5.22    2.03
  -4   8  -3    2.73    2.17
  -4   8  -4   34.30    5.51
  -4   8  -4   29.72    5.15
  -4   8  -5  167.28   10.86
  -4   8  -5  154.95   10.97
  -4   7   6    5.25    2.18
   4  -7  -5   40.01    4.99
  -4   7   5   43.33    7.96
  -4   7   5   30.49    5.26
  -4   7   4  219.93   19.59
  -4   7   4  176.03   14.07
   4  -7  -4  223.07   13.50
  -4   7   3  251.64   17.10
   4  -7  -3  234.26   14.42
  -4   7   3  211.27   19.13
  -4   7   3  198.76   15.65
  -4   7   2    2.86    2.40
   4  -7  -2    0.49    0.60
  -4   7   2    3.05    2.86
  -4   7   2    3.58    2.22
   4  -7  -1    7.81    2.61
  -4   7   1    9.11    3.17
  -4   7   1   10.04    3.62
  -4   7   1    7.97    3.36
  -4   7   0  110.72   10.93
  -4   7   0   85.14    9.74
  -4   7   0   91.00   10.01
  -4   7   0   93.08   10.85
  -4   7  -1  360.14   22.30
  -4   7  -1  288.24   19.95
  -4   7  -2  321.73   21.84
   4  -7   2  371.82   21.17
  -4   7  -3  119.21   13.46
  -4   7  -4    3.21    3.06
  -4   7  -5   58.32    8.81
  -4   7  -6  163.63   11.61
  -4   7  -6  207.58   14.48
  -4   7  -7  208.11   10.63
  -4   7  -7  212.41   12.05
  -4   6   7   85.80    8.43
   4  -6  -6   63.81    6.54
  -4   6   6   64.83    7.50
   4  -6  -5   18.68    3.92
  -4   6   5   14.27    3.66
   4  -6  -4  316.79   17.77
  -4   6   4  231.58   16.75
  -4   6   3  466.20   25.89
   4  -6  -3  475.18   23.54
   4  -6  -2  569.98   27.90
  -4   6   2  535.53   27.89
   4  -6  -2  542.22   25.65
   4  -6  -1  307.85   19.56
  -4   6   1  272.70   18.51
   4  -6  -1  279.53   16.86
  -4   6   1  282.72   21.62
  -4   6   0   15.35    4.12
   4  -6   0   11.29    3.49
  -4   6   0   14.92    4.15
  -4   6  -1   81.46    9.76
   4  -6   1  109.37   11.12
  -4   6  -2  243.83   17.83
  -4   6  -3  145.57   13.88
  -4   6  -3  179.02   16.21
  -4   6  -4  174.23   15.03
  -4   6  -4  233.42   19.87
  -4   6  -5    5.27    2.72
  -4   6  -5    5.88    3.49
  -4   6  -6  205.32   17.05
  -4   6  -7  301.63   18.10
  -4   6  -8  270.20   14.06
  -4   6  -8  312.33   14.96
   4  -5  -8   85.26    5.47
  -4   5   8   76.15    6.96
   4  -5  -7  289.69   14.13
   4  -5  -6  396.16   19.79
   4  -5  -6  407.37   19.53
   4  -5  -5  214.91   14.62
  -4   5   5  216.52   15.82
   4  -5  -5  213.19   13.77
  -4   5   4   12.24    4.77
   4  -5  -4    3.94    2.23
   4  -5  -4    5.49    2.58
   4  -5  -3  278.14   17.98
  -4   5   3  301.55   19.89
   4  -5  -3  280.96   17.31
   4  -5  -2  187.87   14.36
  -4   5   2  176.88   14.66
   4  -5  -2  170.29   12.87
   4  -5  -1  787.34   33.61
   4  -5  -1  712.69   30.36
  -4   5   0  248.24   16.76
  -4   5  -1    4.58    1.57
  -4   5  -2   51.76    7.36
  -4   5  -3  545.52   28.85
  -4   5  -3  583.88   30.05
  -4   5  -4  841.45   40.93
  -4   5  -4  796.73   39.34
  -4   5  -5  226.47   17.60
  -4   5  -5  300.73   23.73
  -4   5  -5  256.37   17.29
  -4   5  -5  314.85   23.61
  -4   5  -6   89.26    9.69
  -4   5  -6  100.03   12.81
  -4   5  -6  111.48   13.22
  -4   5  -7   38.48    6.88
  -4   5  -7   40.89    7.07
  -4   5  -8  121.23   10.43
  -4   5  -8  122.64   10.45
  -4   5  -9  203.40   11.20
  -4   5  -9  175.32   10.02
  -4   5  -9  214.77   11.57
   4  -4  -8   10.98    2.29
   4  -4  -7  113.26    8.65
   4  -4  -7  120.29    9.47
   4  -4  -6  513.61   23.76
   4  -4  -6  549.53   24.63
   4  -4  -5  609.81   27.85
   4  -4  -5  662.99   28.40
  -4   4   4  199.43   15.57
   4  -4  -4  203.21   14.16
   4  -4  -4  164.76   12.54
   4  -4  -3  181.82   13.67
  -4   4   3  210.42   15.65
   4  -4  -3  193.06   13.68
   4  -4  -2   95.29    9.29
  -4   4   2   73.70    8.20
  -4   4   1  525.65   24.02
  -4   4   0  389.70   19.32
  -4   4  -1  778.14   29.89
  -4   4  -2   27.22    5.15
  -4   4  -3   59.83    6.48
  -4   4  -4  819.24   38.72
  -4   4  -4  732.61   33.27
  -4   4  -4  841.38   39.35
  -4   4  -5  798.75   40.86
  -4   4  -5  728.08   33.32
  -4   4  -5  745.65   39.63
  -4   4  -6  608.99   34.51
  -4   4  -6  506.53   26.72
  -4   4  -6  543.00   32.44
  -4   4  -7  175.88   16.21
  -4   4  -7  146.84   12.77
  -4   4  -7  168.76   15.75
  -4   4  -7  183.82   14.97
  -4   4  -8   21.22    4.76
  -4   4  -8   16.63    4.41
  -4   4  -8   20.53    4.21
  -4   4  -9  160.06   11.38
  -4   4  -9  164.83   11.63
  -4   4 -10  273.65   12.87
  -4   4 -10  301.09   13.57
   4  -3  -9  270.70   11.52
   4  -3  -9  282.93   11.67
   4  -3  -8  308.11   14.93
   4  -3  -7   65.02    6.31
   4  -3  -7   76.65    7.62
   4  -3  -6   63.61    6.95
   4  -3  -6   73.69    7.89
   4  -3  -5  148.52   11.44
   4  -3  -5  149.76   11.71
   4  -3  -4  662.66   28.28
  -4   3   3  343.89   18.98
  -4   3   2  119.03    9.88
  -4   3   1  191.19   12.29
  -4   3   0 1488.00   47.75
  -4   3  -1 1017.86   35.24
  -4   3  -2 1594.14   49.87
  -4   3  -3  210.49   13.05
  -4   3  -3  213.25   12.07
  -4   3  -4   45.11    5.59
  -4   3  -5  159.57   11.87
  -4   3  -5  133.58   10.32
  -4   3  -6  961.76   39.73
  -4   3  -7  311.47   19.87
  -4   3  -7  367.67   22.79
  -4   3  -8  172.36   13.63
  -4   3  -8  157.66   13.12
  -4   3  -9   27.89    4.91
  -4   3  -9   20.21    4.47
  -4   3  -9   22.54    3.98
  -4   3 -10  143.90    9.86
  -4   3 -10  151.55   10.26
  -4   3 -10  146.67    9.19
  -4   3 -11  349.78   13.73
  -4   3 -11  364.77   14.09
   4  -2  -9  266.10   12.03
   4  -2  -9  245.34   11.34
   4  -2  -8  320.31   15.35
   4  -2  -8  347.08   17.15
   4  -2  -8  349.43   16.40
   4  -2  -7  234.98   14.13
   4  -2  -6  122.81    9.41
   4  -2  -6  117.38    9.91
   4  -2  -5   95.23    8.34
   4  -2  -5   85.09    8.33
  -4   2   4  722.53   31.03
  -4   2   3 1756.55   57.07
  -4   2   2 1516.74   49.17
  -4   2   1   62.80    6.15
  -4   2   0  100.78    7.54
  -4   2  -1  666.72   24.69
  -4   2  -2  854.91   29.92
  -4   2  -3  653.17   24.46
  -4   2  -4  241.87   13.51
  -4   2  -5   35.14    4.83
  -4   2  -6  127.45    9.89
  -4   2  -7 1155.75   45.52
  -4   2  -7 1063.12   47.53
  -4   2  -8  728.25   33.20
  -4   2  -8  796.00   34.59
  -4   2  -9  379.02   20.59
  -4   2  -9  373.08   20.03
  -4   2 -10   37.36    4.89
  -4   2 -11  111.50    7.52
  -4   2 -11  107.54    7.56
  -4   2 -11  101.44    6.73
   4  -1  -9    1.34    0.55
   4  -1  -9    1.30    0.56
   4  -1  -8  122.46    9.06
   4  -1  -8  140.54   10.18
   4  -1  -8  139.71    9.46
   4  -1  -7  520.70   22.87
   4  -1  -6  367.37   18.52
   4  -1  -5  120.80    9.50
  -4   1   4   57.93    7.15
  -4   1   3  929.28   34.65
  -4   1   2 1110.33   37.41
  -4   1   1 1757.47   52.84
  -4   1   0  683.84   24.25
  -4   1  -1  138.27    8.61
  -4   1  -2  476.00   19.29
  -4   1  -3  859.22   29.61
  -4   1  -4  645.71   25.06
  -4   1  -5 2389.49   71.02
  -4   1  -6    0.56    0.54
  -4   1  -7  200.76   17.40
  -4   1  -7  213.83   15.49
  -4   1  -7  185.18   12.37
  -4   1  -8  490.99   25.29
  -4   1  -8  476.56   26.56
  -4   1  -9  594.75   28.61
  -4   1  -9  670.72   29.02
  -4   1  -9  610.77   28.39
  -4   1 -10  207.85   13.29
  -4   1 -11   31.50    3.98
   4   0  -9   67.20    5.55
   4   0  -9   59.25    4.71
   4   0  -9   56.25    5.08
   4   0  -8   23.38    3.95
   4   0  -8   27.94    4.28
   4   0  -8   17.98    3.15
   4   0  -7  291.53   15.47
   4   0  -7  287.23   16.73
   4   0  -6  838.29   31.56
   4   0  -5 1177.64   41.81
  -4   0   5 1433.11   49.03
  -4   0   4  981.42   37.58
  -4   0   3  192.39   12.36
  -4   0   2  118.72    8.40
  -4   0   1  532.66   20.23
  -4   0   0 1624.01   49.04
   4   0   0 1689.66   45.19
  -4   0  -1  528.68   20.11
   4   0   1  524.22   16.45
  -4   0  -2    4.99    1.51
  -4   0  -3  127.76    8.46
  -4   0  -3  135.59    8.73
  -4   0  -4 4123.70  113.85
  -4   0  -5 1368.52   44.18
  -4   0  -6  607.72   24.46
  -4   0  -7  147.48   10.56
  -4   0  -8   28.46    5.30
  -4   0  -8   19.62    3.75
  -4   0  -8   23.97    5.53
  -4   0  -9  285.45   15.58
  -4   0  -9  321.36   18.08
  -4   0  -9  283.44   18.89
  -4   0 -10  507.18   21.14
  -4   0 -10  482.36   23.34
  -4   0 -11   94.23    7.69
  -4   0 -12   60.48    4.44
   4   1  -9  266.64   12.71
   4   1  -9  271.56   12.44
   4   1  -9  261.79   12.65
   4   1  -8  217.06   13.11
   4   1  -8  219.80   12.90
   4   1  -7   34.53    4.84
   4   1  -7   31.17    5.10
   4   1  -7   31.17    4.47
   4   1  -6  231.94   14.77
   4   1  -6  210.05   12.66
   4   1  -5  835.82   32.05
   4   1  -5  949.89   36.06
   4   1  -4  821.17   34.26
  -4  -1   4 1037.01   36.11
  -4  -1   3  526.11   22.32
  -4  -1   2  245.63   12.53
  -4  -1   1  570.24   20.93
   4   1  -1  568.81   18.40
  -4  -1   0 2312.31   65.51
   4   1   0 2316.71   62.25
   4   1   1 2191.08   59.38
  -4  -1  -1 2182.68   63.10
  -4  -1  -2 1326.62   41.53
  -4  -1  -3   77.23    6.43
  -4  -1  -4    4.60    1.66
  -4  -1  -5  758.70   27.93
  -4  -1  -6  505.55   21.43
  -4  -1  -7  299.28   16.02
  -4  -1  -8  135.58   11.09
  -4  -1  -8  111.96    9.14
  -4  -1  -8  116.93   11.96
  -4  -1  -9  156.86   11.00
  -4  -1  -9  168.61   14.16
  -4  -1 -10  209.59   12.52
  -4  -1 -10  214.44   14.96
  -4  -1 -11  531.46   20.67
   4   1  12  317.79   12.72
  -4  -1 -12  304.80   12.86
   4   2  -9  305.78   13.59
   4   2  -9  339.06   13.89
   4   2  -9  330.74   14.49
   4   2  -8  430.13   19.77
   4   2  -8  472.12   19.61
   4   2  -8  470.16   20.26
   4   2  -8  487.49   21.36
   4   2  -7  350.88   18.44
   4   2  -7  352.98   17.76
   4   2  -7  349.17   18.96
   4   2  -6    6.80    2.46
   4   2  -6    8.79    2.47
   4   2  -6    5.08    1.98
   4   2  -5   28.72    5.13
   4   2  -5   29.30    4.87
   4   2  -5   33.09    5.23
   4   2  -5   24.91    4.20
   4   2  -5   26.75    4.25
   4   2  -4  429.18   21.36
   4   2  -3 1434.46   47.83
  -4  -2   2  563.45   20.43
   4   2  -2  516.08   18.60
  -4  -2   1    3.22    1.15
   4   2  -1    5.83    1.28
  -4  -2   0   37.83    4.03
   4   2   0   32.94    3.06
  -4  -2  -1 1433.48   44.07
   4   2   1 1444.55   41.45
  -4  -2  -2 1949.37   56.69
   4   2   2 1950.74   55.03
  -4  -2  -3 2312.54   66.69
  -4  -2  -4  101.19    7.63
  -4  -2  -5   14.53    2.85
  -4  -2  -6  317.83   16.19
  -4  -2  -7 1089.35   39.02
  -4  -2  -8  565.20   28.50
  -4  -2  -8  553.96   24.04
  -4  -2  -8  574.12   28.83
  -4  -2  -9  255.06   14.81
  -4  -2  -9  280.79   18.80
  -4  -2 -10    0.55    0.72
  -4  -2 -10    4.21    2.21
  -4  -2 -11  103.59    7.52
  -4  -2 -11  104.52    8.57
  -4  -2 -12  211.99   10.23
   4   3  -9    4.58    1.33
   4   3  -9    4.63    1.23
   4   3  -9    3.88    1.36
   4   3  -8  205.67   11.74
   4   3  -8  207.77   11.68
   4   3  -8  218.60   12.05
   4   3  -8  201.53   10.64
   4   3  -8  217.01   12.70
   4   3  -7  322.07   17.31
   4   3  -7  328.68   17.06
   4   3  -7  346.40   17.75
   4   3  -7  339.91   18.33
   4   3  -6  178.50   12.72
   4   3  -6  178.03   13.15
   4   3  -6  165.77   11.91
   4   3  -6  175.53   13.03
   4   3  -6  191.52   13.25
   4   3  -6  184.77   13.09
   4   3  -5  122.50   10.36
   4   3  -5  113.69   10.06
   4   3  -5  128.91   10.64
   4   3  -5  128.06   10.87
   4   3  -5  120.90    9.84
   4   3  -4  217.03   14.51
   4   3  -3  704.06   28.98
   4   3  -2 1800.98   55.68
   4   3  -2 1712.88   50.94
   4   3  -1 1679.97   48.87
   4   3  -1 1747.09   52.87
  -4  -3   0  838.11   27.70
   4   3   0  827.34   28.41
   4   3   0  842.98   26.70
  -4  -3  -1   14.45    2.39
   4   3   1    9.84    1.95
   4   3   2  700.90   24.38
  -4  -3  -2  768.40   25.88
  -4  -3  -3 1214.36   39.08
  -4  -3  -4 1488.22   46.99
  -4  -3  -5  236.88   13.45
  -4  -3  -6   32.79    4.92
  -4  -3  -7  326.50   18.02
  -4  -3  -8 1276.67   49.35
  -4  -3  -8 1247.92   43.48
  -4  -3  -8 1238.34   48.73
  -4  -3  -9  532.83   27.36
  -4  -3  -9  511.22   23.09
  -4  -3  -9  540.19   27.71
  -4  -3 -10  310.81   16.10
  -4  -3 -10  351.00   20.08
  -4  -3 -11   24.54    3.50
  -4  -3 -11   25.15    4.09
  -4  -3 -12   40.00    3.59
   4   4  -9    6.20    1.34
   4   4  -8   22.97    3.34
   4   4  -8   23.62    3.46
   4   4  -8   27.71    3.77
   4   4  -8   24.32    3.70
   4   4  -8   19.48    2.89
   4   4  -7  229.21   13.71
   4   4  -7  244.68   14.10
   4   4  -7  254.64   15.18
   4   4  -7  266.09   14.79
   4   4  -7  255.40   14.93
   4   4  -6  744.66   31.19
   4   4  -6  847.81   33.14
   4   4  -6  789.51   32.01
   4   4  -6  811.76   33.62
   4   4  -6  804.10   31.86
   4   4  -6  816.68   32.29
   4   4  -6  792.04   32.54
   4   4  -5  834.41   34.24
   4   4  -5  864.85   34.00
   4   4  -5  835.48   34.90
   4   4  -5  864.23   34.67
   4   4  -5  873.82   34.50
   4   4  -5  901.04   34.61
   4   4  -4  402.28   19.01
   4   4  -4  375.32   19.71
   4   4  -4  386.86   20.16
   4   4  -4  399.45   19.67
   4   4  -4  392.92   19.53
   4   4  -4  377.62   19.30
   4   4  -4  398.24   19.87
   4   4  -3    2.09    1.47
   4   4  -2  314.44   16.94
   4   4  -2  306.75   14.23
   4   4  -1  785.33   29.46
   4   4  -1  804.83   26.82
   4   4   0 1901.44   54.82
   4   4   1   35.85    3.86
   4   4   2    2.20    1.04
   4   4   3  682.19   24.99
  -4  -4  -3  725.78   24.85
  -4  -4  -4  776.59   28.44
  -4  -4  -5 1719.71   55.34
  -4  -4  -6  881.18   34.55
  -4  -4  -7    4.49    2.81
  -4  -4  -7    3.13    1.83
  -4  -4  -7    5.99    2.04
  -4  -4  -7    4.28    1.69
  -4  -4  -8   37.87    6.89
  -4  -4  -8   40.36    5.59
  -4  -4  -8   28.24    5.92
  -4  -4  -9  208.53   15.68
  -4  -4  -9  194.84   12.72
  -4  -4  -9  199.49   15.43
  -4  -4 -10  303.48   15.58
  -4  -4 -10  327.06   18.92
  -4  -4 -11   94.02    6.88
  -4  -4 -11  100.63    8.26
  -4  -4 -12    1.76    0.60
   4   5  -8   93.15    6.71
   4   5  -8   94.97    6.38
   4   5  -8   99.28    6.92
   4   5  -7   37.17    4.90
   4   5  -7   37.83    4.95
   4   5  -7   31.33    4.33
   4   5  -6  122.22    9.89
   4   5  -6  130.41   10.29
   4   5  -6  121.11   10.11
   4   5  -6  114.91   10.56
   4   5  -6  114.33    9.48
   4   5  -6  125.77   10.41
   4   5  -6  145.24   11.29
   4   5  -5  865.95   34.64
   4   5  -5  915.32   37.09
   4   5  -5  969.76   36.81
   4   5  -5  869.77   34.54
   4   5  -5  891.96   35.33
   4   5  -4  606.60   25.10
   4   5  -4  591.15   27.35
   4   5  -4  578.67   25.93
   4   5  -4  579.90   26.09
   4   5  -4  592.18   25.75
   4   5  -4  620.48   27.56
   4   5  -4  594.67   26.87
   4   5  -3  333.22   18.84
   4   5  -3  332.50   17.91
   4   5  -3  331.83   17.37
   4   5  -3  318.24   17.87
   4   5  -3  326.35   17.63
   4   5  -3  302.98   16.22
   4   5  -2   15.22    3.50
   4   5  -1  306.06   14.28
   4   5   0  403.21   16.86
   4   5   1  896.73   36.41
   4   5   1  946.05   31.31
   4   5   2  419.81   21.32
   4   5   2  457.18   18.47
   4   5   3  184.01   10.59
   4   5   3  148.04   11.22
   4   5   4   91.69    7.63
   4   5   5  682.95   26.67
  -4  -5  -6  391.58   20.90
  -4  -5  -7  507.74   23.10
  -4  -5  -7  479.77   26.47
  -4  -5  -8   22.95    5.50
  -4  -5  -8   27.98    4.65
  -4  -5  -8   27.97    5.87
  -4  -5  -9    8.80    3.22
  -4  -5  -9    8.17    2.42
  -4  -5  -9    6.05    2.71
  -4  -5 -10  192.07   13.03
  -4  -5 -10  211.96   11.89
  -4  -5 -10  210.19   14.15
  -4  -5 -11  178.17    9.35
  -4  -5 -11  160.78   10.47
   4   6  -8  271.14   11.11
   4   6  -7  301.58   14.30
   4   6  -7  284.41   14.08
   4   6  -6   29.17    4.40
   4   6  -6   28.89    5.01
   4   6  -6   34.21    4.94
   4   6  -6   28.40    4.20
   4   6  -6   28.62    4.54
   4   6  -5   48.69    6.20
   4   6  -5   43.87    6.01
   4   6  -5   51.82    7.01
   4   6  -5   52.91    6.60
   4   6  -5   41.99    5.60
   4   6  -4  138.14   11.92
   4   6  -4  154.21   11.72
   4   6  -4  149.37   12.11
   4   6  -4  142.25   10.97
   4   6  -3  217.50   12.90
   4   6  -3  221.69   16.92
   4   6  -3  254.33   16.54
   4   6  -3  238.92   15.31
   4   6  -3  249.10   15.74
   4   6  -3  231.11   14.08
   4   6  -2  104.73   11.55
   4   6  -2  110.35   10.28
   4   6  -2  117.21    9.50
   4   6  -2  117.42    9.88
   4   6  -2  105.46    8.99
   4   6  -2  116.41   10.30
   4   6  -2  101.51    8.66
   4   6  -1  164.73   10.68
   4   6   0  460.02   19.54
   4   6   1  301.14   14.89
   4   6   1  323.23   20.45
   4   6   2 1189.17   39.26
   4   6   2 1158.23   45.03
   4   6   3  915.99   36.94
   4   6   3  946.81   33.24
   4   6   4   69.00    6.89
   4   6   5    1.81    1.26
  -4  -6  -6  243.37   17.20
   4   6   7  271.15   18.66
  -4  -6  -7  287.26   19.28
  -4  -6  -8  239.99   17.89
  -4  -6  -8  264.66   14.91
  -4  -6  -8  266.78   18.34
  -4  -6  -9   10.04    2.86
  -4  -6  -9    9.71    2.52
  -4  -6  -9   12.76    3.33
  -4  -6 -10   13.52    2.91
  -4  -6 -10   14.82    2.62
  -4  -6 -10   14.65    3.32
  -4  -6 -11   35.17    3.41
  -4  -6 -11   33.61    4.11
   4   7  -7  116.00    7.21
   4   7  -6  135.69    9.02
   4   7  -6  139.27    9.44
   4   7  -5   12.89    2.89
   4   7  -5   15.64    3.72
   4   7  -5   11.87    2.96
   4   7  -5   10.25    2.90
   4   7  -5   10.40    2.80
   4   7  -5   10.84    2.77
   4   7  -4   16.75    3.55
   4   7  -4   19.09    4.27
   4   7  -4   22.35    4.32
   4   7  -4   26.88    4.93
   4   7  -4   22.14    3.93
   4   7  -3  154.60   14.51
   4   7  -3  164.73   13.64
   4   7  -3  164.22   12.61
   4   7  -3  165.02   12.94
   4   7  -3  151.13   11.17
   4   7  -2  934.46   43.02
   4   7  -2  973.22   39.22
   4   7  -2  949.35   35.55
   4   7  -2  915.79   36.78
   4   7  -2  891.83   34.44
   4   7  -1  203.07   17.87
   4   7  -1  217.14   15.29
   4   7  -1  182.37   13.00
   4   7  -1  202.44   13.25
   4   7   0  158.05   12.49
   4   7   0  191.50   17.15
   4   7   0  163.20   11.63
   4   7   1    5.08    1.64
   4   7   1    5.95    2.50
   4   7   1    3.28    1.21
   4   7   2  304.98   15.63
   4   7   2  289.14   16.96
   4   7   2  302.30   16.71
   4   7   3  233.31   13.47
   4   7   3  232.89   14.93
   4   7   3  193.66   12.66
   4   7   4  239.90   14.98
  -4  -7  -5    4.23    2.33
  -4  -7  -6    5.36    2.81
   4   7   7  213.76   15.94
  -4  -7  -7  225.96   16.63
  -4  -7  -8  192.54   14.62
  -4  -7  -9  188.02   13.65
  -4  -7  -9  200.38   13.70
  -4  -7 -10  120.24    8.67
  -4  -7 -10  135.37    9.46
   4   8  -6  152.80    8.56
   4   8  -5  125.83    8.98
   4   8  -5  121.73    9.09
   4   8  -5  138.51    9.29
   4   8  -4   70.95    7.58
   4   8  -4   64.00    6.88
   4   8  -4   57.15    6.99
   4   8  -4   59.89    6.10
   4   8  -4   56.18    6.47
   4   8  -3   52.33    8.05
   4   8  -3   56.62    6.74
   4   8  -3   59.72    7.61
   4   8  -3   67.52    8.31
   4   8  -3   52.05    6.05
   4   8  -3   66.78    7.57
   4   8  -2   78.32   10.42
   4   8  -2   75.05    9.22
   4   8  -2   75.65    8.59
   4   8  -2   63.82    6.93
   4   8  -1  324.45   23.49
   4   8  -1  341.52   20.43
   4   8  -1  343.94   19.07
   4   8  -1  312.30   17.22
   4   8   0  290.98   22.31
   4   8   0  278.70   17.77
   4   8   0  280.55   16.57
   4   8   1  101.43   11.73
   4   8   1   87.45    9.11
   4   8   1   90.60    8.71
   4   8   2    0.95    0.51
   4   8   2    0.01    2.12
   4   8   2    0.03    1.24
   4   8   2    0.90    1.55
   4   8   3  171.45   12.92
   4   8   3  138.21   10.88
   4   8   4   40.09    5.96
  -4  -8  -5  337.72   21.01
   4   8   6   93.15   10.55
  -4  -8  -6  107.21   11.07
   4   8   7   -0.57    0.76
  -4  -8  -7    0.87    1.02
  -4  -8  -8   11.76    3.50
   4   8   8   12.65    2.98
  -4  -8  -8    9.50    3.00
  -4  -8  -9  129.87   10.05
  -4  -8  -9  128.66    9.62
  -4  -8 -10   61.55    5.13
  -4  -8 -10   65.38    5.55
   4   9  -4  138.17    9.51
   4   9  -4  135.44    8.92
   4   9  -4  141.86    9.94
   4   9  -4  143.88    8.89
   4   9  -3  178.24   13.21
   4   9  -3  166.36   11.20
   4   9  -3  176.59   12.81
   4   9  -3  184.45   12.99
   4   9  -2   -0.75    1.11
   4   9  -2    0.64    0.99
   4   9  -2    1.75    1.51
   4   9  -2   -0.62    0.70
   4   9  -1   11.67    3.88
   4   9  -1   12.80    3.68
   4   9  -1   10.43    3.16
   4   9  -1    9.54    2.51
   4   9   0   88.22    9.43
   4   9   0   72.83    7.98
   4   9   0   90.56   11.44
   4   9   0   72.68    7.32
   4   9   1  157.34   15.76
   4   9   1  147.84   12.00
   4   9   1  124.97    9.67
   4   9   2   18.42    3.71
   4   9   2   17.50    5.25
   4   9   2   17.30    5.07
   4   9   2   16.62    3.80
   4   9   3   32.53    7.08
   4   9   3   27.34    4.63
   4   9   3   41.98    7.65
   4   9   4  109.66   12.52
   4   9   4   63.45    7.37
   4   9   5  171.21   15.03
   4   9   6  151.85   12.88
  -4  -9  -6  180.46   13.49
   4   9   7  126.83   10.46
  -4  -9  -7  155.51   11.65
  -4  -9  -8    7.38    2.34
   4   9   8    8.52    2.23
  -4  -9  -8   11.87    2.82
  -4  -9  -9   -1.29    1.06
  -4  -9  -9    1.74    0.77
   4  10  -3   52.76    4.70
   4  10  -2   46.08    5.83
   4  10  -2   46.35    6.01
   4  10  -2   44.31    4.90
   4  10  -1    5.44    2.48
   4  10  -1    3.02    1.25
   4  10   0   27.58    5.50
   4  10   0   30.95    5.29
   4  10   1   57.17    8.50
   4  10   1   57.31    6.87
   4  10   1   45.91    5.35
   4  10   1   44.01    5.06
   4  10   2  234.05   15.75
   4  10   2  203.69   16.39
   4  10   3   30.32    4.56
   4  10   3   41.83    7.08
   4  10   3   39.40    6.41
   4  10   4   72.79    9.31
   4  10   5    5.06    2.31
   4  10   6   53.77    6.36
   4  10   7   14.40    2.74
  -4 -10  -7   11.42    2.26
  -4 -10  -8   44.79    4.57
   4  11  -1   49.88    5.20
   4  11   0   29.32    4.48
   4  11   1    7.36    2.42
   4  11   2    2.87    1.50
   4  11   3   52.87    5.70
   4  11   3   44.86    5.20
   4  11   4   38.26    4.92
   4  11   5    2.31    0.77
   4  11   6    2.02    0.79
  -5   8   3    4.14    2.38
  -5   8   2  104.71    9.17
  -5   8   2  129.27   12.32
  -5   8   1   85.78    8.83
  -5   8   1   64.47    8.59
  -5   8   0   79.94    8.71
  -5   8   0   52.37    7.21
  -5   8  -1    3.81    1.69
  -5   8  -1    3.87    1.76
  -5   8  -2   63.13    7.74
  -5   8  -2   47.76    6.37
  -5   8  -3   54.43    6.97
  -5   8  -3   45.57    5.36
  -5   8  -4  212.64   13.00
  -5   7   5   93.46    9.29
   5  -7  -4   98.61    7.51
  -5   7   4  121.66   12.45
  -5   7   4   93.15    9.06
   5  -7  -3    2.00    0.98
  -5   7   3    3.32    3.07
  -5   7   3    0.59    1.16
  -5   7   2   25.32    4.98
   5  -7  -2   38.09    4.98
  -5   7   2   19.93    4.97
  -5   7   2   25.52    5.62
  -5   7   1  234.38   15.91
  -5   7   1  189.72   14.29
  -5   7   1  202.53   16.43
   5  -7   0  281.12   17.12
  -5   7   0  246.36   17.17
  -5   7  -1  123.24   11.83
   5  -7   1  139.89   12.04
  -5   7  -1  139.19   13.05
  -5   7  -2  187.61   16.06
   5  -7   2  184.06   13.88
  -5   7  -3   50.83    8.06
   5  -7   3   37.92    5.39
  -5   7  -4   54.35    7.99
  -5   7  -5  173.64   12.82
  -5   7  -6   77.62    6.75
  -5   7  -6   75.42    6.96
  -5   6   6   11.46    3.31
   5  -6  -5  182.65   10.89
  -5   6   5  145.21   11.18
   5  -6  -4  180.32   12.00
  -5   6   4  151.83   12.49
  -5   6   3  370.16   21.37
   5  -6  -3  390.70   20.24
   5  -6  -2   17.01    4.03
  -5   6   2   15.88    4.40
   5  -6  -2   12.71    3.46
  -5   6   2   18.39    5.49
   5  -6  -1   39.02    6.37
  -5   6   1   31.10    5.86
   5  -6  -1   39.90    5.98
  -5   6   1   29.06    6.04
   5  -6   0  106.08   10.86
  -5   6  -1  496.88   27.29
   5  -6   1  603.08   29.16
  -5   6  -2  181.27   16.32
   5  -6   2  217.73   16.44
  -5   6  -3   60.02    9.38
  -5   6  -4    4.69    2.67
  -5   6  -5  109.59   11.01
  -5   6  -5  134.79   13.12
  -5   6  -6  260.81   15.31
  -5   6  -6  328.50   19.19
  -5   6  -7  358.11   17.36
  -5   6  -8   16.73    2.68
   5  -5  -6    4.44    1.37
   5  -5  -6    3.39    1.33
   5  -5  -5   20.55    3.87
  -5   5   5    9.52    2.82
   5  -5  -5   16.08    3.29
   5  -5  -4  419.44   21.11
   5  -5  -4  387.71   19.28
  -5   5   3  688.06   32.63
   5  -5  -3  668.80   29.88
   5  -5  -2  386.45   21.60
  -5   5   2  387.24   22.82
   5  -5  -2  415.14   22.14
   5  -5  -1  226.21   16.25
   5  -5  -1  262.64   16.80
   5  -5   0    0.81    1.35
   5  -5   0    2.06    1.72
  -5   5  -1   74.40    9.22
  -5   5  -2  445.20   26.06
  -5   5  -3  237.81   19.25
  -5   5  -4  206.41   18.17
  -5   5  -5    5.81    3.12
  -5   5  -5    4.10    2.89
  -5   5  -6  216.26   16.14
  -5   5  -6  274.05   20.24
  -5   5  -6  274.17   19.79
  -5   5  -7  209.23   13.47
  -5   5  -7  255.74   17.03
  -5   5  -7  247.03   16.39
  -5   5  -8  389.62   18.31
  -5   5  -9  143.70    7.90
   5  -4  -7  297.41   13.61
   5  -4  -6  471.89   20.45
   5  -4  -6  498.86   21.26
   5  -4  -5  149.75   11.15
   5  -4  -5  141.92   10.84
   5  -4  -4    1.73    1.36
   5  -4  -4    1.36    0.60
   5  -4  -3  141.66   11.78
  -5   4   3  165.54   14.30
   5  -4  -3  169.74   12.92
   5  -4  -2  299.12   18.36
  -5   4   2  343.60   20.98
   5  -4  -2  319.57   20.59
   5  -4  -2  339.40   19.36
   5  -4  -1  363.88   20.53
   5  -4  -1  420.52   21.64
   5  -4  -1  392.60   22.68
  -5   4   0  398.22   22.18
   5  -4   0  412.56   22.71
   5  -4   0  411.12   21.32
  -5   4  -1   30.09    5.51
   5  -4   1   41.82    5.95
  -5   4  -2  232.36   16.83
  -5   4  -3  783.99   37.04
  -5   4  -4 1186.23   52.28
  -5   4  -4 1334.00   52.09
  -5   4  -5  498.49   29.70
  -5   4  -5  452.73   25.18
  -5   4  -5  553.12   31.26
  -5   4  -6   83.82   11.30
  -5   4  -6   80.02    9.34
  -5   4  -6   83.61   11.23
  -5   4  -7   56.74    8.42
  -5   4  -7   59.72    7.52
  -5   4  -7   62.38    8.81
  -5   4  -8  155.00   10.93
  -5   4  -8  176.13   12.91
  -5   4  -8  185.20   13.26
  -5   4  -9  280.39   14.27
  -5   4  -9  273.18   14.22
   5  -3  -8    0.78    0.52
   5  -3  -8    1.39    0.92
   5  -3  -7  242.44   11.88
   5  -3  -7  270.68   13.73
   5  -3  -6  282.76   14.87
   5  -3  -6  286.84   15.76
   5  -3  -5  600.43   25.88
   5  -3  -5  591.43   26.16
   5  -3  -4  305.52   17.64
   5  -3  -3    9.56    2.83
   5  -3  -3   19.20    4.19
   5  -3  -2   71.27    7.84
  -5   3   2   81.82    9.25
   5  -3  -2   70.41    8.65
   5  -3  -2   68.70    7.70
  -5   3   1  784.34   32.04
  -5   3   0  879.31   34.15
  -5   3  -1  592.26   25.71
  -5   3  -2   15.76    3.50
  -5   3  -3   94.82    8.47
  -5   3  -4  553.65   27.30
  -5   3  -4  557.58   27.35
  -5   3  -5  792.49   37.54
  -5   3  -5  764.15   34.82
  -5   3  -6  265.69   20.62
  -5   3  -6  256.55   18.05
  -5   3  -6  289.91   22.64
  -5   3  -7   62.08    9.16
  -5   3  -7   54.66    7.77
  -5   3  -7   58.53    9.24
  -5   3  -8   57.29    7.75
  -5   3  -8   60.53    7.62
  -5   3  -8   61.88    8.18
  -5   3  -9  324.22   17.41
  -5   3  -9  340.12   18.11
  -5   3 -10  245.79   12.32
  -5   3 -10  247.66   12.59
   5  -2  -8  127.24    7.35
   5  -2  -8  134.85    8.08
   5  -2  -8  137.35    8.06
   5  -2  -7   62.02    6.29
   5  -2  -7   63.10    6.25
   5  -2  -6   55.64    5.82
   5  -2  -6   56.59    6.43
   5  -2  -5  278.71   15.49
   5  -2  -5  286.21   16.46
   5  -2  -4  577.24   25.24
   5  -2  -3  606.56   26.45
   5  -2  -3  594.44   28.68
   5  -2  -3  661.98   27.02
  -5   2   2    3.12    2.02
  -5   2   1  182.79   12.32
  -5   2   0 1337.85   44.70
  -5   2  -1  655.71   26.34
  -5   2  -2 1091.99   38.31
  -5   2  -3  381.34   18.41
  -5   2  -4   58.89    6.73
  -5   2  -5  231.30   14.50
   5  -2   6  277.97   16.77
  -5   2  -6  311.38   19.73
   5  -2   7  539.79   25.29
  -5   2  -7  643.37   30.16
   5  -2   8  163.71   11.77
  -5   2  -8  193.23   14.57
  -5   2  -9   10.56    3.01
  -5   2  -9   17.66    3.88
  -5   2 -10  205.11   12.15
  -5   2 -10  210.78   12.71
  -5   2 -11  261.72   11.62
  -5   2 -11  262.20   11.91
   5  -1  -8  334.16   14.75
   5  -1  -8  357.54   15.44
   5  -1  -8  337.79   14.61
   5  -1  -7  136.00    9.50
   5  -1  -7  135.32    9.81
   5  -1  -6   77.30    7.46
   5  -1  -5  172.06   11.96
   5  -1  -4  990.40   35.39
  -5   1   3  848.85   35.34
  -5   1   2 1475.19   50.21
  -5   1   1  162.04   10.99
  -5   1   0    1.27    1.02
  -5   1  -1  254.38   13.67
  -5   1  -2 1294.67   43.04
  -5   1  -3  487.20   21.22
  -5   1  -4  177.27   12.09
  -5   1  -5    0.89    0.58
  -5   1  -6  408.32   20.91
  -5   1  -6  597.37   34.11
   5  -1   7 2133.29   68.78
  -5   1  -7 2063.58   71.44
  -5   1  -7 2249.02   78.70
   5  -1   8  829.20   33.69
  -5   1  -8  803.37   35.22
  -5   1  -8  802.38   37.46
   5  -1   9  237.19   14.84
  -5   1  -9  218.20   14.94
   5  -1  10   27.62    4.13
  -5   1 -10   29.41    4.09
  -5   1 -11   70.64    5.86
  -5   1 -11   65.15    5.94
  -5   1 -11   59.34    4.71
   5   0  -9   40.37    3.42
   5   0  -8  223.27   11.93
   5   0  -8  237.27   12.03
   5   0  -8  225.02   11.12
   5   0  -7  494.10   21.65
   5   0  -7  495.44   20.90
   5   0  -6  350.53   18.25
   5   0  -6  350.57   17.49
   5   0  -5   49.57    5.94
  -5   0   4   30.33    5.75
  -5   0   3 1219.43   45.27
  -5   0   2  790.47   31.07
  -5   0   1 1011.68   35.15
  -5   0   0  256.15   13.33
  -5   0  -1    1.64    1.31
  -5   0  -2  652.07   25.66
  -5   0  -3 2057.51   62.98
  -5   0  -3 2067.17   62.79
  -5   0  -4 1230.44   42.79
  -5   0  -5  559.87   24.63
  -5   0  -6    7.18    2.20
  -5   0  -7  577.57   27.69
  -5   0  -7  487.36   23.39
  -5   0  -7  572.10   31.27
  -5   0  -8  435.77   23.02
  -5   0  -8  378.88   19.67
  -5   0  -8  431.07   25.47
  -5   0  -9  521.65   25.03
  -5   0  -9  535.24   23.24
  -5   0  -9  533.92   27.38
  -5   0 -10  207.43   12.74
  -5   0 -10  205.03   13.94
  -5   0 -10  199.24   12.57
   5   0  11    0.48    0.44
  -5   0 -11    0.64    0.52
   5   1  -9   14.25    1.99
   5   1  -9   11.50    1.85
   5   1  -8   47.32    5.11
   5   1  -8   39.32    4.10
   5   1  -8   50.37    4.95
   5   1  -7  283.84   14.95
   5   1  -7  266.57   13.84
   5   1  -6  823.51   32.24
   5   1  -6  881.58   31.84
   5   1  -6  814.05   30.77
   5   1  -5 1173.50   41.45
   5   1  -5 1091.73   38.98
   5   1  -5 1196.67   40.57
   5   1  -5 1115.57   38.79
   5   1  -4  100.39    9.01
   5   1  -4  123.59   10.38
   5   1  -4  113.46    8.73
   5   1  -4   96.54    8.14
  -5  -1   3   89.99    8.90
  -5  -1   2  333.22   17.10
  -5  -1   1 1128.76   37.80
   5   1   0  960.83   29.20
  -5  -1   0 1016.03   33.61
   5   1   1 1024.50   31.03
  -5  -1  -1 1055.40   35.48
  -5  -1  -2  165.60   10.78
   5   1   2  156.14    8.24
  -5  -1  -3  191.79   11.97
  -5  -1  -4 1611.27   52.62
  -5  -1  -5 1397.26   47.23
  -5  -1  -6  525.09   23.64
  -5  -1  -7   77.03    7.59
  -5  -1  -7   93.54   11.01
  -5  -1  -8   31.34    5.38
  -5  -1  -8   25.05    4.22
  -5  -1  -8   26.19    5.79
  -5  -1  -9  327.18   17.96
  -5  -1  -9  299.58   16.40
  -5  -1  -9  335.41   20.78
  -5  -1 -10  380.53   18.08
  -5  -1 -10  406.22   21.50
  -5  -1 -11  208.65   12.29
  -5  -1 -11  204.77   11.56
   5   1  12   23.78    2.63
   5   2  -8  160.64    9.35
   5   2  -8  161.33    9.98
   5   2  -8  156.07    8.46
   5   2  -7   17.82    3.37
   5   2  -7   12.84    2.61
   5   2  -7   15.38    3.21
   5   2  -6  253.77   14.98
   5   2  -6  263.73   14.58
   5   2  -5  256.99   15.56
   5   2  -5  286.82   16.73
   5   2  -5  267.36   15.39
   5   2  -5  247.01   14.53
   5   2  -4  851.82   32.60
   5   2  -4  711.60   30.25
   5   2  -4  839.16   32.51
   5   2  -4  819.36   32.37
   5   2  -4  768.10   29.81
   5   2  -4  761.31   30.06
   5   2  -3  194.24   13.54
   5   2  -2    3.35    1.65
  -5  -2   1  641.13   23.93
   5   2  -1  581.16   20.61
   5   2   0 2130.06   60.88
  -5  -2   0 2290.57   64.94
   5   2   1 1740.04   50.46
  -5  -2  -1 1779.76   54.28
  -5  -2  -2 2233.61   66.09
  -5  -2  -2 2250.36   67.69
   5   2   2 2267.26   63.92
   5   2   3  276.20   12.70
  -5  -2  -3  323.50   16.06
  -5  -2  -4   34.85    4.88
  -5  -2  -5  366.89   18.38
  -5  -2  -6 1232.77   43.09
  -5  -2  -7  283.53   18.74
  -5  -2  -7  287.07   16.55
  -5  -2  -7  269.33   15.23
  -5  -2  -7  275.52   18.73
  -5  -2  -8  179.52   12.24
  -5  -2  -8  184.21   15.16
  -5  -2  -9   41.98    5.54
  -5  -2  -9   44.28    7.10
  -5  -2 -10  395.10   18.79
  -5  -2 -10  439.80   22.89
  -5  -2 -11  412.28   17.34
  -5  -2 -11  411.12   19.31
   5   2  12  260.20   11.38
   5   3  -8  435.04   17.12
   5   3  -8  445.91   18.02
   5   3  -8  400.70   16.27
   5   3  -7  196.50   11.55
   5   3  -7  181.32   11.39
   5   3  -7  185.26   12.15
   5   3  -6   14.61    3.32
   5   3  -6   17.55    3.62
   5   3  -6   20.34    4.24
   5   3  -6   24.22    4.26
   5   3  -5   99.81    9.12
   5   3  -5   91.88    8.88
   5   3  -5  100.36    9.37
   5   3  -5   93.37    8.67
   5   3  -4  449.36   21.58
   5   3  -4  431.50   21.53
   5   3  -4  466.54   22.15
   5   3  -4  430.36   20.67
   5   3  -4  446.15   21.25
   5   3  -4  435.55   21.21
   5   3  -3 1355.02   48.17
   5   3  -2  795.71   31.59
   5   3  -1   43.50    4.33
   5   3  -1   40.56    5.15
  -5  -3   0   25.04    3.59
   5   3   0   13.12    2.30
   5   3   1 1644.31   48.02
  -5  -3  -1 1555.78   49.70
   5   3   2 1144.04   36.90
  -5  -3  -2 1183.82   38.37
   5   3   3  700.10   25.54
  -5  -3  -3  793.87   28.57
  -5  -3  -4  183.46   11.76
  -5  -3  -5  284.19   15.75
  -5  -3  -6  405.11   20.29
  -5  -3  -7  996.83   40.65
  -5  -3  -7  932.64   35.14
  -5  -3  -7  927.53   39.13
  -5  -3  -8  730.77   34.21
  -5  -3  -8  705.50   29.12
  -5  -3  -8  719.14   33.30
  -5  -3  -9  106.41    9.04
  -5  -3  -9   89.71   10.21
  -5  -3 -10    0.00    1.29
  -5  -3 -10    0.48    0.97
  -5  -3 -11  116.89    7.98
  -5  -3 -11  120.90    9.45
   5   3  12  128.96    7.30
   5   4  -8  109.03    6.98
   5   4  -8   98.66    5.81
   5   4  -8  106.79    6.68
   5   4  -7  246.60   13.26
   5   4  -7  261.03   13.60
   5   4  -7  255.78   13.87
   5   4  -6  191.70   12.56
   5   4  -6  206.26   12.95
   5   4  -6  175.67   12.28
   5   4  -6  199.66   13.24
   5   4  -5   74.39    8.17
   5   4  -5   75.28    7.94
   5   4  -5   84.91    8.40
   5   4  -5   75.80    7.96
   5   4  -5   66.24    7.55
   5   4  -4  124.48   10.23
   5   4  -4  119.98   10.31
   5   4  -4  122.54   10.30
   5   4  -4  141.28   11.05
   5   4  -4  141.06   10.95
   5   4  -4  139.89   11.08
   5   4  -3  639.40   26.16
   5   4  -3  620.66   26.63
   5   4  -3  658.49   28.00
   5   4  -3  671.16   27.28
   5   4  -3  671.21   27.13
   5   4  -3  637.70   26.69
   5   4  -3  649.31   27.53
   5   4  -2 1247.85   43.95
   5   4  -1 1281.46   40.59
   5   4   0  180.26   10.22
   5   4   1    2.92    1.21
   5   4   2  361.64   16.31
   5   4   3  769.31   27.77
   5   4   4  212.94   12.01
  -5  -4  -4  258.90   14.55
  -5  -4  -5  301.91   16.97
  -5  -4  -6   26.84    4.76
  -5  -4  -7  251.23   18.25
  -5  -4  -7  245.65   15.02
  -5  -4  -7  231.88   16.68
  -5  -4  -8  494.38   27.25
  -5  -4  -8  514.81   23.69
  -5  -4  -8  497.68   26.45
  -5  -4  -9  457.34   24.59
  -5  -4  -9  447.08   21.19
  -5  -4  -9  424.05   23.77
  -5  -4 -10   37.81    4.85
  -5  -4 -10   45.98    6.46
  -5  -4 -11   21.05    3.10
  -5  -4 -11   23.22    3.84
   5   4  12   59.49    4.37
   5   5  -8   13.22    1.99
   5   5  -7  175.68   10.17
   5   5  -7  162.93    9.66
   5   5  -7  160.30    9.54
   5   5  -6  609.76   25.27
   5   5  -6  632.05   25.82
   5   5  -6  614.49   25.06
   5   5  -6  580.69   24.64
   5   5  -5  413.66   20.75
   5   5  -5  395.99   20.20
   5   5  -5  398.32   20.38
   5   5  -5  387.15   19.94
   5   5  -4  203.41   13.30
   5   5  -4  209.98   13.95
   5   5  -4  194.72   13.68
   5   5  -4  205.69   13.83
   5   5  -4  220.97   14.70
   5   5  -3    2.23    1.58
   5   5  -3    2.37    1.43
   5   5  -3    3.53    1.60
   5   5  -3    6.56    2.38
   5   5  -3    2.30    1.10
   5   5  -3    0.73    1.07
   5   5  -2  289.81   18.61
   5   5  -2  290.21   15.87
   5   5  -2  282.96   16.26
   5   5  -2  261.34   14.83
   5   5  -2  259.01   14.89
   5   5  -1  333.30   16.12
   5   5   0  561.80   22.47
   5   5   1   60.29    5.93
   5   5   2   30.00    4.20
   5   5   3  196.30   11.90
   5   5   4 1064.58   36.94
   5   5   5  897.57   33.06
   5   5   6  494.79   26.01
  -5  -5  -6  439.01   21.00
  -5  -5  -6  417.68   23.60
  -5  -5  -7   36.09    6.67
  -5  -5  -7   25.41    4.41
  -5  -5  -7   28.74    5.53
  -5  -5  -8   78.37    9.80
  -5  -5  -8   82.78    8.25
  -5  -5  -8   75.73    9.28
  -5  -5  -9   70.44    8.70
  -5  -5  -9   79.67    7.71
  -5  -5  -9   73.87    8.76
  -5  -5 -10  401.87   17.57
  -5  -5 -10  370.53   19.71
  -5  -5 -10  344.26   18.81
  -5  -5 -11   43.49    4.23
  -5  -5 -11   46.26    5.11
   5   6  -7   12.15    2.22
   5   6  -7    8.34    1.76
   5   6  -6  108.54    8.32
   5   6  -6  101.08    7.93
   5   6  -6  110.58    8.37
   5   6  -5  376.91   18.84
   5   6  -5  366.33   18.96
   5   6  -5  353.40   18.45
   5   6  -4  340.01   17.62
   5   6  -4  337.01   18.62
   5   6  -4  328.00   18.42
   5   6  -4  327.45   18.24
   5   6  -3   41.47    5.52
   5   6  -3   39.24    5.79
   5   6  -3   44.09    6.25
   5   6  -3   43.24    6.10
   5   6  -3   42.12    6.18
   5   6  -3   41.15    5.73
   5   6  -2    2.30    0.99
   5   6  -2    1.05    1.12
   5   6  -2    5.05    1.91
   5   6  -2    4.36    1.82
   5   6  -2    2.16    1.27
   5   6  -2    0.75    0.58
   5   6  -2    2.33    1.38
   5   6  -1  123.89   12.45
   5   6  -1  123.39   11.01
   5   6  -1  122.62   10.17
   5   6  -1  110.01    9.14
   5   6  -1  119.16   10.37
   5   6  -1  113.40    9.64
   5   6   0  424.91   19.50
   5   6   1  939.79   33.78
   5   6   2  344.29   17.22
   5   6   3    6.74    2.16
   5   6   4   85.17    8.13
   5   6   5  550.51   29.09
   5   6   6  486.77   26.71
  -5  -6  -6  475.12   25.91
   5   6   7  136.53   12.36
  -5  -6  -7  121.79   12.03
  -5  -6  -8   28.85    5.82
  -5  -6  -8   23.31    4.04
  -5  -6  -8   22.72    4.96
  -5  -6  -9  156.31   12.70
  -5  -6  -9  167.52   10.98
  -5  -6  -9  158.34   12.49
  -5  -6 -10  110.86    9.06
  -5  -6 -10  112.42    7.76
  -5  -6 -10   93.76    8.44
  -5  -6 -11  145.03    8.94
   5   7  -6    0.26    0.35
   5   7  -6    1.21    0.62
   5   7  -5   14.06    2.81
   5   7  -5   15.24    3.13
   5   7  -5   14.44    3.02
   5   7  -5   13.13    2.81
   5   7  -4  117.16    9.46
   5   7  -4  124.21   10.36
   5   7  -4  110.51    9.80
   5   7  -4  116.64    9.66
   5   7  -3  283.02   15.57
   5   7  -3  307.05   18.57
   5   7  -3  303.23   17.64
   5   7  -3  297.68   17.94
   5   7  -3  306.40   17.15
   5   7  -2  163.69   11.24
   5   7  -2  178.73   15.49
   5   7  -2  190.40   13.78
   5   7  -2  175.40   14.00
   5   7  -2  179.47   12.70
   5   7  -1   11.59    3.12
   5   7  -1   14.04    4.53
   5   7  -1   13.17    3.16
   5   7  -1   11.52    3.25
   5   7   0  241.39   18.84
   5   7   0  225.50   15.71
   5   7   0  205.99   13.94
   5   7   1  337.67   20.83
   5   7   1  303.60   21.23
   5   7   1  303.92   18.36
   5   7   1  273.11   16.39
   5   7   2  476.65   27.27
   5   7   2  459.43   25.95
   5   7   2  410.35   22.22
   5   7   3  665.96   34.22
   5   7   4    1.19    1.39
   5   7   5   35.26    6.74
   5   7   6   91.37   10.50
  -5  -7  -6  104.28   11.01
   5   7   7  233.08   16.24
  -5  -7  -7  243.18   17.25
  -5  -7  -8   64.68    8.31
   5   7   8   74.15    7.46
  -5  -7  -8   80.45    8.82
  -5  -7  -9   42.63    5.99
  -5  -7  -9   40.65    5.72
  -5  -7 -10    6.22    1.86
  -5  -7 -10    4.78    1.59
   5   8  -5   24.34    3.46
   5   8  -5   20.49    2.86
   5   8  -5   25.80    3.40
   5   8  -5   20.56    2.72
   5   8  -4  143.22   10.36
   5   8  -4  132.79   10.01
   5   8  -4  142.42    9.67
   5   8  -4  138.93    9.78
   5   8  -3  169.70   12.86
   5   8  -3  164.74   12.23
   5   8  -3  178.12   12.93
   5   8  -3  176.34   11.81
   5   8  -3  200.42   12.76
   5   8  -2  399.39   23.91
   5   8  -2  424.29   23.05
   5   8  -2  419.76   21.94
   5   8  -2  402.53   19.99
   5   8  -1  190.02   16.32
   5   8  -1  222.49   16.04
   5   8  -1  196.55   14.17
   5   8  -1  191.51   13.07
   5   8   0  144.30   14.38
   5   8   0  123.91   11.58
   5   8   0  131.14   10.94
   5   8   0  131.65   10.92
   5   8   1    3.45    2.00
   5   8   1    1.39    1.63
   5   8   1    4.33    2.52
   5   8   2  163.88   15.18
   5   8   2  147.05   14.41
   5   8   2  146.95   12.24
   5   8   3  113.03   11.90
   5   8   3  135.41   14.26
   5   8   4  119.81   13.32
   5   8   5   39.10    7.05
   5   8   6   13.74    4.08
  -5  -8  -6    9.15    3.30
   5   8   7   48.43    6.63
  -5  -8  -7   49.96    6.97
  -5  -8  -8  232.84   15.26
   5   8   8  208.15   12.44
  -5  -8  -8  247.15   14.87
  -5  -8  -9  109.46    8.80
  -5  -8  -9  105.29    8.28
  -5  -8 -10   59.57    5.10
  -5  -8 -10   55.89    4.94
   5   9  -4   48.89    4.81
   5   9  -4   45.21    4.14
   5   9  -3    2.51    1.28
   5   9  -3    6.97    1.94
   5   9  -2   54.84    7.08
   5   9  -2   50.09    6.73
   5   9  -2   47.87    5.88
   5   9  -2   47.18    5.43
   5   9  -1  109.46   11.26
   5   9  -1  120.14   11.15
   5   9  -1  122.93   10.44
   5   9  -1  111.71    8.95
   5   9   0  161.60   14.40
   5   9   0  156.81   12.81
   5   9   0  128.69   10.12
   5   9   1    0.31    1.26
   5   9   1    9.37    3.07
   5   9   2    1.95    1.50
   5   9   2    2.95    2.29
   5   9   3  125.87   13.02
   5   9   3   95.51   10.36
   5   9   4  148.67   14.15
   5   9   5  190.64   15.44
   5   9   6  114.83   10.57
   5   9   7    0.76    0.80
  -5  -9  -7   -1.06    0.96
  -5  -9  -8   12.72    3.14
   5   9   8   11.17    2.24
  -5  -9  -8    9.71    2.23
  -5  -9  -9   47.72    4.76
  -5  -9  -9   46.36    4.31
   5  10  -3   63.95    4.90
   5  10  -2   13.85    2.58
   5  10  -1   28.50    4.70
   5  10  -1   26.69    3.87
   5  10  -1   27.56    3.53
   5  10   0   33.64    5.39
   5  10   0   25.53    3.62
   5  10   1   70.94    8.42
   5  10   1   54.04    5.67
   5  10   2   39.12    5.28
   5  10   2   33.82    5.83
   5  10   2   36.19    4.90
   5  10   3    2.28    1.64
   5  10   3    1.18    1.27
   5  10   4   20.30    4.54
   5  10   5  128.91   10.76
   5  10   6   47.03    5.62
  -5 -10  -7   55.30    5.78
   5  10   7   55.94    5.05
  -5 -10  -8   -0.92    0.81
   5  11   0   12.58    2.23
   5  11   1   47.81    5.42
   5  11   2   77.37    6.78
   5  11   2   61.75    4.89
   5  11   3   44.74    4.53
   5  11   3   42.53    4.33
   5  11   3   45.69    4.22
   5  11   4    8.29    1.75
   5  11   4    8.17    1.89
   5  11   5    2.32    1.12
  -6   7   3   11.59    3.21
  -6   7   2  128.52   12.07
  -6   7   1  188.46   12.84
  -6   7   1  162.82   14.22
  -6   7   0   37.05    5.74
  -6   7   0   26.03    5.18
   6  -7   1    2.13    1.22
  -6   7  -1    3.46    2.24
  -6   7  -1    1.67    0.88
  -6   7  -2   36.82    5.72
   6  -7   2   31.63    4.39
  -6   7  -2   41.01    6.53
  -6   7  -3  178.83   13.69
   6  -7   3  131.94    8.81
  -6   7  -3  167.33   13.04
  -6   7  -4  257.98   15.74
  -6   7  -4  212.63   13.34
  -6   7  -5  102.69    7.98
   6  -6  -4   80.35    6.39
  -6   6   4   71.39    7.22
   6  -6  -3    2.05    1.17
  -6   6   3    3.72    2.43
  -6   6   3    1.79    1.37
  -6   6   2   68.23    7.78
   6  -6  -2   98.16    8.57
  -6   6   2   78.27    9.15
   6  -6  -1  297.95   16.99
  -6   6   1  251.71   16.45
   6  -6  -1  285.53   15.99
   6  -6   0  526.57   24.99
  -6   6   0  443.68   24.36
   6  -6   1  189.08   14.09
  -6   6  -2   77.64    9.79
   6  -6   2   70.94    8.41
   6  -6   3   10.00    2.95
  -6   6  -4  153.69   14.00
   6  -6   4  121.99    9.68
  -6   6  -5  139.59   11.54
   6  -6   5   98.63    7.70
   6  -6   6  102.18    6.38
  -6   6  -7   13.43    2.41
   6  -5  -5  255.18   12.38
   6  -5  -5  262.00   11.97
   6  -5  -4  338.96   16.46
   6  -5  -4  348.38   15.64
  -6   5   3  328.80   19.63
   6  -5  -3  307.07   17.05
   6  -5  -2   61.35    7.31
  -6   5   2   60.90    7.72
   6  -5  -2   69.81    7.94
   6  -5  -1  122.87   11.11
  -6   5   1  116.24   11.15
   6  -5   0   83.73    9.41
   6  -5   0   85.58    9.24
   6  -5   1  456.13   24.40
  -6   5  -2  342.32   22.71
  -6   5  -3   27.72    6.61
  -6   5  -4    4.16    2.38
  -6   5  -5  264.42   19.60
  -6   5  -6  410.23   22.23
  -6   5  -7  332.10   16.41
   6  -4  -6    3.64    0.98
   6  -4  -6    5.50    1.43
   6  -4  -6    4.82    1.29
   6  -4  -5   54.37    5.57
   6  -4  -5   51.51    5.39
   6  -4  -4  287.25   15.87
   6  -4  -4  302.66   15.89
   6  -4  -3  560.74   25.48
  -6   4   2  330.02   20.13
   6  -4  -2  316.22   18.25
   6  -4  -1  183.65   13.87
  -6   4   1  198.71   15.20
   6  -4  -1  189.46   15.28
   6  -4  -1  219.71   15.22
   6  -4   0    8.70    2.87
   6  -4   0   10.72    3.29
   6  -4   0   11.23    3.51
  -6   4  -1  192.26   15.33
   6  -4   1  213.72   16.16
   6  -4   1  201.81   14.87
  -6   4  -2  391.31   23.62
  -6   4  -3  846.03   39.80
  -6   4  -4   66.76   10.44
  -6   4  -5    8.85    3.87
  -6   4  -5    6.90    2.88
  -6   4  -6  312.76   20.79
  -6   4  -6  296.36   18.99
  -6   4  -6  257.95   16.64
  -6   4  -7  443.68   22.28
  -6   4  -7  427.33   21.56
  -6   4  -7  373.03   19.62
  -6   4  -7  386.04   20.28
  -6   4  -8  246.84   13.54
  -6   4  -8  274.93   14.41
  -6   4  -8  266.02   13.85
  -6   4  -9  115.57    6.80
   6  -3  -7  252.92   10.37
   6  -3  -7  292.72   11.72
   6  -3  -6  317.35   14.19
   6  -3  -6  337.72   14.47
   6  -3  -6  363.98   15.77
   6  -3  -5  142.20    9.76
   6  -3  -5  138.85   10.00
   6  -3  -4   -0.52    0.93
   6  -3  -4    0.98    1.32
   6  -3  -3   38.78    5.69
   6  -3  -2  466.02   23.09
   6  -3  -2  452.69   24.89
   6  -3  -2  489.67   23.66
   6  -3  -1  269.38   16.97
   6  -3  -1  299.53   19.18
   6  -3  -1  330.84   18.50
   6  -3   0  283.66   18.75
   6  -3   0  310.53   18.52
  -6   3  -1    7.02    2.83
   6  -3   1    3.00    1.83
  -6   3  -2  684.03   31.91
   6  -3   2  767.87   32.01
  -6   3  -3  540.09   28.52
   6  -3   4  777.38   32.63
  -6   3  -4  850.74   37.06
  -6   3  -5  365.08   21.36
   6  -3   5  299.28   17.49
  -6   3  -5  364.17   21.79
  -6   3  -6    3.87    2.52
  -6   3  -6    8.30    3.05
  -6   3  -7   40.94    6.28
  -6   3  -7   44.84    6.65
  -6   3  -7   42.45    6.70
  -6   3  -8  300.68   16.70
  -6   3  -8  325.11   17.70
  -6   3  -8  293.47   16.84
  -6   3  -9  125.67    8.61
  -6   3  -9  120.36    8.50
  -6   3 -10  162.67    8.17
   6  -2  -7  141.64    8.00
   6  -2  -7  162.27    8.81
   6  -2  -6  236.54   12.46
   6  -2  -6  231.58   11.63
   6  -2  -6  250.45   13.13
   6  -2  -5  275.07   14.36
   6  -2  -5  262.40   14.88
   6  -2  -4  295.60   16.16
   6  -2  -3    2.73    1.68
   6  -2  -2  375.40   20.08
   6  -2  -2  392.69   22.21
   6  -2  -2  413.50   20.35
   6  -2  -1  949.23   36.29
   6  -2  -1  944.10   36.18
   6  -2  -1  976.83   38.62
   6  -2   0 1336.00   47.37
   6  -2   0 1405.74   46.39
  -6   2  -1  316.97   17.88
  -6   2  -2  126.62   10.63
   6  -2   3  163.69   11.79
  -6   2  -3  155.15   11.88
   6  -2   4  313.02   17.64
   6  -2   5  744.24   30.92
  -6   2  -6  272.15   18.12
   6  -2   6  283.70   16.71
  -6   2  -6  326.08   20.53
  -6   2  -7    2.65    1.65
   6  -2   7    2.58    1.51
  -6   2  -7    0.50    0.99
  -6   2  -7    0.60    1.26
  -6   2  -8    3.63    1.74
   6  -2   8    3.45    1.67
  -6   2  -8    2.24    1.76
  -6   2  -8    2.76    1.90
  -6   2  -9  451.76   20.60
  -6   2  -9  513.06   22.73
  -6   2  -9  475.99   21.59
  -6   2 -10  473.30   18.61
  -6   2 -10  489.19   19.14
   6  -1  -7    4.50    1.31
   6  -1  -7    7.07    1.75
   6  -1  -6   75.31    6.84
   6  -1  -6   78.48    6.97
   6  -1  -5  449.18   20.57
   6  -1  -5  440.65   20.60
   6  -1  -4  535.00   22.86
   6  -1  -3  235.88   16.42
   6  -1  -3  255.36   14.55
   6  -1  -2    2.33    1.61
   6  -1  -2    6.17    2.04
  -6   1   1  217.01   14.49
  -6   1   0  787.35   31.40
  -6   1  -1 1115.59   39.91
  -6   1  -2  405.22   20.10
  -6   1  -3  146.07   11.21
  -6   1  -4   99.80    9.51
   6  -1   5  795.30   32.19
   6  -1   6  485.49   23.96
  -6   1  -6  585.04   34.58
   6  -1   7 1448.26   51.21
  -6   1  -7 1582.78   56.51
   6  -1   8   70.71    7.75
  -6   1  -8   68.45    8.50
  -6   1  -9   44.47    5.65
   6  -1   9   50.31    5.91
  -6   1  -9   49.46    6.39
  -6   1 -10  232.89   12.52
   6  -1  10  252.17   12.48
  -6   1 -10  244.41   13.17
  -6   1 -11  212.66    9.71
  -6   1 -11  228.36   10.50
   6   0  -8  243.01   10.19
   6   0  -8  249.23   10.66
   6   0  -7   80.91    6.34
   6   0  -7   83.25    6.38
   6   0  -6    1.42    1.04
   6   0  -6    1.32    0.67
   6   0  -5  139.55   10.33
   6   0  -5  135.20   10.04
   6   0  -4  718.44   28.87
   6   0  -3 1074.14   42.12
   6   0  -3 1132.25   38.07
   6   0  -2  827.19   34.33
  -6   0   2  900.71   36.07
  -6   0   1  330.78   18.04
  -6   0   0   23.50    4.19
  -6   0  -1  176.22   11.77
  -6   0  -2  733.53   29.29
  -6   0  -3  614.01   26.80
  -6   0  -3  640.30   26.61
  -6   0  -4  117.68   10.54
  -6   0  -5   41.59    6.19
   6   0   6 1047.93   40.75
  -6   0  -6 1267.12   53.65
   6   0   7  771.95   32.45
  -6   0  -7  771.23   34.76
  -6   0  -7  809.62   39.40
   6   0   8  677.17   29.47
  -6   0  -8  664.21   30.64
  -6   0  -8  640.89   32.41
  -6   0  -9  159.73   12.20
  -6   0  -9  143.98   12.52
   6   0  10    1.70    0.98
  -6   0 -10    2.08    1.25
  -6   0 -11   31.44    3.51
   6   0  11   36.52    3.85
   6   1  -8  218.44    9.64
   6   1  -8  221.77   10.27
   6   1  -7  354.46   16.67
   6   1  -7  327.86   14.81
   6   1  -6  465.62   20.24
   6   1  -6  480.40   20.15
   6   1  -5  140.17   10.46
   6   1  -5  151.53   10.54
   6   1  -5  156.10   10.41
   6   1  -4   34.04    5.03
   6   1  -4   40.36    5.81
   6   1  -4   31.62    4.54
   6   1  -4   36.12    5.05
   6   1  -3  529.01   23.98
   6   1  -3  467.19   21.58
   6   1  -3  496.63   21.44
  -6  -1   2  756.75   31.90
  -6  -1   1  777.28   31.00
  -6  -1   0  420.06   19.88
  -6  -1  -1   43.69    5.55
  -6  -1  -2  689.60   28.14
   6   1   3 1391.23   43.59
  -6  -1  -3 1579.03   50.06
  -6  -1  -4 1551.41   53.60
  -6  -1  -5  346.26   19.85
   6   1   6  192.94   13.45
  -6  -1  -6  168.18   13.22
  -6  -1  -6  195.98   17.20
  -6  -1  -7  234.53   18.57
  -6  -1  -8  339.57   19.69
  -6  -1  -8  331.28   21.62
  -6  -1  -9  247.24   15.64
  -6  -1  -9  275.51   18.28
  -6  -1 -10  168.11   10.91
  -6  -1 -10  180.89   13.13
   6   1  11    0.75    0.38
   6   2  -8   14.41    2.06
   6   2  -8   14.96    2.27
   6   2  -7  323.16   15.44
   6   2  -7  280.23   12.59
   6   2  -7  293.16   13.59
   6   2  -6  541.67   22.49
   6   2  -6  563.54   22.65
   6   2  -5  585.39   25.20
   6   2  -5  635.80   25.65
   6   2  -4   82.70    7.97
   6   2  -4   85.28    8.64
   6   2  -4   85.96    8.07
   6   2  -4   87.09    8.23
   6   2  -3    4.68    1.74
   6   2  -3    4.92    1.72
   6   2  -3    3.02    1.19
   6   2  -3    3.10    2.09
   6   2  -3    4.54    2.15
   6   2  -2  161.24   12.21
  -6  -2   1 1483.41   49.44
   6   2   0  568.65   21.00
  -6  -2   0  653.48   25.84
   6   2   1  187.97   10.07
  -6  -2  -1  203.30   12.70
   6   2   2   17.35    2.85
  -6  -2  -2   26.46    4.16
   6   2   3  563.02   21.90
  -6  -2  -3  611.76   25.86
   6   2   4 1005.22   34.64
  -6  -2  -4 1156.66   40.75
  -6  -2  -5 1205.65   44.44
  -6  -2  -6  286.62   17.48
  -6  -2  -6  263.75   15.96
  -6  -2  -6  295.48   19.93
  -6  -2  -7   41.02    5.75
  -6  -2  -7   51.87    7.89
  -6  -2  -8  164.05   12.53
  -6  -2  -8  153.24   11.44
  -6  -2  -8  161.11   14.17
  -6  -2  -9  443.44   21.25
  -6  -2  -9  452.37   21.15
  -6  -2  -9  473.63   25.01
  -6  -2 -10  394.53   21.10
   6   2  11  327.61   15.28
  -6  -2 -11  287.43   15.14
   6   3  -7   12.60    2.32
   6   3  -7   11.81    2.13
   6   3  -7   12.18    2.55
   6   3  -6  154.37   11.00
   6   3  -6  140.24    9.80
   6   3  -6  133.51    9.43
   6   3  -5  251.36   14.69
   6   3  -5  284.12   15.87
   6   3  -5  268.40   15.40
   6   3  -4  222.13   14.30
   6   3  -4  206.14   13.34
   6   3  -4  196.55   13.04
   6   3  -4  208.58   13.89
   6   3  -4  213.61   13.68
   6   3  -4  217.78   14.05
   6   3  -3  275.34   15.84
   6   3  -3  263.19   15.14
   6   3  -3  289.19   15.78
   6   3  -3  273.17   16.07
   6   3  -3  285.59   15.95
   6   3  -3  277.99   16.29
   6   3  -2   25.99    4.06
   6   3  -2   26.39    4.30
   6   3  -1  265.99   13.11
   6   3   0 1023.03   33.74
   6   3   1 1314.38   41.48
  -6  -3  -1 1272.77   43.70
   6   3   2  790.78   28.53
   6   3   3   66.00    6.16
  -6  -3  -3   79.65    7.60
   6   3   4  169.90   10.54
  -6  -3  -4  188.81   12.72
   6   3   5  288.91   14.92
  -6  -3  -5  337.89   18.39
  -6  -3  -6  817.41   34.84
  -6  -3  -6  822.35   33.37
  -6  -3  -6  798.21   32.31
  -6  -3  -6  731.59   33.90
  -6  -3  -7  140.25   12.69
  -6  -3  -7  121.71   10.40
  -6  -3  -7  131.46   12.29
  -6  -3  -8    7.34    3.15
  -6  -3  -8    2.50    1.64
  -6  -3  -8    2.11    1.91
  -6  -3  -9   36.75    5.29
  -6  -3  -9   35.63    6.16
  -6  -3 -10  506.95   21.74
  -6  -3 -10  501.96   24.50
   6   3  11  316.47   14.55
  -6  -3 -11  285.52   15.20
   6   3  12  124.09    6.45
   6   4  -7   28.72    3.45
   6   4  -7   28.33    3.37
   6   4  -7   28.05    3.46
   6   4  -7   25.16    3.02
   6   4  -6    1.73    0.82
   6   4  -6    3.82    1.78
   6   4  -6    1.87    0.88
   6   4  -5   78.28    7.94
   6   4  -5   89.56    8.08
   6   4  -5   78.96    7.89
   6   4  -5   84.27    8.18
   6   4  -4  629.03   27.25
   6   4  -4  607.85   26.30
   6   4  -4  624.32   26.59
   6   4  -4  617.32   27.15
   6   4  -4  667.76   27.71
   6   4  -4  603.46   27.17
   6   4  -3  767.41   30.99
   6   4  -3  751.35   30.44
   6   4  -3  764.18   30.51
   6   4  -3  808.78   31.80
   6   4  -3  812.43   31.84
   6   4  -3  803.66   32.37
   6   4  -2  599.58   24.85
   6   4  -2  586.98   23.93
   6   4  -2  564.38   24.23
   6   4  -2  627.54   26.19
   6   4  -2  561.65   24.74
   6   4  -2  618.79   26.71
   6   4  -1   28.46    4.11
   6   4   0   51.43    5.48
   6   4   1  509.46   21.40
   6   4   2 1437.07   46.68
   6   4   3  120.10    8.91
   6   4   4   72.82    6.79
   6   4   5  155.81   10.52
  -6  -4  -6  348.29   20.71
   6   4   6  339.67   18.29
  -6  -4  -6  343.29   19.46
  -6  -4  -6  360.14   19.30
  -6  -4  -6  301.51   19.14
  -6  -4  -7  819.40   35.62
  -6  -4  -7  837.72   32.89
  -6  -4  -8  617.95   29.90
  -6  -4  -8  627.93   27.37
  -6  -4  -8  585.94   29.06
  -6  -4  -9   75.52    7.70
  -6  -4  -9   69.00    8.54
  -6  -4  -9   71.99    8.74
  -6  -4 -10    1.51    1.12
  -6  -4 -10    4.50    1.92
   6   4  11   79.08    6.02
  -6  -4 -11   70.96    6.62
   6   5  -7  203.62    9.72
   6   5  -7  193.47    9.13
   6   5  -6  187.25   11.09
   6   5  -6  186.99   10.42
   6   5  -5    2.09    1.24
   6   5  -5    2.54    1.25
   6   5  -4   38.49    5.58
   6   5  -4   43.27    5.78
   6   5  -4   41.79    5.67
   6   5  -4   43.79    6.04
   6   5  -4   40.65    5.95
   6   5  -3  694.01   28.74
   6   5  -3  665.32   28.29
   6   5  -3  669.21   28.49
   6   5  -3  725.86   29.75
   6   5  -3  697.60   29.32
   6   5  -3  683.25   29.76
   6   5  -2  513.39   23.24
   6   5  -2  512.85   22.69
   6   5  -2  524.56   23.38
   6   5  -2  582.60   25.07
   6   5  -2  515.71   24.66
   6   5  -2  526.78   24.01
   6   5  -1  457.39   19.83
   6   5  -1  441.36   22.13
   6   5  -1  452.69   21.34
   6   5   0   58.99    6.32
   6   5   0   58.16    6.47
   6   5   1  160.61   10.96
   6   5   2  177.68   11.82
   6   5   3  871.41   32.49
   6   5   4  491.54   21.72
  -6  -5  -5  243.93   16.64
   6   5   5  240.23   16.03
  -6  -5  -6    6.66    2.18
   6   5   6    7.93    2.76
  -6  -5  -6   10.29    3.10
  -6  -5  -6    2.38    2.09
  -6  -5  -7  341.94   21.43
   6   5   7  367.61   19.41
  -6  -5  -7  351.21   19.07
  -6  -5  -7  340.19   20.69
  -6  -5  -8  266.73   18.14
  -6  -5  -8  282.43   16.48
  -6  -5  -8  251.80   17.33
  -6  -5  -9  417.74   22.82
  -6  -5  -9  494.02   21.91
  -6  -5  -9  429.04   22.82
  -6  -5 -10   48.40    5.27
  -6  -5 -10   44.81    5.88
   6   5  11    2.17    0.87
  -6  -5 -11    1.09    0.74
   6   6  -6  414.52   17.08
   6   6  -6  424.63   17.11
   6   6  -5  421.97   19.36
   6   6  -5  434.34   19.69
   6   6  -4   66.14    7.34
   6   6  -4   64.62    7.31
   6   6  -3    5.09    1.92
   6   6  -3    3.79    1.90
   6   6  -3    5.16    2.28
   6   6  -3    4.66    2.01
   6   6  -3    5.39    2.37
   6   6  -2   79.56    7.89
   6   6  -2   76.56    7.89
   6   6  -2   75.95    8.05
   6   6  -2   86.68    8.94
   6   6  -2   72.06    7.87
   6   6  -1  265.01   15.69
   6   6  -1  248.34   15.99
   6   6  -1  253.35   15.66
   6   6   0  151.04   13.33
   6   6   0  127.71   10.28
   6   6   0  129.60   10.84
   6   6   0  131.34   10.82
   6   6   1  330.02   20.06
   6   6   1  320.02   18.22
   6   6   2  169.42   13.31
   6   6   2  175.84   13.59
   6   6   3  145.73   12.72
   6   6   4  769.51   34.18
   6   6   5  750.32   33.75
  -6  -6  -6  129.44   12.25
   6   6   6  124.58   11.45
  -6  -6  -6  115.53   11.21
  -6  -6  -7   10.45    3.54
   6   6   7   15.60    3.67
  -6  -6  -7   19.65    4.71
  -6  -6  -8   83.39    9.43
  -6  -6  -8  111.52    9.14
  -6  -6  -8   94.92    9.91
  -6  -6  -9  135.82   11.09
  -6  -6  -9  133.75   10.97
  -6  -6 -10  156.54   10.70
  -6  -6 -11   21.93    3.05
   6   7  -6   92.53    5.69
   6   7  -5  113.24    7.74
   6   7  -5  111.36    7.91
   6   7  -5  109.68    7.84
   6   7  -4  177.80   11.55
   6   7  -4  208.20   13.00
   6   7  -4  204.52   12.91
   6   7  -3   62.90    6.71
   6   7  -3   69.76    7.64
   6   7  -3   75.65    7.95
   6   7  -2    1.45    1.15
   6   7  -2    0.36    0.60
   6   7  -2   -0.45    1.06
   6   7  -2   -0.75    1.26
   6   7  -1  108.85    9.50
   6   7  -1  109.70   10.25
   6   7  -1  108.92    9.92
   6   7   0  728.27   34.14
   6   7   0  655.94   29.39
   6   7   1  279.75   17.00
   6   7   1  252.71   18.13
   6   7   2  310.46   19.61
   6   7   2  326.04   19.93
   6   7   3   56.87    8.11
   6   7   4  104.57   11.25
   6   7   5  122.60   11.94
   6   7   6  233.59   16.34
  -6  -7  -7   11.53    3.23
   6   7   7   12.49    3.35
  -6  -7  -7    9.11    3.11
  -6  -7  -8    5.37    2.12
   6   7   8    9.05    2.42
  -6  -7  -9   51.33    6.15
  -6  -7  -9   48.50    5.92
  -6  -7 -10   70.17    6.20
  -6  -7 -10   72.00    6.21
   6   8  -4  110.63    7.22
   6   8  -4  124.21    8.75
   6   8  -4  111.09    7.94
   6   8  -4  109.95    7.66
   6   8  -3  182.03   10.94
   6   8  -3  206.47   12.99
   6   8  -3  191.96   12.20
   6   8  -2  113.32    8.75
   6   8  -2  126.22   10.27
   6   8  -2  129.35   10.18
   6   8  -1   11.15    2.67
   6   8  -1    9.64    2.76
   6   8   0    5.09    2.14
   6   8   0    6.92    3.53
   6   8   1  261.64   15.86
   6   8   1  276.50   19.05
   6   8   2  264.59   17.38
   6   8   2  261.13   17.94
   6   8   3  130.75   11.49
   6   8   3  156.10   13.53
   6   8   4   11.72    3.58
   6   8   5   59.93    7.98
   6   8   6   27.53    5.10
  -6  -8  -7  206.00   14.55
   6   8   7  218.71   13.33
  -6  -8  -7  213.18   14.25
  -6  -8  -8  103.51    9.15
   6   8   8   90.97    6.95
  -6  -8  -8  108.91    9.02
  -6  -8  -9    7.45    2.01
  -6  -8  -9    9.26    2.24
   6   9  -3  131.44    8.53
   6   9  -3  118.52    7.76
   6   9  -2  139.43    9.70
   6   9  -2  124.17    8.91
   6   9  -1  149.84   10.31
   6   9   0   15.79    3.29
   6   9   0   23.57    4.72
   6   9   1    1.96    1.08
   6   9   1    1.30    1.33
   6   9   2   58.89    7.62
   6   9   2   47.83    6.19
   6   9   3   94.01    9.00
   6   9   3  113.53   10.60
   6   9   4   28.12    5.27
   6   9   5   71.17    8.17
   6   9   6   42.34    5.75
  -6  -9  -7   65.78    6.95
   6   9   7   63.54    5.94
  -6  -9  -8   92.95    7.41
   6   9   8   82.46    5.67
  -6  -9  -9   78.18    5.62
   6  10  -2   15.12    2.35
   6  10  -1   35.78    4.15
   6  10  -1   36.94    3.99
   6  10   0   96.65    7.20
   6  10   1    3.64    1.37
   6  10   2    4.25    1.58
   6  10   2    3.08    1.15
   6  10   2    4.36    1.92
   6  10   3   20.62    3.55
   6  10   3   24.39    3.78
   6  10   4  181.06   11.75
   6  10   5   53.43    5.88
  -6 -10  -6   63.70    6.25
   6  10   6   65.15    5.76
  -6 -10  -7    0.54    1.06
   6  10   7    0.89    0.71
   6  11   1   45.99    3.98
   6  11   2   41.26    3.69
   6  11   3    0.80    0.71
   6  11   4    1.20    0.61
   6  11   4    0.03    0.59
   6  11   5   38.65    3.53
   7  -6  -2  102.13    6.43
  -7   6   2  126.90   10.89
  -7   6   1  285.17   14.45
  -7   6   1  301.04   19.03
   7  -6   0   70.59    6.51
  -7   6   0   76.50    7.62
  -7   6   0   73.19    9.21
   7  -6   1    2.48    1.57
  -7   6  -1    5.13    2.19
  -7   6  -1    2.17    1.88
   7  -6   2   28.93    4.24
  -7   6  -2   29.58    5.42
  -7   6  -3  236.90   14.60
   7  -6   3  201.28   11.73
  -7   6  -4  164.46   11.84
   7  -6   4  124.48    8.13
  -7   6  -5   93.61    7.81
   7  -5  -4   25.59    2.97
   7  -5  -3    0.88    0.65
  -7   5   3    4.84    2.58
  -7   5   3    5.38    2.23
  -7   5   2  143.11   10.60
   7  -5  -2  169.70   10.80
   7  -5  -1  317.61   16.72
  -7   5   1  320.71   17.38
   7  -5   0  297.66   16.69
  -7   5   0  285.12   16.92
   7  -5   0  317.03   16.33
   7  -5   1  208.96   13.74
   7  -5   1  180.65   11.46
   7  -5   2   10.99    3.18
  -7   5  -3   10.29    3.89
   7  -5   3   13.69    3.23
  -7   5  -4  293.06   20.32
  -7   5  -5  222.16   16.07
  -7   5  -6  240.03   14.13
  -7   5  -7   15.93    2.58
   7  -4  -5  153.91    7.82
   7  -4  -5  164.76    8.04
   7  -4  -4  450.90   18.19
  -7   4   4  421.52   19.20
   7  -4  -4  449.95   17.93
   7  -4  -3  151.92   10.32
   7  -4  -3  138.50    9.53
   7  -4  -2   40.65    5.60
   7  -4  -1   18.79    3.91
  -7   4   1   20.16    4.17
   7  -4  -1   22.25    4.46
   7  -4   0  124.63   10.66
   7  -4   0  137.46   12.47
   7  -4   0  135.94   11.44
   7  -4   1  223.48   14.95
   7  -4   1  233.47   16.52
   7  -4   1  243.49   15.35
  -7   4  -2  287.09   18.72
   7  -4   2  271.17   17.64
   7  -4   2  240.75   14.78
  -7   4  -3   18.44    5.03
   7  -4   3    7.20    2.64
  -7   4  -4   49.71    8.38
  -7   4  -5  422.00   25.35
  -7   4  -6  632.29   28.23
  -7   4  -6  475.55   22.18
  -7   4  -7  325.85   16.30
  -7   4  -7  249.25   13.40
  -7   4  -8   92.66    6.51
   7  -3  -6   29.01    2.88
   7  -3  -5   81.97    5.92
   7  -3  -5   91.47    6.53
   7  -3  -4  182.22   10.69
   7  -3  -4  175.48   10.74
   7  -3  -3  398.98   19.05
   7  -3  -2  289.06   16.85
   7  -3  -2  339.15   17.97
   7  -3  -1  110.93   10.10
   7  -3  -1  120.44   11.54
   7  -3  -1  129.79   11.00
   7  -3   0    8.26    2.66
   7  -3   0    3.45    1.83
   7  -3   0    2.79    1.59
  -7   3  -1  467.35   24.33
   7  -3   1  469.57   25.12
   7  -3   1  484.57   24.19
  -7   3  -2  586.19   28.18
   7  -3   2  549.78   25.75
  -7   3  -3  814.37   35.08
   7  -3   3  657.87   28.31
  -7   3  -4  102.49   11.86
  -7   3  -5    6.87    2.89
  -7   3  -5    0.39    0.86
  -7   3  -6  166.24   14.49
  -7   3  -6  141.39   11.79
  -7   3  -7  382.99   20.43
  -7   3  -7  338.96   18.36
  -7   3  -8  278.95   14.64
  -7   3  -8  266.47   14.33
  -7   3  -9   48.70    4.37
   7  -2  -6  231.51   10.70
   7  -2  -5  126.76    7.90
   7  -2  -5  135.52    8.78
   7  -2  -4   26.22    3.90
   7  -2  -4   32.06    4.52
   7  -2  -3  116.39    9.27
   7  -2  -2  544.83   24.67
   7  -2  -2  486.36   25.58
   7  -2  -2  522.27   23.63
   7  -2  -1  682.44   29.92
   7  -2  -1  683.76   31.58
   7  -2  -1  717.77   29.76
   7  -2   0   29.15    5.11
   7  -2   0   27.18    5.43
   7  -2   0   21.17    4.40
  -7   2  -1   10.51    3.28
   7  -2   1   19.31    4.15
  -7   2  -2  649.95   29.35
   7  -2   2  673.67   28.96
  -7   2  -3  610.82   28.55
   7  -2   3  557.09   25.19
   7  -2   4  667.99   28.98
   7  -2   4  667.74   27.02
   7  -2   5  359.61   19.52
  -7   2  -5  441.58   24.34
   7  -2   6    0.76    0.85
  -7   2  -6    0.97    1.56
   7  -2   7   87.82    7.74
  -7   2  -7   92.12    9.58
  -7   2  -8  167.02   10.49
   7  -2   8  182.64   10.61
  -7   2  -9  268.69   12.50
  -7   2  -9  319.71   15.34
  -7   2 -10  260.05   10.94
   7  -1  -6  320.82   13.07
   7  -1  -6  354.45   14.54
   7  -1  -5  146.37    8.83
   7  -1  -5  153.21    9.80
   7  -1  -4  121.15    8.70
   7  -1  -3   26.70    4.21
   7  -1  -2  535.70   26.71
   7  -1  -2  533.98   23.45
   7  -1  -1  452.26   23.81
   7  -1  -1  452.44   21.46
   7  -1   0 1125.89   40.37
   7  -1   0 1027.07   41.39
   7  -1   0 1082.18   39.49
   7  -1   1  270.63   15.79
   7  -1   2   55.46    6.58
   7  -1   2   55.50    6.57
   7  -1   3   97.09    8.98
   7  -1   3  104.05    9.04
   7  -1   3  105.34    8.71
   7  -1   4  416.52   21.06
   7  -1   4  424.53   20.00
   7  -1   5  321.93   17.72
   7  -1   5  268.29   14.75
   7  -1   6  297.14   17.10
   7  -1   7    7.77    2.33
  -7   1  -7   11.25    3.66
   7  -1   8  100.21    8.47
  -7   1  -8  116.54   10.59
   7  -1   9  597.37   23.25
  -7   1  -9  611.52   25.36
   7  -1  10  391.72   15.17
  -7   1 -10  403.54   16.67
   7   0  -7    1.48    0.68
   7   0  -6  128.18    7.64
   7   0  -6  147.36    8.64
   7   0  -5  319.77   14.95
   7   0  -5  342.88   16.18
   7   0  -4  357.67   16.82
   7   0  -3  312.18   15.76
   7   0  -2  138.96   12.31
   7   0  -2  147.91   10.36
   7   0  -1  406.03   22.03
   7   0  -1  391.97   18.77
   7   0   0  237.31   15.70
   7   0   0  227.06   13.53
   7   0   0  224.98   14.01
   7   0   1  802.97   31.08
   7   0   1  864.13   32.28
  -7   0  -2  418.01   21.41
   7   0   2  422.36   19.86
   7   0   2  439.38   20.40
   7   0   3   47.23    6.00
  -7   0  -3   55.01    6.85
   7   0   3   51.46    6.13
   7   0   3   54.18    6.05
   7   0   4   39.92    5.57
   7   0   4   39.82    5.31
   7   0   4   39.92    4.97
   7   0   5  802.74   32.39
   7   0   5  790.21   30.26
   7   0   6  683.07   29.07
   7   0   6  626.29   25.72
   7   0   7  462.35   22.88
  -7   0  -7  542.17   29.16
   7   0   8   73.08    7.71
  -7   0  -8   65.81    8.14
   7   0   9   44.79    5.48
  -7   0  -9   40.63    5.56
   7   0  10  139.01    8.86
  -7   0 -10  125.25    8.51
  -7   0 -10  121.78    8.01
   7   1  -7   93.79    6.17
   7   1  -7   79.39    4.90
   7   1  -6    2.51    1.03
   7   1  -6    2.44    0.88
   7   1  -5   82.28    6.87
   7   1  -5   96.41    7.66
   7   1  -4  564.19   23.69
   7   1  -4  632.76   25.01
   7   1  -3 1215.04   41.78
   7   1  -3 1292.78   44.21
   7   1  -2  226.20   14.19
   7   1  -2  210.66   15.26
   7   1  -2  202.77   12.15
   7   1  -1  165.18   10.80
   7   1  -1  183.33   11.86
  -7  -1   0   38.25    5.88
   7   1   0   41.85    5.07
   7   1   0   37.90    5.00
  -7  -1  -1  671.06   28.78
  -7  -1  -2  830.84   33.59
  -7  -1  -2  854.69   32.70
  -7  -1  -3  713.61   30.36
   7   1   4    4.10    1.64
  -7  -1  -4    5.69    2.30
   7   1   4    2.32    1.20
   7   1   5   16.79    3.73
   7   1   5   10.42    2.55
   7   1   5   13.99    2.87
  -7  -1  -5   19.13    5.11
   7   1   6  800.60   33.00
   7   1   6  782.44   30.43
  -7  -1  -6  875.28   39.61
   7   1   7  695.66   30.10
   7   1   7  696.96   27.46
  -7  -1  -7  765.38   35.75
   7   1   8  451.77   22.09
  -7  -1  -8  429.37   22.78
  -7  -1  -8  453.07   24.80
   7   1   9  183.23   12.28
  -7  -1  -9  159.89   11.57
  -7  -1  -9  165.37   12.98
   7   1  10    4.78    1.80
  -7  -1 -10    7.64    2.01
   7   1  11  105.58    6.74
   7   2  -7  354.02   13.34
   7   2  -7  405.40   15.13
   7   2  -6  187.75    9.83
   7   2  -5  103.46    7.84
   7   2  -5  111.88    8.44
   7   2  -4   94.57    7.87
   7   2  -4   89.20    7.74
   7   2  -4   81.57    7.71
   7   2  -4   88.22    8.18
   7   2  -3  194.58   11.83
   7   2  -3  191.01   12.61
   7   2  -3  210.81   13.81
   7   2  -2  431.16   20.97
   7   2  -1  166.66   11.07
   7   2  -1  140.62    9.95
  -7  -2   0   91.46    9.01
   7   2   0   80.76    7.23
  -7  -2  -1  291.01   16.99
  -7  -2  -2  938.44   36.34
  -7  -2  -2  920.80   35.12
  -7  -2  -3  725.72   30.65
   7   2   4 1279.19   43.17
  -7  -2  -4 1453.48   49.83
   7   2   4 1424.90   46.20
   7   2   4 1353.50   44.90
   7   2   5  254.86   15.43
   7   2   5  224.89   13.25
  -7  -2  -5  224.88   17.10
   7   2   6   16.69    3.79
   7   2   6   10.51    2.50
  -7  -2  -6   12.28    4.05
   7   2   7  103.48    9.68
  -7  -2  -7   95.24   10.82
   7   2   8  737.85   30.27
  -7  -2  -8  675.84   29.92
  -7  -2  -8  683.07   32.24
   7   2   9  241.15   14.63
  -7  -2  -9  214.96   13.59
   7   2   9  233.47   12.51
  -7  -2  -9  226.74   15.64
   7   2  10  119.86    8.90
  -7  -2 -10   94.49    7.25
  -7  -2 -10  102.88    9.08
   7   2  11   -0.37    0.66
   7   3  -6  354.86   15.77
   7   3  -6  333.72   14.43
   7   3  -6  321.29   13.93
   7   3  -5  277.82   13.99
   7   3  -5  290.37   15.14
   7   3  -4   40.24    5.05
   7   3  -4   45.94    5.63
   7   3  -4   37.56    5.33
   7   3  -4   46.64    5.93
   7   3  -3   20.33    3.96
   7   3  -3   17.60    3.24
   7   3  -3   20.88    3.94
   7   3  -3   22.32    4.22
   7   3  -3   18.39    3.79
   7   3  -2  125.81   10.15
   7   3  -2  123.56    9.89
   7   3  -2  132.58   10.76
   7   3  -2  149.11   11.75
   7   3  -1  860.77   32.09
   7   3  -1  844.52   30.57
   7   3   0  756.84   28.21
   7   3   2  131.93    9.36
   7   3   3  381.07   17.76
   7   3   4  654.65   26.39
   7   3   4  628.47   25.22
   7   3   5  555.01   24.42
   7   3   5  664.12   27.27
   7   3   6  196.80   12.32
   7   3   6  220.39   14.54
  -7  -3  -6  187.84   15.05
   7   3   7    7.59    2.70
  -7  -3  -7    4.44    2.16
   7   3   8  131.47   10.72
  -7  -3  -8  116.86   11.40
   7   3   9  441.02   20.81
  -7  -3  -9  421.45   22.44
   7   3  10  422.38   18.50
   7   3  10  391.60   16.37
  -7  -3 -10  416.86   20.35
   7   3  11  141.42    8.07
  -7  -3 -11  138.61    8.92
   7   4  -6   74.65    5.83
   7   4  -6   69.85    5.32
   7   4  -6   67.00    5.34
   7   4  -5  324.92   15.85
   7   4  -5  318.57   15.05
   7   4  -4  234.83   13.51
   7   4  -4  238.67   14.09
   7   4  -4  255.91   15.07
   7   4  -4  246.95   14.82
   7   4  -3  221.50   14.27
   7   4  -3  221.88   13.26
   7   4  -3  223.20   13.16
   7   4  -3  218.07   14.00
   7   4  -3  247.08   15.04
   7   4  -3  220.97   14.49
   7   4  -2   16.57    3.58
   7   4  -2   14.68    2.88
   7   4  -2   17.62    3.84
   7   4  -2   16.49    3.69
   7   4  -2   19.10    3.74
   7   4  -1  362.57   18.30
   7   4  -1  329.33   17.15
   7   4  -1  374.67   20.00
   7   4   0  878.89   31.17
   7   4   0  846.39   31.19
   7   4   1  929.30   35.23
   7   4   1  933.76   34.12
   7   4   2  384.85   19.57
   7   4   2  449.84   20.25
   7   4   2  416.59   19.29
   7   4   3   45.29    5.76
   7   4   3   47.89    5.74
   7   4   4  184.51   12.38
   7   4   5  407.11   20.00
  -7  -4  -6  273.65   17.48
   7   4   6  282.44   15.92
   7   4   6  307.31   17.15
  -7  -4  -6  270.57   17.91
  -7  -4  -7  440.47   23.65
   7   4   7  508.35   23.52
  -7  -4  -7  447.51   24.29
   7   4   8   15.19    3.60
  -7  -4  -8   18.08    4.36
   7   4   9   40.47    5.27
  -7  -4  -9   32.82    5.42
   7   4  10  203.35   11.32
  -7  -4 -10  217.59   13.43
   7   4  11  253.37   10.94
  -7  -4 -11  248.26   12.39
   7   5  -6    4.64    1.30
   7   5  -5  119.20    8.76
   7   5  -5  120.49    8.60
   7   5  -4  501.09   21.58
   7   5  -4  513.96   22.83
   7   5  -4  518.67   23.21
   7   5  -3  513.59   23.81
   7   5  -3  501.17   22.26
   7   5  -3  503.65   22.17
   7   5  -3  529.69   23.97
   7   5  -3  497.56   23.65
   7   5  -3  520.55   24.18
   7   5  -2  373.75   19.48
   7   5  -2  370.97   18.21
   7   5  -2  365.00   17.65
   7   5  -2  382.68   19.98
   7   5  -2  366.06   19.00
   7   5  -2  365.22   19.89
   7   5  -1   16.70    3.62
   7   5  -1   16.34    3.30
   7   5  -1   14.11    3.50
   7   5  -1   14.44    3.65
   7   5  -1   17.56    3.62
   7   5   0  106.29    8.77
   7   5   0  120.71   10.58
   7   5   0  117.51    9.39
   7   5   1  128.56   10.07
   7   5   1  124.27    9.40
   7   5   1  131.68    9.89
   7   5   2  518.50   23.59
   7   5   2  494.50   22.20
   7   5   3   80.68    8.24
   7   5   4    3.62    1.72
   7   5   5   51.10    6.46
  -7  -5  -6  435.66   23.24
   7   5   6  479.95   22.46
  -7  -5  -7  601.68   28.00
   7   5   7  601.91   25.14
  -7  -5  -7  523.54   26.92
  -7  -5  -8  314.93   18.74
   7   5   8  338.00   17.09
  -7  -5  -8  302.28   18.69
   7   5   9   65.35    6.28
  -7  -5  -9   65.67    7.55
   7   5  10    5.21    1.47
  -7  -5 -10    5.62    1.94
  -7  -5 -11   26.35    3.29
   7   6  -5    3.59    1.11
   7   6  -5    5.92    1.64
   7   6  -4   16.61    3.13
   7   6  -4   15.84    3.32
   7   6  -3  296.11   16.49
   7   6  -3  273.81   15.10
   7   6  -3  277.19   16.23
   7   6  -3  272.33   15.83
   7   6  -3  274.17   15.98
   7   6  -2  304.69   17.14
   7   6  -2  291.92   15.97
   7   6  -2  288.87   16.72
   7   6  -2  297.56   17.08
   7   6  -2  272.94   16.78
   7   6  -1   84.45    8.35
   7   6  -1   76.20    7.50
   7   6  -1   80.83    8.31
   7   6  -1   86.38    8.84
   7   6  -1   81.23    8.09
   7   6   0   67.36    7.49
   7   6   0   68.68    7.83
   7   6   0   58.06    6.83
   7   6   1    7.41    2.47
   7   6   1    9.82    2.75
   7   6   2  207.19   14.11
   7   6   2  221.24   13.42
   7   6   3  615.10   27.56
   7   6   4  252.91   16.09
   7   6   5   77.54    8.29
  -7  -6  -6    1.63    1.84
   7   6   6    2.54    2.07
  -7  -6  -7  202.15   14.74
   7   6   7  213.46   13.22
  -7  -6  -7  208.28   15.02
  -7  -6  -8  190.51   13.30
  -7  -6  -8  157.76   12.48
  -7  -6  -9  110.06    9.33
  -7  -6  -9  101.31    8.74
  -7  -6 -10   36.83    4.47
   7   7  -5  173.70    8.49
   7   7  -4   23.40    3.38
   7   7  -4   29.39    4.02
   7   7  -3    2.83    1.35
   7   7  -3    3.62    1.67
   7   7  -3    3.56    1.78
   7   7  -2   41.56    5.49
   7   7  -2   43.75    5.55
   7   7  -2   41.41    5.67
   7   7  -1  285.49   16.35
   7   7  -1  301.71   16.27
   7   7  -1  282.00   16.27
   7   7  -1  319.06   17.78
   7   7  -1  302.76   17.00
   7   7   0  188.08   12.88
   7   7   0  223.98   14.18
   7   7   1   77.73    7.68
   7   7   1   74.26    7.88
   7   7   2   89.26    8.75
   7   7   3  111.94   10.29
   7   7   4  298.25   17.94
   7   7   5  542.10   25.40
  -7  -7  -6   31.07    5.38
   7   7   6   24.92    4.52
  -7  -7  -7    2.50    1.43
   7   7   7    2.73    1.26
  -7  -7  -8   23.39    4.09
   7   7   8   25.84    3.51
  -7  -7  -8   20.62    3.99
  -7  -7  -9  111.82    8.45
  -7  -7  -9  116.20    8.81
  -7  -7 -10   68.15    5.45
   7   8  -4   59.10    4.69
   7   8  -3   31.10    3.62
   7   8  -3   33.58    4.07
   7   8  -3   35.43    4.42
   7   8  -3   30.67    3.73
   7   8  -2   52.70    5.54
   7   8  -2   51.85    5.38
   7   8  -2   55.79    5.85
   7   8  -2   53.36    6.11
   7   8  -1   71.72    6.87
   7   8  -1   76.12    7.22
   7   8  -1   69.09    7.20
   7   8   0  310.08   16.29
   7   8   0  318.59   17.00
   7   8   1  179.25   12.19
   7   8   2  125.03   10.02
   7   8   3    5.61    2.35
   7   8   4   87.51    8.83
   7   8   5   83.49    8.35
  -7  -8  -6   95.60    9.24
   7   8   6   90.17    8.14
  -7  -8  -7   32.12    4.92
   7   8   7   35.68    4.47
  -7  -8  -8    0.00    0.57
   7   8   8    2.19    1.10
  -7  -8  -9   20.20    3.09
  -7  -8  -9   19.54    2.81
   7   9  -2  129.00    7.93
   7   9  -2  129.47    8.23
   7   9  -1    1.66    0.92
   7   9  -1    1.56    0.92
   7   9  -1    0.24    0.68
   7   9   0   19.64    3.23
   7   9   0   18.10    3.07
   7   9   0   17.51    3.16
   7   9   1   36.45    4.69
   7   9   2  144.15    9.54
   7   9   2  134.19    9.63
   7   9   3   25.89    4.16
   7   9   4   14.71    3.28
   7   9   5   41.82    5.33
  -7  -9  -6   52.44    5.98
   7   9   6   58.87    5.83
  -7  -9  -7  113.65    8.27
   7   9   7  103.27    6.87
  -7  -9  -8   92.36    6.49
   7   9   8   88.40    5.17
   7  10  -1   73.37    4.98
   7  10   0   34.81    3.63
   7  10   0   33.95    3.64
   7  10   1    6.54    1.62
   7  10   2   18.91    2.59
   7  10   2   21.28    3.07
   7  10   3   66.13    5.48
   7  10   3   68.50    5.76
   7  10   4   46.28    4.73
   7  10   5   13.02    2.37
   7  10   6    0.71    0.93
   7  10   6    0.85    0.54
   7  10   7   41.24    3.27
   8  -5  -1  196.20    9.34
  -8   5   0   76.60    6.21
   8  -5   0   61.71    4.83
   8  -5   1   22.42    3.46
  -8   5  -1   20.33    3.45
   8  -5   1   19.67    2.51
   8  -5   2   20.06    3.35
  -8   5  -2   15.97    3.29
   8  -5   3  189.36   10.76
   8  -5   4  182.34    9.94
   8  -5   5   28.83    3.20
   8  -4  -3    1.77    0.81
  -8   4   3    1.45    0.97
   8  -4  -2  113.32    7.52
   8  -4  -2  103.18    6.68
   8  -4  -1  287.01   14.07
   8  -4  -1  259.61   12.64
   8  -4   0  169.57   10.89
  -8   4   0  191.31   11.75
   8  -4   0  197.95   11.66
   8  -4   1  195.33   12.28
  -8   4  -1  212.43   13.15
   8  -4   1  206.74   13.48
   8  -4   1  197.24   11.62
   8  -4   2    6.23    2.10
   8  -4   2    6.88    2.11
   8  -4   2    5.45    1.53
   8  -4   3   42.53    5.33
   8  -4   3   33.25    4.69
  -8   4  -4  216.77   14.94
  -8   4  -5  526.42   24.45
  -8   4  -6  148.62   10.20
  -8   4  -7   27.92    3.40
   8  -3  -4  304.74   12.31
   8  -3  -4  352.27   13.12
   8  -3  -3  211.04   10.81
   8  -3  -3  208.64   10.79
   8  -3  -2   12.26    2.71
   8  -3  -1    6.47    2.03
   8  -3  -1    7.69    2.28
   8  -3   0  221.40   13.48
   8  -3   0  225.55   15.20
   8  -3   0  238.65   14.26
   8  -3   1  308.11   16.90
   8  -3   1  317.65   18.67
   8  -3   1  337.22   17.70
  -8   3  -2  348.80   19.10
   8  -3   2  311.34   17.20
   8  -3   2  353.98   19.60
   8  -3   2  333.74   17.28
  -8   3  -3   22.16    4.57
   8  -3   3   11.14    3.31
   8  -3   3   17.28    3.25
  -8   3  -4  192.79   14.51
  -8   3  -5  225.65   15.55
  -8   3  -6  551.35   24.49
  -8   3  -6  470.11   21.39
  -8   3  -7  312.66   15.25
  -8   3  -7  259.78   13.47
  -8   3  -8   48.96    4.49
   8  -2  -5   37.47    3.28
   8  -2  -4  143.96    8.02
   8  -2  -4  158.08    8.89
   8  -2  -3  251.03   12.78
   8  -2  -2  225.70   13.03
   8  -2  -1   15.46    3.22
   8  -2  -1   18.33    4.21
   8  -2  -1   24.80    4.16
   8  -2   0  103.54    9.18
   8  -2   0  111.08   10.61
   8  -2   0  127.44   10.18
   8  -2   1  469.24   22.32
   8  -2   1  477.29   24.45
   8  -2   1  507.91   23.27
   8  -2   2  673.83   30.62
   8  -2   2  691.06   29.09
  -8   2  -3  349.42   19.36
   8  -2   3  298.63   16.47
  -8   2  -4  184.90   13.98
  -8   2  -4  188.93   14.65
   8  -2   4  151.93   10.42
  -8   2  -5   15.62    4.09
  -8   2  -5   22.04    4.62
  -8   2  -6  106.66   10.16
  -8   2  -6  109.75    9.97
  -8   2  -7  357.08   18.06
  -8   2  -7  316.21   17.20
  -8   2  -8  193.10   11.11
  -8   2  -8  194.10   11.49
  -8   2  -9   20.91    2.75
  -8   2  -9   26.60    3.20
   8  -1  -5   77.04    5.49
   8  -1  -4   17.28    2.67
   8  -1  -4   14.64    2.62
   8  -1  -3  219.67   11.98
   8  -1  -2  256.32   14.23
   8  -1  -1  346.52   20.32
   8  -1  -1  340.73   17.59
   8  -1   0   67.16    8.18
   8  -1   0   66.67    7.15
   8  -1   1   18.92    3.71
   8  -1   1   15.62    3.87
   8  -1   1   15.62    3.45
   8  -1   2  282.74   16.20
  -8   1  -3  544.83   24.93
   8  -1   3  480.15   22.50
  -8   1  -4  425.66   21.70
   8  -1   4  346.95   17.77
   8  -1   5  170.62   12.21
   8  -1   5  171.66   10.83
   8  -1   6    0.42    0.52
  -8   1  -6    2.65    1.94
   8  -1   7  183.99   11.66
  -8   1  -7  209.26   14.43
   8  -1   8  207.22   11.47
  -8   1  -8  221.59   13.72
   8  -1   9  609.12   22.00
  -8   1  -9  690.76   24.70
  -8   1 -10   78.32    4.97
   8   0  -5  176.00    9.35
   8   0  -4   15.44    2.81
   8   0  -3   17.08    2.98
   8   0  -3   20.61    3.37
   8   0  -2  300.33   15.45
   8   0  -1  916.38   38.25
   8   0  -1  909.90   33.73
   8   0   0  806.58   34.47
   8   0   0  778.86   30.35
   8   0   1  281.45   15.60
   8   0   1  285.30   16.29
   8   0   2   11.46    2.85
   8   0   2   12.05    3.05
   8   0   3   48.87    6.02
   8   0   3   45.52    5.70
   8   0   4  542.43   25.06
   8   0   4  579.82   24.34
   8   0   4  584.14   23.54
   8   0   5  467.97   22.34
   8   0   5  454.85   20.36
   8   0   6  212.91   13.69
   8   0   6  203.82   11.86
   8   0   7    2.56    1.66
  -8   0  -7    0.04    0.98
   8   0   7    2.21    1.08
   8   0   8  259.50   14.19
  -8   0  -8  270.39   16.19
   8   0   9  368.05   16.14
  -8   0  -9  357.90   17.23
   8   0  10  345.83   13.63
  -8   0 -10  332.87   13.96
   8   1  -6  154.01    7.86
   8   1  -5  340.01   14.27
   8   1  -4  440.82   18.83
   8   1  -4  425.42   17.99
   8   1  -3  191.80   12.18
   8   1  -2    3.52    1.56
   8   1  -2    3.90    1.63
   8   1  -1  434.51   23.50
   8   1  -1  394.65   18.85
   8   1   0  386.87   18.44
   8   1   0  356.41   18.29
   8   1   1  354.89   17.57
   8   1   1  364.94   18.17
   8   1   2  353.38   17.76
   8   1   2  389.18   18.81
   8   1   3    3.04    1.55
   8   1   3    3.85    1.60
   8   1   4  368.34   19.38
   8   1   4  400.43   19.02
   8   1   4  390.59   18.37
   8   1   5  584.01   25.74
   8   1   5  565.40   23.96
   8   1   5  558.03   22.78
   8   1   6  814.62   32.63
   8   1   6  836.81   30.76
   8   1   7  367.45   18.79
   8   1   7  356.69   16.68
   8   1   8  124.27    9.50
  -8  -1  -8  115.74   10.25
   8   1   8  113.37    7.74
   8   1   9   51.85    5.53
  -8  -1  -9   54.49    6.07
   8   1  10  106.98    7.08
  -8  -1 -10   96.81    6.71
   8   2  -5  171.46    8.40
   8   2  -4  287.83   14.66
   8   2  -3  646.60   25.81
   8   2  -3  639.73   26.94
   8   2  -2  185.87   12.41
   8   2  -2  207.72   14.00
   8   2  -1    7.28    2.30
   8   2  -1    6.39    2.22
   8   2   0    7.49    2.90
   8   2   0    5.36    1.58
   8   2   0    6.13    2.00
   8   2   1  475.08   20.95
   8   2   1  512.53   21.83
   8   2   2  473.34   20.86
   8   2   2  473.11   21.20
   8   2   3  270.11   15.96
   8   2   3  277.47   15.29
   8   2   3  304.80   15.85
   8   2   4   65.97    7.37
   8   2   4   68.32    7.08
   8   2   4   70.25    6.90
   8   2   5   19.01    3.82
   8   2   5   19.12    3.66
   8   2   5   23.26    3.78
   8   2   6  397.63   20.17
   8   2   6  400.53   18.89
   8   2   6  364.72   17.35
  -8  -2  -6  396.87   22.35
   8   2   7  623.19   26.37
   8   2   7  611.79   24.77
  -8  -2  -7  591.23   28.47
   8   2   8  225.66   13.56
  -8  -2  -8  199.48   13.90
   8   2   8  225.52   12.30
  -8  -2  -8  209.76   14.64
   8   2   9  122.51    8.83
  -8  -2  -9   97.79    8.31
   8   2   9  106.60    7.15
  -8  -2  -9  108.84    9.32
   8   2  10   11.10    2.21
  -8  -2 -10   10.54    2.09
   8   2  11  128.93    6.52
   8   3  -5   75.50    5.89
   8   3  -5   70.33    5.03
   8   3  -5   78.99    5.84
   8   3  -4   36.89    4.03
   8   3  -4   44.18    5.21
   8   3  -3  238.08   14.06
   8   3  -3  224.10   14.06
   8   3  -2  280.90   15.72
   8   3  -2  299.99   16.86
   8   3  -2  306.79   17.44
   8   3  -1  335.72   17.33
   8   3  -1  366.31   17.24
   8   3   0   54.22    5.96
   8   3   0   51.50    5.67
   8   3   1   26.88    4.00
   8   3   1   17.36    3.37
   8   3   2  627.62   24.98
   8   3   2  614.10   25.22
   8   3   3  700.37   27.74
   8   3   3  706.82   27.97
   8   3   4  620.92   26.25
   8   3   4  583.00   25.31
   8   3   4  618.42   25.41
   8   3   5  352.91   18.65
   8   3   5  364.55   18.43
   8   3   5  354.44   17.57
   8   3   6   32.62    5.07
   8   3   6   29.62    4.53
   8   3   6   33.56    4.72
  -8  -3  -6   31.06    5.47
   8   3   7  124.01    9.99
   8   3   7  110.15    8.93
   8   3   7  111.53    8.46
  -8  -3  -7   93.48    9.75
   8   3   8  369.11   18.48
   8   3   8  418.43   18.47
  -8  -3  -8  350.79   19.85
   8   3   9  146.38    9.80
  -8  -3  -9  149.36   10.05
   8   3   9  153.67    9.37
  -8  -3  -9  137.74   10.75
   8   3  10   66.04    5.40
   8   3  10   54.91    4.27
  -8  -3 -10   61.81    6.03
   8   3  11    0.48    0.24
   8   4  -5   82.03    6.10
   8   4  -4   39.05    4.26
   8   4  -4   35.94    4.68
   8   4  -3   21.98    3.38
   8   4  -3   29.89    4.18
   8   4  -3   33.00    4.94
   8   4  -3   28.95    4.60
   8   4  -2  430.95   20.35
   8   4  -2  398.61   18.97
   8   4  -2  427.05   20.94
   8   4  -2  388.26   20.38
   8   4  -1  473.35   21.81
   8   4  -1  492.27   21.35
   8   4  -1  485.00   23.63
   8   4   0  692.53   27.58
   8   4   0  709.81   26.89
   8   4   1   83.65    7.49
   8   4   2    5.28    1.74
   8   4   2    7.31    2.09
   8   4   3  128.58   10.27
   8   4   3  131.42    9.84
   8   4   3  137.68   10.23
   8   4   4  705.76   28.57
   8   4   4  704.38   28.46
   8   4   4  708.47   28.38
   8   4   5  164.58   11.50
   8   4   5  165.96   11.42
   8   4   6   75.13    7.37
   8   4   6   84.29    7.97
   8   4   6   80.10    7.60
   8   4   7   20.32    3.83
   8   4   7   16.19    3.32
  -8  -4  -7   18.66    4.32
   8   4   8   67.35    6.72
   8   4   8   81.64    6.80
  -8  -4  -8   60.98    7.40
   8   4   9  363.31   16.52
   8   4   9  401.81   17.02
  -8  -4  -9  361.38   18.61
   8   4  10  304.76   13.01
   8   4  10  319.26   12.90
  -8  -4 -10  309.49   14.99
   8   5  -5  197.73    9.77
   8   5  -4  217.29   11.19
   8   5  -3   23.19    3.64
   8   5  -3   25.64    4.22
   8   5  -3   22.15    3.88
   8   5  -2    1.27    1.33
   8   5  -2    4.12    1.82
   8   5  -2    1.17    1.35
   8   5  -2    1.16    1.02
   8   5  -1  237.52   14.50
   8   5  -1  248.37   15.34
   8   5  -1  253.15   14.30
   8   5  -1  250.71   15.61
   8   5   0  355.66   18.25
   8   5   0  373.03   17.91
   8   5   0  372.44   19.89
   8   5   1  292.92   15.21
   8   5   1  307.13   17.51
   8   5   1  289.84   15.25
   8   5   2   59.83    6.77
   8   5   2   58.01    6.33
   8   5   3    4.37    1.56
   8   5   3    6.10    2.03
   8   5   3    6.61    2.10
   8   5   4   19.45    3.76
   8   5   4   24.01    4.12
   8   5   4   19.96    3.93
   8   5   5  536.45   23.77
   8   5   6  249.00   14.40
   8   5   7  199.41   12.01
  -8  -5  -7  185.17   13.54
   8   5   8   21.31    3.36
   8   5   8   21.58    3.41
  -8  -5  -8   16.48    3.67
   8   5   9   94.54    6.72
   8   5   9  106.58    6.91
  -8  -5  -9   97.00    8.48
   8   5  10   81.16    5.12
   8   5  10   91.01    5.76
  -8  -5 -10   89.53    6.82
   8   6  -4  382.01   16.04
   8   6  -4  372.27   15.31
   8   6  -3  382.61   17.31
   8   6  -2  152.98   10.93
   8   6  -2  135.33    8.97
   8   6  -2  136.76    9.98
   8   6  -2  132.93   10.15
   8   6  -2  135.13   10.22
   8   6  -1   13.78    3.20
   8   6  -1   11.46    2.88
   8   6  -1   11.66    2.88
   8   6  -1   15.68    3.26
   8   6   0   37.32    5.23
   8   6   0   35.79    5.26
   8   6   0   40.72    5.74
   8   6   0   37.86    5.04
   8   6   1  115.88    9.26
   8   6   1  124.58   10.15
   8   6   1  121.50    9.39
   8   6   2  133.70   10.41
   8   6   2  143.30   10.08
   8   6   2  136.83   10.01
   8   6   3  475.64   22.22
   8   6   3  476.10   21.45
   8   6   4   36.32    5.31
   8   6   4   46.47    5.58
   8   6   4   39.87    5.43
   8   6   5   45.31    5.84
   8   6   6  232.91   13.66
  -8  -6  -7  469.01   21.96
   8   6   7  475.80   20.25
   8   6   8  150.79    8.76
  -8  -6  -8  150.32   11.05
   8   6   9   25.35    3.10
  -8  -6  -9   28.31    4.01
   8   6  10   19.97    2.33
  -8  -6 -10   19.04    2.68
   8   7  -3   69.24    5.77
   8   7  -3   74.95    6.08
   8   7  -2  229.32   13.09
   8   7  -2  237.22   11.87
   8   7  -2  225.88   12.79
   8   7  -1   89.38    7.96
   8   7  -1   92.90    7.29
   8   7  -1   88.45    7.87
   8   7  -1   88.33    7.78
   8   7  -1   90.98    7.97
   8   7   0    3.73    1.58
   8   7   0    4.96    1.68
   8   7   0    4.90    1.85
   8   7   0    7.82    2.25
   8   7   0    4.13    1.53
   8   7   1   38.41    4.87
   8   7   1   39.30    5.32
   8   7   1   40.14    5.18
   8   7   2  432.95   19.85
   8   7   2  437.86   19.69
   8   7   3  279.09   15.70
   8   7   3  273.21   14.53
   8   7   4  261.17   15.31
   8   7   4  277.33   14.97
   8   7   5   72.10    7.20
   8   7   6   10.03    2.52
  -8  -7  -7   61.42    6.44
   8   7   7   69.86    6.09
   8   7   8  168.84    8.79
   8   7   9    7.75    1.53
   8   8  -2   78.94    5.57
   8   8  -2   84.63    5.76
   8   8  -2   77.07    6.18
   8   8  -1  139.65    9.10
   8   8  -1  150.46    8.81
   8   8  -1  143.82    9.35
   8   8   0  128.02    8.93
   8   8   0  134.32    8.62
   8   8   0  124.77    8.97
   8   8   1    3.59    1.51
   8   8   1    6.53    1.99
   8   8   2   -0.17    0.83
   8   8   2   -1.11    0.59
   8   8   3  153.35   10.53
   8   8   3  144.53    9.98
   8   8   4  102.13    8.39
   8   8   4   98.13    7.50
   8   8   5  152.45   10.26
   8   8   5  157.86   10.02
   8   8   6   40.48    4.68
   8   8   7   15.39    2.47
   8   8   8    2.56    0.80
   8   8   9   77.60    4.41
   8   9  -1   45.06    3.78
   8   9  -1   47.76    4.26
   8   9   0  120.26    7.36
   8   9   0  127.47    7.39
   8   9   0  124.30    7.82
   8   9   1  123.35    7.90
   8   9   1  145.15    8.18
   8   9   1  135.53    8.46
   8   9   2   39.06    3.98
   8   9   2   36.37    4.18
   8   9   3    9.41    2.06
   8   9   3    8.02    1.97
   8   9   4   16.81    2.86
   8   9   4   14.94    2.68
   8   9   5   67.29    5.80
   8   9   5   69.86    5.29
   8   9   6   31.34    3.66
   8   9   6   38.02    3.79
   8   9   7   50.37    3.99
   8   9   7   58.97    4.38
   8  10   1   17.85    2.28
   8  10   2   85.74    5.56
   8  10   3    5.29    1.21
   8  10   3    6.31    1.38
   8  10   4   -0.07    0.35
   8  10   4    2.06    0.85
   8  10   5   11.38    1.91
   8  10   5    9.50    1.68
   9  -4   1    0.82    0.42
   9  -4   2   33.09    3.58
   9  -4   3  102.08    6.54
  -9   4  -3   83.77    6.09
   9  -4   4  200.58    9.60
   9  -3  -2   53.18    4.00
   9  -3  -1  246.80   11.11
   9  -3  -1  224.92   10.42
   9  -3   0  213.76   11.03
   9  -3   1   95.79    7.12
   9  -3   1  102.32    8.30
   9  -3   1  104.57    7.32
   9  -3   2    6.50    1.77
   9  -3   2    5.53    1.76
   9  -3   2    9.92    2.04
   9  -3   3  162.94    9.91
   9  -3   3  164.44   10.56
   9  -3   3  150.81    8.52
   9  -3   4  274.88   13.18
   9  -3   4  255.36   13.20
  -9   3  -5  472.36   19.03
   9  -3   5  427.35   17.22
  -9   3  -6   70.64    5.61
   9  -2  -3  166.53    7.84
   9  -2  -2    0.89    0.45
   9  -2  -2    1.00    0.43
   9  -2  -1   22.55    3.22
   9  -2   0  233.98   12.05
   9  -2   0  231.08   14.07
   9  -2   0  252.92   13.07
   9  -2   1  372.53   17.07
   9  -2   1  369.42   19.01
   9  -2   1  381.31   17.53
   9  -2   2   67.87    6.55
   9  -2   2   71.29    7.59
   9  -2   2   64.47    6.32
  -9   2  -3   20.29    3.61
   9  -2   3   13.72    2.98
   9  -2   3   16.48    3.60
   9  -2   3   17.78    3.12
  -9   2  -4  188.00   11.82
   9  -2   4  195.19   12.45
   9  -2   4  172.82    9.96
  -9   2  -5  230.30   13.02
  -9   2  -5  225.64   13.26
  -9   2  -6  304.02   14.94
  -9   2  -6  330.71   15.56
  -9   2  -7  305.15   13.39
  -9   2  -7  283.75   13.23
   9  -1  -3  181.84    8.55
   9  -1  -3  196.93    9.56
   9  -1  -2  170.55    9.33
   9  -1  -1    1.17    0.86
   9  -1   0  130.99   10.90
   9  -1   0  143.30    9.66
   9  -1   1  181.44   13.01
   9  -1   1  184.06   11.60
   9  -1   2  876.09   32.30
   9  -1   2  862.76   34.87
   9  -1   2  935.15   33.37
   9  -1   3  289.78   15.05
  -9   1  -4  119.81    9.43
   9  -1   4  117.33    8.49
  -9   1  -5    7.22    1.89
  -9   1  -5    7.88    2.51
   9  -1   5    9.12    2.14
  -9   1  -6  127.95    9.25
  -9   1  -6  148.19   10.94
   9  -1   6  124.28    7.49
  -9   1  -7  239.16   12.59
  -9   1  -7  270.91   14.44
  -9   1  -8  238.63   11.34
  -9   1  -8  268.16   12.83
   9   0  -4   45.02    3.68
   9   0  -3  284.69   12.97
   9   0  -2  327.50   14.39
   9   0  -2  310.38   14.43
   9   0  -1  310.34   17.66
   9   0  -1  309.90   14.86
   9   0   0  235.16   15.31
   9   0   0  215.24   12.42
   9   0   1  154.44   12.21
   9   0   1  151.72   10.45
   9   0   2  167.63   12.75
   9   0   2  180.48   11.55
   9   0   3  475.13   21.02
   9   0   4  371.95   17.39
   9   0   4  360.94   16.61
  -9   0  -5  121.89    9.44
   9   0   5  115.75    8.36
  -9   0  -6    2.30    1.52
   9   0   6    0.91    1.01
   9   0   7  349.70   16.17
   9   0   7  332.94   14.08
   9   0   8  257.93   12.58
  -9   0  -8  292.95   14.95
  -9   0  -9  295.80   12.41
  -9   0  -9  336.51   14.02
   9   1  -4   23.18    2.63
   9   1  -3   37.57    4.18
   9   1  -3   32.35    3.75
   9   1  -2  232.12   12.91
   9   1  -1  634.90   27.82
   9   1  -1  649.96   24.02
   9   1  -1  571.48   23.01
   9   1   0  266.90   16.72
   9   1   0  244.66   13.43
   9   1   1  185.28   13.68
   9   1   1  162.26   10.74
   9   1   2    2.24    1.15
   9   1   2    4.99    1.76
   9   1   3  129.37    9.57
   9   1   3  127.00    9.41
   9   1   4  412.58   19.02
   9   1   4  412.55   18.49
   9   1   5  457.99   19.77
   9   1   5  456.15   18.97
   9   1   6   33.64    4.84
   9   1   6   44.27    4.86
   9   1   7   19.39    3.36
   9   1   7   20.23    2.97
   9   1   8  130.94    8.68
  -9  -1  -8  148.06   10.43
   9   1   8  125.96    7.31
   9   1   9  267.20   12.00
  -9  -1  -9  261.97   12.85
   9   2  -4  279.65   11.54
   9   2  -3  176.71    9.60
   9   2  -3  169.33    9.33
   9   2  -3  179.51   10.38
   9   2  -2    2.19    1.28
   9   2  -2    3.30    1.53
   9   2  -1   49.24    5.64
   9   2   0  341.36   19.22
   9   2   0  335.16   16.10
   9   2   1  144.17   11.73
   9   2   1  129.75    9.29
   9   2   1  123.98    9.35
   9   2   2  209.09   12.35
   9   2   2  198.38   12.35
   9   2   3    1.29    0.65
   9   2   3    0.31    0.48
   9   2   4  271.15   14.53
   9   2   4  261.54   14.08
   9   2   5  290.08   16.26
   9   2   5  326.44   15.89
   9   2   5  299.93   14.85
   9   2   6  662.16   26.86
   9   2   6  663.54   25.41
   9   2   6  669.56   24.58
   9   2   7  253.45   13.93
   9   2   7  254.16   12.90
   9   2   8   22.77    3.44
  -9  -2  -8   24.75    4.14
   9   2   8   25.27    3.25
   9   2   9   15.19    2.49
  -9  -2  -9   19.44    3.08
   9   2   9   16.25    2.10
   9   2  10  205.32    8.98
   9   3  -4  208.11    9.29
   9   3  -4  221.68    9.74
   9   3  -3  242.11   12.41
   9   3  -3  244.46   12.80
   9   3  -2  118.53    8.97
   9   3  -2  117.80    9.18
   9   3  -1    0.45    0.69
   9   3  -1    0.35    0.62
   9   3   0   56.03    5.78
   9   3   0   57.29    5.88
   9   3   1  472.39   20.04
   9   3   1  461.93   20.24
   9   3   2  601.81   24.22
   9   3   2  624.04   24.79
   9   3   3  243.22   13.63
   9   3   3  247.17   13.86
   9   3   4   92.67    7.94
   9   3   4   84.07    7.46
   9   3   5  108.25    8.96
   9   3   5  113.80    8.76
   9   3   5  109.91    8.46
   9   3   6  248.43   14.10
   9   3   6  255.37   13.57
   9   3   6  235.56   12.67
   9   3   7  416.36   18.74
   9   3   7  414.74   18.04
   9   3   7  400.30   16.95
   9   3   8  140.26    9.06
  -9  -3  -8  134.42   10.00
   9   3   8  139.32    8.62
   9   3   9    0.15    0.55
  -9  -3  -9    1.37    0.56
   9   3   9    0.77    0.32
   9   3  10   16.96    2.12
   9   4  -4   13.93    2.14
   9   4  -3  164.81    9.90
   9   4  -2  189.39   11.83
   9   4  -2  181.27   11.42
   9   4  -1  210.78   12.13
   9   4  -1  214.11   13.20
   9   4   0    4.73    1.65
   9   4   0    4.45    1.45
   9   4   0    2.94    1.49
   9   4   1   50.96    5.53
   9   4   1   52.57    5.67
   9   4   2  492.20   20.61
   9   4   2  487.20   20.94
   9   4   3  635.10   25.17
   9   4   3  647.24   25.69
   9   4   4  215.78   12.76
   9   4   4  215.51   12.72
   9   4   5   72.53    6.92
   9   4   5   67.71    6.54
   9   4   6   29.14    4.18
   9   4   6   29.81    4.20
   9   4   6   29.91    4.16
   9   4   7  185.05   11.00
   9   4   7  189.81   11.12
   9   4   7  185.40   10.59
   9   4   8  152.19    9.17
   9   4   8  165.76    9.52
   9   4   8  153.83    8.61
  -9  -4  -8  145.70   10.14
   9   4   9  204.59   10.00
   9   4   9  233.03   10.49
   9   5  -3   17.77    2.79
   9   5  -2  346.61   14.58
   9   5  -2  355.62   16.80
   9   5  -2  327.77   15.78
   9   5  -1  348.24   16.79
   9   5  -1  374.72   16.08
   9   5  -1  354.52   17.67
   9   5  -1  339.79   16.90
   9   5   0  349.56   16.87
   9   5   0  355.68   17.93
   9   5   0  338.44   17.18
   9   5   1  113.80    8.70
   9   5   1  110.51    8.14
   9   5   1  114.87    9.25
   9   5   2   33.86    4.45
   9   5   2   30.36    4.61
   9   5   3   59.39    5.88
   9   5   3   61.63    6.27
   9   5   4  242.37   13.36
   9   5   4  244.96   13.69
   9   5   5  146.53    9.96
   9   5   5  136.28    9.63
   9   5   6  111.82    8.43
   9   5   6  113.63    8.38
   9   5   7   13.30    2.63
   9   5   7   13.65    2.63
   9   5   8  125.58    8.04
   9   5   8  123.77    7.58
   9   5   9  246.02   10.67
   9   5   9  231.37    9.64
   9   6  -3   31.11    3.33
   9   6  -2    4.22    1.36
   9   6  -2    4.05    1.30
   9   6  -1  158.35   10.23
   9   6  -1  159.59    9.51
   9   6  -1  153.51   10.02
   9   6  -1  144.16    9.55
   9   6   0  209.82   12.34
   9   6   0  225.19   12.01
   9   6   0  205.85   12.34
   9   6   0  216.85   12.42
   9   6   1  176.06   10.99
   9   6   1  166.01   11.10
   9   6   1  167.60   10.14
   9   6   1  166.68   10.79
   9   6   2   84.05    6.82
   9   6   2   88.38    6.93
   9   6   3   -0.08    0.51
   9   6   4   56.71    6.10
   9   6   4   54.88    5.45
   9   6   4   56.83    5.84
   9   6   5  477.80   20.60
   9   6   5  479.63   20.02
   9   6   5  481.82   20.40
   9   6   6  240.70   12.83
   9   6   6  242.81   12.70
   9   6   6  249.67   12.94
   9   6   7   78.30    6.38
   9   6   7   78.85    6.28
   9   6   8   37.26    3.85
   9   6   8   31.82    3.43
   9   6   9   65.23    4.47
   9   6   9   58.43    3.93
   9   7  -2   50.42    4.14
   9   7  -1    2.14    0.83
   9   7  -1    2.11    0.85
   9   7   0    6.05    1.87
   9   7   0    7.62    1.82
   9   7   0    6.88    1.70
   9   7   0    7.58    1.91
   9   7   1  247.46   13.23
   9   7   1  252.28   13.11
   9   7   1  268.77   13.05
   9   7   2  106.09    7.98
   9   7   2  118.34    8.06
   9   7   3  118.89    7.85
   9   7   3  106.80    7.96
   9   7   3  113.97    7.85
   9   7   4    5.15    1.62
   9   7   4    5.61    1.95
   9   7   4    3.28    1.17
   9   7   5   33.11    4.25
   9   7   5   31.07    3.72
   9   7   5   38.27    4.43
   9   7   6  126.33    8.20
   9   7   6  120.77    7.78
   9   7   6  122.73    8.07
   9   7   7  240.95   11.21
   9   7   7  230.63   11.16
   9   7   8   52.13    4.15
   9   7   8   51.08    4.04
   9   8  -1   65.34    4.68
   9   8   0    3.08    1.16
   9   8   0    5.23    1.46
   9   8   1   16.31    2.63
   9   8   1   15.13    2.53
   9   8   2  135.10    8.43
   9   8   2  139.97    8.35
   9   8   3  153.64    8.84
   9   8   4  126.10    8.17
   9   8   4  110.02    6.91
   9   8   4  123.36    7.57
   9   8   5   26.73    3.43
   9   8   5   25.57    3.16
   9   8   5   21.79    2.84
   9   8   6   12.70    1.93
   9   8   6   16.57    2.47
   9   8   6   14.90    2.31
   9   8   7   14.59    1.90
   9   8   7   16.51    2.23
   9   8   8   68.91    4.12
   9   9   1    2.66    0.89
   9   9   1    2.93    0.95
   9   9   2    0.06    0.35
   9   9   2    0.89    0.73
   9   9   3   16.53    2.37
   9   9   3   17.81    2.37
   9   9   4  110.72    6.36
   9   9   5   23.71    2.55
  10  -2   0  198.75    8.76
  10  -2   1   75.17    5.13
  10  -2   2   15.79    2.72
  10  -2   2   16.32    2.25
  10  -2   3  146.67    7.49
  10  -2   3  147.14    8.87
  10  -2   3  146.46    7.47
  10  -2   4  256.09   10.53
  10  -2   4  255.31   11.75
  10  -2   4  224.27    9.42
  10  -2   5  300.63   12.42
  10  -1  -1  102.63    5.77
  10  -1   0  194.14    9.48
  10  -1   1  306.04   15.05
  10  -1   1  309.82   13.51
  10  -1   2  126.17    9.20
  10  -1   2  130.30    8.03
  10  -1   3   18.78    3.46
  10  -1   3   17.66    2.71
  10  -1   4   88.40    6.08
  10  -1   4   90.15    7.29
  10  -1   4   91.16    6.12
  10  -1   5  246.80   10.85
  10  -1   5  248.89   12.40
 -10   1  -5  243.73   12.01
  10  -1   5  221.72   10.05
  10  -1   6  199.81   10.08
 -10   1  -6  190.92    9.77
  10   0  -2   42.58    3.50
  10   0  -1    0.92    0.40
  10   0  -1    0.99    0.31
  10   0   0  107.88    6.98
  10   0   1  382.48   18.34
  10   0   1  387.55   16.26
  10   0   2  521.32   22.61
  10   0   2  508.77   20.23
  10   0   3  243.17   14.08
  10   0   3  238.70   12.17
  10   0   4   37.86    4.98
  10   0   4   37.07    4.10
  10   0   5    4.11    1.28
 -10   0  -6  192.76   11.15
  10   0   6  166.44    8.41
 -10   0  -7  240.31   11.98
  10   1  -2  372.22   13.76
  10   1  -2  345.00   13.17
  10   1  -1  178.02    8.66
  10   1  -1  173.19    9.45
  10   1   0   78.85    5.97
  10   1   1   69.64    7.09
  10   1   1   71.03    5.96
  10   1   2  153.24   10.93
  10   1   2  137.05    8.97
  10   1   3  246.53   14.38
  10   1   3  231.90   12.29
  10   1   4  280.96   13.54
  10   1   5   23.00    3.21
  10   1   6   51.12    4.56
 -10  -1  -7  217.11   11.99
  10   1   7  174.82    8.63
 -10  -1  -8  381.03   15.62
  10   2  -2  160.78    7.70
  10   2  -2  167.41    8.57
  10   2  -1  413.71   16.26
  10   2  -1  445.46   17.80
  10   2   0  216.65   10.70
  10   2   0  209.19   11.15
  10   2   1   37.00    4.98
  10   2   1   37.36    4.20
  10   2   2    3.38    1.26
  10   2   2    1.74    0.83
  10   2   3  291.14   15.91
  10   2   3  278.73   13.89
  10   2   3  286.15   14.05
  10   2   4  290.75   14.12
  10   2   4  297.74   13.92
  10   2   5  328.68   14.84
  10   2   5  327.37   14.31
  10   2   6   96.37    6.76
  10   2   6  101.95    6.54
  10   2   7    1.09    0.91
 -10  -2  -8  143.38    8.69
  10   2   8  137.88    6.93
  10   3  -2   17.76    2.42
  10   3  -2   21.03    2.79
  10   3  -1   81.05    6.24
  10   3  -1   81.32    6.46
  10   3   0  192.95   11.05
  10   3   0  189.04   11.04
  10   3   1  295.09   13.51
  10   3   2   60.15    5.58
  10   3   2   66.20    5.96
  10   3   3    1.32    1.16
  10   3   3    1.02    0.71
  10   3   3    0.57    0.97
  10   3   4  253.12   12.82
  10   3   4  240.70   12.44
  10   3   5  437.17   17.90
  10   3   5  414.88   17.23
  10   3   6  343.97   14.77
  10   3   6  324.05   13.98
  10   3   7  271.41   11.94
  10   3   7  253.02   11.06
 -10  -3  -8   -0.23    0.65
  10   3   8   -0.14    0.53
  10   4  -2   65.49    4.96
  10   4  -1    3.48    1.32
  10   4  -1    3.75    1.33
  10   4   0  174.11    9.35
  10   4   0  172.38   10.34
  10   4   0  158.12    9.73
  10   4   1  264.47   13.47
  10   4   2  516.67   19.81
  10   4   2  526.22   20.62
  10   4   3  166.49    9.76
  10   4   3  168.64   10.13
  10   4   4   30.84    3.98
  10   4   4   28.17    3.78
  10   4   5   40.41    4.47
  10   4   5   41.27    4.48
  10   4   6  263.82   12.49
  10   4   6  257.99   12.09
  10   4   7   97.93    6.49
  10   4   7   95.11    6.11
 -10  -4  -8  125.29    7.54
  10   4   8  123.91    6.78
  10   4   8  127.53    6.27
  10   5  -2  184.27    8.51
  10   5  -1  137.11    8.17
  10   5  -1  129.06    7.66
  10   5   0   28.20    3.46
  10   5   0   23.04    3.35
  10   5   0   24.03    3.26
  10   5   1   83.24    6.33
  10   5   1   81.49    6.76
  10   5   1   78.54    6.40
  10   5   2  179.02    9.90
  10   5   2  187.12   10.12
  10   5   2  186.42   10.52
  10   5   3  261.88   12.36
  10   5   3  274.00   12.41
  10   5   3  284.04   13.28
  10   5   3  267.20   12.98
  10   5   4  115.08    7.57
  10   5   4  119.86    8.03
  10   5   5    2.09    0.86
  10   5   5    2.19    0.95
  10   5   6    7.29    1.71
  10   5   6    6.92    1.59
  10   5   7  234.65   10.77
  10   5   7  232.32   10.47
  10   5   8  154.02    7.57
  10   5   8  159.94    7.24
  10   6  -1  301.75   11.92
  10   6   0  102.83    6.73
  10   6   0   86.01    6.24
  10   6   0   94.10    6.18
  10   6   1   38.78    4.11
  10   6   1   33.24    3.86
  10   6   1   36.52    3.80
  10   6   2   -0.37    0.82
  10   6   2    1.43    0.64
  10   6   2    1.76    0.96
  10   6   3   62.01    5.28
  10   6   3   59.30    5.06
  10   6   4   98.96    6.31
  10   6   4  107.57    7.14
  10   6   5  236.82   11.01
  10   6   5  251.94   11.72
  10   6   6    1.32    0.64
  10   6   6    1.08    0.61
  10   6   7    5.33    1.29
  10   6   7    3.90    1.13
  10   6   8   66.52    4.15
  10   6   8   57.24    3.74
  10   7   0  106.50    6.32
  10   7   1   75.08    5.46
  10   7   1   72.66    5.18
  10   7   2   34.50    3.65
  10   7   2   34.33    3.53
  10   7   3   10.65    2.00
  10   7   3    7.09    1.48
  10   7   3    9.77    1.93
  10   7   4  143.02    7.70
  10   7   5  108.18    6.50
  10   7   6  180.72    8.06
  10   7   6  195.29    8.88
  10   7   7   50.00    3.45
  10   7   7   52.15    3.72
  10   8   2  127.49    6.76
  10   8   3   18.38    2.34
  10   8   4    6.52    1.40
  10   8   5   42.74    3.19
  11   0   2  201.22    8.53
  11   0   3   20.20    2.70
  11   0   3   19.88    2.29
  11   0   4   37.39    3.64
  11   0   4   36.77    3.01
  11   1   1  378.48   13.35
  11   1   1  378.55   14.01
  11   1   2  250.70   11.57
  11   1   2  243.18   10.35
  11   1   3  190.13    9.95
  11   1   3  177.43    8.56
  11   1   4    6.52    1.63
  11   1   4    7.50    1.50
  11   1   5   22.52    2.90
 -11  -1  -5   19.95    2.75
  11   1   5   23.93    2.48
  11   1   6  247.10   10.59
  11   2   0   19.00    2.25
  11   2   1   28.78    2.69
  11   2   1   28.19    3.07
  11   2   2  161.90    8.68
  11   2   2  164.27    8.10
  11   2   3  102.74    6.90
  11   2   3   94.48    6.00
  11   2   4  236.73   11.37
  11   2   4  213.99    9.92
  11   2   5   16.99    2.56
  11   2   5   19.13    2.35
  11   2   6   70.22    5.08
 -11  -2  -6   70.49    5.56
  11   2   6   68.65    4.43
  11   3   0  111.98    6.13
  11   3   1   14.90    2.14
  11   3   1   14.56    2.21
  11   3   2    0.11    0.28
  11   3   2    0.26    0.41
  11   3   3  209.78    9.66
  11   3   4  322.27   12.94
  11   3   5  235.43   10.68
  11   3   5  227.23   10.05
  11   3   6  111.14    6.42
  11   3   6  118.47    6.26
 -11  -3  -7    0.55    0.44
  11   3   7    0.57    0.33
  11   4   1  230.20   10.10
  11   4   1  212.90    9.66
  11   4   2   22.03    2.83
  11   4   2   20.60    2.63
  11   4   3    0.26    0.34
  11   4   3    0.86    0.56
  11   4   4  187.48    8.75
  11   4   4  193.70    9.07
  11   4   4  172.19    8.25
  11   4   5  305.96   12.14
  11   4   5  313.04   12.23
  11   4   6  151.42    7.32
  11   4   6  157.29    7.26
  11   4   7   72.46    4.23
  11   5   1  227.76    9.82
  11   5   2  264.55   11.17
  11   5   2  252.02   10.26
  11   5   4    2.60    0.76
  11   5   4    5.18    1.23
  11   5   5    8.89    1.47
  11   5   5   10.52    1.70
  11   5   6  100.75    5.37
  11   5   6  105.49    5.52
  11   6   2  100.09    5.55
  11   6   3   76.53    4.84
  11   6   4   98.04    5.34
  11   6   4   90.81    5.33
  11   6   5    7.80    1.35
   0   0   0    0.00    0.00



TITL ED04091_2_corr in P-1
REM P-1 (#2 in standard setting)
CELL 1.54184   9.340029   9.428418   9.984261  80.4722  72.8906  73.5200
ZERR    2.00   0.000468   0.000491   0.000530   0.0044   0.0046   0.0045
LATT  1
SFAC C H N S Cl Au
UNIT 28.00 38.00 4.00 2.00 2.00 2.00
TREF
HKLF 4
END
_computing_structure_solution     'SHELXT 2014/5 (Sheldrick, 2014)'
_computing_structure_solution     'SHELXT 2014/5 (Sheldrick, 2014)'
;
_shelx_hkl_checksum              18526
_olex2_submission_special_instructions 'No special instructions were received'
_oxdiff_exptl_absorpt_empirical_details
;
Empirical correction (ABSPACK) includes:
- Absorption correction using spherical harmonics
- Frame scaling
;
_oxdiff_exptl_absorpt_empirical_full_max 2.815
_oxdiff_exptl_absorpt_empirical_full_min 0.640
loop_
_space_group_symop_operation_xyz
'x, y, z'
'-x, -y, -z'
loop_
_atom_site_label
_atom_site_type_symbol
_atom_site_fract_x
_atom_site_fract_y
_atom_site_fract_z
_atom_site_U_iso_or_equiv
_atom_site_adp_type
_atom_site_occupancy
_atom_site_site_symmetry_order
_atom_site_calc_flag
_atom_site_refinement_flags_posn
Au1 Au 0.63225(3) 0.37943(3) 0.09626(2) 0.02984(12) Uani 1 1 d .
Cl1 Cl 0.7454(2) 0.1631(2) -0.00725(18) 0.0368(4) Uani 1 1 d .
S1 S 0.1541(2) 1.0697(2) 0.5884(2) 0.0414(4) Uani 1 1 d .
N1 N 0.4085(6) 0.5977(6) 0.2942(5) 0.0261(11) Uani 1 1 d .
N2 N 0.6005(6) 0.6870(7) 0.1605(6) 0.0318(13) Uani 1 1 d .
C1 C 0.5395(8) 0.5676(8) 0.1894(7) 0.0284(13) Uani 1 1 d .
C7 C 0.3844(7) 0.7385(7) 0.3364(7) 0.0264(13) Uani 1 1 d .
C2 C 0.5069(8) 0.7967(8) 0.2495(7) 0.0294(14) Uani 1 1 d .
C6 C 0.2721(7) 0.8161(8) 0.4418(7) 0.0286(13) Uani 1 1 d .
H6 H 0.1891 0.7768 0.4997 0.034 Uiso 1 1 calc R
C5 C 0.2862(8) 0.9549(8) 0.4593(7) 0.0307(14) Uani 1 1 d .
C9 C 0.3063(9) 0.4396(8) 0.5037(7) 0.0328(15) Uani 1 1 d .
H9A H 0.4120 0.3930 0.5113 0.049 Uiso 1 1 calc GR
H9B H 0.2434 0.3671 0.5376 0.049 Uiso 1 1 calc GR
H9C H 0.2614 0.5244 0.5607 0.049 Uiso 1 1 calc GR
C8 C 0.3093(7) 0.4924(8) 0.3513(7) 0.0274(13) Uani 1 1 d .
H8 H 0.3572 0.4034 0.2964 0.033 Uiso 1 1 calc R
C3 C 0.5200(8) 0.9348(9) 0.2655(8) 0.0353(16) Uani 1 1 d .
H3 H 0.6020 0.9747 0.2062 0.042 Uiso 1 1 calc R
C4 C 0.4098(9) 1.0122(9) 0.3706(8) 0.0363(16) Uani 1 1 d .
H4 H 0.4167 1.1071 0.3843 0.044 Uiso 1 1 calc R
C10 C 0.1499(8) 0.5591(9) 0.3276(8) 0.0368(16) Uani 1 1 d .
H10A H 0.0940 0.6390 0.3893 0.055 Uiso 1 1 calc GR
H10B H 0.0926 0.4821 0.3489 0.055 Uiso 1 1 calc GR
H10C H 0.1599 0.5994 0.2292 0.055 Uiso 1 1 calc GR
C14 C 0.0471(10) 0.9476(10) 0.7050(8) 0.0413(18) Uani 1 1 d .
H14A H -0.0067 0.9099 0.6533 0.062 Uiso 1 1 calc GR
H14B H -0.0287 1.0018 0.7822 0.062 Uiso 1 1 calc GR
H14C H 0.1182 0.8641 0.7434 0.062 Uiso 1 1 calc GR
C11 C 0.7424(9) 0.6966(12) 0.0472(8) 0.048(2) Uani 1 1 d .
H11 H 0.7741 0.5954 0.0133 0.057 Uiso 1 1 calc R
C12 C 0.8723(10) 0.6925(15) 0.1009(9) 0.060(3) Uani 1 1 d .
H12A H 0.8528 0.7848 0.1436 0.090 Uiso 1 1 calc GR
H12B H 0.9667 0.6819 0.0234 0.090 Uiso 1 1 calc GR
H12C H 0.8849 0.6079 0.1718 0.090 Uiso 1 1 calc GR
C13 C 0.7093(11) 0.7872(14) -0.0746(9) 0.057(3) Uani 1 1 d .
H13A H 0.6249 0.7620 -0.0974 0.086 Uiso 1 1 calc GR
H13B H 0.8017 0.7700 -0.1540 0.086 Uiso 1 1 calc GR
H13C H 0.6786 0.8920 -0.0561 0.086 Uiso 1 1 calc GR
loop_
_atom_site_aniso_label
_atom_site_aniso_U_11
_atom_site_aniso_U_22
_atom_site_aniso_U_33
_atom_site_aniso_U_23
_atom_site_aniso_U_13
_atom_site_aniso_U_12
Au1 0.01949(16) 0.0475(2) 0.01807(16) 0.00186(11) -0.00446(11) -0.00457(12)
Cl1 0.0315(8) 0.0453(9) 0.0268(8) -0.0001(7) -0.0015(6) -0.0073(7)
S1 0.0339(9) 0.0410(9) 0.0529(11) -0.0123(8) -0.0136(8) -0.0079(8)
N1 0.021(3) 0.038(3) 0.019(2) 0.007(2) -0.008(2) -0.011(2)
N2 0.019(3) 0.055(4) 0.020(3) 0.012(2) -0.007(2) -0.014(3)
C1 0.021(3) 0.045(4) 0.019(3) 0.002(3) -0.009(2) -0.007(3)
C7 0.023(3) 0.035(3) 0.024(3) 0.009(3) -0.012(2) -0.011(3)
C2 0.025(3) 0.044(4) 0.022(3) 0.014(3) -0.013(3) -0.014(3)
C6 0.021(3) 0.035(3) 0.028(3) 0.006(3) -0.008(3) -0.008(3)
C5 0.027(3) 0.039(4) 0.030(3) 0.001(3) -0.013(3) -0.009(3)
C9 0.035(4) 0.038(4) 0.028(3) 0.011(3) -0.013(3) -0.016(3)
C8 0.022(3) 0.035(3) 0.025(3) 0.002(3) -0.006(2) -0.010(3)
C3 0.029(3) 0.046(4) 0.032(3) 0.019(3) -0.014(3) -0.019(3)
C4 0.036(4) 0.037(4) 0.045(4) 0.014(3) -0.024(3) -0.018(3)
C10 0.021(3) 0.054(4) 0.034(4) 0.010(3) -0.008(3) -0.015(3)
C14 0.041(4) 0.055(5) 0.022(3) -0.013(3) -0.003(3) -0.003(4)
C11 0.021(3) 0.085(6) 0.030(4) 0.016(4) -0.004(3) -0.016(4)
C12 0.027(4) 0.127(10) 0.028(4) -0.008(5) -0.005(3) -0.025(5)
C13 0.048(5) 0.106(8) 0.026(4) 0.012(4) -0.010(4) -0.042(5)
loop_
_atom_type_symbol
_atom_type_description
_atom_type_scat_dispersion_real
_atom_type_scat_dispersion_imag
_atom_type_scat_source
C C 0.0181 0.0091 'International Tables Vol C Tables 4.2.6.8 and 6.1.1.4'
H H 0.0000 0.0000 'International Tables Vol C Tables 4.2.6.8 and 6.1.1.4'
Au Au -4.4197 7.2980 'International Tables Vol C Tables 4.2.6.8 and 6.1.1.4'
Cl Cl 0.3639 0.7018 'International Tables Vol C Tables 4.2.6.8 and 6.1.1.4'
N N 0.0311 0.0180 'International Tables Vol C Tables 4.2.6.8 and 6.1.1.4'
S S 0.3331 0.5567 'International Tables Vol C Tables 4.2.6.8 and 6.1.1.4'
loop_
_exptl_crystal_face_index_h
_exptl_crystal_face_index_k
_exptl_crystal_face_index_l
_exptl_crystal_face_perp_dist
-1 5 1 0.0463
1 -5 -1 0.0926
5 1 4 0.0090
-2 1 -6 0.0404
-4 -2 1 0.0440
loop_
_geom_angle_atom_site_label_1
_geom_angle_atom_site_label_2
_geom_angle_atom_site_label_3
_geom_angle
C1 Au1 Cl1 178.04(18)
C5 S1 C14 103.6(4)
C1 N1 C7 110.0(5)
C1 N1 C8 122.8(6)
C7 N1 C8 127.2(5)
C1 N2 C2 109.6(5)
C1 N2 C11 123.4(7)
C2 N2 C11 126.9(7)
N1 C1 Au1 126.6(5)
N1 C1 N2 108.0(6)
N2 C1 Au1 125.4(5)
N1 C7 C2 106.2(6)
C6 C7 N1 132.0(6)
C6 C7 C2 121.8(7)
N2 C2 C7 106.2(6)
C3 C2 N2 132.5(6)
C3 C2 C7 121.2(7)
C7 C6 H6 121.5
C7 C6 C5 117.1(6)
C5 C6 H6 121.5
C6 C5 S1 123.4(5)
C6 C5 C4 120.5(7)
C4 C5 S1 116.1(6)
H9A C9 H9B 109.5
H9A C9 H9C 109.5
H9B C9 H9C 109.5
C8 C9 H9A 109.5
C8 C9 H9B 109.5
C8 C9 H9C 109.5
N1 C8 C9 111.2(5)
N1 C8 H8 107.1
N1 C8 C10 110.6(5)
C9 C8 H8 107.1
C10 C8 C9 113.4(6)
C10 C8 H8 107.1
C2 C3 H3 121.3
C4 C3 C2 117.4(6)
C4 C3 H3 121.3
C5 C4 H4 119.0
C3 C4 C5 122.0(7)
C3 C4 H4 119.0
C8 C10 H10A 109.5
C8 C10 H10B 109.5
C8 C10 H10C 109.5
H10A C10 H10B 109.5
H10A C10 H10C 109.5
H10B C10 H10C 109.5
S1 C14 H14A 109.5
S1 C14 H14B 109.5
S1 C14 H14C 109.5
H14A C14 H14B 109.5
H14A C14 H14C 109.5
H14B C14 H14C 109.5
N2 C11 H11 100.9
C12 C11 N2 112.9(7)
C12 C11 H11 100.9
C13 C11 N2 112.4(7)
C13 C11 H11 100.9
C13 C11 C12 124.1(8)
C11 C12 H12A 109.5
C11 C12 H12B 109.5
C11 C12 H12C 109.5
H12A C12 H12B 109.5
H12A C12 H12C 109.5
H12B C12 H12C 109.5
C11 C13 H13A 109.5
C11 C13 H13B 109.5
C11 C13 H13C 109.5
H13A C13 H13B 109.5
H13A C13 H13C 109.5
H13B C13 H13C 109.5
loop_
_geom_bond_atom_site_label_1
_geom_bond_atom_site_label_2
_geom_bond_distance
Au1 Cl1 2.2754(19)
Au1 C1 1.991(7)
S1 C5 1.768(8)
S1 C14 1.790(9)
N1 C1 1.349(8)
N1 C7 1.396(9)
N1 C8 1.481(8)
N2 C1 1.355(9)
N2 C2 1.399(10)
N2 C11 1.482(8)
C7 C2 1.407(9)
C7 C6 1.383(10)
C2 C3 1.381(11)
C6 H6 0.9500
C6 C5 1.395(10)
C5 C4 1.415(10)
C9 H9A 0.9800
C9 H9B 0.9800
C9 H9C 0.9800
C9 C8 1.515(9)
C8 H8 1.0000
C8 C10 1.515(9)
C3 H3 0.9500
C3 C4 1.373(12)
C4 H4 0.9500
C10 H10A 0.9800
C10 H10B 0.9800
C10 H10C 0.9800
C14 H14A 0.9800
C14 H14B 0.9800
C14 H14C 0.9800
C11 H11 1.0000
C11 C12 1.452(11)
C11 C13 1.426(11)
C12 H12A 0.9800
C12 H12B 0.9800
C12 H12C 0.9800
C13 H13A 0.9800
C13 H13B 0.9800
C13 H13C 0.9800
loop_
_exptl_oxdiff_crystal_face_indexfrac_h
_exptl_oxdiff_crystal_face_indexfrac_k
_exptl_oxdiff_crystal_face_indexfrac_l
_exptl_oxdiff_crystal_face_x
_exptl_oxdiff_crystal_face_y
_exptl_oxdiff_crystal_face_z
-1.0041 4.9954 0.9973 -0.5895 -0.5332 0.4726
1.0041 -4.9954 -0.9973 0.5895 0.5332 -0.4726
4.9958 1.0040 4.0036 0.7396 -0.5457 -0.0085
-1.9966 0.9961 -6.0004 -0.3865 0.6563 0.6328
-3.9984 -2.0012 0.9961 -0.5164 0.0075 -0.5768
