#------------------------------------------------------------------------------
#$Date: 2020-02-04 05:13:16 +0200 (Tue, 04 Feb 2020) $
#$Revision: 247531 $
#$URL: file:///home/coder/svn-repositories/cod/cif/4/13/39/4133969.cif $
#------------------------------------------------------------------------------
#
# This file is available in the Crystallography Open Database (COD),
# http://www.crystallography.net/
#
# All data on this site have been placed in the public domain by the
# contributors.
#
data_4133969
loop_
_publ_author_name
'Bear, Joseph C.'
'Cockcroft, Jeremy K.'
'Williams, Jeffrey H.'
_publ_section_title
;
 Influence of Solvent in Crystal Engineering: A Significant Change to the
 Order-Disorder Transition in Ferrocene.
;
_journal_issue                   4
_journal_name_full               'Journal of the American Chemical Society'
_journal_page_first              1731
_journal_page_last               1734
_journal_paper_doi               10.1021/jacs.9b11895
_journal_volume                  142
_journal_year                    2020
_chemical_formula_moiety         'C10 H10 Fe, 2(C3 F3)'
_chemical_formula_sum            'C16 H10 F6 Fe'
_chemical_formula_weight         372.09
_chemical_name_systematic        Ferrocene:hexafluorobenzene
_space_group_crystal_system      triclinic
_space_group_IT_number           2
_space_group_name_Hall           '-P 1'
_space_group_name_H-M_alt        'P -1'
_atom_sites_solution_hydrogens   difmap
_atom_sites_solution_primary     dual
_audit_creation_date             2019-04-26
_audit_creation_method
;
Olex2 1.2
(compiled 2018.05.29 svn.r3508 for OlexSys, GUI svn.r5506)
;
_cell_angle_alpha                77.856(6)
_cell_angle_beta                 76.835(6)
_cell_angle_gamma                84.259(6)
_cell_formula_units_Z            2
_cell_length_a                   7.1985(6)
_cell_length_b                   9.0868(6)
_cell_length_c                   11.4367(8)
_cell_measurement_reflns_used    5552
_cell_measurement_temperature    200
_cell_measurement_theta_max      27.7610
_cell_measurement_theta_min      4.5380
_cell_volume                     711.06(9)
_computing_cell_refinement       'CrysAlisPro 1.171.39.46 (Rigaku OD, 2018)'
_computing_data_collection       'CrysAlisPro 1.171.39.46 (Rigaku OD, 2018)'
_computing_data_reduction        'CrysAlisPro 1.171.39.46 (Rigaku OD, 2018)'
_computing_molecular_graphics    'Olex2 (Dolomanov et al., 2009)'
_computing_publication_material  'Olex2 (Dolomanov et al., 2009)'
_computing_structure_refinement  'ShelXL (Sheldrick, 2015)'
_computing_structure_solution    'ShelXT (Sheldrick, 2015)'
_diffrn_ambient_environment      C6F6
_diffrn_ambient_temperature      200
_diffrn_detector                 'CCD plate'
_diffrn_detector_area_resol_mean 5.2031
_diffrn_detector_type            Atlas
_diffrn_measured_fraction_theta_full 0.998
_diffrn_measured_fraction_theta_max 0.961
_diffrn_measurement_details
;
List of Runs (angles in degrees, time in seconds):

  # Type    Start    End  Width  t~exp~   \w     \q     \k     \f   Frames
--------------------------------------------------------------------------
  1  \w     47.00  78.00   1.00    1.00    --   11.09  57.00 -60.00   31
  2  \w      0.00  87.00   1.00    1.00    --   11.09  77.00-120.00   87
  3  \w    -15.00  83.00   1.00    1.00    --   11.09  57.00-180.00   98
  4  \w    -20.00  52.00   1.00    1.00    --   11.09 -99.00 -90.00   72
  5  \w     -1.00  65.00   1.00    1.00    --   11.09-122.00  18.34   66
  6  \w    -10.00  85.00   1.00    1.00    --   11.09  38.00  90.00   95
  7  \w     17.00  87.00   1.00    1.00    --   11.09-154.00 113.32   70
  8  \w    -59.00  39.00   1.00    1.00    --   11.09 -57.00 150.00   98
;
_diffrn_measurement_device       'four-circle diffractometer'
_diffrn_measurement_device_type  'SuperNova, Dual, Cu at home/near, Atlas'
_diffrn_measurement_method       '\w scans'
_diffrn_orient_matrix_type
'CrysAlisPro convention (1999,Acta A55,543-557)'
_diffrn_orient_matrix_UB_11      -0.0713631000
_diffrn_orient_matrix_UB_12      -0.0343661000
_diffrn_orient_matrix_UB_13      -0.0170874000
_diffrn_orient_matrix_UB_21      -0.0656872000
_diffrn_orient_matrix_UB_22      0.0122602000
_diffrn_orient_matrix_UB_23      0.0540253000
_diffrn_orient_matrix_UB_31      -0.0293841000
_diffrn_orient_matrix_UB_32      0.0711551000
_diffrn_orient_matrix_UB_33      -0.0316887000
_diffrn_radiation_monochromator  mirror
_diffrn_radiation_probe          x-ray
_diffrn_radiation_type           MoK\a
_diffrn_radiation_wavelength     0.71073
_diffrn_reflns_av_R_equivalents  0.0326
_diffrn_reflns_av_unetI/netI     0.0327
_diffrn_reflns_Laue_measured_fraction_full 0.998
_diffrn_reflns_Laue_measured_fraction_max 0.961
_diffrn_reflns_limit_h_max       9
_diffrn_reflns_limit_h_min       -9
_diffrn_reflns_limit_k_max       12
_diffrn_reflns_limit_k_min       -11
_diffrn_reflns_limit_l_max       14
_diffrn_reflns_limit_l_min       -15
_diffrn_reflns_number            12283
_diffrn_reflns_point_group_measured_fraction_full 0.998
_diffrn_reflns_point_group_measured_fraction_max 0.961
_diffrn_reflns_theta_full        25.242
_diffrn_reflns_theta_max         28.254
_diffrn_reflns_theta_min         3.226
_diffrn_source                   'micro-focus sealed X-ray tube'
_diffrn_source_type              'SuperNova (Mo) X-ray Source'
_exptl_absorpt_coefficient_mu    1.122
_exptl_absorpt_correction_T_max  1.000
_exptl_absorpt_correction_T_min  0.162
_exptl_absorpt_correction_type   gaussian
_exptl_absorpt_process_details
;
CrysAlisPro 1.171.39.46 (Rigaku Oxford Diffraction, 2018)
Numerical absorption correction based on gaussian integration over
			a multifaceted crystal model
Empirical absorption correction using spherical harmonics,
 implemented in SCALE3 ABSPACK scaling algorithm.
;
_exptl_crystal_colour            'clear dark orange'
_exptl_crystal_colour_lustre     clear
_exptl_crystal_colour_modifier   dark
_exptl_crystal_colour_primary    orange
_exptl_crystal_density_diffrn    1.738
_exptl_crystal_description       block
_exptl_crystal_F_000             372
_exptl_crystal_preparation       'Ferrocene disssolved in hot C6F6'
_exptl_crystal_recrystallization_method
'Crystals grown using C6F6 as solvent in an NMR tube stood in hot water'
_exptl_crystal_size_max          0.778
_exptl_crystal_size_mid          0.47
_exptl_crystal_size_min          0.322
_refine_diff_density_max         0.352
_refine_diff_density_min         -0.386
_refine_diff_density_rms         0.061
_refine_ls_extinction_method     none
_refine_ls_goodness_of_fit_ref   1.057
_refine_ls_hydrogen_treatment    refall
_refine_ls_matrix_type           full
_refine_ls_number_parameters     248
_refine_ls_number_reflns         3391
_refine_ls_number_restraints     0
_refine_ls_restrained_S_all      1.057
_refine_ls_R_factor_all          0.0457
_refine_ls_R_factor_gt           0.0329
_refine_ls_shift/su_max          0.000
_refine_ls_shift/su_mean         0.000
_refine_ls_structure_factor_coef Fsqd
_refine_ls_weighting_details
'w=1/[\s^2^(Fo^2^)+(0.0355P)^2^+0.1218P] where P=(Fo^2^+2Fc^2^)/3'
_refine_ls_weighting_scheme      calc
_refine_ls_wR_factor_gt          0.0737
_refine_ls_wR_factor_ref         0.0812
_reflns_Friedel_coverage         0.000
_reflns_number_gt                2749
_reflns_number_total             3391
_reflns_threshold_expression     'I > 2\s(I)'
_cod_data_source_file            ja9b11895_si_002.cif
_cod_data_source_block           exp_1220
_cod_depositor_comments
'Adding full bibliography for 4133967--4133980.cif.'
_cod_database_code               4133969
_shelx_shelxl_version_number     2014/7
_chemical_oxdiff_formula         'Fe1 C16 F6 H10'
_shelx_space_group_comment
;
The symmetry employed for this shelxl refinement is uniquely defined
by the following loop, which should always be used as a source of
symmetry information in preference to the above space-group names.
They are only intended as comments.
;
_reflns_odcompleteness_completeness 99.83
_reflns_odcompleteness_iscentric 1
_reflns_odcompleteness_theta     26.32
_olex2_refinement_description
;
;
_shelx_res_file
;
    exp_1220.res created by SHELXL-2014/7

TITL exp_1220 in P-1
REM P-1 (#2 in standard setting)
CELL 0.71073 7.19853 9.086826 11.436715 77.8555 76.8351 84.259
ZERR 2 0.000568 0.000576 0.000817 0.0057 0.0064 0.0058
LATT 1
SFAC C H F Fe
UNIT 32 20 12 2

L.S. 10 0 0
PLAN  1
BOND $H
list 4
fmap 2 53
acta
SHEL 50 0.75
OMIT -3 0 3
REM <olex2.extras>
REM <HklSrc "%.\\exp_1220.hkl">
REM </olex2.extras>

WGHT    0.035500    0.121800
FVAR       7.65042
FE1   4    0.239510    0.496150    0.252322    11.00000    0.02859    0.02498 =
         0.02615   -0.00359   -0.00815    0.00097
C7    1    0.317518    0.679876    0.119836    11.00000    0.04316    0.03953 =
         0.05127    0.01358   -0.01231   -0.00793
H7    2    0.438792    0.713516    0.095442    11.00000    0.04914
C8    1    0.244418    0.572709    0.070985    11.00000    0.05327    0.04263 =
         0.02419   -0.00219   -0.00744    0.00844
H8    2    0.312384    0.524884    0.008522    11.00000    0.04953
C9    1    0.056294    0.549237    0.135947    11.00000    0.04404    0.03737 =
         0.03589   -0.00547   -0.02046    0.00256
H9    2   -0.024316    0.481204    0.123950    11.00000    0.04599
C10   1    0.011776    0.641498    0.225272    11.00000    0.03804    0.03992 =
         0.03746   -0.00664   -0.01073    0.01114
H10   2   -0.104834    0.647116    0.282352    11.00000    0.04252
C11   1    0.173567    0.722061    0.215361    11.00000    0.06036    0.02574 =
         0.04557   -0.00666   -0.02363    0.00527
H11   2    0.188353    0.792101    0.264455    11.00000    0.04631
C12   1    0.473965    0.408099    0.319625    11.00000    0.03339    0.05046 =
         0.05188    0.00437   -0.01787    0.00208
H12   2    0.602434    0.447467    0.290138    11.00000    0.05501
C13   1    0.405828    0.301601    0.267547    11.00000    0.04617    0.03780 =
         0.03957   -0.00557   -0.00869    0.01724
H13   2    0.475157    0.260013    0.202161    11.00000    0.04751
C14   1    0.217617    0.273413    0.329749    11.00000    0.04824    0.02479 =
         0.03742   -0.00287   -0.01317    0.00029
H14   2    0.133898    0.210128    0.311800    11.00000    0.05668
C15   1    0.167117    0.362550    0.421566    11.00000    0.04085    0.03482 =
         0.02927   -0.00110   -0.00614    0.00019
H15   2    0.049365    0.367399    0.475246    11.00000    0.03782
C16   1    0.326441    0.446163    0.414203    11.00000    0.05229    0.03518 =
         0.03641   -0.00498   -0.02374    0.00123
H16   2    0.333835    0.515739    0.459258    11.00000    0.05521
F1    3    0.373417    1.000634   -0.114435    11.00000    0.03541    0.06224 =
         0.06367   -0.01428    0.00660   -0.00388
F2    3    0.139934    0.811969   -0.158651    11.00000    0.06358    0.04090 =
         0.04103   -0.01773   -0.00385    0.00714
F3    3   -0.232413    0.810701   -0.043742    11.00000    0.05640    0.05649 =
         0.07129   -0.02340   -0.01284   -0.01782
C1    1    0.188647    1.000838   -0.058459    11.00000    0.03365    0.03500 =
         0.03425   -0.00051   -0.00114    0.00144
C2    1    0.070245    0.904997   -0.080494    11.00000    0.04540    0.02709 =
         0.02793   -0.00444   -0.00653    0.00454
C3    1   -0.117536    0.904513   -0.022568    11.00000    0.03991    0.03109 =
         0.03714   -0.00305   -0.01139   -0.00400
F4    3    0.803246    0.151336    0.502966    11.00000    0.04818    0.06872 =
         0.08079   -0.01768   -0.01501   -0.02337
F5    3    0.457379    0.209235    0.642807    11.00000    0.07734    0.04361 =
         0.05069   -0.02319   -0.01676    0.00258
F6    3    0.153106    0.058687    0.638931    11.00000    0.04050    0.05895 =
         0.05094   -0.00488    0.00598    0.00849
C4    1    0.653142    0.076472    0.501406    11.00000    0.03728    0.03177 =
         0.04213   -0.00058   -0.01228   -0.00673
C5    1    0.478840    0.105854    0.572697    11.00000    0.04919    0.02691 =
         0.03269   -0.00642   -0.01332    0.00400
C6    1    0.324319    0.029195    0.571237    11.00000    0.03276    0.03444 =
         0.03092    0.00063   -0.00155    0.00573
HKLF 4

REM  exp_1220 in P-1
REM R1 =  0.0329 for    2749 Fo > 4sig(Fo)  and  0.0457 for all    3391 data
REM    248 parameters refined using      0 restraints

END

WGHT      0.0355      0.1218

REM Highest difference peak  0.352,  deepest hole -0.386,  1-sigma level  0.061
Q1    1   0.2038  0.5020 -0.0636  11.00000  0.05    0.35
;
_shelx_res_checksum              48930
_shelx_hkl_file
;
   0   0   2 6771.63 324.904   4
   0   0  -2 6974.20 337.916   4
   0   0   2 7146.85 356.790   2
   0   0  -2 7280.81 379.982   2
   0   0  -3-33.4475 86.2318   2
   0   0  -3 15.9610 35.8018   3
   0   0   3 97.0238 96.6377   4
   0   0   3-6.68272 128.806   2
   0   0  -3 140.078 119.115   4
   0   0   4 10659.5 566.096   4
   0   0  -4 11933.3 704.081   2
   0   0  -4 12595.3 650.297   5
   0   0   4 11473.2 645.939   2
   0   0  -4 12576.0 376.688   3
   0   0  -4 11801.5 637.068   4
   0   0  -5 14840.7 448.948   3
   0   0   5 15111.0 815.575   2
   0   0  -5 15608.5 913.727   2
   0   0  -5 15324.4 823.659   5
   0   0  -5 14470.5 795.488   4
   0   0   5 14365.5 739.533   4
   0   0  -6 50136.7 1817.22   2
   0   0   6 51211.8 1634.17   2
   0   0   6 52621.6 1388.86   7
   0   0   6 50758.7 1493.91   4
   0   0   6 49735.5 1572.43   6
   0   0  -6 50137.2 871.830   3
   0   0  -6 54567.9 1736.23   5
   0   0  -6 52386.4 1663.70   4
   0   0  -7 2440.53 462.890   5
   0   0  -7 2449.24 206.570   3
   0   0  -7 4089.21 582.429   4
   0   0   7 3784.53 602.289   2
   0   0   7 3442.06 473.143   6
   0   0   7 2596.95 371.164   7
   0   0  -8 35334.1 1611.81   4
   0   0   8 35242.5 1574.54   2
   0   0  -8 36661.6 1850.68   2
   0   0   8 36101.7 1458.27   4
   0   0   8 33485.1 1306.96   7
   0   0  -8 34988.4 742.915   3
   0   0  -8 34393.9 1670.53   5
   0   0   8 36423.3 1565.42   6
   0   0   9 100.222 244.868   2
   0   0   9 39.0797 107.142   7
   0   0  -9 462.594 293.496   2
   0   0  -9 173.924 236.790   5
   0   0  -9 125.289 59.3558   3
   0   0  -9 86.4881 161.534   4
   0   0   9 437.249 242.941   6
   0   0 -10 28888.0 1669.94   4
   0   0  10 28366.1 1580.37   2
   0   0 -10 26744.0 1704.15   5
   0   0  10 25082.1 1272.44   7
   0   0  10 28148.1 1706.44   1
   0   0  11 2292.68 506.037   2
   0   0  11 2501.83 556.236   1
   0   0 -11 1892.46 500.216   5
   0   0 -11 1995.26 484.922   4
   0   0  11 2256.32 429.552   7
   0   0  12 19752.7 1476.98   2
   0   0 -12 18055.9 1474.56   4
   0   0 -12 17521.2 1567.50   5
   0   0  12 20115.1 1608.39   1
   0   0  13 2925.34 626.616   2
   0   0  13 3650.22 747.530   1
   0   0 -13 2592.96 642.647   5
   0   0 -13 3246.21 668.600   4
   0   0 -14 163.639 259.074   4
   0   0  14 126.750 342.536   2
   0   0 -14 78.4533 265.072   5
   0   0  15-245.529 259.247   2
   0   0 -15 380.395 285.057   4
   0   1 -14 5201.03 964.380   5
   0   1 -14 3505.91 757.702   4
   0  -1  14 3627.10 739.924   2
   0   1 -13 1631.04 549.841   5
   0  -1  13 1045.39 420.406   2
   0   1 -13 1525.16 509.869   4
   0  -1  13 1169.75 466.985   1
   0  -1  12 7695.13 1016.06   1
   0  -1  12 6779.78 902.869   2
   0   1 -12 5960.88 910.349   4
   0   1 -12 6335.46 951.021   5
   0   1 -11 283.309 265.976   5
   0  -1  11 8.91396 225.337   2
   0   1 -11 156.019 277.932   4
   0  -1  10 8482.49 911.383   2
   0  -1  10 9193.07 842.770   7
   0   1 -10 8787.37 987.773   4
   0   1 -10 9464.44 1026.19   5
   0  -1   9 1313.27 330.364   7
   0   1  -9 1258.51 375.421   5
   0  -1   9 1121.18 367.230   2
   0   1  -9 1560.68 416.249   2
   0  -1   9 1286.54 332.374   6
   0   1  -9 820.404 296.506   4
   0   1  -8 132.556 233.907   5
   0   1  -8 323.590 272.657   4
   0  -1   8 316.982 214.315   4
   0  -1   8 427.380 222.295   6
   0   1  -8-215.907 205.389   2
   0  -1   8 565.127 303.818   2
   0  -1   8 245.567 166.011   7
   0  -1   7 310.311 221.457   4
   0   1  -7 36.3026 166.127   4
   0  -1   7-97.1540 252.174   2
   0   1  -7 30.4540 169.255   5
   0   1  -7 380.732 254.923   2
   0  -1   7-100.033 124.677   7
   0  -1   7 20.2684 137.957   6
   0  -1   6 57085.2 1635.13   7
   0   1  -6 57589.5 1898.05   4
   0  -1   6 53522.7 1593.17   6
   0   1  -6 56783.0 1821.19   5
   0  -1   6 60477.1 1838.07   2
   0  -1   5 2743.83 379.909   2
   0  -1   5 2235.77 303.529   7
   0  -1   5 2628.46 354.683   4
   0   1  -5 2166.00 337.023   5
   0   1  -5 3065.36 414.061   2
   0   1  -5 2122.30 353.561   4
   0  -1   4 45211.7 1317.29   2
   0   1  -4 43773.3 1281.98   5
   0   1  -4 43690.1 1327.64   2
   0   1  -4 43931.1 1355.51   4
   0  -1   4 40597.1 1124.06   5
   0  -1   3 126.666 95.3173   5
   0   1  -3-37.0129 105.267   2
   0   1  -3 69.7955 99.1887   5
   0   1  -3 106.629 122.246   4
   0  -1   3-38.1216 115.079   2
   0   1  -2 577376. 3565.46   5
   0  -1   2 568795. 3421.06   5
   0  -1   2 574463. 3565.39   2
   0  -1   1 110.319 49.6180   5
   0  -1  -2 432818. 2603.53   3
   0  -1  -2 427771. 1984.48   4
   0   1   2 442824. 2862.48   1
   0  -1  -2 425769. 2981.37   2
   0   1   2 417158. 2563.05   3
   0   1   3 1369.51 212.497   1
   0  -1  -3 1597.81 184.655   3
   0  -1  -3 1268.60 158.904   4
   0  -1  -3 1404.73 237.482   2
   0   1   3 1476.10 228.377   2
   0   1   4 201263. 2126.25   4
   0  -1  -4 203483. 2105.87   3
   0   1   4 207944. 2800.11   1
   0  -1  -4 205628. 2322.41   4
   0  -1  -4 199586. 3031.84   2
   0  -1  -5 12105.7 657.596   4
   0  -1  -5 12326.3 854.066   2
   0   1   5 11528.7 745.910   1
   0   1   5 11892.2 730.593   2
   0   1   5 11426.5 589.598   4
   0  -1  -5 12720.7 569.178   3
   0  -1  -6 133103. 2433.47   4
   0  -1  -6 130397. 3050.42   2
   0  -1  -6 131532. 1908.36   3
   0   1   6 136976. 2786.11   1
   0   1   6 136097. 2604.01   2
   0  -1  -7 60655.1 1345.27   3
   0   1   7 62114.4 1452.62   7
   0   1   7 64236.5 1974.48   6
   0   1   7 62676.8 1908.99   2
   0   1   7 63263.5 2039.00   1
   0  -1  -7 60850.9 1810.91   4
   0  -1  -8 86954.0 1658.20   3
   0  -1  -8 80318.1 2574.68   5
   0   1   8 86429.4 2561.17   1
   0  -1  -8 80131.6 2263.45   4
   0   1   8 86455.3 1850.23   7
   0   1   8 83586.5 2413.83   6
   0   1   8 84389.8 2364.95   2
   0  -1  -8 79835.2 2823.22   2
   0  -1  -9 45.5358 74.9506   3
   0  -1  -9-55.6207 165.244   4
   0   1   9 92.6691 250.044   1
   0  -1  -9-38.0915 187.931   5
   0  -1  -9-275.603 346.239   2
   0   1   9 64.4034 102.376   7
   0   1   9 134.348 204.607   2
   0  -1 -10 13110.6 1061.12   4
   0  -1 -10 12506.4 1182.04   5
   0   1  10 13022.1 829.446   7
   0   1  10 12874.4 1060.87   2
   0  -1 -10 12620.8 647.924   3
   0   1  10 15369.3 1244.49   1
   0  -1 -11 2883.01 306.483   3
   0  -1 -11 2870.81 643.691   5
   0   1  11 2478.68 522.579   2
   0   1  11 2579.44 576.864   1
   0   1  11 2529.70 400.494   7
   0  -1 -11 2454.41 498.112   4
   0   1  12 6433.70 915.596   1
   0  -1 -12 5878.82 928.351   5
   0   1  12 6806.35 854.147   2
   0  -1 -12 5879.40 821.368   4
   0   1  13 5852.31 825.350   2
   0  -1 -13 5126.11 788.775   4
   0   1  13 5647.86 898.619   1
   0  -1 -14 5469.46 840.297   4
   0  -1 -14 4974.00 946.755   5
   0   1  14 6224.74 881.030   2
   0   1  15 1724.06 520.440   2
   0  -1 -15 485.598 349.188   5
   0  -1 -15 1205.31 441.259   4
   0   2 -14-327.951 309.537   5
   0  -2  14-1098.54 467.090   2
   0   2 -13 59.4669 195.037   4
   0  -2  13 1152.98 489.164   2
   0   2 -13 658.119 412.681   5
   0  -2  12 2490.64 590.932   2
   0   2 -12 2535.65 647.500   5
   0   2 -12 2639.71 632.606   4
   0   2 -11 1468.46 487.358   5
   0  -2  11 629.821 327.246   2
   0   2 -11 1238.88 480.260   4
   0  -2  10 10997.2 1078.20   2
   0   2 -10 12868.3 1263.67   4
   0   2 -10 11877.2 1196.74   5
   0  -2   9 238.795 153.307   6
   0   2  -9 177.908 288.346   5
   0  -2   9-269.043 332.535   2
   0  -2   9 272.088 200.872   7
   0   2  -9 133.854 206.126   4
   0   2  -8 18323.8 1280.88   5
   0  -2   8 19322.8 1205.88   7
   0   2  -8 19711.3 1379.94   2
   0   2  -8 18702.8 1350.71   4
   0  -2   8 17166.5 1191.13   2
   0  -2   8 17145.4 1037.29   6
   0   2  -7 7180.16 768.808   2
   0  -2   7 5909.61 627.140   7
   0   2  -7 5515.83 665.475   5
   0  -2   7 6251.84 687.162   2
   0  -2   7 6490.19 685.482   4
   0   2  -7 5784.08 718.656   4
   0  -2   7 6187.07 581.637   6
   0   2  -6 74388.6 2220.45   5
   0  -2   6 71483.6 1897.99   5
   0  -2   6 71781.7 1794.32   6
   0  -2   6 74007.2 2159.67   2
   0  -2   6 74875.5 2086.60   7
   0   2  -6 75869.7 2329.65   4
   0   2  -5 502.335 221.146   4
   0  -2   5 513.895 185.686   7
   0   2  -5 296.424 172.692   5
   0  -2   5 759.006 202.886   5
   0  -2   5 213.710 146.023   2
   0   2  -4 54264.5 735.581   3
   0   2  -4 57527.8 1637.54   5
   0  -2   4 59218.1 1642.35   2
   0   2  -4 55478.2 1687.22   4
   0  -2   4 57662.7 1715.69   8
   0  -2   4 57864.5 1536.01   5
   0  -2   4 58565.3 1581.42   7
   0   2  -4 57971.2 1670.92   2
   0  -2   4 57957.8 742.343   3
   0  -2   3 86.4834 53.1239   3
   0  -2   3 79.5936 120.869   2
   0   2  -3 100.335 52.1038   3
   0  -2   3 151.019 112.723   5
   0  -2   3 181.811 128.115   8
   0   2  -3 133.214 131.059   5
   0   2  -3 119.984 149.186   4
   0   2  -2 396276. 3559.18   4
   0   2  -2 390818. 3600.29   5
   0  -2   2 380867. 3572.49   8
   0   2  -2 396695. 3534.55   8
   0   2  -2 389955. 2513.52   3
   0  -2   2 403937. 3588.23   2
   0  -2   2 398349. 2401.59   3
   0  -2   2 386399. 3539.07   5
   0   2  -1 86.8452 77.8003   4
   0  -2   1-61.7015 91.3532   8
   0   2  -1 41.5729 95.1659   8
   0   2  -1 131.795 78.0908   3
   0  -2   1 49.3219 81.1128   5
   0  -2   1 26.7652 68.1330   4
   0  -2   1 28.3627 58.9791   3
   0  -2   0 186672. 1737.38   4
   0  -2   0 199904. 1984.53   3
   0   2   0 187516. 1710.88   4
   0   2   0 193269. 2000.35   3
   0   2   0 192408. 2057.93   8
   0  -2   0 187269. 1964.84   8
   0  -2   0 181815. 1849.18   7
   0   2   1 1544.18 192.381   8
   0  -2  -1 1531.51 146.542   7
   0   2   1 1434.89 150.683   6
   0  -2  -1 1589.18 203.431   3
   0   2   1 1522.99 144.802   7
   0  -2  -1 1755.79 183.817   8
   0  -2  -1 1452.27 118.592   4
   0  -2  -2 458666. 3435.30   3
   0   2   2 446844. 3205.57   6
   0  -2  -2 472271. 1845.48   7
   0  -2  -2 465595. 3177.34   1
   0   2   2 453900. 3435.55   3
   0   2   2 473130. 1897.75   7
   0   2   2 480650. 3319.43   8
   0   2   3 687.754 165.528   6
   0  -2  -3 500.589 162.362   3
   0   2   3 404.040 134.673   1
   0  -2  -3 172.976 96.0707   1
   0  -2  -3 403.848 78.8338   4
   0   2   3 402.652 127.268   3
   0   2   4 626.879 188.970   1
   0  -2  -4 887.344 231.368   2
   0  -2  -4 886.687 193.378   3
   0  -2  -4 660.981 178.803   1
   0  -2  -4 991.302 144.695   4
   0   2   5 20789.5 976.246   1
   0  -2  -5 19671.0 726.247   4
   0  -2  -5 20616.8 861.873   3
   0   2   6 208247. 3289.69   2
   0  -2  -6 193050. 2729.09   3
   0   2   6 203190. 3353.36   1
   0  -2  -6 196001. 2637.83   4
   0  -2  -7 829.887 226.572   4
   0   2   7 592.632 285.312   2
   0   2   7 671.748 139.837   7
   0  -2  -7 406.156 152.096   3
   0  -2  -8 22725.2 1538.66   2
   0   2   8 25074.2 1379.23   1
   0   2   8 23573.2 817.845   7
   0  -2  -8 24283.2 1038.12   3
   0   2   8 24986.3 1295.50   2
   0   2   8 22794.9 1285.94   6
   0  -2  -8 22510.6 1101.37   4
   0  -2  -9 906.033 270.709   4
   0   2   9 681.513 320.595   1
   0   2   9 1087.16 204.151   7
   0   2   9 922.822 307.049   2
   0  -2  -9 696.458 205.820   3
   0  -2  -9 1191.45 403.486   2
   0   2  10 5424.82 738.771   1
   0   2  10 5739.85 487.798   7
   0  -2 -10 4561.15 587.470   4
   0   2  10 5323.73 695.559   2
   0  -2 -10 5961.57 546.402   3
   0   2  11 425.855 262.468   2
   0  -2 -11 596.621 184.422   3
   0  -2 -11 663.537 286.617   4
   0   2  11 1046.99 409.256   1
   0  -2 -11 539.764 304.210   5
   0   2  11 914.129 214.525   7
   0  -2 -12 22068.5 1429.72   4
   0  -2 -12 21712.4 1018.79   3
   0  -2 -12 18187.1 1602.08   5
   0   2  12 23049.3 1663.08   1
   0  -2 -13 373.182 256.091   4
   0   2  13 84.3011 257.795   1
   0  -2 -13 146.541 245.477   5
   0  -2 -14 6144.12 832.916   4
   0  -2 -14 5423.02 942.586   5
   0  -2 -15-568.166 374.108   5
   0  -3  13 572.659 385.589   2
   0   3 -13-59.0877 214.082   5
   0  -3  12 5897.87 911.763   2
   0   3 -12 5755.94 960.595   5
   0   3 -12 4999.08 921.282   4
   0  -3  11-127.432 350.480   2
   0   3 -11 387.017 344.292   5
   0   3 -11 59.2951 274.121   4
   0  -3  10 17100.5 1392.12   2
   0   3 -10 16933.4 1475.91   5
   0   3 -10 18738.5 1600.77   4
   0  -3   9 4067.64 544.823   6
   0   3  -9 4568.90 795.027   4
   0  -3   9 3781.34 638.389   2
   0   3  -9 4107.86 704.571   5
   0  -3   8 22605.3 1437.31   2
   0   3  -8 22475.2 1504.32   5
   0   3  -8 22343.0 1563.88   4
   0  -3   8 22828.1 1171.44   6
   0  -3   7 1330.82 388.368   8
   0  -3   7 1070.88 311.806   7
   0  -3   7 1472.44 296.561   6
   0  -3   7 1631.06 343.816   5
   0   3  -7 866.344 328.854   5
   0   3  -7 1361.21 403.812   4
   0  -3   7 1081.29 363.420   2
   0   3  -6 4587.21 620.556   5
   0  -3   6 4697.10 455.255   6
   0   3  -6 4843.86 652.465   4
   0  -3   6 4604.55 583.345   4
   0  -3   6 4260.02 559.458   7
   0  -3   6 4852.68 645.270   8
   0  -3   6 6026.07 614.629   5
   0  -3   6 5140.66 631.455   2
   0  -3   5 582.410 163.590   6
   0  -3   5 1071.66 302.519   8
   0  -3   5 851.290 270.359   2
   0   3  -5 572.812 246.468   5
   0  -3   5 883.351 256.645   5
   0  -3   5 655.239 226.345   7
   0  -3   5 696.734 117.681   3
   0   3  -5 445.813 235.488   4
   0  -3   4 66039.5 1101.50   3
   0  -3   4 67495.0 1871.58   5
   0   3  -4 65981.4 1962.70   5
   0   3  -4 71486.3 2057.41   4
   0  -3   4 70671.9 2069.65   8
   0  -3   4 70773.7 1963.41   2
   0   3  -4 66639.0 1196.30   3
   0   3  -3 1304.74 191.958   3
   0   3  -3 1600.84 312.648   5
   0  -3   3 1252.26 269.928   5
   0   3  -3 955.459 246.007   4
   0  -3   3 829.670 229.473   2
   0  -3   3 1068.28 171.274   3
   0  -3   3 725.728 225.089   8
   0  -3   2 12949.7 716.985   4
   0  -3   2 12524.2 734.560   8
   0   3  -2 13420.1 770.369   5
   0  -3   2 12681.2 764.981   5
   0   3  -2 12590.5 714.519   4
   0   3  -2 12415.0 586.612   3
   0   3  -2 11596.0 707.547   8
   0  -3   2 12397.4 549.632   3
   0   3  -1 311.515 143.712   8
   0  -3   1 382.758 126.160   7
   0   3  -1 475.200 136.458   4
   0  -3   1 220.813 114.124   4
   0  -3   1 458.411 135.948   3
   0  -3   1 176.568 105.999   8
   0   3  -1 406.638 124.710   3
   0  -3   1 565.710 157.991   5
   0  -3   0 84143.2 1520.15   7
   0  -3   0 88242.1 1614.72   3
   0   3   0 87132.2 1658.78   3
   0   3   0 90057.7 1746.11   8
   0  -3   0 83418.5 1605.82   8
   0   3   0 87042.3 879.053   6
   0   3   0 84011.7 1398.63   4
   0  -3   0 82997.2 1409.17   4
   0  -3  -1 5513.13 349.011   7
   0   3   1 5342.95 418.460   8
   0   3   1 5625.23 314.800   6
   0  -3  -1 5713.32 441.231   3
   0  -3  -1 4971.99 296.094   4
   0   3   1 5710.57 312.421   4
   0  -3  -1 5098.67 387.723   8
   0  -3  -2 24603.3 636.730   7
   0  -3  -2 22450.4 796.218   8
   0   3   2 23252.0 887.473   8
   0   3   2 22430.8 762.865   6
   0  -3  -2 23417.6 512.632   4
   0  -3  -2 24150.5 933.807   3
   0   3   2 24517.2 642.028   7
   0  -3  -3 3537.69 385.340   3
   0   3   3 3860.02 211.690   7
   0   3   3 3836.10 392.487   3
   0  -3  -3 3818.26 201.400   7
   0   3   3 3433.85 349.803   6
   0   3   3 3812.64 377.621   8
   0  -3  -3 3707.84 358.089   1
   0   3   4 113171. 2164.66   6
   0  -3  -4 108630. 2126.29   1
   0   3   4 113826. 2148.08   8
   0  -3  -4 109707. 1189.06   4
   0   3   4 112517. 2148.26   3
   0  -3  -4 115333. 2216.70   3
   0  -3  -5 2794.95 380.957   3
   0  -3  -5 2512.39 232.266   4
   0  -3  -5 2737.80 411.935   2
   0  -3  -5 2283.27 355.696   1
   0   3   5 2667.31 378.765   1
   0   3   6 1301.76 299.218   1
   0  -3  -6 848.884 167.012   4
   0  -3  -7 670.155 245.357   3
   0  -3  -7 465.834 170.961   4
   0   3   7 1417.02 339.162   6
   0  -3  -7 819.574 299.106   2
   0   3   7 630.173 85.9056   7
   0   3   7 1487.34 373.629   1
   0   3   8 20668.6 1250.22   6
   0  -3  -8 25465.7 1063.20   4
   0  -3  -8 22412.1 1131.78   3
   0   3   8 21737.2 1290.57   1
   0   3   8 22612.4 586.209   7
   0  -3  -8 18726.1 1406.65   2
   0   3   9 21312.0 651.155   7
   0   3   9 22272.0 1364.35   1
   0  -3  -9 18400.6 1476.84   2
   0  -3  -9 20486.5 1107.14   3
   0  -3  -9 22822.3 1104.06   4
   0  -3 -10 22157.8 1174.86   4
   0   3  10 21320.4 708.274   7
   0  -3 -10 20329.5 1118.11   3
   0   3  10 21057.9 1416.26   1
   0  -3 -11 3246.64 470.743   3
   0  -3 -11 4041.98 537.930   4
   0   3  11 4773.39 727.588   1
   0  -3 -12 15567.7 1114.22   4
   0  -3 -12 15082.5 989.008   3
   0   3  12 13999.2 1281.37   1
   0  -3 -13 1649.88 416.081   4
   0  -3 -13 466.576 316.725   5
   0   3  13 806.663 362.778   1
   0  -3 -14 1956.33 562.656   5
   0  -3 -15 621.331 377.433   5
   0  -4  13-84.8740 290.884   2
   0   4 -13-481.291 314.745   5
   0   4 -12 1929.83 608.119   5
   0  -4  12 1138.26 434.293   2
   0   4 -12 626.840 420.437   4
   0  -4  11 165.010 275.382   2
   0   4 -11 469.471 296.166   5
   0   4 -11 7.02591 261.235   4
   0   4 -10 30324.0 2127.29   4
   0  -4  10 27476.7 1826.55   2
   0   4 -10 25634.1 1873.80   5
   0   4  -9-232.896 270.156   4
   0  -4   9 42.5798 139.346   6
   0  -4   9 186.556 247.421   2
   0   4  -9-17.5984 259.246   5
   0   4  -8 10298.3 1086.33   5
   0   4  -8 9593.70 1082.16   4
   0  -4   8 11279.1 1063.28   2
   0  -4   8 10238.3 762.518   6
   0  -4   7-75.5241 98.5639   6
   0   4  -7-15.4962 243.290   5
   0  -4   7 7.89057 137.549   5
   0  -4   7-107.221 286.262   2
   0   4  -7 325.874 237.369   4
   0  -4   6 30167.4 753.481   3
   0   4  -6 28703.6 1637.24   4
   0  -4   6 31978.3 1723.38   8
   0  -4   6 29847.5 1551.66   7
   0  -4   6 27823.3 1044.83   6
   0  -4   6 28390.8 1513.93   2
   0  -4   6 30485.5 1487.57   5
   0   4  -6 26975.0 1553.55   5
   0  -4   5 281.823 125.092   6
   0  -4   5 131.923 89.4731   3
   0  -4   5 395.935 236.637   8
   0  -4   5 85.5342 140.281   5
   0  -4   5-111.672 201.544   2
   0  -4   5 108.526 134.061   4
   0   4  -5 210.260 211.621   5
   0   4  -5 86.3483 144.282   4
   0  -4   5 223.551 190.228   7
   0   4  -4 37188.0 1106.85   3
   0  -4   4 41352.5 1641.82   5
   0  -4   4 37937.2 918.354   6
   0  -4   4 39819.9 1664.44   8
   0   4  -4 38418.6 1643.96   5
   0   4  -4 39045.0 1644.38   4
   0  -4   4 40038.0 1070.01   3
   0  -4   4 41991.8 1656.03   2
   0  -4   4 39390.4 1566.46   4
   0  -4   3 187.052 148.630   4
   0  -4   3 244.656 117.522   3
   0  -4   3 511.085 218.758   2
   0   4  -3 535.241 158.399   3
   0   4  -3 512.263 202.879   4
   0   4  -3 356.046 222.362   8
   0  -4   3 543.861 203.153   5
   0  -4   3 378.472 167.462   8
   0  -4   3 463.549 90.6194   6
   0   4  -2 125498. 2465.73   4
   0  -4   2 123545. 2417.15   4
   0   4  -2 126011. 2226.16   3
   0  -4   2 126434. 2091.45   3
   0  -4   2 125798. 2753.85   5
   0   4  -2 124218. 2613.09   8
   0  -4   2 124176. 2564.23   8
   0  -4   1 617.930 171.795   3
   0   4  -1 932.863 204.332   3
   0  -4   1 702.263 184.974   7
   0   4  -1 384.316 159.840   8
   0  -4   1 615.290 178.105   4
   0   4  -1 579.540 167.751   4
   0  -4   1 861.110 224.066   8
   0  -4   0 91275.3 1714.55   4
   0  -4   0 95564.5 1972.41   8
   0   4   0 96799.0 2138.28   8
   0   4   0 97781.8 2055.43   3
   0  -4   0 97311.5 1984.53   3
   0  -4   0 88168.4 1807.35   7
   0   4   0 90555.6 1676.33   4
   0   4   0 94820.5 1024.14   6
   0   4   1 71952.3 1310.10   4
   0  -4  -1 66029.2 1285.43   4
   0  -4  -1 68224.9 1467.07   7
   0   4   1 70373.0 1772.66   8
   0  -4  -1 67153.3 1702.27   3
   0   4   1 67028.5 1164.51   6
   0  -4  -1 68756.4 1598.06   8
   0   4   2 140804. 2059.49   6
   0   4   2 143975. 2573.88   8
   0  -4  -2 143090. 1618.43   4
   0  -4  -2 146288. 2296.77   8
   0  -4  -2 146307. 1927.14   7
   0  -4  -3 16931.3 573.884   7
   0  -4  -3 15869.9 449.152   4
   0   4   3 15242.8 764.081   6
   0   4   3 16174.5 889.097   8
   0  -4  -3 15795.2 774.745   8
   0  -4  -3 16632.5 914.454   3
   0  -4  -4 6041.44 278.492   7
   0  -4  -4 5551.60 504.352   1
   0   4   4 6447.21 581.393   8
   0   4   4 5838.78 520.401   6
   0  -4  -4 6391.96 595.130   3
   0  -4  -5 657.318 241.263   3
   0  -4  -5 519.213 193.157   1
   0   4   5 388.305 170.109   8
   0  -4  -5 450.120 93.0818   4
   0   4   6 28347.0 1314.33   6
   0   4   6 27429.3 1288.49   8
   0  -4  -6 26942.7 1326.08   1
   0  -4  -6 28031.1 1304.18   3
   0  -4  -6 27347.2 1400.23   2
   0  -4  -6 29085.2 753.921   4
   0  -4  -7 1947.67 443.607   2
   0   4   7 2335.64 492.557   8
   0  -4  -7 1288.07 418.392   3
   0   4   7 2001.07 379.698   6
   0  -4  -8 57727.1 1984.77   3
   0  -4  -8 51380.3 2262.23   2
   0   4   8 55136.8 2082.02   6
   0   4   8 57825.6 2103.56   1
   0  -4  -8 59474.6 1422.25   4
   0   4   9-23.8479 218.838   1
   0  -4  -9-1.01643 132.681   3
   0  -4  -9-29.1008 129.842   4
   0  -4 -10 12151.2 959.216   3
   0  -4 -10 11486.0 766.392   4
   0   4  10 11801.0 1060.15   1
   0   4  11-19.1837 241.195   1
   0  -4 -11 301.382 171.624   4
   0  -4 -11 569.637 240.026   3
   0  -4 -12 840.595 268.198   3
   0  -4 -12 1176.22 302.755   4
   0   4  12 1043.09 410.178   1
   0   4  13 743.786 362.977   1
   0  -4 -14 3962.15 807.943   5
   0  -4 -15 559.720 361.123   5
   0  -5  12 3276.19 744.405   2
   0   5 -12 4358.60 865.635   5
   0   5 -11-50.0092 204.481   5
   0   5 -11-366.864 506.450   4
   0  -5  10 4387.22 793.867   2
   0   5 -10 5390.18 964.475   4
   0   5 -10 4467.24 849.290   5
   0   5  -9 27.2707 232.710   4
   0   5  -9 235.604 287.663   5
   0  -5   9 131.003 291.212   2
   0  -5   8 27894.7 1756.57   2
   0   5  -8 25860.4 1765.10   5
   0  -5   8 25935.3 1168.82   6
   0   5  -8 28726.8 1961.19   4
   0  -5   7 1080.29 224.223   6
   0  -5   7 690.926 337.853   2
   0   5  -7 942.780 368.691   4
   0   5  -7 1124.90 420.224   5
   0   5  -6 16107.8 1287.87   5
   0   5  -6 17914.5 1367.35   4
   0  -5   6 16518.6 1249.13   2
   0  -5   6 17133.2 714.937   3
   0  -5   6 18225.0 1251.93   5
   0  -5   6 16138.7 746.185   6
   0  -5   5 4249.76 628.916   8
   0  -5   5 3026.29 284.618   6
   0  -5   5 3167.13 553.009   2
   0  -5   5 2855.04 319.405   3
   0   5  -5 3133.20 562.913   5
   0  -5   5 3112.05 511.307   5
   0   5  -5 3296.77 573.935   4
   0  -5   4 63541.3 2253.81   8
   0  -5   4 64045.7 2248.61   2
   0  -5   4 64369.7 2265.55   5
   0   5  -4 60789.3 2199.57   4
   0  -5   4 61752.3 1011.62   6
   0  -5   4 64244.1 1583.65   3
   0  -5   4 62127.1 2188.42   7
   0  -5   4 63330.7 2125.91   4
   0   5  -3 8329.58 645.507   3
   0  -5   3 8275.37 787.513   2
   0  -5   3 8363.90 813.443   5
   0  -5   3 8636.49 615.855   3
   0  -5   3 8533.38 775.769   7
   0   5  -3 8349.31 753.176   4
   0  -5   3 9283.67 814.494   8
   0   5  -3 8968.71 819.870   8
   0  -5   3 9111.73 768.966   4
   0  -5   2 47992.1 1900.22   5
   0   5  -2 43990.9 1591.34   4
   0   5  -2 46724.0 1779.90   8
   0  -5   2 43749.3 1659.23   7
   0  -5   2 47679.7 1730.30   8
   0  -5   2 45104.7 1441.76   3
   0  -5   2 46362.6 1600.50   4
   0   5  -2 41635.0 1471.49   3
   0  -5   1 1625.92 320.381   8
   0  -5   1 1994.53 394.890   5
   0  -5   1 2072.74 327.136   4
   0   5  -1 1805.18 324.881   3
   0  -5   1 1492.95 294.291   3
   0   5  -1 1535.89 343.753   8
   0   5  -1 1716.32 295.433   4
   0  -5   0 19369.4 1004.65   3
   0  -5   0 18162.4 858.354   4
   0   5   0 17206.4 1023.79   8
   0   5   0 18030.2 454.024   6
   0   5   0 17208.1 839.138   4
   0  -5   0 16670.1 923.808   8
   0  -5  -1 12084.8 710.331   7
   0   5   1 12776.6 641.390   4
   0   5   1 12120.4 849.457   8
   0  -5  -1 13134.6 786.386   8
   0  -5  -1 12978.4 849.527   3
   0  -5  -1 12199.1 635.657   4
   0   5   1 12645.5 537.716   6
   0  -5  -2 57170.7 1215.02   4
   0  -5  -2 62480.0 1483.16   7
   0   5   2 56673.5 1840.46   8
   0   5   2 58320.1 1386.21   6
   0  -5  -2 60938.6 1861.94   3
   0  -5  -2 61362.0 1658.17   8
   0  -5  -3 23580.7 665.016   4
   0  -5  -3 23216.0 1184.89   3
   0   5   3 25594.5 1263.56   8
   0  -5  -3 24396.3 1055.06   8
   0   5   3 23969.2 1004.96   6
   0  -5  -3 25527.3 855.174   7
   0  -5  -4 140243. 1735.64   7
   0  -5  -4 136115. 1324.06   4
   0  -5  -4 139803. 2985.15   3
   0  -5  -4 137119. 2607.51   1
   0   5   4 138718. 2990.53   8
   0  -5  -5 2130.29 356.133   1
   0   5   5 2688.96 453.786   8
   0  -5  -5 2062.21 142.331   4
   0  -5  -5 2211.80 415.977   3
   0  -5  -6 60255.1 2090.21   3
   0   5   6 62107.1 2108.90   8
   0  -5  -6 62329.1 2164.11   2
   0  -5  -6 61064.8 828.328   4
   0  -5  -6 61274.2 2050.92   1
   0   5   6 57858.4 1948.91   6
   0  -5  -7 259.280 194.185   1
   0   5   7 404.038 288.283   8
   0  -5  -7-27.2501 57.6011   4
   0  -5  -7 43.3705 184.065   2
   0   5   7 249.179 200.384   6
   0  -5  -7 266.358 300.067   3
   0   5   8 24512.1 1434.26   8
   0  -5  -8 23825.4 1396.38   3
   0  -5  -8 25153.2 754.656   4
   0  -5  -9 24.2087 97.0569   4
   0   5   9 111.327 231.481   8
   0  -5  -9 64.2201 177.394   3
   0  -5 -10 576.576 287.661   3
   0   5  10 592.913 299.157   8
   0  -5 -10 595.529 177.976   4
   0   5  11 1768.55 459.191   8
   0  -5 -11 1972.48 313.111   4
   0  -5 -11 1857.99 432.712   3
   0   5  12 7176.56 909.984   8
   0  -5 -12 7137.37 814.711   3
   0   5  13 619.081 326.576   8
   0  -5 -13 572.127 267.692   3
   0  -6  11 844.527 388.763   2
   0  -6  10 4322.06 830.091   2
   0   6 -10 4780.28 923.166   4
   0   6  -9 1486.02 511.879   4
   0  -6   9 942.660 381.440   2
   0   6  -8 19108.3 1666.88   4
   0  -6   8 17178.0 1452.67   2
   0  -6   7 6316.65 445.852   3
   0  -6   7 7738.91 958.362   2
   0   6  -7 7955.52 1029.84   4
   0  -6   6 32097.6 1852.07   2
   0   6  -6 31420.6 1902.15   4
   0  -6   6 32321.7 913.081   6
   0  -6   6 33992.3 1164.08   3
   0  -6   5 757.156 125.105   6
   0  -6   5 276.562 222.987   2
   0   6  -5 654.348 322.855   4
   0  -6   5 891.321 232.122   3
   0  -6   5 820.518 119.365   6
   0  -6   4 9103.98 943.581   5
   0  -6   4 6587.81 782.189   8
   0  -6   4 8030.88 884.460   2
   0  -6   4 7596.72 620.089   3
   0   6  -4 7892.26 854.048   4
   0  -6   3 1147.92 315.798   4
   0  -6   3 1032.90 276.697   3
   0  -6   3 1475.69 381.494   5
   0   6  -3 979.906 286.351   4
   0   6  -3 946.133 337.402   8
   0  -6   3 1143.10 316.670   8
   0  -6   3 1180.45 326.399   7
   0  -6   2 475.865 226.027   7
   0  -6   2 416.935 175.448   4
   0   6  -2 461.427 263.485   4
   0  -6   2 866.832 308.762   5
   0  -6   2 436.617 225.889   8
   0   6  -2 334.046 219.293   8
   0  -6   2 577.091 211.226   3
   0   6  -1-18.2958 157.324   3
   0  -6   1 89.6670 114.886   4
   0  -6   1 46.0936 143.492   8
   0   6  -1 6.42844 136.753   4
   0  -6   1 24.7171 214.017   5
   0   6  -1-123.369 218.533   8
   0  -6   1-22.9807 121.868   7
   0  -6   1 115.745 181.681   3
   0   6   0 51614.3 1974.43   8
   0  -6   0 50059.0 1740.48   8
   0   6   0 46608.4 1509.25   4
   0  -6   0 49420.4 1550.23   4
   0  -6   0 48813.3 1755.96   3
   0   6   0 50581.9 1860.96   3
   0  -6   0 51873.9 2124.20   5
   0  -6   0 48621.4 1711.64   7
   0  -6  -1 20441.6 1074.74   8
   0   6   1 20327.4 1240.74   8
   0  -6  -1 20337.6 1160.77   3
   0   6   1 20697.9 711.435   6
   0  -6  -1 20261.2 917.424   4
   0   6   1 20714.2 1205.25   3
   0  -6  -2 128783. 2072.97   4
   0   6   2 126439. 3070.65   8
   0  -6  -2 131985. 3028.30   3
   0   6   2 137165. 3115.03   3
   0   6   2 127737. 2142.23   6
   0  -6  -2 134302. 2681.26   8
   0  -6  -2 132602. 2435.51   7
   0  -6  -3 29419.8 1458.95   3
   0   6   3 29490.1 1511.57   8
   0  -6  -3 28190.6 860.674   4
   0   6   3 28036.8 1145.05   6
   0  -6  -3 31497.1 1304.07   8
   0  -6  -3 29005.6 1053.45   7
   0   6   3 28477.6 1443.92   3
   0  -6  -4 61663.8 2156.45   3
   0  -6  -4 59910.3 1369.08   7
   0  -6  -4 60748.2 1045.25   4
   0  -6  -4 65680.8 1915.24   8
   0  -6  -4 60653.2 1856.66   1
   0   6   4 63265.6 2258.22   8
   0   6   5 1870.66 348.335   6
   0  -6  -5 2041.65 373.157   1
   0   6   5 1851.07 430.562   8
   0  -6  -5 1318.36 375.670   3
   0  -6  -5 1553.49 125.495   4
   0  -6  -5 1575.22 193.498   7
   0   6   6 13247.5 976.435   6
   0  -6  -6 14585.9 1124.33   3
   0   6   6 12372.3 1053.26   8
   0  -6  -6 12831.5 969.746   1
   0   6   7 159.906 201.181   6
   0  -6  -7-78.2268 192.242   3
   0   6   7 379.611 314.019   8
   0  -6  -7-114.255 226.918   1
   0   6   8 9375.92 973.771   8
   0  -6  -8 9557.96 954.137   3
   0   6   9 69.4845 204.686   8
   0  -6  -9 176.842 68.0227   4
   0  -6  -9 20.4891 244.230   3
   0  -6 -10 22125.2 1490.11   3
   0   6  10 21679.9 1534.98   8
   0  -6 -11 119.818 245.134   3
   0   6  11 79.0365 222.400   8
   0   6  12 7883.68 1000.42   8
   0  -6 -12 9133.36 984.662   3
   0   6  13-55.5836 321.942   8
   0  -6 -13-1.56437 139.750   3
   0  -7  10 494.273 328.351   2
   0   7  -9-488.976 324.171   4
   0  -7   9-80.3631 278.158   2
   0  -7   8 6921.62 980.298   2
   0   7  -8 4894.23 897.655   4
   0   7  -7 131.621 321.288   4
   0  -7   7 518.664 399.741   2
   0  -7   6 7686.22 629.414   3
   0   7  -6 9587.58 1123.17   4
   0  -7   6 8924.22 1054.98   2
   0  -7   5-162.247 268.241   2
   0  -7   5 396.342 215.198   3
   0   7  -5 74.6103 265.553   4
   0  -7   4 28969.8 1762.11   2
   0  -7   4 30010.2 1373.19   3
   0   7  -4 30838.1 1751.75   4
   0  -7   3 8321.82 750.518   3
   0   7  -3 8957.96 956.235   8
   0   7  -3 8175.63 854.927   4
   0   7  -2 19962.2 1399.42   8
   0  -7   2 20995.2 1249.87   4
   0   7  -2 20159.9 1253.20   4
   0  -7   2 20478.1 1193.35   3
   0  -7   2 20339.0 1310.72   8
   0  -7   1 3651.22 539.422   8
   0   7  -1 2612.48 522.084   8
   0  -7   1 3272.84 471.750   4
   0  -7   1 2761.20 472.554   7
   0  -7   1 2534.17 452.250   3
   0   7  -1 2915.62 451.849   4
   0   7   0 23824.1 1474.51   8
   0  -7   0 21441.1 1119.42   4
   0  -7   0 22482.7 1274.66   7
   0   7   0 22111.7 1125.42   4
   0  -7   0 22214.7 1257.50   8
   0  -7   0 23710.0 1339.39   3
   0   7   0 24346.4 1399.69   3
   0  -7  -1 1355.49 315.237   8
   0  -7  -1 1242.54 255.462   4
   0   7   1 1386.70 392.142   8
   0  -7  -1 1058.29 315.685   3
   0   7   1 1530.73 195.882   6
   0   7   1 1044.93 286.463   3
   0  -7  -1 923.498 264.071   7
   0  -7  -2 15479.8 938.920   7
   0   7   2 15803.1 1202.12   8
   0   7   2 15430.9 776.622   6
   0  -7  -2 14921.4 789.682   4
   0  -7  -2 15977.1 1018.27   8
   0  -7  -2 15126.8 1121.68   3
   0   7   3 8.01031 184.425   8
   0  -7  -3 28.3707 74.0010   4
   0   7   3-20.6763 91.5922   6
   0  -7  -3 118.438 130.775   8
   0  -7  -4 6170.91 505.610   7
   0  -7  -4 5944.00 380.670   4
   0  -7  -4 5375.89 711.933   3
   0   7   4 4998.11 718.702   8
   0  -7  -4 6425.49 646.871   8
   0  -7  -5 18074.0 482.761   4
   0   7   5 18558.0 1139.45   6
   0   7   5 16914.6 1323.74   8
   0  -7  -5 16662.1 737.852   7
   0  -7  -5 17134.8 1095.19   1
   0  -7  -5 16406.6 1249.44   3
   0   7   6 6387.63 848.858   8
   0   7   6 5943.73 682.251   6
   0  -7  -6 6296.91 795.860   3
   0   7   7 929.297 304.645   6
   0   7   7 1910.62 585.294   8
   0  -7  -7 736.902 472.433   3
   0   7   8 37306.9 2084.75   8
   0  -7  -8 41381.6 2082.35   3
   0   7   9 25.5057 234.184   8
   0  -7  -9-623.674 328.152   3
   0  -7 -10 18268.2 1438.12   3
   0   7  10 20845.8 1625.63   8
   0  -7 -11 820.901 346.236   3
   0   7  11 46.7136 277.116   8
   0  -7 -12 3935.15 702.770   3
   0   7  12 4545.42 817.233   8
   0  -7 -13-442.179 290.919   3
   0  -8   8 168.797 277.757   2
   0   8  -8 707.659 400.042   4
   0   8  -7 572.956 330.422   4
   0  -8   7 720.648 414.486   2
   0   8  -6 19815.0 1676.35   4
   0  -8   6 18916.5 1612.46   2
   0  -8   5 3614.67 715.234   2
   0  -8   5 3226.72 484.627   3
   0   8  -5 3223.88 672.469   4
   0  -8   4 23721.9 1720.18   2
   0  -8   4 22564.0 1312.06   3
   0   8  -4 22453.2 1572.02   4
   0   8  -3-264.600 234.789   4
   0   8  -3-117.692 314.576   8
   0  -8   3 225.102 200.650   3
   0  -8   2 20496.7 1311.44   3
   0   8  -2 24579.2 1671.48   8
   0   8  -2 22827.3 1405.91   4
   0  -8   1-266.928 234.492   3
   0   8  -1 66.1906 149.356   4
   0  -8   1 228.997 152.592   4
   0   8  -1-14.0575 224.876   8
   0  -8   0 4002.22 523.925   4
   0  -8   0 5141.61 672.017   3
   0   8   0 4676.08 727.403   8
   0  -8  -1 509.663 189.115   4
   0  -8  -1 62.5848 176.010   7
   0   8   1 488.361 105.042   6
   0  -8  -1 238.315 235.852   3
   0   8   1 140.828 172.846   8
   0   8   2 5246.97 451.593   6
   0  -8  -2 5553.86 526.057   4
   0  -8  -2 5258.72 716.727   3
   0   8   2 5168.29 789.314   8
   0  -8  -2 5902.00 645.499   7
   0  -8  -3-53.4177 156.727   7
   0  -8  -3 299.083 143.509   4
   0   8   3-17.6787 237.818   8
   0   8   3-297.641 163.257   6
   0  -8  -3 472.868 272.578   3
   0  -8  -4 18908.3 1394.04   3
   0  -8  -4 19517.1 767.846   4
   0   8   4 19367.6 1514.89   8
   0   8   5 8516.01 806.199   6
   0  -8  -5 7766.64 357.423   4
   0  -8  -5 7158.25 551.611   7
   0   8   5 7579.62 980.596   8
   0   8   6 19982.9 1596.54   8
   0  -8  -6 20843.8 1508.67   3
   0  -8  -6 19376.9 765.674   7
   0   8   6 16584.1 1185.45   6
   0  -8  -7 520.982 348.678   3
   0   8   7-168.465 255.628   8
   0   8   8 8282.56 1077.45   8
   0  -8  -8 7922.28 987.820   3
   0   8   9 603.040 405.188   8
   0  -8  -9 510.623 325.860   3
   0  -8 -10 3043.48 648.593   3
   0   8  10 2038.05 583.532   8
   0  -8 -11-39.4549 213.311   3
   0   8  11 442.448 372.046   8
   0  -8 -12 2706.19 630.981   3
   0  -8 -13-227.140 227.563   3
   0  -9   7 384.310 302.137   2
   0  -9   6 1061.52 465.708   2
   0   9  -6 652.098 377.422   4
   0  -9   5-292.553 276.426   2
   0   9  -5-565.957 336.159   4
   0   9  -4 14601.4 1339.88   4
   0  -9   4 17348.8 1612.14   2
   0  -9   4 14597.6 1131.43   3
   0  -9   3-1.33395 212.183   3
   0   9  -3-159.765 228.133   4
   0   9  -3 47.5843 283.732   8
   0  -9   3-292.930 319.445   2
   0   9  -2 13033.2 1318.49   8
   0  -9   2 12972.0 1125.58   3
   0   9  -2 12309.0 1098.25   4
   0  -9   1 1507.66 419.509   3
   0   9  -1 1418.49 496.719   8
   0  -9   0 5816.57 789.957   3
   0  -9   0 5455.53 653.173   4
   0   9   0 5072.23 800.372   8
   0  -9  -1 2052.95 502.486   3
   0   9   1 2418.86 589.551   8
   0  -9  -1 2856.41 444.994   4
   0  -9  -2 42599.2 2135.75   3
   0  -9  -2 39311.8 1509.35   4
   0   9   2 44390.5 1204.03   6
   0   9   2 42497.8 2350.79   8
   0   9   3-140.564 99.9354   6
   0  -9  -3 121.411 119.534   7
   0  -9  -3-33.1873 263.120   3
   0  -9  -3-283.011 133.122   4
   0   9   3-192.256 343.561   8
   0   9   4 23435.2 1804.85   8
   0  -9  -4 24043.2 1669.49   3
   0  -9  -4 20951.4 1132.80   7
   0   9   5 61.6854 231.611   8
   0   9   5 420.628 224.420   6
   0  -9  -5 27.0788 263.561   3
   0   9   6 1204.94 356.056   6
   0  -9  -6 1596.19 498.108   3
   0   9   6 1457.09 476.187   8
   0   9   7 2999.65 722.668   8
   0  -9  -7 3145.88 680.875   3
   0  -9  -8 2796.53 654.238   3
   0   9   8 2255.98 649.575   8
   0  -9  -9-402.961 268.934   3
   0   9   9 665.236 415.730   8
   0  -9 -10 5629.70 912.105   3
   0   9  10 4436.29 876.803   8
   0  -9 -11 200.294 297.390   3
   0   9  11 491.914 362.940   8
   0  10  -5 739.345 390.715   4
   0 -10   4 5286.04 966.305   2
   0 -10   4 4253.82 684.520   3
   0  10  -4 3716.57 737.084   4
   0 -10   3-153.464 209.018   3
   0  10  -3-654.846 324.325   4
   0 -10   3 36.8926 296.676   2
   0  10  -3 229.469 277.591   8
   0 -10   2 3348.90 612.544   3
   0  10  -2 3691.98 751.888   8
   0  10  -1 317.889 272.096   8
   0 -10   1 207.369 259.446   3
   0 -10   0 18698.0 1486.72   3
   0  10   0 18068.8 1641.61   8
   0  10   1 9866.81 1214.93   8
   0 -10  -1 8842.57 1053.80   3
   0  10   2 7296.88 1072.25   8
   0 -10  -2 5040.73 817.548   3
   0 -10  -3 4919.20 790.258   3
   0  10   3 4725.80 873.307   8
   0 -10  -4 10783.2 1209.55   3
   0  10   4 8788.79 1201.93   8
   0  10   5 521.039 304.366   8
   0 -10  -5 47.7301 257.663   3
   0 -10  -6 7495.03 1026.31   3
   0  10   6 7107.54 1137.64   8
   0  10   7 183.812 297.959   8
   0 -10  -7 379.312 318.266   3
   0  10   8 5291.37 1011.01   8
   0 -10  -8 6007.03 951.063   3
   0 -10  -9 311.270 300.255   3
   0  10   9-11.1444 279.930   8
   0  11  -3 1846.62 608.680   8
   0 -11   2 10327.3 1152.92   3
   0  11  -2 11679.7 1404.56   8
   0 -11   1 1760.61 486.622   3
   0  11  -1 1943.14 569.895   8
   0 -11   0-20.9901 261.916   3
   0  11   0 326.238 260.154   8
   0  11   1-1099.54 457.088   8
   0 -11  -1 107.115 237.028   3
   0 -11  -2 3392.48 721.166   3
   0  11   2 3218.35 790.883   8
   0 -11  -3 194.920 246.392   3
   0  11   3 457.013 398.287   8
   0  11   4 11029.3 1451.78   8
   0 -11  -4 8895.56 1137.58   3
   0 -11  -5-453.598 450.613   3
   0  11   5 162.588 277.171   8
   0  11   6 2399.14 697.060   8
   0  11   7 852.446 470.011   8
   0  11   8 8297.42 1349.67   8
   0 -12   1 326.957 310.764   3
   0  12   0 2947.66 761.802   8
   0  12   1 964.323 477.864   8
   0  12   2 644.979 410.107   8
   0  12   3 1234.72 567.061   8
   0  12   4 2240.30 718.967   8
   0  12   5 426.144 367.141   8
  -1  12   5 2014.29 743.181   8
  -1  12   4 392.898 369.658   8
  -1  12   3 2283.71 675.040   8
  -1  12   2 2137.67 621.300   8
  -1  12   1 1213.53 515.831   8
  -1  12   0 430.544 283.508   8
  -1  11   8-667.686 492.590   8
  -1  11   7 3965.46 891.625   8
  -1  11   6 241.026 246.452   8
  -1  11   5 3352.89 823.352   8
   1 -11  -4 232.264 260.209   3
  -1  11   4 1089.01 451.220   8
   1 -11  -3 1884.20 567.151   3
  -1  11   3 1723.74 592.486   8
  -1  11   2 1303.09 505.788   8
   1 -11  -2 1543.00 527.223   3
  -1  11   1 1464.73 523.946   8
   1 -11  -1 2737.15 626.808   3
   1 -11   0 6918.35 973.487   3
  -1  11   0 5114.46 893.280   8
  -1  11  -1 6640.88 1017.07   8
   1 -11   1 6712.12 941.453   3
  -1  11  -2-137.232 193.057   8
   1 -11   2 1253.35 467.489   3
  -1  10   9 2254.51 713.244   8
   1 -10  -8-515.596 344.278   3
  -1  10   8 796.060 463.997   8
   1 -10  -7 2508.49 630.610   3
  -1  10   7 2069.94 599.683   8
  -1  10   6-12.4113 206.549   8
   1 -10  -6-228.666 310.565   3
   1 -10  -5 9683.20 1178.79   3
  -1  10   5 11046.8 1357.28   8
   1 -10  -4 2535.61 618.479   3
  -1  10   4 1157.83 497.486   8
  -1  10   3 25941.7 1977.70   8
   1 -10  -3 26936.9 1884.86   3
   1 -10  -2 951.048 407.733   3
  -1  10   2 1056.52 445.813   8
  -1  10   1 5827.51 895.804   8
   1 -10  -1 7029.66 951.002   3
   1 -10   0 1959.57 533.360   3
  -1  10   0 2178.61 585.993   8
   1 -10   1 2505.00 563.152   3
  -1  10  -1 1887.41 534.346   8
  -1  10  -2 2125.10 578.380   8
   1 -10   2 1295.48 414.917   3
   1 -10   3 4583.89 724.360   3
  -1  10  -3 5551.62 881.604   8
   1 -10   4 250.280 334.963   2
   1 -10   4-230.442 221.792   3
   1 -10   5 1447.21 537.843   2
  -1   9  10 549.052 338.802   8
   1  -9 -10 133.700 284.503   3
   1  -9  -9 3664.56 750.192   3
  -1   9   9 3862.51 827.269   8
  -1   9   8-34.5171 251.041   8
   1  -9  -8-537.347 326.476   3
   1  -9  -7 8256.14 1057.44   3
  -1   9   7 9024.13 1192.37   8
   1  -9  -6 138.504 298.318   3
  -1   9   6-272.682 250.910   8
   1  -9  -5 23795.0 1729.15   3
  -1   9   5 21750.8 1771.83   8
  -1   9   5 27449.9 1646.82   6
  -1   9   4 638.545 320.435   6
   1  -9  -4 489.059 198.392   7
  -1   9   4 1410.34 517.308   8
   1  -9  -4 915.307 485.182   3
   1  -9  -3 9052.56 807.398   7
   1  -9  -3 9146.05 1050.39   3
  -1   9   3 7418.55 982.541   8
  -1   9   2 921.313 395.629   8
   1  -9  -2 1135.48 276.484   4
   1  -9  -2 1204.12 419.256   3
   1  -9  -1 4807.20 601.865   4
   1  -9  -1 5194.58 774.029   3
  -1   9   1 4276.88 726.822   8
   1  -9   0 548.369 312.041   3
  -1   9   0 74.6678 246.661   8
   1  -9   1 13843.8 1191.73   3
  -1   9  -1 14453.6 1302.34   8
   1  -9   2 636.768 258.470   3
  -1   9  -2 652.106 327.313   8
   1  -9   3 24926.1 1531.08   3
  -1   9  -3 24096.3 1700.89   8
   1  -9   4 896.416 419.438   2
   1  -9   4 1016.56 312.051   3
   1  -9   5 4626.45 843.229   2
   1  -9   6 1055.89 487.862   2
  -1   9  -6 1727.00 548.453   4
   1  -9   7 1396.31 492.274   2
   1  -8 -12 1614.73 520.494   3
   1  -8 -11 7506.44 1024.55   3
  -1   8  11 7148.79 1035.84   8
  -1   8  10-290.675 289.873   8
   1  -8 -10 38.0942 297.380   3
  -1   8   9 9299.49 1152.57   8
   1  -8  -9 11221.0 1209.33   3
  -1   8   8 804.540 314.364   8
   1  -8  -8 181.745 249.662   3
   1  -8  -7 6950.08 903.631   3
  -1   8   7 8293.22 1058.50   8
  -1   8   6 36.0298 193.976   8
   1  -8  -6 196.568 287.018   3
  -1   8   5 473.692 246.169   6
   1  -8  -5 560.708 321.529   3
   1  -8  -5 375.193 106.116   4
  -1   8   5 510.449 308.381   8
  -1   8   4 586.662 248.338   6
   1  -8  -4 297.481 295.897   3
   1  -8  -4-28.9356 89.3804   4
   1  -8  -4 299.627 141.076   7
  -1   8   4 213.345 248.547   8
   1  -8  -4 105.273 196.690   1
   1  -8  -3 9784.09 1018.26   3
  -1   8   3 9358.08 1002.44   8
   1  -8  -3 10144.9 828.566   8
   1  -8  -3 9581.67 688.179   4
   1  -8  -3 8240.18 722.434   7
   1  -8  -2 7738.47 663.121   4
  -1   8   2 7909.97 914.006   8
   1  -8  -2 7980.04 901.521   3
   1  -8  -2 8886.62 771.494   8
   1  -8  -2 8255.65 764.675   7
  -1   8   2 8920.25 699.450   6
   1  -8  -1 16605.3 1058.64   8
   1  -8  -1 14140.4 949.294   4
   1  -8  -1 14718.6 1069.47   7
  -1   8   1 16229.8 1274.75   8
   1  -8  -1 13644.4 1153.99   3
  -1   8   1 17311.0 853.346   6
  -1   8   0 382.026 220.054   8
   1  -8   0 269.518 251.329   3
   1  -8   0-221.376 177.280   8
   1  -8   0 295.252 165.494   4
   1  -8   1 32480.1 1575.16   8
  -1   8  -1 34407.5 1847.86   8
   1  -8   1 33858.1 1730.41   3
   1  -8   1 35517.6 1673.95   4
   1  -8   2 4515.46 648.871   3
  -1   8  -2 6182.12 816.623   8
   1  -8   3 24739.2 1413.27   3
  -1   8  -3 25653.4 1631.50   8
  -1   8  -4-47.8320 182.688   4
   1  -8   4 72.1144 177.645   3
   1  -8   4 14.0495 280.136   2
   1  -8   5 9249.75 815.060   3
   1  -8   5 10927.5 1201.76   2
  -1   8  -5 9959.10 1105.71   4
   1  -8   6-123.648 255.647   2
  -1   8  -6-164.371 233.174   4
  -1   8  -7 1650.13 530.051   4
   1  -8   7 1803.94 549.995   2
  -1   8  -8-43.2092 247.626   4
   1  -8   8 299.006 241.772   2
   1  -8   9 2951.32 662.409   2
   1  -7 -13 4436.87 763.048   3
  -1   7  12 417.798 291.548   8
   1  -7 -12 275.698 228.459   3
  -1   7  11 4558.80 782.469   8
   1  -7 -11 5483.66 828.062   3
  -1   7  10-498.649 280.462   8
   1  -7 -10 151.118 241.347   3
   1  -7  -9 13701.1 1264.43   3
  -1   7   9 12563.4 1241.16   8
   1  -7  -8 852.936 357.959   3
   1  -7  -8 588.815 136.932   4
  -1   7   7 573.779 285.094   8
   1  -7  -7 625.067 141.145   4
   1  -7  -7 708.437 343.006   3
   1  -7  -6-173.378 288.582   3
   1  -7  -6-11.7335 58.3385   1
  -1   7   6-109.765 240.127   8
   1  -7  -6 19.5074 54.6441   4
  -1   7   6-151.915 182.740   6
   1  -7  -5 15418.9 1242.98   3
   1  -7  -5 14820.6 693.037   4
  -1   7   5 14797.7 1101.81   6
  -1   7   5 14932.5 1235.32   8
   1  -7  -5 15477.4 1036.25   1
   1  -7  -4 1563.78 252.511   4
  -1   7   4 1754.49 452.609   8
   1  -7  -4 1217.86 287.872   1
  -1   7   4 1196.48 327.868   6
   1  -7  -4 1332.41 427.363   3
  -1   7   3 41696.7 1935.38   8
   1  -7  -3 41490.1 1939.44   3
   1  -7  -3 43446.7 1580.77   8
   1  -7  -3 42840.6 1350.38   4
  -1   7   2 214.913 123.087   6
   1  -7  -2 226.561 143.393   7
   1  -7  -2 232.547 128.123   4
   1  -7  -2 250.918 117.546   8
   1  -7  -2 192.057 229.753   3
  -1   7   2 111.878 167.647   8
   1  -7  -1 24257.7 1258.43   7
  -1   7   1 23827.1 1000.89   6
   1  -7  -1 24186.5 1410.11   3
   1  -7  -1 23291.5 1153.67   8
   1  -7  -1 22905.1 1132.60   4
  -1   7   1 21990.8 1363.17   8
   1  -7   0 872.320 258.815   4
  -1   7   0 259.319 211.089   8
   1  -7   0 816.318 304.140   3
  -1   7   0 716.435 164.062   6
   1  -7   0 917.537 245.777   8
   1  -7   0 608.416 197.204   7
   1  -7   1 1295.99 320.999   7
   1  -7   1 1244.61 298.987   8
   1  -7   1 1198.75 305.275   4
   1  -7   1 1011.88 315.170   3
  -1   7  -1 1236.11 362.745   8
   1  -7   2 3239.36 516.670   4
  -1   7  -2 4179.60 610.582   8
   1  -7   2 3696.46 538.660   3
   1  -7   2 3318.30 491.510   8
  -1   7  -3 13197.4 1091.04   8
   1  -7   3 15554.9 1040.69   3
   1  -7   3 16755.1 1167.04   8
  -1   7  -3 14747.6 1139.04   4
  -1   7  -4 302.981 191.487   4
   1  -7   4 813.285 347.515   2
   1  -7   4 253.329 167.971   3
   1  -7   4 926.631 289.805   8
   1  -7   5 19574.3 1074.39   3
   1  -7   5 17121.0 1378.33   2
   1  -7   5 16800.7 460.148   6
  -1   7  -5 19013.0 1447.07   4
   1  -7   6 2280.95 555.830   2
   1  -7   6 1687.77 313.702   3
  -1   7  -6 928.966 379.704   4
  -1   7  -7 15492.9 1464.66   4
   1  -7   7 15120.5 1365.45   2
   1  -7   8 625.567 371.535   2
  -1   7  -8 604.534 360.253   4
   1  -7   9 2150.26 577.852   2
  -1   7  -9 3207.03 774.414   4
   1  -7  10-508.229 367.306   2
   1  -6 -13 3870.64 679.634   3
   1  -6 -12-11.2819 187.100   3
  -1   6  12 697.957 379.607   8
   1  -6 -11 7278.95 906.857   3
  -1   6  11 8214.77 994.416   8
  -1   6  10 390.084 271.578   8
   1  -6 -10 132.059 210.988   3
   1  -6  -9 6995.60 514.036   4
   1  -6  -9 7924.29 903.402   3
  -1   6   9 6538.20 820.165   8
  -1   6   8 3903.07 636.127   8
   1  -6  -8 4283.61 386.730   4
   1  -6  -8 3636.94 629.619   3
  -1   6   7 36871.9 1853.59   8
  -1   6   7 37781.3 884.797   7
   1  -6  -7 39126.3 1920.34   3
   1  -6  -7 34730.6 1714.10   1
   1  -6  -6 605.029 274.661   3
   1  -6  -6 846.360 279.073   1
  -1   6   6 235.100 184.305   6
  -1   6   6 230.848 215.452   8
  -1   6   6 400.108 141.590   7
  -1   6   5 62796.9 2288.06   8
   1  -6  -5 65541.1 2395.95   3
   1  -6  -5 61666.2 1982.92   1
  -1   6   5 67203.1 1516.46   7
  -1   6   5 66064.5 2235.98   6
   1  -6  -4 3222.57 567.423   3
  -1   6   4 2732.66 344.475   7
   1  -6  -4 2744.04 307.204   4
   1  -6  -4 2706.74 406.135   1
   1  -6  -4 2835.25 327.265   7
  -1   6   4 3246.36 519.466   8
   1  -6  -3 55900.9 1431.48   4
  -1   6   3 56905.0 2059.48   8
   1  -6  -3 56724.5 1651.72   1
   1  -6  -3 58044.5 2129.47   3
  -1   6   3 61646.6 1653.51   7
  -1   6   2 406.604 168.447   6
  -1   6   2 328.909 190.835   7
  -1   6   2 105.471 177.867   8
   1  -6  -2 163.035 219.538   3
   1  -6  -2 127.497 100.446   4
   1  -6  -2 173.292 120.523   8
  -1   6   1 297.916 132.110   6
   1  -6  -1 91.1631 178.474   5
  -1   6   1 47.4973 161.680   8
   1  -6  -1-80.9564 206.239   3
   1  -6  -1 89.5160 111.985   6
  -1   6   1 199.186 168.914   7
   1  -6  -1 5.60613 73.1719   8
   1  -6   0 6309.55 671.571   3
   1  -6   0 6286.07 586.179   4
   1  -6   0 6494.73 785.139   5
   1  -6   0 6554.68 637.998   7
   1  -6   0 6410.77 415.439   6
   1  -6   0 7039.22 602.254   8
  -1   6   0 6708.77 464.329   6
  -1   6   0 7146.50 704.272   8
   1  -6   1 30956.5 798.191   6
   1  -6   1 27927.5 1250.18   8
  -1   6  -1 29901.7 1426.80   8
   1  -6   1 29440.4 1363.36   3
   1  -6   1 31168.7 1466.12   7
   1  -6   1 31100.3 1369.49   4
   1  -6   1 31984.5 1754.18   5
   1  -6   2 8970.91 837.260   7
   1  -6   2 10210.1 418.455   6
  -1   6  -2 12101.2 915.338   4
   1  -6   2 9521.93 761.675   3
   1  -6   2 10247.0 809.745   8
   1  -6   2 10198.1 835.040   4
  -1   6  -2 8780.08 806.145   8
   1  -6   2 10528.4 1030.03   5
   1  -6   3 30551.4 1467.54   8
   1  -6   3 29699.0 1497.27   4
  -1   6  -3 30237.9 1507.97   8
   1  -6   3 30782.0 1752.47   5
   1  -6   3 28242.0 1518.23   7
  -1   6  -3 27887.7 1472.57   4
   1  -6   3 31803.6 759.753   6
   1  -6   3 30782.8 1326.19   3
  -1   6  -4 338.431 258.213   4
   1  -6   4 261.399 98.9893   6
   1  -6   4 872.256 321.749   2
   1  -6   4 318.100 176.586   3
   1  -6   4 612.938 241.084   8
   1  -6   5 17247.7 735.984   6
   1  -6   5 17271.3 912.795   3
   1  -6   5 16754.0 1232.03   8
  -1   6  -5 17616.4 1316.09   4
   1  -6   5 16195.4 1238.69   2
   1  -6   6 40.1981 86.5929   6
   1  -6   6 172.468 222.425   2
   1  -6   6 45.9028 127.382   3
  -1   6  -6 197.257 291.231   5
   1  -6   7 9909.86 1041.19   2
  -1   6  -7 11566.9 1200.94   4
   1  -6   7 12071.0 788.207   6
   1  -6   7 11395.2 582.079   3
  -1   6  -7 10591.9 1191.73   5
   1  -6   8-40.6082 229.756   2
  -1   6  -8 281.979 302.270   5
  -1   6  -8 255.418 277.090   4
  -1   6  -9 6786.82 1056.31   5
   1  -6   9 6187.76 882.608   2
  -1   6  -9 8732.80 1170.88   4
  -1   6 -10-140.580 426.093   4
   1  -6  10-435.628 295.004   2
  -1   6 -10 265.644 312.723   5
   1  -6  11 247.821 272.864   2
  -1   6 -11 607.188 357.684   5
   1  -5 -13 8761.91 933.144   3
  -1   5  13 8576.61 1057.99   1
  -1   5  12-91.0904 240.763   1
   1  -5 -12-213.873 197.468   3
   1  -5 -11 3298.27 571.707   3
   1  -5 -11 4931.53 553.336   4
  -1   5  11 3320.73 612.991   1
   1  -5 -10 971.249 339.406   3
  -1   5  10 581.885 317.696   1
   1  -5 -10 953.770 248.784   4
   1  -5  -9 34716.0 1271.31   4
   1  -5  -9 34682.0 1742.33   3
  -1   5   9 32522.7 1702.34   8
  -1   5   8 756.245 312.265   8
   1  -5  -8 785.220 207.829   4
   1  -5  -8 921.700 336.098   3
  -1   5   8 550.249 103.052   7
   1  -5  -7 53452.4 2105.95   3
  -1   5   7 55537.0 2166.47   6
  -1   5   7 51725.8 2018.53   8
   1  -5  -7 53527.3 1366.54   4
  -1   5   7 56290.4 1035.39   7
   1  -5  -6 4961.71 655.698   3
  -1   5   6 5319.21 656.730   6
   1  -5  -6 4263.62 551.844   1
  -1   5   6 3982.42 311.248   7
   1  -5  -6 4039.26 620.101   2
  -1   5   6 3641.87 532.265   8
  -1   5   5 20352.5 747.136   7
   1  -5  -5 19527.0 1223.63   2
   1  -5  -5 18976.5 1196.22   3
  -1   5   5 18324.3 1121.63   8
  -1   5   5 17678.7 1109.87   6
   1  -5  -5 16725.4 999.140   1
  -1   5   4 2012.99 374.617   8
  -1   5   4 1876.08 254.986   7
   1  -5  -4 2054.53 410.872   3
   1  -5  -4 2209.38 335.464   1
   1  -5  -3 25665.1 1308.72   3
   1  -5  -3 27585.6 1138.78   6
   1  -5  -3 28601.0 965.346   7
  -1   5   3 27762.9 986.976   7
   1  -5  -3 25940.8 1037.97   1
   1  -5  -3 26061.1 905.040   4
  -1   5   3 26839.8 1266.29   8
  -1   5   2 4596.26 429.759   7
   1  -5  -2 4374.76 414.263   7
  -1   5   2 3859.52 422.205   6
   1  -5  -2 4382.09 416.782   6
   1  -5  -2 4311.50 391.609   4
   1  -5  -2 4379.34 428.473   8
   1  -5  -2 4236.90 532.728   3
  -1   5   2 3914.15 478.902   8
  -1   5   1 186978. 2619.00   6
   1  -5  -1 197722. 2496.18   6
   1  -5  -1 188798. 2711.07   4
   1  -5  -1 196544. 2781.82   8
   1  -5  -1 188697. 3354.94   3
  -1   5   1 189069. 3166.84   8
   1  -5  -1 188867. 2889.87   7
  -1   5   1 194194. 2940.69   7
  -1   5   0 2251.97 374.787   8
   1  -5   0 2579.24 333.194   8
   1  -5   0 2391.63 390.824   3
   1  -5   0 1669.94 211.324   6
   1  -5   0 2510.41 352.408   4
  -1   5   0 1987.96 333.091   7
  -1   5   0 2346.70 274.533   6
   1  -5   1 21684.7 1006.24   8
  -1   5  -1 23077.2 1135.25   7
   1  -5   1 22633.5 1081.58   4
   1  -5   1 21298.3 1087.77   7
  -1   5  -1 21660.5 1092.37   8
   1  -5   1 23498.4 1122.05   3
   1  -5   1 21399.1 686.785   6
   1  -5   2 1310.21 272.623   3
  -1   5  -2 1072.33 278.970   8
   1  -5   2 1038.45 286.047   7
   1  -5   2 943.163 251.700   4
  -1   5  -2 1081.34 292.795   4
   1  -5   2 1189.70 260.420   8
   1  -5   2 1153.55 167.455   6
  -1   5  -3 120889. 2845.80   4
  -1   5  -3 122704. 2764.59   8
   1  -5   3 121906. 2909.25   7
   1  -5   3 128208. 2912.05   4
   1  -5   3 128707. 2789.65   8
   1  -5   3 125721. 2391.37   3
   1  -5   3 133820. 1808.77   6
   1  -5   3 126323. 3254.45   5
   1  -5   4 206.997 166.864   8
  -1   5  -4-93.0786 237.558   4
   1  -5   4-38.7152 244.249   2
  -1   5  -4 164.889 193.706   5
   1  -5   4 618.953 238.811   5
   1  -5   4 488.535 205.746   4
   1  -5   4 301.816 126.478   6
   1  -5   4 131.798 138.941   3
   1  -5   4-16.5449 116.762   7
  -1   5  -5 29592.0 1619.34   4
   1  -5   5 31793.1 1073.74   3
   1  -5   5 34397.4 1664.80   2
   1  -5   5 33623.9 1733.52   5
   1  -5   5 33146.7 1635.45   8
   1  -5   5 32236.4 1118.92   6
  -1   5  -5 33106.0 1812.45   5
  -1   5  -6 90.5310 222.110   5
   1  -5   6 216.189 118.338   3
   1  -5   6 242.509 210.245   2
  -1   5  -6 192.003 210.716   4
   1  -5   6 226.602 187.763   8
   1  -5   7 3983.83 273.533   3
  -1   5  -7 4439.45 716.045   4
  -1   5  -7 4243.39 738.613   5
   1  -5   7 4578.05 667.043   2
   1  -5   8-131.091 261.658   2
  -1   5  -8 197.825 255.552   5
  -1   5  -8 86.9707 249.666   4
   1  -5   8 138.877 133.557   6
  -1   5  -9 11730.4 1316.46   5
  -1   5  -9 11510.6 1284.27   4
   1  -5   9 10782.1 1108.52   2
  -1   5 -10 356.481 308.151   4
  -1   5 -10-18.4290 265.136   5
   1  -5  10 376.597 298.186   2
  -1   5 -11 4621.64 917.425   4
   1  -5  11 4759.66 793.945   2
  -1   5 -11 3776.85 841.630   5
  -1   5 -12 932.725 434.371   5
   1  -5  12 1160.83 477.520   2
   1  -4 -14-696.707 287.154   5
  -1   4  13 7244.38 989.220   1
   1  -4 -12 893.869 298.448   3
   1  -4 -12 670.988 275.103   4
  -1   4  12 1245.98 422.216   1
   1  -4 -11 7843.30 754.311   4
  -1   4  11 9175.46 990.384   1
   1  -4 -11 8224.21 824.477   3
  -1   4  10 13076.1 1121.55   1
   1  -4 -10 13319.6 928.003   4
  -1   4  10 10805.0 468.418   7
  -1   4  10 13344.4 547.905   7
   1  -4 -10 14478.0 1075.89   3
   1  -4  -9 22645.6 1124.28   4
  -1   4   9 23534.1 1439.65   1
   1  -4  -9 24826.3 1391.95   3
  -1   4   9 21640.1 659.807   7
   1  -4  -8 4954.54 499.154   4
  -1   4   8 5104.05 656.899   1
   1  -4  -8 4655.37 609.851   3
  -1   4   8 4108.13 295.777   7
   1  -4  -7 6162.85 793.277   2
  -1   4   7 6147.68 358.578   7
   1  -4  -7 5228.05 629.406   3
  -1   4   7 4841.02 642.837   6
   1  -4  -7 6265.47 514.596   4
  -1   4   7 5448.05 639.738   1
  -1   4   6 30802.2 1493.63   6
   1  -4  -6 29624.2 1412.31   3
   1  -4  -6 29086.5 1560.42   2
  -1   4   6 30981.7 1383.45   1
  -1   4   6 28623.4 768.629   7
   1  -4  -5 5499.57 607.745   3
  -1   4   5 5430.62 563.701   8
   1  -4  -5 5359.19 554.058   1
  -1   4   5 6839.84 662.648   6
  -1   4   5 5186.14 341.987   7
  -1   4   4 2731.00 401.845   8
   1  -4  -4 2454.69 349.844   1
   1  -4  -4 1462.86 320.965   3
  -1   4   4 1516.86 193.227   7
   1  -4  -3 244653. 3694.95   3
  -1   4   3 239208. 3395.37   6
  -1   4   3 242230. 2564.53   7
   1  -4  -3 225317. 2878.38   1
  -1   4   3 245979. 3352.28   8
   1  -4  -3 257409. 3354.44   6
   1  -4  -3 238114. 2439.47   7
  -1   4   2 30959.1 987.963   7
   1  -4  -2 29794.0 942.920   7
  -1   4   2 30551.2 1134.16   8
   1  -4  -2 32726.2 1087.27   6
  -1   4   2 30011.7 1098.31   6
   1  -4  -2 33093.5 1335.95   3
   1  -4  -2 30036.6 976.725   8
  -1   4   1 46398.8 1282.50   7
   1  -4  -1 45866.2 1164.81   6
   1  -4  -1 45199.0 1171.52   8
   1  -4  -1 46605.2 1266.42   7
  -1   4   1 43887.4 1200.86   6
  -1   4   1 46877.4 1351.11   8
   1  -4  -1 43009.4 1462.74   3
   1  -4  -1 44330.4 1203.80   4
   1  -4   0 1866.50 277.229   7
  -1   4   0 1481.93 269.421   7
  -1   4   0 1632.23 273.240   8
   1  -4   0 1598.19 208.353   6
   1  -4   0 1613.55 229.928   8
   1  -4   0 1588.80 255.986   4
   1  -4   0 1184.54 244.217   3
  -1   4   0 1861.06 238.377   6
   1  -4   1 157579. 2405.73   8
   1  -4   1 162273. 2607.33   3
  -1   4  -1 164549. 2610.87   8
   1  -4   1 163484. 2658.85   4
   1  -4   1 161899. 1897.29   6
  -1   4  -1 166580. 2736.65   7
   1  -4   1 167156. 2743.06   7
   1  -4   2 935.450 216.296   8
   1  -4   2 886.868 226.343   4
  -1   4  -2 1158.62 259.095   4
  -1   4  -2 873.304 251.331   7
  -1   4  -2 1227.73 260.807   8
   1  -4   2 944.135 150.106   6
   1  -4   2 940.401 211.476   3
   1  -4   3 248468. 3760.04   4
  -1   4  -3 240101. 3738.84   4
   1  -4   3 251100. 2608.97   6
  -1   4  -3 248079. 4149.49   5
   1  -4   3 243556. 3541.27   8
   1  -4   3 253606. 2999.18   3
   1  -4   4 3510.77 511.334   5
   1  -4   4 2928.29 458.063   2
  -1   4  -4 3670.36 560.959   5
   1  -4   4 2713.89 306.367   3
  -1   4  -4 2927.48 460.452   4
   1  -4   4 2832.59 435.187   8
   1  -4   5 12895.8 968.680   8
   1  -4   5 11938.8 954.568   5
  -1   4  -5 10823.9 926.376   4
   1  -4   5 11845.2 900.290   2
   1  -4   5 11222.5 916.549   4
   1  -4   5 10492.3 877.400   7
   1  -4   5 11224.4 538.493   3
   1  -4   6 441.792 212.243   7
   1  -4   6-49.8634 118.965   4
  -1   4  -6-83.5477 264.879   4
   1  -4   6 176.142 203.135   5
   1  -4   6-148.298 244.704   2
   1  -4   6 228.315 171.995   8
  -1   4  -6 112.934 244.088   5
   1  -4   6 78.8139 70.4203   3
   1  -4   7 32157.4 1769.72   8
   1  -4   7 30930.8 1563.43   2
  -1   4  -7 33082.9 1820.12   4
  -1   4  -7 32770.3 1893.51   5
  -1   4  -8 181.305 265.691   5
  -1   4  -8 349.251 289.093   4
   1  -4   8 426.982 281.160   2
   1  -4   9 32401.8 1811.34   2
  -1   4  -9 36416.4 2139.53   4
  -1   4  -9 30612.9 2044.81   5
   1  -4   9 32045.7 1461.75   6
  -1   4 -10 384.236 344.625   4
  -1   4 -10 236.647 227.915   5
   1  -4  10 750.069 349.736   2
  -1   4 -11 6754.47 1075.90   5
  -1   4 -11 7734.96 1112.04   4
   1  -4  11 6749.93 929.806   2
   1  -4  12-89.1370 298.932   2
  -1   4 -12-337.220 340.727   5
  -1   4 -12-71.4592 258.427   4
   1  -4  13 2973.17 690.035   2
  -1   4 -13 1372.27 558.376   5
   1  -3 -14 359.334 275.905   5
   1  -3 -13 4627.71 793.229   5
  -1   3  13 7053.38 986.701   1
   1  -3 -13 6187.34 806.591   4
  -1   3  12 3055.84 625.534   1
   1  -3 -12 2815.68 449.484   3
   1  -3 -12 3052.41 564.968   4
  -1   3  11 7696.14 916.302   1
   1  -3 -11 6954.98 757.213   4
   1  -3 -11 7179.77 717.390   3
   1  -3 -10 47.0673 211.370   4
   1  -3 -10-138.043 151.542   3
  -1   3  10 9.48449 242.544   1
  -1   3   9 393.227 267.111   1
   1  -3  -9 80.6692 147.496   4
   1  -3  -9 582.981 260.160   3
   1  -3  -8 4677.90 533.665   4
   1  -3  -8 4447.72 550.762   3
  -1   3   8 4038.23 590.041   1
   1  -3  -8 4694.62 771.744   2
   1  -3  -7 25510.7 1102.00   4
  -1   3   7 27207.5 1360.80   1
   1  -3  -7 25630.7 1247.81   3
  -1   3   7 25918.6 1410.30   6
   1  -3  -7 26236.8 1630.19   2
   1  -3  -6 5210.92 554.083   3
   1  -3  -6 5774.58 482.070   4
  -1   3   6 4886.49 550.440   1
   1  -3  -6 5089.61 675.840   2
  -1   3   5 57210.4 1092.91   7
  -1   3   5 58928.9 1716.14   1
   1  -3  -5 58139.9 1763.94   3
  -1   3   4 15316.2 568.462   7
  -1   3   4 14793.9 875.453   6
   1  -3  -4 14138.0 785.710   1
   1  -3  -4 15584.2 885.523   6
  -1   3   4 15804.7 815.676   1
   1  -3  -4 14935.1 872.479   3
   1  -3  -3 50811.8 1303.11   1
  -1   3   3 54659.5 1385.33   8
  -1   3   3 53194.2 1075.91   7
   1  -3  -3 57493.8 1533.29   6
  -1   3   3 50916.3 1499.32   6
   1  -3  -3 54611.7 1589.20   3
   1  -3  -2 44219.4 1364.50   3
  -1   3   2 40846.3 977.681   7
   1  -3  -2 41160.6 944.665   7
  -1   3   2 43904.9 1152.25   8
   1  -3  -2 39350.3 988.302   1
  -1   3   2 42267.6 1236.56   6
   1  -3  -2 45581.3 1233.89   6
  -1   3   1 154896. 2029.94   7
  -1   3   1 146756. 2066.75   6
   1  -3  -1 145064. 1780.09   8
   1  -3  -1 155134. 1981.38   7
   1  -3  -1 150556. 2437.00   3
   1  -3  -1 152403. 2023.91   6
  -1   3   1 149330. 2021.93   8
  -1   3   0 2386.43 264.710   8
  -1   3   0 2858.07 270.022   6
   1  -3   0 2721.39 252.683   6
   1  -3   0 2553.79 311.714   3
   1  -3   0 2621.72 253.716   8
  -1   3   0 2464.08 287.044   7
   1  -3   0 2525.35 280.396   7
   1  -3   0 2593.77 281.135   4
  -1   3  -1 9790.08 592.303   7
  -1   3  -1 9609.90 463.218   6
   1  -3   1 9055.73 552.737   3
   1  -3   1 9911.51 459.609   6
   1  -3   1 9760.15 591.426   7
   1  -3   1 9836.43 515.804   8
  -1   3  -1 9164.19 521.461   8
   1  -3   1 9140.48 564.627   4
   1  -3   2 16.8412 82.2930   6
  -1   3  -2 63.4143 104.741   8
  -1   3  -2 163.440 117.793   7
   1  -3   2 12.6060 72.7929   8
  -1   3  -2-144.858 172.287   5
   1  -3   2 22.5950 73.8088   3
  -1   3  -2-15.0910 113.074   4
  -1   3  -3 3298.97 414.607   7
  -1   3  -3 3411.13 477.930   5
   1  -3   3 3328.93 291.221   3
  -1   3  -3 3809.01 440.593   4
   1  -3   3 3390.58 387.948   8
   1  -3   4 540.191 195.970   8
   1  -3   4 530.100 134.165   3
   1  -3   4 263.927 170.925   2
   1  -3   4 458.625 198.273   5
  -1   3  -4 458.201 268.701   5
  -1   3  -4 355.315 202.637   4
  -1   3  -5 589521. 6600.89   5
   1  -3   5 599730. 3033.02   3
   1  -3   5 598339. 5699.52   2
   1  -3   5 598693. 6156.71   5
   1  -3   5 607213. 6146.26   8
  -1   3  -5 606905. 6298.23   4
   1  -3   5 608903. 6149.35   7
  -1   3  -6 957.055 346.926   5
   1  -3   6 1688.55 382.743   8
   1  -3   6 1035.02 288.846   4
  -1   3  -6 1170.08 351.929   4
   1  -3   6 633.310 242.627   2
   1  -3   6 1263.45 341.666   7
   1  -3   6 846.008 277.506   5
   1  -3   7 27533.1 1421.32   5
  -1   3  -7 28568.6 1596.63   4
   1  -3   7 27489.3 1394.81   2
   1  -3   7 29488.2 1535.91   4
  -1   3  -7 25646.9 1585.72   5
   1  -3   7 29009.1 1492.15   7
   1  -3   7 30238.1 1634.34   8
  -1   3  -8 702.702 342.641   5
  -1   3  -8 232.005 230.946   4
   1  -3   8 609.962 265.973   2
   1  -3   8 549.772 232.667   5
  -1   3  -9 18781.3 1470.51   4
  -1   3  -9 20241.6 1597.41   5
   1  -3   9 19637.5 1330.66   2
  -1   3 -10 690.669 379.064   5
  -1   3 -10 455.910 253.616   4
   1  -3  10 682.505 272.925   2
  -1   3 -11 9905.99 1248.77   5
  -1   3 -11 9904.91 1193.70   4
   1  -3  11 10187.4 1070.57   2
   1  -3  12 54.1797 229.465   2
  -1   3 -12 4.99074 215.811   5
   1  -3  13 2277.33 587.725   2
  -1   3 -13 2977.95 757.618   4
  -1   3 -13 1998.09 631.926   5
  -1   3 -14-173.394 297.865   5
   1  -2 -14-382.276 244.155   4
   1  -2 -13 7340.61 911.029   4
   1  -2 -13 5078.15 839.843   5
  -1   2  13 7692.10 1038.19   1
   1  -2 -12 3527.43 621.955   4
  -1   2  12 3349.40 688.793   1
  -1   2  12 3214.85 642.595   2
   1  -2 -12 2773.34 602.189   5
  -1   2  11 641.935 353.107   2
   1  -2 -11 461.369 278.737   4
   1  -2 -11-100.656 205.467   5
   1  -2 -11 587.690 208.930   3
  -1   2  11 768.308 329.686   1
  -1   2  10 25149.8 1580.54   1
   1  -2 -10 24355.0 1433.09   4
   1  -2 -10 24488.3 1167.65   3
  -1   2  10 23798.3 1498.10   2
   1  -2  -9 25101.4 1171.65   3
   1  -2  -9 23812.6 1332.47   4
  -1   2   9 24330.8 1480.49   1
  -1   2   9 24083.6 1459.91   2
  -1   2   8 8543.81 823.396   2
  -1   2   8 9487.43 884.772   1
   1  -2  -8 7633.33 719.614   4
   1  -2  -8 8698.93 682.601   3
  -1   2   8 8779.37 851.153   6
   1  -2  -8 6508.69 896.704   2
  -1   2   7 98781.5 2610.00   2
   1  -2  -7 88254.7 2997.72   2
   1  -2  -7 90606.8 2149.35   3
  -1   2   7 90984.3 2559.62   6
  -1   2   7 94391.9 2519.73   1
   1  -2  -7 90098.6 2249.53   4
   1  -2  -6 7491.76 609.477   3
  -1   2   6 8132.18 696.409   1
   1  -2  -6 7577.98 605.351   4
  -1   2   6 7889.57 715.691   2
   1  -2  -6 6534.85 774.230   2
   1  -2  -5 42171.5 1246.93   4
   1  -2  -5 41454.6 1326.70   3
  -1   2   5 44855.6 1580.91   2
  -1   2   5 45154.9 1478.41   1
   1  -2  -4 80937.5 1976.05   6
  -1   2   4 76185.7 1782.18   1
   1  -2  -3 946.992 220.612   6
  -1   2   3 894.026 195.588   1
  -1   2   2 8941.83 540.469   6
  -1   2   2 10414.9 482.444   1
  -1   2   2 9457.41 427.652   7
   1  -2  -2 9503.87 462.848   1
  -1   2   1 28430.8 856.437   6
   1  -2  -1 29630.0 846.482   6
  -1   2   1 28865.3 702.890   8
  -1   2   1 27630.1 751.752   7
   1  -2  -1 27546.6 616.014   1
   1  -2  -1 28386.3 718.452   7
  -1   2   0 187.160 78.6743   8
   1  -2   0 100.784 72.0523   6
   1  -2   0 156.214 88.6855   5
  -1   2   0 19.1323 60.6873   6
   1  -2   0 197.857 73.2573   8
  -1   2  -1 294415. 2296.49   8
   1  -2   1 285995. 2225.31   8
  -1   2  -1 295005. 3181.94   5
   1  -2   1 286031. 2794.01   4
   1  -2   1 293348. 2400.49   6
  -1   2  -1 281142. 2382.14   6
  -1   2  -1 300421. 2830.66   7
  -1   2  -2 2.23689 95.7399   7
  -1   2  -2-96.3753 162.630   5
   1  -2   2 18.4651 81.2298   8
  -1   2  -2-86.8760 135.673   4
  -1   2  -3 599842. 5282.12   5
   1  -2   3 584111. 4452.52   8
   1  -2   3 616345. 3185.89   3
  -1   2  -3 609581. 4886.65   4
  -1   2  -3 604485. 4735.43   7
   1  -2   3 594215. 4307.80   2
   1  -2   4 403.322 172.146   2
  -1   2  -4 278.489 157.984   4
  -1   2  -4 258.777 204.981   5
   1  -2   4 303.729 80.3059   3
  -1   2  -4 221.329 128.108   7
  -1   2  -5 6368.05 618.613   4
   1  -2   5 6643.09 590.783   7
  -1   2  -5 7053.50 687.067   5
   1  -2   5 6398.17 593.445   5
   1  -2   5 6647.58 547.529   2
  -1   2  -6-22.5219 235.519   4
  -1   2  -6 122.226 225.554   5
   1  -2   6 299.727 203.942   4
   1  -2   6 279.114 163.162   7
   1  -2   6 71.1773 175.954   2
   1  -2   6-36.9152 210.324   5
   1  -2   7 13869.1 989.908   4
  -1   2  -7 13567.5 1025.02   4
  -1   2  -7 12545.7 1046.22   5
   1  -2   7 13489.2 912.682   2
   1  -2   7 14754.4 984.351   7
  -1   2  -8 115.318 151.605   2
   1  -2   8 86.2435 179.009   7
  -1   2  -8-51.9143 210.044   5
   1  -2   8-206.454 223.275   4
   1  -2   8-52.4137 213.667   2
  -1   2  -8-106.334 205.053   4
   1  -2   9 15748.0 1126.20   7
   1  -2   9 16066.4 1130.95   2
  -1   2  -9 15021.8 1250.19   4
  -1   2  -9 16727.2 1258.17   2
  -1   2  -9 16620.7 1386.17   5
  -1   2 -10 1.60514 272.666   4
  -1   2 -10-267.516 201.803   2
   1  -2  10-487.474 281.680   2
  -1   2 -10-35.0076 254.195   5
   1  -2  11 18556.6 1357.56   2
  -1   2 -11 20600.3 1621.82   4
  -1   2 -11 17793.6 1615.60   5
   1  -2  12 5619.92 812.904   2
  -1   2 -12 6103.07 925.215   4
  -1   2 -12 4233.13 833.341   5
  -1   2 -13 4502.62 947.424   5
  -1   2 -13 6054.99 971.585   4
   1  -2  13 5961.06 855.562   2
   1  -2  13 5990.93 945.078   1
   1  -2  14-1015.83 394.640   2
  -1   2 -14-321.837 357.742   5
   1  -1 -14-377.456 285.406   4
  -1   1  14 146.929 340.131   2
  -1   1  13 3223.15 686.391   2
  -1   1  13 5103.60 876.705   1
   1  -1 -13 3055.02 655.638   5
   1  -1 -13 4492.51 770.024   4
  -1   1  12 842.554 396.886   1
   1  -1 -12 528.920 295.769   4
  -1   1  12 854.624 400.057   2
   1  -1 -12 539.227 336.280   5
  -1   1  11 43471.4 2146.84   2
   1  -1 -11 40100.5 2078.64   5
  -1   1  11 44379.4 1687.02   7
  -1   1  11 45566.3 2261.90   1
   1  -1 -11 44560.2 1352.35   3
   1  -1 -11 39246.6 2016.55   4
  -1   1  10-153.789 294.860   2
  -1   1  10 34.7399 220.117   1
   1  -1 -10 232.364 259.113   4
   1  -1 -10-412.136 245.600   5
   1  -1 -10 148.989 122.658   3
   1  -1  -9 16696.3 859.418   3
   1  -1  -9 15218.2 1134.13   5
   1  -1  -9 16956.8 1193.11   4
  -1   1   9 18240.1 1281.13   2
  -1   1   9 15166.9 1193.37   1
   1  -1  -8 10597.1 898.644   4
   1  -1  -8 11769.5 702.200   3
   1  -1  -8 9388.75 1057.71   2
   1  -1  -8 10731.0 886.240   5
  -1   1   8 10492.3 928.133   2
  -1   1   8 9842.87 895.982   6
   1  -1  -7 37854.5 1959.76   2
   1  -1  -7 36247.2 1208.42   3
   1  -1  -7 36006.0 1519.93   4
  -1   1   7 37340.4 1595.74   6
  -1   1   7 36643.2 1594.11   2
   1  -1  -6 2797.69 412.734   4
  -1   1   6 2576.59 440.718   2
   1  -1  -6 3073.67 542.562   2
   1  -1  -5 1909.76 318.530   4
  -1   1   5 1574.67 337.266   2
   1  -1  -4-39.0702 162.818   6
  -1   1   4 1874.77 409.406   2
   1  -1  -3 127985. 2110.63   6
  -1   1   3 127293. 2212.84   2
   1  -1  -2 3201.63 310.802   6
  -1   1   2 3446.42 343.576   2
  -1   1   1 495224. 2428.59   1
   1  -1  -1 499826. 3235.46   6
  -1   1   0 90.9100 50.8991   5
   1  -1   0 80.8389 50.3666   6
   1  -1   0 96.5207 70.1630   5
  -1   1   0 153.482 70.7028   6
  -1   1   0 21.8286 42.6916   7
  -1   1  -1 497373. 3047.33   7
  -1   1  -1 494961. 3372.66   5
   1  -1   2 265.772 105.314   7
  -1   1  -2 17.9632 86.1580   4
  -1   1  -2 26.7474 86.1179   7
  -1   1  -2-28.5304 97.9495   5
  -1   1  -3 998904. 5270.32   7
  -1   1  -3 999999. 5586.71   4
   1  -1   3 993036. 5573.93   4
  -1   1  -4 119.305 140.036   5
  -1   1  -4 204.601 144.860   4
   1  -1   4 362.438 150.375   2
   1  -1   4 195.795 148.829   4
  -1   1  -4-50.4079 114.506   7
   1  -1   4 43.9046 75.7230   7
   1  -1   4 89.9749 126.665   5
  -1   1  -4 292.757 117.115   2
   1  -1   5 58469.6 1508.83   7
  -1   1  -5 58271.6 1654.67   4
  -1   1  -5 62393.3 1837.13   5
  -1   1  -5 59947.4 1537.03   2
   1  -1   5 58938.8 1471.11   2
   1  -1   6 125.749 122.183   7
  -1   1  -6-217.966 253.946   4
   1  -1   6 495.821 203.852   2
  -1   1  -6 386.754 152.955   2
  -1   1  -6 454.321 238.775   5
  -1   1  -7 60477.1 2005.06   4
   1  -1   7 62842.4 1813.62   7
  -1   1  -7 61244.1 2196.46   5
   1  -1   7 58632.5 1777.47   2
   1  -1   7 61115.4 1914.25   4
  -1   1  -8 5024.28 712.053   5
   1  -1   8 4958.17 551.871   7
   1  -1   8 5003.44 576.918   2
   1  -1   8 5559.28 635.450   4
  -1   1  -8 4780.99 627.531   4
   1  -1   9 8547.57 771.992   7
  -1   1  -9 7817.83 846.147   2
   1  -1   9 8815.88 827.352   4
  -1   1  -9 6666.49 860.600   5
   1  -1   9 8161.56 783.973   2
  -1   1  -9 7315.52 822.986   4
  -1   1 -10 1366.44 462.772   5
   1  -1  10 2150.54 454.326   2
  -1   1 -10 1675.81 451.528   4
  -1   1 -10 1896.82 463.579   2
   1  -1  10 1342.39 329.203   7
  -1   1 -11 23563.3 1829.26   5
  -1   1 -11 24467.3 1648.85   4
   1  -1  11 24477.7 1663.87   1
   1  -1  11 23283.3 1451.83   2
  -1   1 -12 1731.06 535.054   5
  -1   1 -12 2979.85 659.281   4
   1  -1  12 2901.65 637.896   1
   1  -1  12 2025.49 479.010   2
  -1   1 -13 1666.68 595.989   5
   1  -1  13 3120.17 699.536   1
  -1   1 -13 2249.29 595.345   4
   1  -1  13 2391.74 544.161   2
  -1   1 -14 3022.45 703.918   4
   1  -1  14 2832.94 593.881   2
  -1   1 -14 2761.86 764.545   5
  -1   1 -15 458.054 387.386   5
  -1   0  14 1119.65 481.967   2
   1   0 -14-118.979 213.678   4
   1   0 -13 17246.4 1512.20   5
   1   0 -13 17716.7 1586.00   4
  -1   0  13 18426.2 1570.63   2
  -1   0  13 18787.4 1656.89   1
   1   0 -12-762.877 366.798   4
   1   0 -12 409.870 287.544   5
  -1   0  12 225.101 316.611   2
  -1   0  12-446.700 316.586   1
   1   0 -11 6382.43 830.529   5
  -1   0  11 7291.90 923.965   2
   1   0 -11 7865.42 960.882   4
  -1   0  10 16.2208 80.7698   7
   1   0 -10 107.685 84.8128   3
  -1   0  10-120.260 287.879   2
   1   0 -10-9.94854 87.5187   3
   1   0 -10 264.938 259.683   4
   1   0 -10 57.5167 155.324   5
   1   0  -9 4722.96 684.414   4
   1   0  -9 6349.28 444.201   3
  -1   0   9 6536.98 802.625   2
   1   0  -9 7065.04 766.605   5
  -1   0   8 2836.44 473.625   6
   1   0  -8 2922.74 594.344   2
   1   0  -8 2144.39 270.319   3
   1   0  -8 2802.45 511.017   4
  -1   0   8 3301.55 558.540   2
   1   0  -8 2398.03 422.367   5
   1   0  -7 38849.7 1699.30   4
   1   0  -7 44870.7 1609.42   5
   1   0  -7 45873.0 2095.13   2
  -1   0   7 42201.8 1750.58   2
  -1   0   7 42693.9 1665.43   6
   1   0  -6 1917.65 368.261   4
   1   0  -6 1473.71 393.226   2
   1   0  -6 1533.74 290.100   5
  -1   0   6 1391.97 299.157   6
  -1   0   6 1779.20 385.225   2
   1   0  -5 268636. 3779.27   4
  -1   0   5 259292. 3538.30   6
  -1   0   5 261609. 3769.62   2
  -1   0   4 31001.9 1116.39   6
   1   0  -4 29158.9 879.385   5
   1   0  -4 31104.3 1165.84   4
  -1   0   4 30929.7 1209.35   2
   1   0  -3 205298. 2637.34   4
  -1   0   3 197496. 2532.09   6
  -1   0   3 198691. 2726.85   2
   1   0  -2 675.484 159.996   6
  -1   0   2 512.988 126.805   6
  -1   0   2 660.257 195.518   2
   1   0  -1 530867. 3151.76   6
  -1   0   1 526669. 3301.29   2
   1   0   2 114.546 68.3834   1
   1   0   2 30.7130 51.8888   3
  -1   0  -2 18.2041 57.4207   7
   1   0   2 36.0117 44.0763   7
  -1   0  -2 49.5409 76.3281   5
   1   0   2-13.4643 47.0380   4
  -1   0  -3 53522.2 924.703   2
   1   0   3 53133.5 779.408   3
   1   0   3 50610.3 1085.85   4
  -1   0  -3 52218.6 1108.82   4
  -1   0  -3 50975.5 988.957   7
   1   0   3 51554.8 962.548   7
   1   0   3 53541.9 1174.78   1
   1   0   3 54503.8 913.133   2
  -1   0  -3 52024.2 848.438   3
  -1   0  -4 433.997 129.391   2
   1   0   4 288.307 112.703   2
   1   0   4 310.682 157.658   1
   1   0   4 266.935 60.7887   3
  -1   0  -4 323.262 82.5917   3
   1   0   4 264.585 87.0561   7
  -1   0  -4 312.315 164.444   5
   1   0   4 352.024 117.148   4
  -1   0  -4 157.821 106.665   4
  -1   0  -4 185.061 89.1377   7
   1   0   5 166011. 2467.55   4
  -1   0  -5 167908. 2507.13   2
  -1   0  -5 178130. 2610.03   4
   1   0   5 166865. 1395.41   3
   1   0   5 173156. 2362.84   2
  -1   0  -5 168837. 1578.60   3
  -1   0  -5 182459. 3059.76   5
   1   0   5 168768. 2241.97   7
  -1   0  -6 228.813 113.780   2
  -1   0  -6 449.062 185.710   4
  -1   0  -6 462.815 98.3789   3
   1   0   6 393.986 170.969   2
   1   0   6 363.661 153.185   4
  -1   0  -6 611.287 257.453   5
   1   0   6 365.624 129.050   7
   1   0   7 12519.7 795.704   2
  -1   0  -7 13884.2 1044.49   5
  -1   0  -7 12410.5 852.267   4
   1   0   7 13204.5 747.999   7
  -1   0  -7 12333.9 879.431   2
   1   0   7 11935.7 885.540   1
  -1   0  -7 11878.2 412.543   3
   1   0   8 796.006 249.938   4
   1   0   8 1016.90 238.617   7
   1   0   8 928.688 342.908   1
  -1   0  -8 912.132 283.994   4
   1   0   8 918.895 290.229   2
  -1   0  -8 920.464 326.634   5
  -1   0  -9 25472.2 1638.84   5
   1   0   9 25936.3 1316.61   2
   1   0   9 26472.7 1210.55   7
  -1   0  -9 26862.6 1550.13   2
   1   0   9 27453.6 1556.85   1
   1   0   9 27282.6 1345.04   4
  -1   0  -9 26720.1 1440.14   4
   1   0  10 6469.20 715.748   2
  -1   0 -10 6899.83 874.146   2
   1   0  10 6533.95 647.359   7
   1   0  10 5955.88 795.693   1
   1   0  10 6846.04 718.128   4
  -1   0 -10 6810.49 940.761   5
  -1   0 -10 6791.42 778.016   4
   1   0  11 3551.77 644.237   1
  -1   0 -11 3170.73 692.464   5
   1   0  11 4332.91 557.167   7
   1   0  11 3660.76 585.712   2
  -1   0 -11 4151.27 662.127   4
   1   0  12-113.595 227.493   2
   1   0  12 135.038 311.858   1
  -1   0 -12 132.396 236.285   5
   1   0  13 2273.83 574.504   1
  -1   0 -13 1511.86 540.348   5
   1   0  13 2512.28 542.908   2
  -1   0 -13 1936.60 522.223   4
  -1   0 -14 1881.64 647.919   5
  -1   0 -14 2883.32 632.410   4
   1   0  14 2376.84 548.243   2
   1   0  14 2566.99 646.847   1
  -1   0 -15 2047.95 767.632   5
  -1   0 -15 1937.54 575.965   4
   1   1 -13 72.3654 206.399   5
  -1  -1  13 887.607 447.772   2
  -1  -1  13-196.370 404.945   1
   1   1 -13-236.560 391.999   4
   1   1 -12-286.492 284.303   4
  -1  -1  12 31.2801 259.027   2
   1   1 -12 514.452 305.104   5
  -1  -1  11 21386.3 1608.63   2
   1   1 -11 20814.2 1518.34   5
   1   1 -11 18951.2 1562.30   4
   1   1 -10 1869.51 482.795   4
   1   1 -10 1095.65 373.359   5
  -1  -1  10 1515.62 465.414   2
   1   1  -9 21606.7 577.925   3
   1   1  -9 22927.8 1391.31   5
  -1  -1   9 23995.1 1539.72   2
   1   1  -9 22483.5 531.454   3
   1   1  -9 22788.9 1559.50   4
  -1  -1   8 48.6888 157.761   6
  -1  -1   8 246.948 267.778   2
   1   1  -8 285.940 99.8204   3
   1   1  -8 202.728 154.711   5
   1   1  -8 280.341 86.7202   3
   1   1  -8 373.677 265.266   4
   1   1  -8 570.659 320.546   2
   1   1  -7 34413.9 1796.96   2
  -1  -1   7 32848.0 1430.98   6
   1   1  -7 34164.2 1433.45   5
  -1  -1   7 33377.8 1614.59   2
   1   1  -7 33163.7 1669.63   4
   1   1  -7 32627.1 941.614   3
   1   1  -6 23284.1 1360.84   2
   1   1  -6 25249.1 1116.81   5
   1   1  -6 24309.3 1327.04   4
   1   1  -6 23393.5 796.473   3
  -1  -1   6 24379.7 1295.88   2
  -1  -1   6 24752.8 1151.32   6
   1   1  -5 146577. 2387.07   5
   1   1  -5 148412. 3027.00   4
   1   1  -5 142012. 1912.14   3
  -1  -1   5 147848. 2568.55   6
  -1  -1   5 150645. 2962.47   2
   1   1  -4 1847.12 242.012   5
  -1  -1   4 2344.06 305.224   6
   1   1  -4 2793.68 510.752   4
   1   1  -4 2578.53 267.607   3
  -1  -1   4 2844.54 468.047   2
   1   1  -3 3458.46 395.635   4
   1   1  -3 3961.42 297.849   5
  -1  -1   3 4445.43 439.374   2
  -1  -1   3 3703.19 264.232   5
  -1  -1   3 3728.53 334.292   6
   1   1  -3 3739.67 354.628   6
   1   1  -3 3340.73 282.281   3
  -1  -1   2 27.7937 67.5601   6
   1   1  -2-14.8488 70.5835   3
   1   1  -2 164.646 96.2972   5
  -1  -1   2 85.7009 45.6769   5
   1   1  -2-31.7072 128.442   4
   1   1  -2 3.45532 69.8168   6
  -1  -1   2 131.835 158.840   2
  -1  -1   1 305702. 1748.82   5
  -1  -1   1 309128. 2395.86   3
  -1  -1   1 307476. 2705.55   2
   1   1  -1 291482. 2377.54   3
   1   1  -1 317675. 2761.61   8
   1   1  -1 299591. 2151.76   6
  -1  -1   1 300360. 2210.86   6
   1   1   0 4442.02 279.049   2
  -1  -1   0 4333.03 247.462   6
   1   1   0 4090.02 286.308   8
  -1  -1   0 4123.16 267.686   2
  -1  -1   0 4547.76 290.577   3
  -1  -1  -1 724539. 3315.53   8
   1   1   2 657.837 114.963   3
  -1  -1  -2 823.463 140.384   3
   1   1   2 661.593 120.006   8
  -1  -1  -3 249000. 1656.25   7
  -1  -1  -3 255507. 2235.85   3
   1   1   3 249078. 2123.78   3
   1   1   3 259975. 2560.67   1
   1   1   3 260981. 1614.20   7
  -1  -1  -3 249673. 1967.31   4
  -1  -1  -3 246990. 2667.35   1
   1   1   3 253845. 1957.90   4
  -1  -1  -3 247573. 2222.20   2
   1   1   4 1812.94 204.037   4
   1   1   4 2030.37 277.919   1
   1   1   4 1927.82 198.626   3
   1   1   4 2076.44 229.569   2
   1   1   4 1979.18 167.306   7
  -1  -1  -4 2246.71 231.065   3
  -1  -1  -4 1917.37 172.748   7
  -1  -1  -4 2058.94 215.352   4
  -1  -1  -4 2152.22 273.580   2
  -1  -1  -4 2311.99 303.737   1
   1   1   5 54396.0 1310.63   2
   1   1   5 53706.1 1236.47   4
   1   1   5 52969.8 1535.66   1
  -1  -1  -5 52150.6 1521.55   2
   1   1   5 52636.8 989.795   7
  -1  -1  -5 54136.8 1258.33   4
  -1  -1  -5 53981.5 1142.95   3
   1   1   5 50735.3 1044.59   3
  -1  -1  -6 6989.77 634.938   2
  -1  -1  -6 7348.67 538.073   4
   1   1   6 6678.76 408.569   7
   1   1   6 7536.47 553.750   2
   1   1   6 6812.39 499.407   4
   1   1   6 8349.67 688.076   1
  -1  -1  -6 6409.52 412.829   3
   1   1   6 6488.15 398.501   3
  -1  -1  -7 186253. 2293.53   3
   1   1   7 186405. 2964.18   2
   1   1   7 182038. 2341.91   7
  -1  -1  -7 187338. 2965.85   4
  -1  -1  -7 177288. 3483.39   2
   1   1   7 187097. 3426.53   1
   1   1   7 178224. 2744.95   4
   1   1   8 133.754 210.914   1
  -1  -1  -8 89.3759 89.1711   3
   1   1   8 113.184 191.681   2
   1   1   8 236.643 109.699   7
  -1  -1  -8 69.3716 159.525   4
  -1  -1  -8-170.258 216.107   5
   1   1   9 260.533 220.878   2
   1   1   9 396.907 139.793   7
  -1  -1  -9 592.653 153.588   3
   1   1   9 414.485 189.747   4
   1   1   9 147.189 222.998   1
  -1  -1  -9 218.923 188.968   4
  -1  -1  -9 276.056 243.768   2
  -1  -1  -9 102.607 227.569   5
  -1  -1 -10 2556.49 547.745   2
  -1  -1 -10 1165.04 411.682   5
  -1  -1 -10 1154.83 205.824   3
   1   1  10 1785.39 412.738   2
   1   1  10 1979.75 319.667   7
   1   1  10 1726.90 367.037   4
  -1  -1 -10 1565.30 376.023   4
   1   1  10 2216.70 500.194   1
  -1  -1 -11 9687.73 1119.41   2
   1   1  11 11151.1 890.906   4
  -1  -1 -11 12987.1 1365.18   5
   1   1  11 11869.8 806.878   7
  -1  -1 -11 10867.4 535.187   3
   1   1  11 12957.8 1186.40   1
  -1  -1 -11 12553.6 1054.00   4
   1   1  11 11691.3 973.799   2
   1   1  12-98.2179 221.867   2
  -1  -1 -12-1.38424 201.382   4
   1   1  12-146.836 305.710   1
  -1  -1 -12 310.097 312.011   5
   1   1  13 13101.1 1316.26   1
   1   1  13 12249.5 1109.38   2
  -1  -1 -13 12081.5 1143.52   4
  -1  -1 -13 10043.4 1339.94   5
   1   1  14 1282.11 500.136   1
  -1  -1 -14 1710.39 635.428   5
  -1  -1 -14 2196.07 539.465   4
   1   1  14 2063.96 515.427   2
  -1  -1 -15 952.297 477.936   5
  -1  -1 -15 1982.48 528.325   4
   1   2 -13 4468.63 879.750   4
  -1  -2  13 5493.84 930.489   2
  -1  -2  12 310.139 314.099   2
   1   2 -12 3.69438 249.510   5
   1   2 -12 363.620 394.278   4
   1   2 -11 8304.27 995.698   5
   1   2 -11 7350.44 1038.24   4
  -1  -2  11 8894.94 1093.48   2
  -1  -2  10 1405.05 495.622   2
   1   2 -10 772.037 338.144   5
   1   2 -10 1492.78 470.852   4
  -1  -2   9 2378.94 440.228   6
  -1  -2   9 3216.32 627.650   2
   1   2  -9 2700.61 522.584   5
   1   2  -9 2474.94 573.429   4
  -1  -2   8 17322.2 1306.95   2
   1   2  -8 17194.1 1170.06   5
  -1  -2   8 16480.4 1059.28   6
   1   2  -8 15730.6 1295.57   4
   1   2  -7 24919.2 1302.86   5
   1   2  -7 26146.3 1591.56   2
  -1  -2   7 24202.1 1195.39   6
  -1  -2   7 27285.0 1618.05   8
   1   2  -7 25329.8 1545.34   4
   1   2  -7 25626.5 651.277   3
  -1  -2   7 25665.9 1475.22   2
  -1  -2   6 116.831 160.967   4
   1   2  -6 54.3703 80.6026   3
   1   2  -6-14.7313 177.051   5
   1   2  -6 88.5076 192.566   4
   1   2  -6 150.957 146.094   2
  -1  -2   6 33.5480 118.607   6
  -1  -2   6 248.090 232.648   2
  -1  -2   6 132.527 154.626   8
   1   2  -5 23166.7 1057.46   5
  -1  -2   5 22313.5 914.134   5
  -1  -2   5 23027.5 1213.95   2
   1   2  -5 21348.6 1216.89   2
   1   2  -5 21368.7 1232.58   4
   1   2  -5 21919.9 703.387   3
  -1  -2   5 19350.3 910.237   6
   1   2  -4 1572.78 202.263   3
  -1  -2   4 979.525 194.275   5
   1   2  -4 1518.22 321.388   4
  -1  -2   4 1315.75 219.550   6
  -1  -2   4 1400.33 322.269   2
   1   2  -4 1351.90 252.820   5
   1   2  -3 161553. 2807.40   4
   1   2  -3 155068. 1891.19   3
  -1  -2   3 159919. 1938.25   3
  -1  -2   3 154317. 2006.60   6
   1   2  -3 155108. 2234.37   5
  -1  -2   3 155936. 2141.75   5
  -1  -2   3 160054. 2721.87   2
  -1  -2   2 1550.74 260.144   2
  -1  -2   2 1504.97 203.552   5
  -1  -2   2 1961.51 268.221   4
   1   2  -2 1493.35 191.274   3
  -1  -2   2 1457.60 167.347   6
   1   2  -2 1513.97 264.641   8
   1   2  -2 1738.08 291.525   4
   1   2  -2 1570.35 183.155   6
  -1  -2   2 1400.51 193.823   3
   1   2  -1 13450.2 567.143   3
   1   2  -1 12061.3 390.771   6
  -1  -2   1 11677.8 393.925   6
   1   2  -1 12785.8 683.778   8
  -1  -2   1 14100.7 687.053   2
  -1  -2   1 13101.4 554.246   3
  -1  -2   1 13704.6 569.237   5
   1   2  -1 15535.6 696.585   4
   1   2   0 2319.14 168.438   6
   1   2   0 1871.15 219.548   3
  -1  -2   0 2187.46 241.666   3
   1   2   0 2262.47 234.626   4
   1   2   1 467549. 3520.48   8
  -1  -2  -1 435570. 3285.07   3
   1   2   2 4270.49 349.609   8
  -1  -2  -2 4804.59 361.583   3
   1   2   3 108052. 877.704   4
   1   2   3 106520. 1694.66   3
   1   2   3 111324. 1792.81   8
  -1  -2  -3 109165. 1774.31   3
   1   2   4 28541.2 609.631   4
  -1  -2  -4 29056.8 953.970   3
  -1  -2  -4 29752.5 981.531   2
   1   2   4 29859.6 998.323   8
  -1  -2  -4 31266.4 634.381   4
   1   2   4 27342.5 895.948   3
   1   2   4 29790.3 1037.15   1
  -1  -2  -5 101657. 1851.94   3
   1   2   5 94209.5 1741.84   3
   1   2   5 94191.9 871.703   7
  -1  -2  -5 91505.1 2036.25   2
  -1  -2  -5 98989.8 1423.69   4
   1   2   5 98881.2 2068.83   1
   1   2   5 94590.4 1370.16   4
   1   2   6 9064.52 698.219   1
   1   2   6 7874.82 315.775   7
   1   2   6 8545.46 546.310   3
  -1  -2  -6 9064.20 510.056   4
   1   2   6 8644.34 486.236   4
  -1  -2  -6 7702.57 694.607   2
  -1  -2  -6 8886.12 579.881   3
  -1  -2  -7 21700.4 901.582   4
   1   2   7 20391.3 1132.04   1
  -1  -2  -7 21167.0 918.687   3
   1   2   7 19489.1 820.296   4
   1   2   7 19417.2 590.546   7
   1   2   7 19094.4 838.729   3
  -1  -2  -7 18263.7 1170.68   2
   1   2   8-12.0131 60.8515   7
  -1  -2  -8-66.3636 142.646   4
  -1  -2  -8-99.1086 166.070   3
   1   2   8-18.1245 207.205   1
   1   2   8-314.811 135.352   4
  -1  -2  -9 51066.2 1524.28   3
   1   2   9 48508.4 1178.82   7
   1   2   9 48051.5 1979.57   1
  -1  -2  -9 48800.8 1644.88   4
  -1  -2  -9 48456.9 2248.03   2
  -1  -2 -10 430.605 244.125   2
  -1  -2 -10 244.133 196.827   3
  -1  -2 -10 286.464 196.845   4
   1   2  10 124.094 108.628   7
   1   2  11 29087.2 1054.44   7
  -1  -2 -11 27691.1 1941.65   2
  -1  -2 -11 27068.6 1940.78   5
  -1  -2 -11 30440.0 1502.09   4
   1   2  11 32487.7 1825.66   1
  -1  -2 -11 31136.0 1222.67   3
  -1  -2 -12 2187.20 447.965   4
  -1  -2 -12 2119.48 334.088   3
  -1  -2 -12 2398.77 653.761   5
  -1  -2 -13 11302.9 1417.34   5
  -1  -2 -13 14631.4 1165.81   4
   1   2  13 14041.4 1341.56   1
   1   2  14 111.118 303.057   1
  -1  -2 -14 495.704 397.668   5
  -1  -2 -14 82.2400 186.356   4
  -1  -2 -15 1034.43 424.605   5
  -1  -3  13 1442.85 549.664   2
   1   3 -12-577.397 351.674   4
  -1  -3  12-475.292 429.338   2
   1   3 -12 270.028 235.726   5
   1   3 -11 3690.68 793.809   4
  -1  -3  11 5308.54 868.197   2
   1   3 -11 5548.49 844.001   5
  -1  -3  10 154.473 270.763   2
   1   3 -10 258.010 255.851   5
   1   3 -10 505.517 335.818   4
  -1  -3   9 24698.7 1677.82   2
   1   3  -9 25492.6 1601.58   5
  -1  -3   9 24117.5 1339.43   6
   1   3  -9 26500.4 1878.00   4
  -1  -3   8 1902.31 354.778   6
   1   3  -8 1885.44 539.654   4
   1   3  -8 2239.61 480.747   5
  -1  -3   8 2970.59 589.022   2
   1   3  -7 510.823 261.316   5
   1   3  -7 368.765 221.580   2
  -1  -3   7 295.515 138.291   6
   1   3  -7 378.812 334.405   4
  -1  -3   7 110.994 115.728   5
  -1  -3   7 299.125 279.733   2
   1   3  -7 279.055 86.8511   3
  -1  -3   6 121.070 217.474   2
  -1  -3   6 272.126 217.286   8
  -1  -3   6 468.688 223.376   4
   1   3  -6 127.595 169.733   5
  -1  -3   6 33.9998 104.787   5
   1   3  -6 328.009 102.514   3
  -1  -3   6 98.1394 107.554   6
   1   3  -6 246.011 268.551   4
   1   3  -6 529.230 252.133   2
  -1  -3   5 30823.3 1491.07   2
  -1  -3   5 31808.8 1250.14   5
   1   3  -5 30853.2 904.811   3
   1   3  -5 33165.9 1405.09   5
  -1  -3   5 28424.4 1054.81   6
  -1  -3   5 31575.5 1596.78   8
   1   3  -5 30252.5 1547.04   4
   1   3  -5 31872.0 1570.39   2
  -1  -3   4 7466.21 576.496   5
   1   3  -4 7700.75 633.489   5
   1   3  -4 7967.70 753.137   4
   1   3  -4 8881.34 506.038   3
  -1  -3   4 7795.44 488.191   6
  -1  -3   4 7057.31 449.661   3
  -1  -3   4 7876.58 714.057   2
   1   3  -3 61056.4 1343.70   3
  -1  -3   3 63858.3 1865.45   2
   1   3  -3 63451.5 1905.96   4
  -1  -3   3 62395.5 1179.39   6
  -1  -3   3 61532.5 1604.57   5
  -1  -3   3 64434.1 1369.94   3
  -1  -3   2 22731.9 816.476   3
  -1  -3   2 24320.4 1099.69   2
   1   3  -2 21927.0 818.646   3
   1   3  -2 23381.9 1103.82   8
  -1  -3   2 22571.5 949.570   5
   1   3  -2 22807.4 1028.87   4
  -1  -3   2 23079.3 969.142   4
  -1  -3   2 21444.1 568.637   6
  -1  -3   1 228457. 2619.30   3
  -1  -3   1 225371. 2742.95   4
   1   3  -1 230266. 3264.39   8
  -1  -3   1 221240. 2864.20   5
   1   3  -1 228057. 2885.19   4
   1   3  -1 220512. 2625.78   3
   1   3  -1 224839. 1390.15   6
  -1  -3   1 222957. 1397.30   6
  -1  -3   0 13127.5 580.531   4
  -1  -3   0 14358.8 682.184   3
   1   3   0 13283.9 754.062   8
   1   3   0 13251.5 655.909   3
   1   3   0 14381.0 627.507   4
   1   3   0 13355.1 361.512   6
   1   3   1 80704.3 1783.92   8
  -1  -3  -1 79608.0 1645.52   3
   1   3   1 76379.0 1594.24   3
   1   3   1 79558.3 1217.78   4
   1   3   2 44.9511 36.1919   4
   1   3   2-12.6165 110.080   8
  -1  -3  -2 22.3427 105.812   3
  -1  -3  -3 7453.22 542.006   3
   1   3   3 6031.08 502.128   8
   1   3   4 103562. 2087.65   8
   1   3   4 99189.1 1964.25   3
  -1  -3  -4 102655. 2052.48   3
   1   3   5 10230.5 700.655   8
   1   3   5 11105.9 685.955   3
  -1  -3  -5 10800.7 700.749   3
  -1  -3  -6 10394.2 710.472   3
   1   3   6 10534.9 747.881   8
   1   3   6 9799.76 662.066   3
   1   3   6 9812.16 739.882   1
  -1  -3  -6 9792.52 758.650   2
  -1  -3  -6 10920.5 446.997   4
  -1  -3  -7 141615. 2692.23   3
   1   3   7 136608. 2550.95   3
  -1  -3  -7 143350. 1952.00   4
  -1  -3  -8 4566.87 506.050   3
  -1  -3  -8 5008.57 678.339   2
  -1  -3  -8 5172.23 432.292   4
   1   3   8 5202.00 655.184   1
  -1  -3  -9 45675.3 1421.62   4
  -1  -3  -9 45658.6 2193.12   2
   1   3   9 42199.0 643.301   7
   1   3   9 43904.5 1891.73   1
  -1  -3  -9 48343.0 1662.34   3
  -1  -3 -10 26.1602 116.842   4
  -1  -3 -10 73.0968 128.448   3
   1   3  10 243.734 251.134   1
  -1  -3 -10 107.651 230.449   2
   1   3  10 200.656 73.9249   7
  -1  -3 -11 10788.7 830.754   3
  -1  -3 -11 12062.0 864.842   4
   1   3  11 10447.9 1043.85   1
   1   3  11 9983.96 419.289   7
   1   3  12 320.066 311.245   1
  -1  -3 -12 43.8848 139.843   3
  -1  -3 -12 356.264 189.992   4
  -1  -3 -13 3690.76 547.919   4
  -1  -3 -13 2982.51 755.951   5
   1   3  13 4126.63 750.770   1
  -1  -3 -14-479.469 329.324   5
   1   3  14 140.306 250.085   1
  -1  -3 -15 3973.14 929.589   5
  -1  -4  12-157.719 357.527   2
   1   4 -11 8696.00 1065.46   5
  -1  -4  11 8475.83 1139.41   2
   1   4 -11 8108.47 1206.65   4
   1   4 -10 350.786 239.412   5
   1   4 -10 756.176 438.171   4
  -1  -4  10 716.737 437.425   2
   1   4  -9 3644.82 652.801   5
   1   4  -9 4666.71 851.615   4
  -1  -4   9 4792.62 586.570   6
  -1  -4   9 4684.28 789.131   2
   1   4  -8 136.730 210.915   5
  -1  -4   8 40.8689 257.739   2
  -1  -4   8 186.333 126.644   5
   1   4  -8-145.386 332.587   4
  -1  -4   8 135.095 141.077   6
  -1  -4   7 13079.4 1167.11   2
   1   4  -7 14509.0 576.470   3
  -1  -4   7 13876.3 974.329   5
   1   4  -7 13806.6 1104.20   5
   1   4  -7 13810.8 1278.69   4
  -1  -4   7 12937.5 826.800   6
   1   4  -6 9545.52 1017.55   4
  -1  -4   6 8366.98 745.548   5
   1   4  -6 9395.08 553.580   3
   1   4  -6 8426.01 823.934   5
  -1  -4   6 9039.22 926.429   2
  -1  -4   6 8778.74 620.258   6
  -1  -4   5 34109.8 1565.62   4
  -1  -4   5 34258.0 1667.86   2
  -1  -4   5 33904.0 1749.29   8
   1   4  -5 30652.7 1471.98   5
  -1  -4   5 31763.8 1391.41   5
   1   4  -5 31275.7 1671.49   4
   1   4  -5 32348.4 1067.65   3
  -1  -4   5 29886.3 1013.01   6
  -1  -4   5 31741.8 1044.14   3
  -1  -4   4 6707.48 636.845   5
  -1  -4   4 6487.55 701.368   2
  -1  -4   4 6687.09 490.099   3
  -1  -4   4 5838.30 393.032   6
   1   4  -4 6616.06 742.864   4
  -1  -4   4 6993.39 682.406   4
  -1  -4   4 6157.37 718.245   8
   1   4  -4 6257.72 496.176   3
   1   4  -3 57347.6 1503.99   3
   1   4  -3 56303.4 1911.77   4
  -1  -4   3 58391.2 1976.90   2
  -1  -4   3 59247.8 1822.96   4
  -1  -4   3 58707.3 1468.57   3
  -1  -4   3 55958.4 985.659   6
  -1  -4   3 59900.4 1833.98   5
   1   4  -3 57109.0 1984.80   8
  -1  -4   2 235.164 134.819   3
   1   4  -2 177.845 99.7584   3
   1   4  -2 47.3926 156.416   8
  -1  -4   2 235.574 153.239   5
   1   4  -2 251.498 171.080   4
  -1  -4   2 173.816 129.086   4
  -1  -4   2 308.527 190.893   2
  -1  -4   1 39286.1 1253.49   3
   1   4  -1 37517.1 1249.64   3
  -1  -4   1 37181.8 1381.37   5
   1   4  -1 37732.9 1491.55   8
   1   4  -1 38252.5 1285.05   4
  -1  -4   1 37204.6 1233.16   4
  -1  -4   0 30187.8 1125.34   3
   1   4   0 27914.6 969.148   4
   1   4   0 30675.2 1299.59   8
  -1  -4   0 29591.8 992.722   4
   1   4   0 27111.3 1072.62   3
   1   4   1 17760.2 972.723   8
   1   4   1 17976.3 669.932   4
  -1  -4  -1 18165.4 677.816   4
  -1  -4  -1 18979.6 922.678   3
   1   4   2 794.646 261.426   8
  -1  -4  -2 836.554 235.167   3
   1   4   2 774.772 123.680   4
  -1  -4  -3 146128. 2649.84   3
   1   4   3 137587. 2671.25   8
  -1  -4  -4 6667.31 590.323   3
  -1  -4  -4 6413.11 285.010   7
   1   4   4 6201.84 587.111   8
   1   4   5 61387.8 1791.16   3
   1   4   5 63618.7 1912.08   8
   1   4   6 417.988 190.820   8
   1   4   6 720.087 207.937   3
  -1  -4  -6 880.111 267.103   3
  -1  -4  -7 30128.1 1472.25   2
   1   4   7 30301.2 1334.59   3
  -1  -4  -7 27731.1 1454.30   1
   1   4   7 28059.9 1371.83   8
  -1  -4  -7 30181.4 1370.45   3
  -1  -4  -8 1706.80 346.635   3
  -1  -4  -8 2772.21 503.744   2
   1   4   8 3305.24 517.403   8
   1   4   8 2840.97 428.335   3
  -1  -4  -8 2723.90 504.568   1
  -1  -4  -8 2725.25 257.946   4
  -1  -4  -9 4225.08 374.633   4
   1   4   9 3805.41 580.456   8
  -1  -4  -9 4235.20 680.127   2
  -1  -4  -9 4773.37 582.002   3
   1   4   9 3502.34 578.085   1
  -1  -4 -10 997.573 313.832   3
   1   4  10 988.227 387.556   1
  -1  -4 -10 1134.52 427.210   2
  -1  -4 -10 270.785 164.474   4
  -1  -4 -11 1558.65 357.107   3
  -1  -4 -11 1328.60 281.502   4
   1   4  11 1297.60 413.844   1
   1   4  12 169.450 288.344   1
  -1  -4 -12 34.7644 166.282   3
  -1  -4 -12 0.81175 106.953   4
   1   4  13 16695.6 1451.08   1
  -1  -4 -13 16296.8 1129.10   3
   1   4  14-160.086 307.321   1
  -1  -4 -14-86.2447 292.865   5
  -1  -4 -15 1727.58 622.720   5
   1   5 -11 1678.15 522.185   5
  -1  -5  11 2487.28 683.346   2
   1   5 -10 683.450 352.953   4
   1   5 -10 218.205 324.833   5
  -1  -5  10-72.6682 266.846   2
   1   5  -9 21850.1 1627.51   5
   1   5  -9 24254.7 1984.60   4
  -1  -5   9 25263.9 1834.51   2
   1   5  -8 5907.48 943.326   4
  -1  -5   8 4565.34 767.224   2
  -1  -5   7 20647.5 1294.31   5
  -1  -5   7 22589.7 1589.96   2
   1   5  -7 22885.1 1724.96   4
  -1  -5   7 21340.0 1003.40   6
  -1  -5   6 469.978 254.654   2
  -1  -5   6 727.735 179.424   6
  -1  -5   6 281.905 185.193   5
  -1  -5   6 698.841 205.696   3
   1   5  -6 426.652 167.130   3
   1   5  -6 858.037 362.293   4
  -1  -5   5 2599.90 453.926   5
   1   5  -5 2375.70 343.920   3
  -1  -5   5 2042.40 482.811   2
   1   5  -5 2714.90 558.878   4
  -1  -5   5 2581.05 349.709   3
  -1  -5   5 2094.35 259.634   6
   1   5  -4 10923.3 742.759   3
  -1  -5   4 11292.2 459.740   6
  -1  -5   4 10763.7 889.677   5
  -1  -5   4 12168.0 1057.84   8
  -1  -5   4 11371.2 945.794   7
  -1  -5   4 9967.01 932.842   2
   1   5  -4 10906.4 984.315   4
  -1  -5   4 11070.0 706.251   3
  -1  -5   4 12588.5 955.932   4
   1   5  -3 874.897 224.433   3
  -1  -5   3 887.303 282.489   5
  -1  -5   3 614.517 194.052   3
   1   5  -3 817.909 275.681   4
  -1  -5   3 1185.98 337.524   8
  -1  -5   3 1278.98 321.680   4
   1   5  -3 639.858 295.208   8
  -1  -5   3 873.462 307.569   2
  -1  -5   2 14.9481 151.481   3
   1   5  -2 170.262 131.346   3
   1   5  -2 86.2212 152.923   4
  -1  -5   2 126.054 119.715   8
  -1  -5   2 313.379 192.525   5
   1   5  -2 149.948 213.108   8
  -1  -5   2 202.624 174.977   2
  -1  -5   2 457.241 179.912   4
  -1  -5   1 76492.3 1956.32   3
   1   5  -1 72207.7 1927.58   4
   1   5  -1 74902.8 2332.42   8
  -1  -5   1 72487.6 1868.85   4
  -1  -5   1 76164.1 2245.65   5
  -1  -5   1 77712.6 2246.96   8
  -1  -5   0 32295.9 1148.08   4
   1   5   0 31097.8 1146.05   4
   1   5   0 34108.3 1536.19   8
  -1  -5   0 31832.4 1380.94   8
  -1  -5   0 33115.4 1324.63   3
  -1  -5  -1 230253. 2725.40   4
  -1  -5  -1 227311. 3118.26   7
  -1  -5  -1 235571. 3554.22   3
   1   5   1 230956. 2725.78   4
   1   5   1 224067. 1942.06   6
   1   5   1 235058. 3913.16   8
  -1  -5  -2 10019.8 606.278   7
  -1  -5  -2 11388.8 815.076   3
   1   5   2 9948.22 521.440   6
  -1  -5  -2 10800.5 514.253   4
   1   5   2 10210.0 486.592   4
   1   5   2 10310.2 838.611   8
  -1  -5  -3 109074. 2554.95   3
   1   5   3 107738. 2686.30   8
  -1  -5  -4 1621.15 194.314   7
  -1  -5  -4 1211.04 325.962   3
   1   5   4 1208.87 311.592   8
   1   5   5 8168.66 767.072   8
  -1  -5  -5 8924.61 773.162   3
   1   5   5 8524.88 735.892   3
  -1  -5  -5 8307.15 701.823   1
  -1  -5  -5 7920.26 308.299   7
  -1  -5  -6 30428.0 1438.55   1
  -1  -5  -6 30468.3 1469.81   3
   1   5   6 31326.2 1446.93   3
   1   5   6 29529.2 1465.43   8
  -1  -5  -7 7941.10 790.957   3
  -1  -5  -7 7980.43 804.803   1
   1   5   7 6277.29 723.274   8
   1   5   7 7964.79 755.190   3
   1   5   7 7907.31 740.720   6
  -1  -5  -7 7987.09 772.083   2
  -1  -5  -8 1249.75 337.079   3
  -1  -5  -8 1491.46 396.547   2
   1   5   8 900.352 295.087   3
   1   5   8 768.535 259.655   6
   1   5   8 903.257 314.583   8
   1   5   9 10481.1 979.160   8
  -1  -5  -9 10503.4 1037.57   2
   1   5  10 682.026 300.939   8
  -1  -5 -10 466.382 254.890   3
   1   5  11 14153.7 1219.69   8
  -1  -5 -11 18157.5 1272.17   3
   1   5  12 183.708 206.741   8
  -1  -5 -12 103.710 201.213   3
  -1  -5 -13 5945.37 736.908   3
   1   5  13 6034.58 880.335   8
  -1  -6  10 662.344 383.311   2
   1   6  -9 5838.49 1043.49   4
  -1  -6   9 4148.44 804.864   2
  -1  -6   8 760.757 377.081   2
   1   6  -8 381.297 301.828   4
  -1  -6   7 11177.5 1174.33   2
   1   6  -7 10681.8 1242.14   4
  -1  -6   6 148.003 122.464   3
  -1  -6   6 206.585 85.4412   6
   1   6  -6 3.55576 215.180   4
  -1  -6   6-105.061 273.288   2
   1   6  -6 6.24058 101.811   3
  -1  -6   5 9928.17 1023.22   2
  -1  -6   5 10624.3 977.427   5
   1   6  -5 9561.47 1034.80   4
  -1  -6   5 9625.54 368.247   6
  -1  -6   5 9346.50 697.051   3
  -1  -6   4 2440.88 379.957   3
  -1  -6   4 3073.34 533.037   5
  -1  -6   4 2445.75 533.688   2
   1   6  -4 2205.27 515.264   4
  -1  -6   3 34366.1 1394.97   3
  -1  -6   3 32016.4 1685.17   5
  -1  -6   3 35852.4 1812.79   8
   1   6  -3 33737.5 1816.97   8
  -1  -6   3 31920.7 1735.23   2
  -1  -6   3 33890.5 1567.25   4
   1   6  -3 33566.6 1679.60   4
   1   6  -2 21260.7 1183.44   3
  -1  -6   2 22337.8 1392.83   5
   1   6  -2 21190.5 1411.50   8
   1   6  -2 21616.1 1248.16   4
  -1  -6   2 20655.9 1261.43   7
  -1  -6   2 23195.7 1226.24   4
  -1  -6   2 21735.7 1138.29   3
  -1  -6   2 21590.3 1352.28   8
  -1  -6   1 11603.3 981.580   5
  -1  -6   1 10486.8 898.190   8
  -1  -6   1 10048.3 752.789   4
  -1  -6   1 10202.4 800.446   3
   1   6  -1 9464.35 912.588   8
   1   6  -1 9320.06 751.529   4
   1   6  -1 9973.12 815.155   3
  -1  -6   1 10697.3 866.157   7
   1   6   0 1118.10 362.705   8
  -1  -6   0 1914.64 391.945   8
  -1  -6   0 1796.76 371.742   3
  -1  -6   0 2101.57 341.307   4
   1   6   0 2256.87 400.743   3
  -1  -6   0 1297.81 293.430   7
   1   6   0 2220.42 349.433   4
  -1  -6  -1 77336.0 2268.27   3
  -1  -6  -1 82038.5 2297.01   8
   1   6   1 78182.8 1089.68   6
   1   6   1 77629.1 1746.68   4
  -1  -6  -1 76380.5 1755.54   4
   1   6   1 76169.2 2496.68   8
   1   6   1 81908.2 2356.45   3
  -1  -6  -2 2316.08 286.418   4
   1   6   2 2508.06 281.659   4
   1   6   2 2115.69 383.237   3
  -1  -6  -2 2278.93 381.342   8
   1   6   2 1828.99 410.276   8
  -1  -6  -2 2573.05 446.555   3
  -1  -6  -2 2106.16 319.481   7
   1   6   2 2413.49 274.284   6
   1   6   3 21933.6 1340.07   8
  -1  -6  -3 22859.7 1284.07   3
  -1  -6  -3 24057.1 1202.67   8
   1   6   3 24891.9 1326.75   3
  -1  -6  -3 20986.5 901.710   7
   1   6   3 22380.0 930.572   6
   1   6   4 8715.20 641.769   6
  -1  -6  -4 9463.57 762.208   8
  -1  -6  -4 8904.19 819.039   3
   1   6   4 10372.0 885.133   3
   1   6   4 10441.5 947.751   8
  -1  -6  -4 9246.47 547.821   7
  -1  -6  -5 12837.3 1003.74   3
   1   6   5 13651.9 1025.71   3
  -1  -6  -5 12975.4 539.566   7
   1   6   5 12364.6 1047.35   8
  -1  -6  -5 12765.0 910.758   1
   1   6   6 938.439 304.972   3
  -1  -6  -6 868.708 311.634   3
   1   6   6 1332.79 387.582   8
   1   6   6 1138.64 284.604   6
  -1  -6  -6 1044.06 307.346   1
   1   6   7 53962.1 2104.85   3
  -1  -6  -7 55109.8 2179.62   3
   1   6   7 54812.5 2277.79   8
   1   6   7 52438.4 1939.45   6
  -1  -6  -8 1768.13 444.277   3
   1   6   8 1085.22 357.484   8
  -1  -6  -9 42256.5 1992.29   3
   1   6   9 44262.4 2152.57   8
   1   6  10 241.510 242.972   8
  -1  -6 -10-236.865 237.844   3
  -1  -6 -11 4459.74 688.041   3
   1   6  11 4808.35 790.760   8
   1   6  12 49.7034 192.881   8
  -1  -6 -12 227.891 204.421   3
  -1  -6 -13 1713.59 465.233   3
   1   6  13 1277.05 428.410   8
  -1  -7   9 3698.63 811.386   2
  -1  -7   8 1371.65 473.942   2
   1   7  -8 2147.55 654.865   4
  -1  -7   7 6730.51 970.314   2
   1   7  -7 9186.61 1184.38   4
   1   7  -6 11676.0 1272.32   4
  -1  -7   6 13564.0 878.694   3
  -1  -7   6 10208.6 1142.33   2
  -1  -7   5 39760.6 1558.27   3
   1   7  -5 43083.2 2273.93   4
   1   7  -5 38755.6 1689.48   3
  -1  -7   5 38574.3 2145.98   2
  -1  -7   4 2041.13 381.346   3
   1   7  -4 2425.62 537.936   4
  -1  -7   4 1556.55 488.002   2
   1   7  -4 2026.41 425.071   3
   1   7  -3 1090.52 297.836   3
  -1  -7   3 566.999 364.728   2
  -1  -7   3 951.841 290.708   3
   1   7  -3 687.300 356.917   8
   1   7  -3 999.360 350.554   4
   1   7  -2 560.809 264.953   4
  -1  -7   2 91.4365 179.703   4
   1   7  -2 434.160 239.143   3
  -1  -7   2 361.880 219.407   3
   1   7  -2 253.868 267.667   8
  -1  -7   1 11729.9 942.901   3
  -1  -7   1 11438.5 1081.25   5
   1   7  -1 11244.2 949.492   3
  -1  -7   1 11724.0 977.724   7
   1   7  -1 10753.6 864.916   4
   1   7  -1 11518.9 1102.71   8
  -1  -7   1 10360.5 815.042   4
  -1  -7   0 7788.31 786.030   3
  -1  -7   0 6638.88 814.336   5
   1   7   0 5950.24 694.729   3
  -1  -7   0 7175.72 776.924   8
   1   7   0 6863.02 845.964   8
  -1  -7   0 7474.75 748.960   7
   1   7   0 6182.64 599.321   4
  -1  -7   0 6792.90 629.243   4
   1   7   1 6784.01 754.733   3
  -1  -7  -1 7194.88 773.817   3
   1   7   1 7097.30 585.249   4
  -1  -7  -1 7059.04 684.671   7
  -1  -7  -1 6725.04 720.171   8
   1   7   1 7093.76 842.910   8
  -1  -7  -1 6708.61 576.972   4
   1   7   2 3883.15 387.720   4
  -1  -7  -2 3473.86 450.913   7
   1   7   2 3601.16 333.888   6
   1   7   2 2588.46 516.544   8
  -1  -7  -2 4062.23 548.542   8
  -1  -7  -2 3345.40 361.526   4
   1   7   2 3280.22 527.183   3
  -1  -7  -2 3481.76 548.967   3
   1   7   3 20002.6 1304.62   3
  -1  -7  -3 20435.8 1195.79   8
  -1  -7  -3 21886.2 1359.77   3
   1   7   3 19361.1 910.155   6
   1   7   3 18591.8 1382.85   8
  -1  -7  -4 1540.83 399.940   3
   1   7   4 755.726 349.802   8
  -1  -7  -4 1571.50 352.987   8
  -1  -7  -4 1480.19 256.689   7
   1   7   4 1508.47 284.875   6
  -1  -7  -5 51231.0 2145.57   3
   1   7   5 48771.0 2273.32   8
  -1  -7  -5 46871.0 1243.86   7
  -1  -7  -6 16591.2 1248.07   3
   1   7   6 14738.9 1279.18   8
  -1  -7  -6 13998.1 525.951   7
   1   7   6 14224.2 986.227   6
   1   7   7 26345.3 1718.80   8
  -1  -7  -7 27109.2 1642.22   3
   1   7   7 27104.0 1438.21   6
   1   7   8 6400.06 899.099   8
  -1  -7  -8 5721.16 777.556   3
  -1  -7  -9 9184.33 995.941   3
   1   7   9 9225.92 1082.04   8
   1   7  10 244.446 253.483   8
  -1  -7 -10 517.327 276.941   3
  -1  -7 -11 4324.18 718.024   3
   1   7  11 4688.89 808.585   8
  -1  -7 -12 474.709 306.222   3
   1   7  12 667.847 381.580   8
  -1  -7 -13 3976.07 703.834   3
  -1  -8   8 542.252 265.958   2
  -1  -8   7 7052.56 1062.81   2
   1   8  -7 8329.79 1191.33   4
  -1  -8   6 1947.43 568.903   2
   1   8  -6 2445.50 621.993   4
   1   8  -5 3794.15 742.924   4
  -1  -8   5 4164.59 568.816   3
  -1  -8   5 4254.76 784.299   2
   1   8  -4 126.039 122.315   3
   1   8  -4 830.243 334.237   4
  -1  -8   4 836.060 298.484   3
  -1  -8   4 362.220 353.419   2
   1   8  -3 26347.4 1590.40   3
  -1  -8   3 24640.2 1764.28   2
   1   8  -3 24098.5 1773.79   8
   1   8  -3 26074.1 1637.36   4
  -1  -8   3 24695.5 1418.88   3
   1   8  -2 3244.63 649.031   8
  -1  -8   2 2608.49 494.685   3
   1   8  -2 2533.02 494.939   4
  -1  -8   2 2259.60 546.768   2
  -1  -8   1 3531.84 586.685   3
  -1  -8   1 3696.15 537.772   4
   1   8  -1 3143.66 501.135   4
   1   8  -1 3615.35 684.294   8
  -1  -8   0 2838.05 536.946   3
  -1  -8   0 2443.18 402.969   4
   1   8   0 1672.34 477.860   8
   1   8   0 2422.72 415.692   4
  -1  -8  -1 11358.8 792.562   4
   1   8   1 10864.7 775.420   4
   1   8   1 10265.8 1122.85   8
  -1  -8  -1 11307.0 1035.90   3
  -1  -8  -1 11469.6 943.041   7
   1   8   2 458.690 125.586   6
  -1  -8  -2 327.140 159.785   7
  -1  -8  -2 214.383 141.691   4
   1   8   2 160.932 247.935   8
  -1  -8  -2 415.798 291.416   3
   1   8   3 61467.5 2685.63   8
  -1  -8  -3 53019.9 1785.76   7
  -1  -8  -3 57019.2 2353.64   3
   1   8   3 58882.0 1628.18   6
   1   8   4 40369.6 2214.27   8
  -1  -8  -4 37976.0 1951.19   3
   1   8   4 38236.8 1477.10   6
   1   8   5-78.1269 124.458   6
  -1  -8  -5 616.145 297.986   3
   1   8   5 573.539 364.075   8
  -1  -8  -5 249.979 120.687   7
   1   8   6 211.144 150.898   6
   1   8   6 69.6181 246.008   8
  -1  -8  -6 160.036 95.8314   7
  -1  -8  -6 7.55822 264.040   3
  -1  -8  -7 2419.48 564.754   3
   1   8   7 1866.38 422.344   6
   1   8   7 3014.94 641.481   8
   1   8   8 645.378 386.433   8
  -1  -8  -8 244.501 247.700   3
  -1  -8  -9 11023.3 1156.61   3
   1   8   9 10479.9 1239.78   8
  -1  -8 -10-219.149 229.070   3
   1   8  10 425.121 349.254   8
   1   8  11 6173.33 1001.62   8
  -1  -8 -11 5930.98 882.846   3
   1   8  12-52.4599 240.105   8
  -1  -8 -12 205.165 186.816   3
  -1  -8 -13 5196.21 854.237   3
  -1  -9   6 1188.31 529.224   2
   1   9  -6 274.287 320.262   4
   1   9  -5 7572.61 1041.31   4
  -1  -9   5 6368.25 999.809   2
  -1  -9   4-4.26085 312.721   2
  -1  -9   4-107.756 167.891   3
   1   9  -4-54.4314 235.201   4
  -1  -9   3 15244.4 1208.46   3
  -1  -9   3 15159.9 1490.77   2
   1   9  -3 12203.5 1172.22   4
   1   9  -3 14946.0 1475.58   8
   1   9  -2 58.8925 249.837   8
  -1  -9   2-254.824 317.102   2
  -1  -9   2-89.7691 221.475   3
   1   9  -2 351.605 245.958   4
   1   9  -1 5048.11 871.420   8
  -1  -9   1 5921.14 790.697   3
   1   9  -1 4955.30 675.921   4
  -1  -9   0 6611.83 828.748   3
   1   9   0 6667.54 716.385   4
   1   9   0 6483.08 971.436   8
  -1  -9   0 6443.25 690.864   4
  -1  -9  -1 35149.6 1930.98   3
   1   9   1 39230.9 1555.22   4
   1   9   1 37465.4 2248.31   8
  -1  -9  -1 37560.6 1531.37   4
  -1  -9  -2 5828.55 823.003   3
   1   9   2 6198.17 941.168   8
  -1  -9  -3 4607.60 749.408   3
   1   9   3 3801.69 743.989   8
  -1  -9  -3 3383.72 503.171   7
   1   9   3 3852.63 404.251   6
  -1  -9  -4 5851.92 838.100   3
   1   9   4 5345.14 884.375   8
   1   9   4 5911.35 599.906   6
  -1  -9  -4 4115.72 515.259   7
  -1  -9  -5 6391.81 877.561   3
   1   9   5 5561.26 928.052   8
   1   9   5 5905.38 657.124   6
  -1  -9  -6 4335.31 740.203   3
   1   9   6 6061.48 959.736   8
   1   9   6 5613.27 677.766   6
  -1  -9  -7 7368.75 976.011   3
   1   9   7 7924.55 1127.77   8
   1   9   8 1484.80 486.117   8
  -1  -9  -8 2069.29 564.542   3
   1   9   9 5685.75 989.936   8
  -1  -9  -9 5690.38 893.653   3
   1   9  10 208.895 321.850   8
  -1  -9 -10 281.673 287.627   3
  -1  -9 -11 4514.11 819.050   3
   1   9  11 5031.25 954.367   8
  -1  -9 -12 2602.30 616.309   3
   1  10  -5 1627.44 550.475   4
  -1 -10   4 128.766 259.578   2
   1  10  -4 206.495 231.907   4
   1  10  -3 3364.78 764.082   8
   1  10  -3 2721.84 598.714   4
  -1 -10   3 3608.04 797.196   2
  -1 -10   3 3637.64 645.926   3
  -1 -10   2 363.125 244.934   3
  -1 -10   2 185.450 296.780   2
   1  10  -2 303.444 218.471   8
   1  10  -2 54.9384 201.719   4
  -1 -10   1 17466.6 1435.57   3
   1  10  -1 17160.4 1659.51   8
   1  10  -1 16494.9 1254.93   4
   1  10   0 313.794 362.208   8
  -1 -10   0-23.8134 238.316   3
   1  10   0 21.3305 175.234   4
  -1 -10  -1 924.948 399.788   3
   1  10   1 751.652 379.814   8
  -1 -10  -2 1359.61 444.580   3
   1  10   2 123.092 298.369   8
  -1 -10  -3 29834.7 1941.40   3
   1  10   3 31452.6 2261.97   8
   1  10   4 202.746 298.505   8
  -1 -10  -4 221.858 318.198   3
   1  10   5 10258.5 1343.46   8
  -1 -10  -5 11948.0 1274.11   3
  -1 -10  -6 2585.64 650.132   3
   1  10   6 2487.56 725.356   8
  -1 -10  -7 4536.06 838.949   3
   1  10   7 6305.37 1076.74   8
  -1 -10  -8 402.797 307.827   3
   1  10   8 72.3295 232.288   8
   1  10   9 10927.9 1453.95   8
  -1 -10  -9 13274.8 1410.90   3
   1  11  -3 4633.81 779.449   4
   1  11  -2 3177.08 739.239   8
   1  11  -2 2659.78 580.651   4
  -1 -11   2 2560.49 606.524   3
  -1 -11   1 105.826 234.905   3
   1  11  -1 425.797 324.162   8
   1  11   0-201.681 262.879   8
  -1 -11   0-257.691 320.491   3
   1  11   1 4011.21 863.888   8
  -1 -11  -1 4844.49 847.582   3
  -1 -11  -2 2034.84 563.395   3
   1  11   2 2062.75 713.549   8
  -1 -11  -3 10045.8 1217.80   3
   1  11   3 8763.25 1310.91   8
   1  11   4 319.614 369.678   8
  -1 -11  -4 267.929 298.987   3
  -1 -11  -5 7052.91 1037.43   3
   1  11   5 6201.22 1134.16   8
  -1 -11  -6 560.747 356.273   3
   1  11   6-415.040 359.967   8
   1  11   7 7106.51 1251.42   8
  -1 -12   1 3953.74 789.472   3
  -1 -12   0-91.4937 251.639   3
  -2  11   7 703.004 444.555   8
  -2  11   6 3740.83 896.367   8
  -2  11   5-203.226 188.930   8
  -2  11   4 5878.38 999.866   8
  -2  11   3 218.039 344.068   8
  -2  11   2 4545.78 851.126   8
   2 -11  -2 4600.98 852.097   3
   2 -11  -1 1460.20 512.671   3
  -2  11   1 2956.07 673.753   8
   2 -11   0 135.416 280.272   3
  -2  11   0 1047.35 417.430   8
   2 -11   1-26.1338 217.420   3
   2 -11   2 1176.50 453.949   3
  -2  10   9 342.689 288.919   8
  -2  10   8 7265.27 1174.23   8
  -2  10   7 278.106 255.862   8
   2 -10  -6 8710.51 1190.08   3
  -2  10   6 10124.2 1287.69   8
  -2  10   5 431.355 358.651   8
   2 -10  -5 200.761 300.683   3
  -2  10   4 12984.7 1393.79   8
   2 -10  -4 12445.6 1365.18   3
  -2  10   3 485.311 292.997   8
   2 -10  -3-843.568 415.193   3
  -2  10   2 1158.99 412.764   8
   2 -10  -2 1273.87 397.631   3
  -2  10   1 1268.34 418.021   8
   2 -10  -1 1903.30 542.362   3
   2 -10   0 4565.92 786.704   3
  -2  10   0 5368.36 805.596   8
   2 -10   1 1960.28 547.976   3
  -2  10  -1 1090.62 397.672   8
  -2  10  -2 8288.17 1001.42   8
   2 -10   2 7351.91 953.671   3
   2 -10   3 356.569 284.132   3
   2 -10   4 4513.68 897.513   2
   2 -10   5 851.173 437.254   2
  -2   9  10 5749.72 1010.41   8
   2  -9  -9 736.190 378.485   3
  -2   9   9-287.985 253.190   8
  -2   9   8 3318.04 774.346   8
   2  -9  -8 3951.03 777.863   3
   2  -9  -7 179.716 293.543   3
  -2   9   7 17.8375 219.655   8
  -2   9   6 8937.74 1157.27   8
   2  -9  -6 9143.80 1126.64   3
   2  -9  -5 273.131 273.671   3
  -2   9   5 427.115 325.294   8
  -2   9   4 5114.60 843.265   8
   2  -9  -4 5685.13 887.800   3
   2  -9  -3 41.4200 242.521   3
  -2   9   3-560.878 287.844   8
   2  -9  -2 16050.6 1409.82   3
  -2   9   2 18474.9 1446.40   8
  -2   9   1 845.805 336.588   8
   2  -9  -1 760.946 393.959   3
   2  -9   0 22101.6 1589.66   3
  -2   9   0 21258.1 1487.80   8
   2  -9   1 3438.98 635.135   3
  -2   9  -1 3104.62 576.351   8
   2  -9   2 20987.9 1490.56   3
  -2   9  -2 21634.8 1484.88   8
   2  -9   3 452.596 227.971   3
   2  -9   4 1814.07 456.510   3
   2  -9   5-271.221 271.265   2
   2  -9   6 4597.95 847.703   2
   2  -9   7-66.4196 161.263   2
   2  -9   8 2759.61 664.063   2
   2  -8 -11 44.0216 175.793   3
  -2   8  11-237.142 220.567   8
  -2   8  10 2577.61 620.948   8
   2  -8 -10 1999.80 552.057   3
   2  -8  -9-37.0816 203.589   3
  -2   8   9-598.433 341.012   8
  -2   8   8 6604.49 973.470   8
   2  -8  -8 7842.53 1021.65   3
  -2   8   7 1109.99 240.337   7
  -2   8   7 1216.74 456.970   8
   2  -8  -7 786.170 406.998   3
  -2   8   6 1662.37 322.189   7
  -2   8   6 1855.74 519.695   8
   2  -8  -6 1955.94 521.824   3
  -2   8   5 2194.22 538.929   8
  -2   8   5 1515.06 321.946   7
   2  -8  -5 1485.12 469.180   3
   2  -8  -5 1038.65 259.441   1
   2  -8  -4 26665.5 1782.81   3
   2  -8  -4 22242.4 1148.49   7
  -2   8   4 27436.5 1745.93   8
   2  -8  -4 25426.3 1214.55   4
   2  -8  -4 23253.0 1258.90   1
  -2   8   4 25526.1 1308.80   7
  -2   8   4 24090.1 1523.42   6
   2  -8  -3 291.281 140.496   1
  -2   8   3 431.867 242.806   6
  -2   8   3 335.368 230.387   8
   2  -8  -3 396.442 251.777   3
   2  -8  -3 404.550 201.320   7
   2  -8  -3 372.190 197.264   4
  -2   8   3 366.754 184.982   7
  -2   8   2 24415.7 1531.85   8
   2  -8  -2 22966.6 1590.23   3
   2  -8  -2 22195.6 1230.78   4
   2  -8  -2 21441.7 1255.35   7
  -2   8   2 22151.6 1312.97   7
   2  -8  -2 24213.7 1187.40   6
  -2   8   2 22600.8 1294.88   6
   2  -8  -1 1871.07 347.179   8
  -2   8   1 1963.50 478.319   7
   2  -8  -1 1118.10 375.532   6
  -2   8   1 1594.78 471.161   8
   2  -8  -1 1072.49 289.045   4
   2  -8  -1 1943.75 567.967   3
   2  -8   0 15499.1 1256.33   3
  -2   8   0 18148.5 984.344   6
   2  -8   0 16057.6 1137.75   4
  -2   8   0 16111.0 1192.32   8
   2  -8   0 17935.6 879.154   6
   2  -8   0 14950.1 954.055   8
   2  -8   1 418.804 151.364   6
   2  -8   1 307.274 184.685   8
  -2   8  -1-56.2781 220.369   8
   2  -8   1 32.6903 235.165   3
   2  -8   2 9961.39 971.133   3
  -2   8  -2 9700.92 925.227   8
   2  -8   2 8549.13 782.527   8
   2  -8   2 9935.31 545.800   6
   2  -8   3 386.885 159.442   8
   2  -8   3-77.3354 239.046   3
   2  -8   4 22715.6 1365.25   3
   2  -8   5 2034.76 542.606   2
   2  -8   5 2063.43 411.986   3
   2  -8   6 9046.80 1111.09   2
   2  -8   7-17.3783 260.350   2
   2  -8   8 6472.32 972.261   2
   2  -8   9 50.6078 328.822   2
   2  -7 -12-159.242 241.312   3
  -2   7  11 2039.80 538.410   8
   2  -7 -11 2122.22 541.623   3
  -2   7  10 4959.47 802.079   8
   2  -7 -10 4489.25 772.422   3
  -2   7   9 391.472 290.512   8
   2  -7  -9 235.925 208.151   3
   2  -7  -8 5507.02 834.768   3
  -2   7   8 4362.45 710.005   8
   2  -7  -7 888.411 380.788   3
  -2   7   7 529.590 301.893   8
  -2   7   7 657.489 191.069   7
  -2   7   6 14087.9 1222.47   8
   2  -7  -6 15797.5 1331.00   3
  -2   7   6 16089.8 881.752   7
   2  -7  -5 7924.89 942.409   3
  -2   7   5 7455.29 639.611   7
   2  -7  -5 7759.83 636.861   4
  -2   7   5 7267.54 854.078   8
   2  -7  -5 7663.49 739.977   1
  -2   7   5 8090.52 890.114   6
  -2   7   4 24081.2 1505.88   8
   2  -7  -4 24388.8 1151.41   4
   2  -7  -4 22750.0 1555.95   3
  -2   7   4 25129.5 1199.76   7
   2  -7  -4 21368.2 1145.16   1
  -2   7   4 26012.9 1522.53   6
   2  -7  -3 746.304 265.364   6
  -2   7   3 941.419 313.753   6
   2  -7  -3 504.027 183.454   4
   2  -7  -3 1038.64 267.091   7
   2  -7  -3 952.619 245.085   1
   2  -7  -3 1026.56 392.387   3
  -2   7   3 595.345 269.542   8
  -2   7   3 866.910 264.615   7
   2  -7  -2 3432.31 457.824   6
   2  -7  -2 2924.92 572.186   3
   2  -7  -2 2068.68 375.807   4
  -2   7   2 1981.71 419.413   8
   2  -7  -2 2053.15 335.008   1
   2  -7  -2 2162.50 384.663   7
  -2   7   2 2227.20 412.360   7
  -2   7   1 1613.82 385.337   8
   2  -7  -1 2366.66 511.864   3
   2  -7  -1 2285.44 344.956   8
   2  -7  -1 2244.73 405.285   7
  -2   7   1 1409.08 365.303   7
   2  -7  -1 2201.62 355.809   6
   2  -7  -1 2176.27 390.538   4
   2  -7   0 1207.71 255.310   6
   2  -7   0 369.421 140.622   8
  -2   7   0 707.379 266.009   8
  -2   7   0 744.031 222.188   6
   2  -7   0 700.954 312.338   3
  -2   7   0 560.280 254.291   7
   2  -7   0 603.556 218.692   4
   2  -7   0 359.014 183.135   7
   2  -7   1 488.250 164.291   6
   2  -7   1 753.244 316.045   3
  -2   7  -1 442.320 236.608   8
   2  -7   1 848.437 237.196   8
  -2   7  -1 682.663 291.339   7
   2  -7   1 603.540 220.231   4
  -2   7  -2 52518.3 1963.85   8
   2  -7   2 52228.3 2032.75   3
   2  -7   2 50808.6 1754.19   8
   2  -7   2 55614.7 1413.19   6
   2  -7   3 765.721 184.822   6
   2  -7   3 476.754 205.951   8
   2  -7   3 332.515 192.851   3
   2  -7   4 6185.52 671.281   3
   2  -7   4 6369.89 707.065   8
   2  -7   4 7213.21 511.437   6
   2  -7   5-172.460 221.699   2
   2  -7   5-21.3494 107.760   6
   2  -7   5 250.301 182.552   3
   2  -7   6 13835.5 905.121   3
   2  -7   6 13286.4 1231.03   2
   2  -7   7-68.2380 224.370   2
   2  -7   8 18203.6 1491.07   2
   2  -7   9 495.559 369.030   2
  -2   7  -9 140.963 265.105   5
   2  -7  10 1864.17 547.146   2
   2  -6 -13 677.446 377.639   3
   2  -6 -12 3243.56 625.774   3
  -2   6  12 2873.33 618.683   8
   2  -6 -11 161.697 185.622   3
  -2   6  11 300.101 244.214   8
   2  -6 -10 6165.35 862.084   3
  -2   6  10 6336.45 853.410   8
  -2   6   9 322.242 238.558   8
   2  -6  -9 80.0287 190.030   3
   2  -6  -9 240.833 166.809   4
   2  -6  -8 19105.5 1436.73   3
  -2   6   8 17829.1 1323.37   8
  -2   6   8 20135.8 834.705   7
   2  -6  -7 9733.41 1024.45   3
  -2   6   7 9573.20 942.537   8
  -2   6   7 10806.1 657.930   7
  -2   6   6 16910.9 1238.97   8
   2  -6  -6 18061.3 1355.97   3
  -2   6   6 17029.2 856.000   7
  -2   6   5 1613.81 401.132   6
  -2   6   5 1513.08 364.842   8
   2  -6  -5 1852.87 363.822   1
   2  -6  -5 2364.93 518.063   3
  -2   6   5 1706.04 308.455   7
  -2   6   4 6724.06 582.503   7
   2  -6  -4 6452.22 793.948   3
   2  -6  -4 5366.94 551.859   1
  -2   6   4 5834.64 675.046   8
   2  -6  -4 5551.57 644.933   6
  -2   6   4 6515.17 737.538   6
  -2   6   3 1728.53 367.579   6
   2  -6  -3 1396.21 325.593   6
   2  -6  -3 791.227 211.942   1
  -2   6   3 1037.91 297.651   8
   2  -6  -3 1085.01 369.255   3
  -2   6   3 1049.61 252.928   7
   2  -6  -2 10779.2 1028.41   5
   2  -6  -2 12209.1 1036.51   3
  -2   6   2 11897.7 832.398   7
   2  -6  -2 11396.8 785.979   7
   2  -6  -2 11593.3 683.164   1
   2  -6  -2 11662.5 800.888   4
   2  -6  -2 11811.2 812.843   6
  -2   6   2 12803.4 910.067   8
  -2   6   1 1279.24 276.130   6
   2  -6  -1 1367.28 380.233   5
   2  -6  -1 913.610 237.734   4
  -2   6   1 837.437 250.178   8
   2  -6  -1 550.196 265.562   3
  -2   6   1 1507.29 330.122   7
   2  -6  -1 1192.73 267.869   6
   2  -6  -1 753.975 236.956   7
   2  -6  -1 1201.72 235.046   8
   2  -6   0 35162.2 1885.32   5
   2  -6   0 33330.0 1615.71   3
  -2   6   0 34973.6 1422.66   8
  -2   6   0 34114.7 1497.36   7
   2  -6   0 35928.0 1496.51   4
   2  -6   0 34756.6 1506.37   7
   2  -6   0 34813.6 1227.49   6
   2  -6   0 34632.7 1207.80   8
  -2   6   0 33616.5 1307.53   6
  -2   6  -1 5701.71 581.782   8
  -2   6  -1 6046.96 667.701   7
   2  -6   1 5411.85 498.731   8
   2  -6   1 6232.57 671.938   7
   2  -6   1 6710.95 721.721   3
   2  -6   1 5770.49 632.467   4
   2  -6   1 4821.28 450.819   6
   2  -6   1 5808.03 782.684   5
   2  -6   2 11824.4 948.043   4
   2  -6   2 13890.0 989.536   3
  -2   6  -2 11111.1 930.763   7
   2  -6   2 11941.9 687.261   6
  -2   6  -2 11617.9 842.417   8
   2  -6   2 10952.3 928.654   7
   2  -6   2 11610.4 776.070   8
   2  -6   3 98.1216 94.9626   8
   2  -6   3 313.965 183.936   3
   2  -6   3 59.7903 147.110   4
  -2   6  -3 613.782 272.555   7
   2  -6   3 576.931 189.025   6
   2  -6   4 19581.8 1155.27   8
   2  -6   4 17970.8 1038.39   3
   2  -6   4 19877.5 921.716   6
   2  -6   5-71.3564 131.903   6
  -2   6  -5-65.8817 226.566   5
   2  -6   5 32.1148 122.760   8
   2  -6   5 15.4227 214.927   2
   2  -6   5-58.1985 139.968   3
  -2   6  -6 2898.78 592.856   4
  -2   6  -6 2330.45 592.413   5
   2  -6   6 1791.12 459.118   2
   2  -6   6 2778.46 493.859   8
   2  -6   6 2183.30 333.141   3
   2  -6   6 2450.49 376.896   6
   2  -6   7 178.098 131.636   3
   2  -6   7-37.2307 146.809   6
  -2   6  -7 76.5970 274.157   5
   2  -6   7-65.7597 212.207   2
  -2   6  -7-190.970 309.618   4
  -2   6  -8 1506.25 551.999   5
   2  -6   8 1115.19 311.451   6
   2  -6   8 1355.22 440.341   2
  -2   6  -8 1048.49 424.275   4
   2  -6   9 368.185 293.572   2
  -2   6  -9 359.880 347.693   5
  -2   6  -9 92.4961 277.776   4
   2  -6  10 12878.9 1262.03   2
  -2   6 -10 14115.8 1535.37   4
  -2   6 -10 11485.8 1488.84   5
  -2   6 -11 1309.04 529.115   5
   2  -6  11 785.303 362.539   2
  -2   5  13-403.000 282.625   1
   2  -5 -12 7573.13 900.813   3
  -2   5  12 6902.82 925.903   1
  -2   5  11 3430.92 646.343   1
   2  -5 -11 2997.63 490.012   4
   2  -5 -11 3025.41 577.888   3
   2  -5 -10 8134.45 937.215   3
   2  -5 -10 9553.41 819.240   4
  -2   5  10 9792.23 996.557   1
   2  -5  -9 498.757 264.873   3
  -2   5   9-27.8621 86.9007   7
  -2   5   9 269.960 226.717   1
   2  -5  -9 169.696 167.269   4
   2  -5  -8 31414.0 1316.72   4
   2  -5  -8 32693.6 1780.81   3
  -2   5   8 31245.6 1051.31   7
  -2   5   8 30401.1 1591.64   8
  -2   5   7 26485.1 985.487   7
  -2   5   7 29041.9 1512.37   8
   2  -5  -7 26216.2 1576.72   3
  -2   5   6 1412.87 362.017   6
  -2   5   6 2675.93 342.180   7
   2  -5  -6 2166.16 482.046   3
  -2   5   6 2640.36 461.205   8
  -2   5   5 15407.2 1027.38   8
   2  -5  -5 16242.1 1205.29   3
  -2   5   5 16739.3 1185.39   6
  -2   5   5 14750.0 774.859   7
   2  -5  -5 15749.2 1089.72   6
   2  -5  -5 14099.0 1131.29   2
  -2   5   4 55774.6 1867.61   8
   2  -5  -4 53650.2 1635.84   1
  -2   5   4 56034.8 1557.31   7
   2  -5  -4 60045.6 2176.30   2
   2  -5  -4 57940.5 1948.47   6
  -2   5   4 57603.4 2084.50   6
   2  -5  -4 57785.0 2192.71   3
   2  -5  -3 14332.9 915.620   6
   2  -5  -3 13220.0 1027.75   3
   2  -5  -3 13963.7 761.422   1
  -2   5   3 12713.7 854.921   8
  -2   5   3 13140.0 780.516   7
  -2   5   2 127191. 2488.35   7
  -2   5   2 127046. 2556.48   8
   2  -5  -2 128155. 3182.77   5
   2  -5  -2 131014. 3108.91   3
   2  -5  -2 132087. 2626.81   6
   2  -5  -2 123216. 2028.49   1
   2  -5  -1 17199.8 753.383   8
   2  -5  -1 17262.7 1182.81   5
  -2   5   1 16268.0 869.170   8
   2  -5  -1 16950.5 1110.58   3
   2  -5  -1 16934.4 927.651   4
   2  -5  -1 16754.3 887.956   6
  -2   5   1 16263.1 931.780   7
  -2   5   1 17490.3 957.187   6
  -2   5   0 24853.2 1050.57   8
   2  -5   0 26549.5 1203.00   4
   2  -5   0 25535.1 924.226   8
   2  -5   0 27396.0 1514.34   5
   2  -5   0 27138.4 1355.89   3
  -2   5   0 23434.7 1062.01   6
  -2   5   0 24734.6 1193.90   7
   2  -5   0 26399.7 1195.24   7
   2  -5   0 25413.6 1043.32   6
   2  -5   1 15693.5 1005.02   3
   2  -5   1 16376.9 1194.03   5
   2  -5   1 15827.0 802.593   6
   2  -5   1 16376.9 984.724   4
  -2   5  -1 14013.4 928.409   7
  -2   5  -1 15937.1 854.793   8
   2  -5   1 16191.5 762.018   8
  -2   5  -1 17489.7 883.552   6
   2  -5   1 15237.2 975.014   7
   2  -5   2 76875.9 1764.18   6
   2  -5   2 77933.8 2248.78   4
   2  -5   2 76617.3 2146.75   3
   2  -5   2 76949.0 2595.94   5
   2  -5   2 81195.5 2305.08   7
  -2   5  -2 75457.6 1887.04   8
  -2   5  -2 77000.8 2246.57   7
   2  -5   2 73982.4 1758.55   8
   2  -5   3 89.2577 125.709   6
   2  -5   3 71.9641 99.6906   8
  -2   5  -3-42.6730 197.756   5
  -2   5  -3 161.815 208.117   7
   2  -5   3 109.914 119.085   4
   2  -5   3-298.462 207.657   5
   2  -5   3-78.1964 170.396   3
   2  -5   3-5.14591 156.227   7
   2  -5   4 16133.5 908.244   3
   2  -5   4 15014.4 942.777   8
   2  -5   4 17540.9 1288.40   5
   2  -5   4 17980.3 1198.54   7
   2  -5   4 16864.1 1159.31   4
  -2   5  -4 17578.5 1175.10   7
   2  -5   4 17617.5 900.498   6
  -2   5  -4 16889.2 1294.77   5
   2  -5   5 25.8835 130.347   3
   2  -5   5 126.139 158.669   6
   2  -5   5-275.604 252.555   2
   2  -5   5 11.1447 119.760   8
  -2   5  -5-16.1463 181.569   4
  -2   5  -5-126.726 263.237   5
  -2   5  -6 16378.5 1285.72   4
   2  -5   6 18414.3 1213.22   2
   2  -5   6 18531.4 1234.99   8
  -2   5  -6 18146.1 1473.77   5
   2  -5   6 18944.7 849.228   3
   2  -5   6 20918.6 1120.92   6
  -2   5  -7 36.8931 252.612   5
   2  -5   7 148.605 213.999   8
   2  -5   7 149.241 170.599   6
   2  -5   7 2.42607 181.303   2
  -2   5  -7 198.235 209.613   4
   2  -5   7-43.1197 80.0447   3
   2  -5   8 39671.9 1911.24   2
  -2   5  -8 43062.0 2473.59   5
  -2   5  -8 47673.6 2415.13   4
   2  -5   9 410.920 288.086   2
  -2   5  -9-117.018 323.553   5
  -2   5  -9 229.770 270.374   4
   2  -5  10 5074.30 743.222   2
  -2   5 -10 5220.55 967.674   5
  -2   5 -10 5090.17 889.415   4
   2  -5  11-176.128 286.513   2
  -2   5 -11-395.869 361.845   5
  -2   5 -11 141.355 355.117   4
  -2   5 -12 1221.61 538.849   5
  -2   4  13 316.636 248.097   1
   2  -4 -12 6974.71 813.761   3
   2  -4 -12 6624.25 791.656   4
  -2   4  12 7366.73 938.409   1
   2  -4 -11-64.5971 204.438   4
  -2   4  11-280.435 244.305   1
   2  -4 -11 173.941 207.154   3
  -2   4  10 8125.84 900.057   1
   2  -4 -10 7508.56 778.388   4
  -2   4  10 7914.81 540.017   7
   2  -4 -10 8686.62 896.437   3
   2  -4  -9 6942.76 795.952   3
  -2   4   9 7825.83 537.121   7
  -2   4   9 8481.80 877.920   1
   2  -4  -9 7689.85 732.864   4
   2  -4  -8 10023.2 788.457   4
   2  -4  -8 8577.75 870.810   3
  -2   4   8 9560.69 898.472   1
  -2   4   8 9118.80 580.005   7
  -2   4   7 3131.98 499.003   1
   2  -4  -7 2935.64 530.101   3
  -2   4   7 2523.78 320.834   7
   2  -4  -6 71408.5 2401.67   6
   2  -4  -6 65322.2 2278.92   3
  -2   4   6 64047.8 1533.48   7
  -2   4   6 69707.1 2447.31   6
  -2   4   6 70744.2 2097.87   1
   2  -4  -6 61342.7 2447.85   2
   2  -4  -5 1608.06 386.262   3
   2  -4  -5 1546.72 355.244   6
   2  -4  -5 1663.49 402.682   2
  -2   4   5 1194.95 228.382   7
  -2   4   5 1298.77 296.775   1
  -2   4   5 2049.58 412.555   6
  -2   4   4 105087. 2004.43   7
  -2   4   4 102074. 2266.54   8
   2  -4  -4 110391. 2641.82   6
  -2   4   4 110418. 2759.36   6
  -2   4   3 27143.2 1105.81   8
   2  -4  -3 26457.0 988.633   1
  -2   4   3 27770.0 1050.77   7
   2  -4  -3 28472.8 1264.67   6
   2  -4  -2 121391. 2439.11   6
  -2   4   2 121636. 2242.29   7
   2  -4  -2 113552. 1794.79   1
  -2   4   2 120930. 2190.33   8
   2  -4  -2 120501. 2111.70   7
  -2   4   2 117676. 2525.10   6
  -2   4   1 7587.28 536.061   8
  -2   4   1 6858.70 585.022   6
  -2   4   1 8263.37 619.261   7
   2  -4  -1 7312.85 561.051   7
   2  -4  -1 6792.20 560.099   6
   2  -4   0 12683.4 770.928   4
   2  -4   0 12392.7 551.774   8
  -2   4   0 12102.9 627.225   8
   2  -4   0 13603.0 751.977   6
  -2   4   0 12702.8 751.748   6
  -2   4   0 13397.3 806.523   7
  -2   4  -1 5893.99 446.781   8
   2  -4   1 6030.22 406.988   8
   2  -4   1 6187.96 564.907   4
  -2   4  -1 5355.58 540.799   7
  -2   4  -1 6183.80 522.605   6
   2  -4   1 6305.80 514.716   6
   2  -4   2 83791.2 2156.54   4
  -2   4  -2 79510.3 2365.25   5
   2  -4   2 79504.8 1605.14   8
  -2   4  -2 80764.9 1692.77   8
   2  -4   2 81585.7 1817.23   6
  -2   4  -2 81340.3 2141.23   7
  -2   4  -3-243.267 291.219   5
   2  -4   3-59.2574 179.026   4
   2  -4   3 56.8117 120.150   8
   2  -4   3-87.0310 157.145   6
   2  -4   3 121.306 137.288   3
  -2   4  -3 80.1348 188.875   7
  -2   4  -4 125138. 2899.27   7
   2  -4   4 130705. 3195.45   5
  -2   4  -4 129059. 3336.78   5
   2  -4   4 127785. 2301.72   3
   2  -4   4 137220. 2533.62   6
   2  -4   4 135820. 3065.14   4
   2  -4   4 127095. 2532.11   8
   2  -4   5 20.4640 136.506   6
   2  -4   5 179.580 158.345   8
  -2   4  -5 48.6034 225.288   5
   2  -4   5 148.531 123.539   3
   2  -4   5-239.779 176.977   7
   2  -4   5 38.0917 157.279   4
  -2   4  -5 227.477 239.408   4
   2  -4   5 62.0331 162.790   2
   2  -4   5 104.865 199.552   5
  -2   4  -5 309.246 212.541   7
  -2   4  -6 148121. 3958.84   5
   2  -4   6 155716. 2123.53   3
   2  -4   6 147843. 3135.85   2
  -2   4  -6 150910. 3649.86   4
   2  -4   6 158232. 3404.27   8
   2  -4   7 124.870 190.569   2
  -2   4  -7 98.5279 235.307   5
   2  -4   7 207.084 214.324   8
   2  -4   7 60.3374 67.0964   3
  -2   4  -7 54.3012 234.290   4
  -2   4  -8 3408.14 726.927   5
   2  -4   8 3073.18 533.961   2
   2  -4   8 3511.58 596.486   8
  -2   4  -8 2385.99 572.980   4
   2  -4   9-212.693 260.027   2
  -2   4  -9 64.4423 237.703   5
  -2   4  -9-141.915 302.015   4
   2  -4  10 9106.56 948.263   2
  -2   4 -10 8800.71 1224.29   5
  -2   4 -10 9951.50 1175.67   4
  -2   4 -11-82.8384 413.681   5
  -2   4 -11 47.6655 180.685   4
   2  -4  11-138.645 266.537   2
  -2   4 -12 2163.32 700.712   5
  -2   4 -12 2062.38 607.965   4
   2  -4  12 2716.45 579.922   2
  -2   3  13-434.560 313.317   1
   2  -3 -13 49.8136 164.008   4
   2  -3 -12 3789.71 558.350   3
   2  -3 -12 3623.64 636.401   5
  -2   3  12 4221.78 759.364   1
   2  -3 -12 4522.03 691.294   4
   2  -3 -11 1142.52 338.229   3
   2  -3 -11 1106.81 353.846   4
  -2   3  11 1208.65 418.901   1
   2  -3 -10 332.186 189.821   4
  -2   3  10 747.700 382.549   1
   2  -3 -10 713.506 261.941   3
  -2   3   9 16055.6 1211.68   1
   2  -3  -9 17599.4 1175.26   3
   2  -3  -9 17652.9 1171.68   4
  -2   3   8 76505.4 2454.82   1
   2  -3  -8 75138.6 2372.39   3
   2  -3  -8 75356.0 2266.01   4
  -2   3   7 11453.6 908.310   1
   2  -3  -7 10589.9 885.093   3
   2  -3  -7 11035.9 823.150   4
  -2   3   6 34610.1 1444.15   1
   2  -3  -6 37463.6 1699.25   6
  -2   3   6 34303.1 1658.05   6
   2  -3  -6 33906.0 1832.79   2
   2  -3  -5 1125.28 327.830   6
  -2   3   5 1503.50 315.998   1
  -2   3   4 4910.44 469.644   1
  -2   3   4 4954.19 429.297   7
   2  -3  -4 4703.80 544.510   6
  -2   3   3 44.6750 99.2941   1
  -2   3   3 41.2680 90.9877   7
   2  -3  -3-60.7354 165.952   6
  -2   3   2 15279.8 882.945   6
  -2   3   2 16062.5 692.076   8
  -2   3   2 16518.1 778.879   7
   2  -3  -2 15746.6 879.354   2
   2  -3  -2 16950.6 887.483   6
   2  -3  -1 3102.58 239.168   1
   2  -3  -1 2512.92 372.078   5
  -2   3   1 2768.60 266.926   8
  -2   3   1 2742.88 347.076   7
   2  -3  -1 3274.67 347.862   7
  -2   3   1 2283.07 336.718   6
   2  -3  -1 2751.51 358.567   6
   2  -3   0 134836. 2639.15   5
  -2   3   0 137098. 1652.48   8
   2  -3   0 133293. 1412.00   8
  -2   3   0 133267. 2298.32   7
   2  -3   0 138004. 2227.09   7
   2  -3   0 137071. 2302.59   6
  -2   3   0 131276. 2321.35   6
  -2   3  -1 1010.68 248.143   7
   2  -3   1 1484.34 254.133   6
   2  -3   1 1608.06 170.947   8
  -2   3  -1 1697.51 274.867   6
  -2   3  -1 1857.25 345.623   5
   2  -3   1 1685.89 278.142   4
  -2   3  -1 1339.34 177.196   8
  -2   3  -2 151978. 2976.52   5
   2  -3   2 149234. 1885.35   8
  -2   3  -2 151836. 2683.69   7
   2  -3   2 154158. 2449.71   6
   2  -3   3 79.3815 95.6368   8
  -2   3  -3-0.94230 196.431   5
  -2   3  -3-124.061 208.167   7
   2  -3   3-0.59204 122.579   6
  -2   3  -4 653988. 6090.20   7
   2  -3   4 633513. 5214.04   8
  -2   3  -4 636887. 6872.40   5
   2  -3   4 644609. 5485.31   6
   2  -3   5-92.7258 179.114   2
  -2   3  -5-43.4835 279.583   5
  -2   3  -5 67.2475 233.031   7
   2  -3   5 12.4490 139.940   8
  -2   3  -5-153.613 210.074   4
   2  -3   5 6.85095 95.3778   3
   2  -3   5 109.726 143.420   7
   2  -3   6 150.687 89.7103   3
   2  -3   6 175.046 152.864   8
  -2   3  -6 371.734 293.811   5
   2  -3   6 170.266 149.840   7
   2  -3   6 383.159 242.063   5
  -2   3  -6 55.5409 181.806   4
  -2   3  -6 583.311 265.652   7
   2  -3   6 428.567 220.023   4
   2  -3   6 282.355 196.826   2
   2  -3   7-205.239 248.073   5
   2  -3   7 302.343 241.911   2
   2  -3   7-38.2771 45.7170   3
  -2   3  -7-262.497 345.907   5
   2  -3   7-624.216 256.556   8
   2  -3   7-154.900 192.845   7
   2  -3   7-27.8136 37.7041   3
  -2   3  -7-146.696 281.053   4
  -2   3  -8 23813.6 1541.60   4
   2  -3   8 23358.7 1269.14   2
   2  -3   8 24132.3 1507.45   8
  -2   3  -8 20706.4 1577.76   5
   2  -3   9-100.056 182.984   2
  -2   3  -9-161.407 233.305   5
  -2   3  -9 12.5404 235.477   4
   2  -3  10 31903.5 1646.29   2
  -2   3 -10 31266.1 2167.18   5
  -2   3 -10 33819.0 2052.51   4
  -2   3 -11-26.5047 301.851   5
  -2   3 -11 642.786 319.205   4
   2  -3  11 281.650 199.247   2
  -2   3 -12 4010.36 791.069   4
  -2   3 -12 3694.21 857.862   5
   2  -3  12 3961.56 677.542   2
   2  -3  12 4534.19 789.292   1
  -2   3 -13 172.566 347.203   5
   2  -3  13 2.07226 369.157   1
  -2   3 -13-184.544 300.072   4
   2  -2 -14 302.912 265.740   4
   2  -2 -13-22.9919 257.443   4
  -2   2  13 500.889 402.582   2
  -2   2  13 359.629 388.180   1
   2  -2 -12 5603.06 771.132   5
  -2   2  12 8005.47 1022.30   1
  -2   2  12 6601.28 932.555   2
   2  -2 -12 7015.66 909.105   4
   2  -2 -11 3034.80 478.591   3
  -2   2  11 2929.27 616.305   2
   2  -2 -11 2073.92 470.254   5
  -2   2  11 2708.95 585.357   1
   2  -2 -11 1461.02 428.593   4
   2  -2 -10 16069.5 1060.38   3
   2  -2 -10 13496.4 1058.41   5
  -2   2  10 16449.4 1315.90   1
   2  -2 -10 16314.6 1250.72   4
  -2   2  10 17059.4 1355.24   2
  -2   2   9 4720.87 689.671   1
   2  -2  -9 3358.90 506.397   3
  -2   2   9 3660.46 658.504   2
   2  -2  -9 4021.94 605.694   4
  -2   2   8 147.545 265.874   2
  -2   2   8 340.267 235.264   1
   2  -2  -8 738.056 281.416   4
   2  -2  -8 235.406 184.161   3
   2  -2  -7 567.515 249.601   4
  -2   2   7 403.778 212.760   6
  -2   2   7 773.412 352.098   2
   2  -2  -7 401.338 237.096   2
  -2   2   7 470.529 272.623   1
   2  -2  -6 8647.10 941.689   2
  -2   2   6 8313.40 797.224   6
  -2   2   6 8113.58 716.803   1
  -2   2   6 8654.48 822.555   2
   2  -2  -6 8669.79 812.340   6
  -2   2   5 231.241 242.007   2
  -2   2   5 131.312 141.683   1
   2  -2  -5-137.286 201.275   6
   2  -2  -4 14490.8 911.178   6
  -2   2   4 13477.7 767.064   1
  -2   2   4 15207.3 969.499   2
   2  -2  -3 17187.8 919.178   6
  -2   2   3 16719.9 758.053   1
  -2   2   2 224067. 2785.73   7
  -2   2   2 223986. 2317.92   1
   2  -2  -2 217042. 3183.20   2
   2  -2  -2 223812. 3092.54   6
   2  -2  -1 37703.7 1171.79   2
  -2   2   1 37908.9 1237.56   6
   2  -2  -1 37960.0 1149.16   5
  -2   2   1 40631.3 1171.49   7
  -2   2   1 40981.8 746.944   1
   2  -2  -1 41264.8 1274.57   6
  -2   2   0 97025.8 976.624   8
   2  -2   0 99136.2 1931.80   5
  -2   2   0 98401.7 1855.07   7
   2  -2   0 99373.8 1713.57   7
  -2   2   0 102484. 1896.31   5
   2  -2   0 102001. 1932.04   6
   2  -2   1 1698.40 286.825   6
   2  -2   1 1528.69 104.340   8
  -2   2  -1 1796.82 273.531   6
  -2   2  -1 1600.24 285.352   5
  -2   2  -1 1444.88 252.905   7
   2  -2   1 1440.85 251.228   5
   2  -2   2 1567.87 165.500   8
   2  -2   2 1748.89 264.887   6
  -2   2  -2 2007.95 363.562   5
   2  -2   3 239.436 118.652   6
   2  -2   3 424.358 132.900   8
  -2   2  -3 232.016 171.988   5
  -2   2  -3 584.551 199.436   7
  -2   2  -4 29047.8 1343.04   5
   2  -2   4 30531.8 979.398   2
  -2   2  -4 30250.3 1214.15   7
   2  -2   5 86.9526 112.369   7
   2  -2   5-66.1878 157.252   2
  -2   2  -5-102.085 227.529   5
  -2   2  -5-14.0745 150.966   4
  -2   2  -5 152.795 168.716   7
   2  -2   6 237750. 3178.47   2
  -2   2  -6 237439. 3995.19   4
   2  -2   6 247641. 4038.78   4
  -2   2  -6 228550. 4328.18   5
   2  -2   6 233456. 3910.02   5
  -2   2  -6 239103. 3732.45   7
   2  -2   6 226957. 3631.76   7
   2  -2   6 226034. 2044.44   3
   2  -2   7-74.4282 165.759   4
  -2   2  -7 86.8057 226.238   5
  -2   2  -7 49.6988 203.018   4
   2  -2   7-128.251 149.915   7
   2  -2   7 25.6307 155.392   2
  -2   2  -8 38893.5 1852.29   4
  -2   2  -8 37580.8 2036.91   5
   2  -2   8 39704.3 1705.41   7
   2  -2   8 39923.6 1531.54   2
   2  -2   8 39189.6 1788.45   4
  -2   2  -9 107.595 264.325   5
  -2   2  -9 116.702 256.553   4
   2  -2   9 60.9392 187.422   2
   2  -2   9-108.424 189.552   7
  -2   2 -10 17952.1 1407.08   4
  -2   2 -10 17012.3 1568.18   5
   2  -2  10 17797.5 1166.24   2
   2  -2  11 1841.76 433.068   2
   2  -2  11 2484.02 550.380   1
  -2   2 -11 2062.25 595.933   5
  -2   2 -11 3013.75 638.605   4
  -2   2 -12 18052.5 1581.75   4
   2  -2  12 20622.9 1636.40   1
   2  -2  12 18623.0 1315.48   2
   2  -2  13 313.451 330.495   1
  -2   2 -13-378.830 259.996   4
  -2   2 -13 592.494 380.697   5
   2  -2  13 14.4291 197.529   2
  -2   2 -14 1604.60 605.433   5
  -2   2 -14 2080.92 622.329   4
   2  -1 -14 1622.97 510.054   4
   2  -1 -13-244.292 260.845   4
  -2   1  13-810.828 419.055   1
  -2   1  12 11382.7 1240.74   2
   2  -1 -12 12790.5 1110.81   5
  -2   1  12 13720.1 1348.36   1
   2  -1 -12 12125.0 1239.23   4
  -2   1  11 2655.48 620.737   2
  -2   1  11 2718.31 616.098   1
   2  -1 -11 1655.14 405.039   5
   2  -1 -11 2410.87 378.248   3
   2  -1 -11 1968.01 499.284   4
  -2   1  10 1227.42 443.494   1
   2  -1 -10 503.158 219.810   3
   2  -1 -10 399.305 241.828   5
  -2   1  10 567.727 377.729   2
   2  -1 -10 408.158 283.074   4
   2  -1  -9 302.899 179.158   5
   2  -1  -9 523.133 307.295   4
  -2   1   9 625.588 326.625   2
   2  -1  -9 530.607 218.856   3
   2  -1  -8 20542.9 1104.66   5
   2  -1  -8 21239.4 1358.17   4
  -2   1   8 23584.6 1477.07   2
  -2   1   7 4532.80 656.871   2
  -2   1   7 4931.38 631.547   6
   2  -1  -7 4909.11 769.621   2
   2  -1  -7 4103.24 583.569   4
   2  -1  -6 93597.0 2477.02   4
  -2   1   6 94976.9 2640.98   2
  -2   1   6 95456.9 2615.87   6
   2  -1  -6 96666.7 2645.35   6
   2  -1  -5 2127.84 385.399   6
  -2   1   5 2270.33 424.947   2
  -2   1   4 21784.3 1121.86   2
   2  -1  -4 20920.7 1051.72   6
  -2   1   3 118301. 2432.48   2
   2  -1  -3 117540. 2316.36   6
   2  -1  -2 45393.7 1352.11   6
   2  -1  -2 44408.7 1453.46   2
  -2   1   2 47092.6 1409.60   2
   2  -1  -1 3331.66 268.433   5
   2  -1  -1 3737.65 382.057   6
   2  -1  -1 4450.67 420.129   2
  -2   1   1 5071.10 449.380   2
  -2   1   0 1903.89 283.753   5
   2  -1   0 2413.55 292.036   5
  -2   1   0 2221.63 302.940   7
   2  -1   0 2898.56 368.242   2
   2  -1   0 2614.16 431.711   6
   2  -1   1 558.883 177.015   6
  -2   1  -1 305.986 115.737   6
  -2   1  -1 215.849 114.212   5
  -2   1  -1 488.704 151.789   7
   2  -1   1 374.873 127.021   5
   2  -1   2 336.462 125.535   5
   2  -1   2 169.177 134.283   6
  -2   1  -2 419.025 156.034   5
  -2   1  -2 265.089 119.580   7
   2  -1   2 285.525 117.201   7
   2  -1   2 623.649 100.559   1
   2  -1   3 561.429 136.811   1
  -2   1  -3 523.451 195.704   5
  -2   1  -3 436.498 162.282   7
   2  -1   3 495.668 138.719   7
   2  -1   4 42481.1 894.991   2
   2  -1   4 40592.2 1171.01   1
  -2   1  -4 42406.8 1487.22   5
  -2   1  -4 43000.8 1292.54   7
   2  -1   4 42895.8 1240.06   7
   2  -1   4 39130.5 996.663   3
   2  -1   5 35.6125 74.3064   3
  -2   1  -5 150.885 144.624   7
  -2   1  -5 52.5112 180.705   4
   2  -1   5 380.358 149.038   7
  -2   1  -5-28.3163 173.936   5
   2  -1   5 1.11685 85.4985   2
  -2   1  -6 114683. 2574.47   4
   2  -1   6 120751. 2023.68   2
   2  -1   6 112120. 1352.30   3
   2  -1   6 109048. 2276.94   7
  -2   1  -6 114505. 2918.98   5
  -2   1  -6 115903. 2378.24   7
  -2   1  -7 188.503 206.688   5
   2  -1   7 452.328 257.717   1
   2  -1   7 367.659 74.3278   3
  -2   1  -7 509.550 207.310   4
  -2   1  -7 296.415 178.707   7
  -2   1  -7 690.478 202.793   2
   2  -1   7 531.405 180.793   7
   2  -1   7 327.643 183.452   4
   2  -1   7 302.505 150.578   2
  -2   1  -8 5802.17 793.245   5
  -2   1  -8 6091.01 595.820   2
   2  -1   8 6351.16 678.057   4
  -2   1  -8 6008.90 683.969   4
   2  -1   8 6272.12 618.903   7
   2  -1   8 5116.57 647.322   1
   2  -1   8 5960.15 568.862   2
  -2   1  -9 554.318 269.013   4
   2  -1   9 1043.82 337.448   1
  -2   1  -9 715.369 331.815   5
   2  -1   9 959.324 271.296   2
   2  -1   9 743.981 238.121   7
   2  -1   9 631.038 260.358   4
  -2   1 -10 35412.9 1710.31   2
   2  -1  10 34701.0 1607.12   7
  -2   1 -10 33849.9 1824.12   4
   2  -1  10 34452.8 1533.10   2
  -2   1 -10 34641.9 2172.19   5
   2  -1  10 39203.9 1958.82   1
  -2   1 -11-177.979 266.513   4
   2  -1  11 507.757 323.501   1
  -2   1 -11 387.354 327.989   5
   2  -1  11 441.776 247.881   2
  -2   1 -11 144.254 157.775   2
  -2   1 -12 4473.64 747.987   4
   2  -1  12 5382.69 840.496   1
  -2   1 -12 4586.38 902.655   5
   2  -1  12 5231.93 679.763   2
   2  -1  13 2947.79 552.486   2
  -2   1 -13 3040.61 677.786   4
   2  -1  13 1938.87 535.801   1
  -2   1 -13 2034.17 699.860   5
   2  -1  14 4268.21 813.491   1
  -2   1 -14 2638.29 814.493   5
  -2   1 -14 4090.43 790.942   4
  -2   0  13 1358.55 485.256   2
   2   0 -13 1170.03 468.395   4
  -2   0  12 3699.78 745.048   2
   2   0 -12 4156.39 786.032   4
  -2   0  12 3381.70 702.841   1
   2   0 -11 673.337 311.449   4
   2   0 -11 835.849 303.885   5
  -2   0  11 988.788 440.036   2
   2   0 -10 40790.3 1378.11   3
   2   0 -10 37080.5 1689.17   5
   2   0 -10 40351.6 2178.96   4
  -2   0  10 38562.1 2130.28   2
   2   0  -9 3748.87 507.743   5
   2   0  -9 3691.86 655.476   4
  -2   0   9 4602.44 706.883   2
   2   0  -8 14671.0 900.928   5
  -2   0   8 14716.5 1216.29   2
   2   0  -8 14043.3 1167.67   4
  -2   0   7 359.869 297.071   2
   2   0  -7 245.983 217.639   2
   2   0  -7-50.2243 125.958   5
  -2   0   7 17.5362 143.099   6
   2   0  -7-54.5333 203.070   4
   2   0  -6 25847.2 1593.30   2
   2   0  -6 24442.6 938.925   5
   2   0  -6 24664.9 1365.65   4
  -2   0   6 26022.1 1324.84   6
  -2   0   6 24827.3 1372.35   2
   2   0  -5 19467.1 1139.85   4
   2   0  -5 19707.3 723.251   5
  -2   0   5 20358.5 1172.58   2
   2   0  -5 20297.6 1112.43   6
  -2   0   5 19484.6 1077.37   6
   2   0  -4 127013. 1474.73   5
   2   0  -4 126528. 2537.11   6
  -2   0   4 121976. 2519.55   6
  -2   0   4 123038. 2647.23   2
  -2   0   3 475.291 165.989   6
   2   0  -3 380.929 70.5928   5
  -2   0   3 311.760 212.095   2
   2   0  -3 576.690 204.211   6
   2   0  -2 626.480 188.328   6
  -2   0   2 389.026 195.929   2
  -2   0   2 699.883 178.167   6
   2   0  -2 635.374 191.223   2
   2   0  -1 1366.96 234.573   6
  -2   0   1 1358.64 218.823   6
  -2   0   1 1027.29 224.033   2
  -2   0   1 1273.24 184.918   8
   2   0  -1 1542.09 248.349   2
   2   0   0 268262. 2522.82   2
  -2   0   0 290022. 2649.73   2
  -2   0   0 278845. 2121.85   8
  -2   0   0 287301. 2029.25   5
   2   0   0 281010. 1966.47   5
   2   0   0 276488. 2104.05   8
   2   0   0 274254. 2987.60   6
  -2   0  -1 2531.50 168.695   8
   2   0   1 2842.12 204.190   2
   2   0   1 2733.34 184.289   8
  -2   0  -1 2515.80 204.522   2
  -2   0  -1 2555.30 248.657   5
   2   0   1 2530.82 309.087   6
   2   0   2 327.503 82.7015   8
   2   0   2 517.181 147.677   3
  -2   0  -2 438.995 139.162   5
  -2   0  -2 212.628 96.5272   7
  -2   0  -2 329.315 87.9165   1
   2   0   3 151.658 81.3469   1
   2   0   3 421.002 126.436   3
  -2   0  -3 375.530 136.568   1
  -2   0  -3 318.851 167.452   5
  -2   0  -3 481.262 146.631   7
   2   0   3 201.951 96.6356   7
   2   0   4 108958. 1119.30   2
   2   0   4 104374. 1635.11   3
   2   0   4 103906. 1774.54   1
  -2   0  -4 106343. 2259.74   5
  -2   0  -4 106234. 1114.21   2
   2   0   4 102887. 1893.51   4
  -2   0  -4 104255. 1798.94   7
   2   0   4 103336. 1693.37   7
   2   0   5 3584.27 293.643   3
   2   0   5 3537.21 397.513   1
  -2   0  -5 4208.53 523.321   5
   2   0   5 3604.44 386.493   4
  -2   0  -5 3651.21 366.744   7
  -2   0  -5 3473.43 276.827   2
   2   0   5 3858.24 353.129   7
   2   0   5 3533.30 282.507   2
   2   0   6 60442.0 1124.89   3
  -2   0  -6 60511.9 1378.77   2
  -2   0  -6 66553.3 2176.32   5
   2   0   6 63700.3 1800.42   1
  -2   0  -6 62175.4 1556.16   7
   2   0   6 56450.9 1447.36   7
   2   0   6 60700.2 1696.12   4
   2   0   6 61682.5 1335.70   2
  -2   0  -6 58686.6 1685.16   4
   2   0   7 2279.16 218.792   3
  -2   0  -7 1985.64 320.463   7
  -2   0  -7 2228.14 320.554   2
  -2   0  -7 2712.09 503.135   5
   2   0   7 2501.30 434.593   1
  -2   0  -7 2600.36 399.523   4
   2   0   7 3099.32 378.471   7
   2   0   7 2681.51 339.631   2
   2   0   8 9735.59 419.209   3
  -2   0  -8 9921.26 805.697   4
  -2   0  -8 10954.3 781.378   2
   2   0   8 10180.3 706.748   7
  -2   0  -8 11661.7 1091.90   5
   2   0   8 10609.5 811.093   4
   2   0   8 9758.00 851.437   1
   2   0   8 10118.8 687.154   2
  -2   0  -9 4709.07 606.503   4
   2   0   9 4606.81 575.964   4
   2   0   9 4809.46 522.293   7
   2   0   9 5020.84 530.478   2
   2   0   9 5459.62 696.248   1
  -2   0  -9 3892.76 705.334   5
  -2   0 -10 371.400 308.154   5
   2   0  10 575.132 339.633   1
   2   0  10 179.628 154.650   4
  -2   0 -10 222.323 156.910   2
  -2   0 -10 33.6979 180.325   4
   2   0  10 67.9717 170.457   2
   2   0  10 111.492 118.330   7
  -2   0 -11 19.9656 114.588   2
   2   0  11-32.9858 260.593   1
  -2   0 -11 392.304 286.772   5
   2   0  11 404.510 173.778   7
   2   0  11 478.264 254.787   2
  -2   0 -11-43.5418 168.115   4
  -2   0 -12 17183.5 1734.04   5
   2   0  12 20218.1 1539.97   1
  -2   0 -12 18768.7 1418.49   4
   2   0  12 18357.8 1201.43   2
   2   0  13 1970.74 561.539   1
  -2   0 -13 1332.52 578.862   5
  -2   0 -13 1033.50 355.256   4
   2   0  13 682.699 300.213   2
  -2   0 -14 3576.69 722.876   4
  -2   0 -14 3246.20 850.364   5
   2   0  14 4398.52 822.238   1
  -2   0 -15 488.862 326.987   4
  -2   0 -15 109.174 362.470   5
   2   1 -13-187.457 288.527   4
   2   1 -12 14750.1 1497.39   4
  -2  -1  12 13238.0 1402.97   2
   2   1 -11 10469.8 972.427   5
   2   1 -11 11587.1 1302.65   4
  -2  -1  11 11942.2 1269.61   2
   2   1 -10 4425.23 786.530   4
   2   1 -10 4976.39 415.553   3
   2   1 -10 4205.00 591.276   5
  -2  -1  10 5012.26 826.590   2
   2   1  -9 5390.40 629.350   5
  -2  -1   9 6174.85 872.072   2
   2   1  -9 6232.41 887.430   4
   2   1  -9 5771.99 554.941   3
   2   1  -8 10518.0 1090.73   4
   2   1  -8 10736.2 795.885   5
  -2  -1   8 10040.6 1032.58   2
  -2  -1   8 11433.2 967.490   6
   2   1  -8 10128.4 740.498   3
  -2  -1   7 31.3375 145.452   6
   2   1  -7 56.3571 119.386   5
   2   1  -7 181.945 263.892   2
   2   1  -7 6.01096 119.508   3
   2   1  -7 39.7118 228.125   4
  -2  -1   7-86.0792 297.365   2
   2   1  -6 155131. 3825.51   2
   2   1  -6 155249. 2463.80   5
   2   1  -6 148825. 2701.37   3
   2   1  -6 149781. 3593.99   4
  -2  -1   6 152714. 3097.61   6
  -2  -1   6 156728. 3516.01   2
  -2  -1   5 4876.66 633.151   2
   2   1  -5 4151.51 363.205   5
   2   1  -5 4692.15 544.324   6
   2   1  -5 4228.35 461.733   3
   2   1  -5 4222.73 595.341   4
  -2  -1   5 4493.00 505.272   6
   2   1  -4 20816.9 1166.77   4
   2   1  -4 20989.5 661.507   5
  -2  -1   4 21233.9 1140.77   2
   2   1  -4 21349.2 1023.46   6
  -2  -1   4 21193.8 1015.25   6
   2   1  -4 19800.6 933.031   3
  -2  -1   3 7778.28 643.297   2
  -2  -1   3 7676.74 568.042   6
   2   1  -3 6075.37 267.767   5
  -2  -1   3 7556.98 619.963   8
   2   1  -3 7091.86 538.058   3
   2   1  -3 7400.73 565.584   6
  -2  -1   2 67974.3 1688.75   2
  -2  -1   2 62992.9 1597.69   8
   2   1  -2 61546.3 1508.58   3
   2   1  -2 66399.1 1501.40   6
  -2  -1   2 61985.5 1482.26   6
  -2  -1   1 19117.3 795.217   8
   2   1  -1 21017.2 827.537   8
  -2  -1   1 20552.0 836.779   2
  -2  -1   1 20009.6 795.311   6
   2   1  -1 19020.5 809.825   2
   2   1  -1 20117.9 792.941   6
   2   1  -1 19278.4 821.856   3
   2   1   0 103328. 1779.64   6
  -2  -1   0 104904. 1640.57   2
   2   1   0 104891. 1643.68   2
   2   1   0 106091. 1688.82   8
  -2  -1   0 104314. 1658.05   8
  -2  -1   0 102329. 1750.77   6
   2   1   1 20762.9 616.227   2
  -2  -1  -1 19520.7 649.829   8
  -2  -1  -1 20398.3 599.535   2
   2   1   1 20103.7 685.212   8
  -2  -1  -1 20523.2 828.609   3
   2   1   1 20401.4 794.330   6
  -2  -1  -2 313390. 1882.93   2
  -2  -1  -2 309184. 2494.95   8
  -2  -1  -2 320651. 3233.22   3
   2   1   2 318984. 2668.94   8
   2   1   2 307852. 3066.81   3
   2   1   3 7176.77 461.448   3
  -2  -1  -3 7763.00 514.330   3
  -2  -1  -3 6946.41 455.155   1
  -2  -1  -3 7502.07 417.615   7
   2   1   3 6664.62 400.493   8
   2   1   4 63450.5 1344.44   3
   2   1   4 66406.4 1340.28   4
   2   1   4 63424.3 1428.46   1
  -2  -1  -4 64825.0 1603.56   1
   2   1   4 64333.7 1335.22   8
  -2  -1  -4 64014.9 1224.79   7
  -2  -1  -4 67962.5 1525.50   3
   2   1   5 16.8883 126.922   1
   2   1   5-91.0216 83.5298   3
  -2  -1  -5 23.4583 118.101   1
  -2  -1  -5-2.50996 99.6227   3
  -2  -1  -5 33.1281 86.2160   2
   2   1   5 54.8169 78.0925   4
  -2  -1  -5-54.1126 89.4255   7
   2   1   5 96.8623 93.4491   7
   2   1   6 24913.3 1123.73   1
  -2  -1  -6 26640.4 1012.88   2
   2   1   6 24978.3 834.472   3
  -2  -1  -6 24972.3 965.379   3
   2   1   6 24711.4 820.766   7
  -2  -1  -6 23934.9 850.445   7
   2   1   6 24958.3 981.974   4
  -2  -1  -7 6768.81 584.856   2
   2   1   7 8303.49 709.300   1
   2   1   7 6925.06 445.814   3
  -2  -1  -7 6637.60 771.775   5
  -2  -1  -7 7571.10 605.049   4
   2   1   7 6047.09 446.675   7
   2   1   7 6926.72 565.316   4
  -2  -1  -7 7204.00 499.063   7
   2   1   7 7774.61 527.053   2
  -2  -1  -7 7451.19 541.521   3
   2   1   8 17068.9 713.691   3
  -2  -1  -8 18494.1 1063.51   2
   2   1   8 16431.0 1074.79   1
  -2  -1  -8 19408.2 1405.09   5
  -2  -1  -8 17155.9 970.077   4
   2   1   8 16493.6 782.678   7
   2   1   8 18025.9 883.287   2
  -2  -1  -8 18214.1 869.372   3
   2   1   9 1144.28 235.080   7
   2   1   9 1165.43 206.903   3
  -2  -1  -9 762.624 359.091   5
  -2  -1  -9 762.745 204.459   3
   2   1   9 988.429 260.077   2
  -2  -1  -9 954.600 284.729   4
   2   1   9 860.363 239.856   4
   2   1   9 557.394 273.264   1
   2   1  10 25834.2 1537.48   1
  -2  -1 -10 26275.3 1506.99   2
  -2  -1 -10 22103.9 1734.38   5
  -2  -1 -10 25858.3 1034.67   3
   2   1  10 27790.0 1353.84   4
   2   1  10 24115.1 1066.04   7
   2   1  10 28128.5 1280.64   2
  -2  -1 -10 26529.7 1392.21   4
  -2  -1 -11 217.803 296.315   5
   2   1  11 356.454 233.932   2
  -2  -1 -11-342.528 251.731   2
   2   1  11-159.811 119.898   7
  -2  -1 -11-114.006 261.131   4
   2   1  11 229.881 266.479   1
   2   1  11 83.4767 142.759   4
   2   1  12 14035.0 1271.07   1
  -2  -1 -12 13172.7 1254.26   2
  -2  -1 -12 9446.37 1287.08   5
  -2  -1 -12 13057.5 1108.16   4
  -2  -1 -13 615.122 445.949   5
  -2  -1 -13 330.749 225.373   4
   2   1  13 62.3710 295.794   1
  -2  -1 -14 1230.24 548.054   5
  -2  -1 -14 1929.00 490.319   4
   2   1  14 1716.89 526.862   1
  -2  -1 -15 808.039 385.100   4
  -2  -1 -15 1026.50 562.610   5
  -2  -2  12 1455.14 544.887   2
   2   2 -12 1545.80 546.839   4
   2   2 -11 580.455 330.007   5
  -2  -2  11 1219.62 430.118   2
   2   2 -11 831.268 402.007   4
  -2  -2  10 17365.7 1529.54   2
   2   2 -10 16613.1 1200.97   5
   2   2 -10 15671.2 1509.12   4
   2   2  -9 5315.04 445.351   3
  -2  -2   9 5043.66 805.413   2
   2   2  -9 5618.95 671.227   5
   2   2  -9 6043.52 897.958   4
  -2  -2   8 15111.4 1287.19   2
   2   2  -8 15629.2 1020.62   5
  -2  -2   8 14578.7 1065.39   6
   2   2  -8 13630.7 1297.28   4
   2   2  -8 15218.2 813.774   3
  -2  -2   7 2384.11 411.027   6
   2   2  -7 1893.89 528.105   4
   2   2  -7 2445.14 394.896   5
   2   2  -7 2253.33 327.690   3
  -2  -2   7 2709.80 580.174   2
  -2  -2   6 3116.40 547.566   2
  -2  -2   6 2090.78 371.548   6
   2   2  -6 2633.51 538.093   2
   2   2  -6 2125.07 338.013   5
   2   2  -6 2186.53 331.530   3
  -2  -2   6 2897.81 531.312   8
   2   2  -6 2210.26 477.673   4
  -2  -2   5 2072.39 352.557   6
   2   2  -5 2204.50 305.928   5
   2   2  -5 2413.45 334.673   3
  -2  -2   5 2494.64 482.839   2
   2   2  -5 2823.22 530.605   4
  -2  -2   4 167183. 3311.77   2
   2   2  -4 160707. 2173.36   5
   2   2  -4 169341. 2803.25   6
   2   2  -4 167047. 3497.04   4
  -2  -2   4 152975. 2620.94   6
   2   2  -4 164226. 2632.15   3
  -2  -2   4 159677. 1966.97   5
   2   2  -3 74549.5 1733.99   3
  -2  -2   3 77117.5 2102.32   2
  -2  -2   3 72964.1 1237.02   5
   2   2  -3 75924.9 2176.93   4
   2   2  -3 79109.5 1738.14   6
  -2  -2   3 73131.4 1665.54   6
  -2  -2   2 246979. 3444.67   2
   2   2  -2 233931. 3003.89   3
  -2  -2   2 238742. 2173.48   5
   2   2  -2 249148. 3490.96   8
   2   2  -2 246696. 3602.74   4
   2   2  -2 242934. 2764.80   6
  -2  -2   2 231151. 2739.94   6
  -2  -2   1 14396.0 780.336   2
   2   2  -1 14155.5 732.690   3
   2   2  -1 14221.2 771.819   2
  -2  -2   1 14249.0 782.016   8
   2   2  -1 14516.2 804.749   8
   2   2  -1 13218.3 617.666   6
  -2  -2   1 14173.3 757.596   3
  -2  -2   1 13820.2 634.071   6
  -2  -2   0 56814.8 1260.67   6
   2   2   0 58112.4 1490.05   8
  -2  -2   0 59235.8 1408.73   2
  -2  -2   0 54738.2 1423.99   8
  -2  -2   0 57098.2 1460.58   3
   2   2   0 55057.7 1237.98   6
   2   2   0 54467.4 1393.15   3
   2   2   1 2526.14 310.831   8
   2   2   1 2181.92 260.646   6
  -2  -2  -1 2043.28 240.613   2
  -2  -2  -1 2241.23 274.031   8
  -2  -2  -1 2435.61 321.325   3
   2   2   2 885.955 203.203   8
  -2  -2  -2 1455.33 258.064   3
  -2  -2  -2 922.324 181.866   8
   2   2   3 20135.8 833.684   3
   2   2   3 19704.6 824.953   8
  -2  -2  -3 20006.6 781.589   8
  -2  -2  -3 20137.9 878.310   3
   2   2   4 14726.5 719.656   3
   2   2   4 15228.3 737.171   8
   2   2   4 14289.5 542.914   4
  -2  -2  -4 14721.8 529.466   7
  -2  -2  -4 14059.9 755.991   1
  -2  -2  -4 16344.9 801.290   3
  -2  -2  -5 10709.4 674.357   3
   2   2   5 9956.98 596.620   3
   2   2   5 10002.5 642.808   8
   2   2   5 9546.55 485.668   4
  -2  -2  -5 10670.9 460.035   7
  -2  -2  -5 10488.2 594.855   2
  -2  -2  -6 258296. 3332.02   3
   2   2   6 259971. 3075.31   3
  -2  -2  -6 262500. 3471.66   2
   2   2   6 256225. 2761.74   4
  -2  -2  -7 47778.7 1491.80   3
   2   2   7 46061.1 1317.01   3
  -2  -2  -7 48449.9 1071.21   7
   2   2   7 47081.3 1295.99   4
  -2  -2  -7 45065.8 1641.47   2
   2   2   7 45617.1 996.098   7
   2   2   7 46958.9 1673.16   1
  -2  -2  -8 79148.7 2398.25   2
   2   2   8 86457.2 1856.47   3
   2   2   8 82473.0 1435.25   7
   2   2   8 82883.6 1861.26   4
   2   2   8 88451.8 2454.25   1
  -2  -2  -8 87642.5 2065.29   3
   2   2   9 139.674 213.126   1
  -2  -2  -9 91.6690 125.484   4
   2   2   9 1.80552 71.9958   3
   2   2   9 58.5443 70.0775   7
  -2  -2 -10 11098.8 1061.08   2
  -2  -2 -10 9464.55 1134.33   5
  -2  -2 -10 11766.9 853.324   4
   2   2  10 11987.9 834.467   4
   2   2  10 12302.4 642.384   7
  -2  -2 -10 14122.0 887.050   3
   2   2  10 12056.9 1063.92   1
  -2  -2 -11 2344.14 514.451   2
   2   2  11 3400.32 622.552   1
  -2  -2 -11 3181.22 492.955   4
   2   2  11 2291.68 298.630   7
   2   2  11 2293.10 398.219   4
  -2  -2 -11 3168.27 439.296   3
  -2  -2 -11 2322.75 626.882   5
  -2  -2 -12 7245.60 957.667   2
  -2  -2 -12 8398.80 820.709   4
  -2  -2 -12 6990.31 1135.02   5
   2   2  12 7888.48 749.357   4
  -2  -2 -12 6991.57 643.497   3
   2   2  12 8044.68 957.386   1
  -2  -2 -13-13.6838 429.092   5
   2   2  13 476.980 332.896   1
  -2  -2 -13-96.4144 201.867   4
   2   2  14 2578.78 626.199   1
  -2  -2 -14 2268.06 735.425   5
  -2  -2 -14 1939.63 447.329   4
  -2  -2 -15 822.946 430.001   5
  -2  -3  12 3731.66 811.289   2
   2   3 -11 628.978 432.962   4
  -2  -3  11-140.497 281.604   2
   2   3 -10 4311.69 639.516   5
  -2  -3  10 3164.46 760.452   2
   2   3 -10 4782.08 877.918   4
   2   3  -9 6067.57 714.462   5
  -2  -3   9 5754.08 894.871   2
   2   3  -9 6662.60 1014.01   4
  -2  -3   8 2149.21 402.407   6
   2   3  -8 1555.01 379.886   5
   2   3  -8 1738.12 268.525   3
   2   3  -8 2035.50 578.331   4
  -2  -3   8 1897.75 524.590   2
  -2  -3   7 8378.75 951.979   2
   2   3  -7 8644.09 615.499   3
   2   3  -7 8110.72 730.402   5
   2   3  -7 8693.54 1059.13   4
  -2  -3   7 9587.37 795.556   6
   2   3  -6 40096.0 1352.05   3
  -2  -3   6 43874.5 2047.98   2
  -2  -3   6 41513.8 1541.02   6
  -2  -3   6 40643.9 1302.71   5
   2   3  -6 39176.2 2063.89   4
   2   3  -6 43336.4 1544.12   5
   2   3  -5 23783.9 1031.96   3
  -2  -3   5 26580.8 1502.27   2
   2   3  -5 25654.6 1566.55   4
  -2  -3   5 21593.9 921.529   5
   2   3  -5 28928.4 1618.28   2
  -2  -3   5 28215.4 1604.58   8
  -2  -3   5 26196.9 1131.54   6
   2   3  -4 106343. 2167.13   3
  -2  -3   4 108360. 2822.83   2
  -2  -3   4 105993. 1962.37   5
   2   3  -4 106868. 2972.51   4
  -2  -3   4 108087. 2101.65   6
   2   3  -3 10801.2 685.546   3
  -2  -3   3 11623.1 882.381   2
  -2  -3   3 10476.9 608.213   5
  -2  -3   3 11484.8 706.944   3
   2   3  -3 9545.10 831.503   4
   2   3  -3 10574.3 626.308   6
  -2  -3   3 10570.5 605.628   6
   2   3  -2 21106.5 949.938   3
   2   3  -2 21413.5 1144.69   8
  -2  -3   2 19879.2 828.058   5
  -2  -3   2 21436.6 1104.78   2
   2   3  -2 21139.2 1135.35   4
   2   3  -2 20452.9 773.317   6
  -2  -3   2 21147.1 956.979   3
  -2  -3   2 19001.4 749.667   6
   2   3  -1 10996.5 680.422   3
  -2  -3   1 10831.1 741.279   2
   2   3  -1 12925.2 857.041   8
   2   3  -1 13039.7 806.824   4
   2   3  -1 11831.4 551.824   6
  -2  -3   1 11137.4 699.404   3
  -2  -3   1 12318.0 566.813   6
   2   3   0 25511.3 1030.81   3
  -2  -3   0 26477.3 1072.67   2
   2   3   0 25902.8 1153.46   8
   2   3   0 25787.8 1016.92   4
   2   3   0 25537.3 814.037   6
  -2  -3   0 25525.6 1044.95   3
   2   3   1 401.269 117.948   6
  -2  -3  -1 696.867 220.393   3
   2   3   1 806.386 215.499   8
  -2  -3  -2 42686.9 1350.58   3
   2   3   2 40673.0 1362.40   8
  -2  -3  -3 104129. 2148.86   3
   2   3   3 103283. 2165.65   8
   2   3   4 111124. 2178.42   3
   2   3   4 113356. 2300.09   8
  -2  -3  -4 118693. 2344.14   3
  -2  -3  -5 943.401 250.098   3
   2   3   5 250.441 194.621   8
   2   3   5 869.246 128.323   4
   2   3   5 782.666 200.717   3
  -2  -3  -5 643.619 114.042   7
   2   3   6 98941.5 1417.87   4
  -2  -3  -6 93066.3 2206.94   3
   2   3   6 93220.6 2052.43   3
   2   3   6 93852.3 2230.16   8
  -2  -3  -6 89948.7 1095.43   7
  -2  -3  -6 91262.6 2056.00   2
  -2  -3  -7 6252.66 599.023   3
   2   3   7 6264.90 626.265   8
  -2  -3  -7 5501.09 663.471   1
   2   3   7 4949.41 364.772   4
   2   3   7 5579.76 522.351   3
  -2  -3  -7 5901.08 607.131   2
  -2  -3  -8 24615.2 1202.81   3
   2   3   8 23018.0 1076.38   3
   2   3   8 20879.2 1178.40   8
   2   3   8 21297.8 829.995   4
   2   3   9 949.711 251.003   3
  -2  -3  -9 657.741 211.215   3
   2   3   9 641.794 185.871   4
   2   3   9 891.414 339.275   1
  -2  -3 -10 7513.17 700.378   3
  -2  -3 -10 6760.28 838.470   2
   2   3  10 7977.87 672.316   3
   2   3  10 6376.26 791.278   1
  -2  -3 -11-163.133 141.743   3
  -2  -3 -11 78.8744 206.635   2
   2   3  11-42.9923 133.816   4
   2   3  11 182.402 266.525   1
  -2  -3 -12 17016.3 1111.39   3
   2   3  12 17293.4 1395.33   1
  -2  -3 -13 147.914 261.517   5
   2   3  13 139.198 314.762   1
  -2  -3 -14 11338.3 1517.46   5
   2   3  14 14209.5 1384.59   1
  -2  -3 -15-265.554 335.096   5
  -2  -4  11 755.188 443.197   2
   2   4 -11-60.7112 450.588   4
  -2  -4  10 10485.5 1271.70   2
   2   4 -10 9329.79 1299.98   4
   2   4  -9 2124.29 601.701   4
  -2  -4   9 1829.47 549.997   2
  -2  -4   8 13410.5 1306.01   2
   2   4  -8 15689.9 1520.25   4
  -2  -4   8 13756.3 994.150   6
  -2  -4   7 6036.42 869.185   2
   2   4  -7 5497.08 500.351   3
  -2  -4   7 4771.31 525.906   5
   2   4  -7 5464.60 878.815   4
  -2  -4   7 5214.36 570.037   6
  -2  -4   6 2686.96 549.498   2
  -2  -4   6 2310.78 354.300   6
  -2  -4   6 2705.03 383.330   5
   2   4  -6 2272.49 338.187   3
   2   4  -6 2128.14 521.273   4
  -2  -4   5 1892.87 460.389   2
  -2  -4   5 1625.18 303.906   5
   2   4  -5 1533.20 290.899   3
   2   4  -5 2226.55 545.516   4
  -2  -4   5 2777.26 358.628   6
  -2  -4   4 5665.10 544.229   5
  -2  -4   4 5025.30 667.560   2
   2   4  -4 5028.73 696.850   4
  -2  -4   4 4275.89 629.599   8
   2   4  -4 5036.58 508.065   3
  -2  -4   4 5310.30 513.278   3
  -2  -4   4 4987.61 432.981   6
   2   4  -3 4.44949 194.620   8
  -2  -4   3 214.125 108.113   6
  -2  -4   3-16.5740 202.561   2
  -2  -4   3 240.695 168.913   3
  -2  -4   3-61.8706 140.322   5
   2   4  -3 15.8286 97.5895   3
   2   4  -3 39.8731 207.404   4
   2   4  -3 159.869 113.117   6
   2   4  -2 74490.6 1918.67   3
  -2  -4   2 81006.7 1982.33   5
  -2  -4   2 81871.4 2344.25   2
   2   4  -2 79846.4 2420.19   8
   2   4  -2 84016.9 2361.47   4
   2   4  -2 79859.0 1415.23   6
  -2  -4   2 84763.6 2030.03   3
  -2  -4   2 81739.7 1418.09   6
   2   4  -1 52717.6 1898.10   8
   2   4  -1 49937.5 1558.00   3
  -2  -4   1 57083.4 1847.63   2
   2   4  -1 53003.5 1713.86   4
   2   4  -1 51948.9 1048.81   6
  -2  -4   1 51913.1 1593.28   3
   2   4   0 287027. 3740.68   3
   2   4   0 302575. 4340.15   8
   2   4   0 297631. 3670.12   4
   2   4   0 293019. 2565.22   6
  -2  -4   0 298095. 3813.30   3
  -2  -4  -1 38749.6 1392.94   3
   2   4   1 37747.5 1155.82   4
   2   4   1 36495.9 1488.40   8
   2   4   1 37935.5 1030.10   6
  -2  -4  -2 15285.9 894.743   3
   2   4   2 14878.0 946.253   8
   2   4   2 14237.1 612.144   4
  -2  -4  -3 7184.02 634.455   3
   2   4   3 7136.51 644.800   8
   2   4   3 6687.62 355.470   4
  -2  -4  -4 23297.5 1144.70   3
   2   4   4 21698.8 1134.30   8
   2   4   5 1448.71 352.101   8
   2   4   5 1771.30 320.364   3
  -2  -4  -5 1638.11 329.831   3
  -2  -4  -6 7966.98 718.516   3
   2   4   6 7812.59 252.965   4
   2   4   6 7932.80 660.440   3
   2   4   6 6694.57 674.434   8
  -2  -4  -6 6930.20 235.562   7
  -2  -4  -7 4114.37 537.148   3
   2   4   7 4382.03 513.862   3
  -2  -4  -7 4656.25 611.656   1
   2   4   7 3588.15 525.311   8
   2   4   7 3852.17 235.784   4
  -2  -4  -8 16835.1 1095.56   3
   2   4   8 15921.1 985.490   3
   2   4   8 15086.4 1088.37   8
  -2  -4  -8 14481.7 1149.23   1
  -2  -4  -9 9986.65 859.342   3
   2   4   9 10514.2 818.712   3
   2   4   9 9694.07 900.860   8
  -2  -4  -9 9399.74 929.790   2
  -2  -4 -10 20642.2 1252.79   3
   2   4  10 20990.6 1184.80   3
   2   4  10 21079.4 1380.40   8
  -2  -4 -10 18610.3 1413.49   2
  -2  -4 -11 286.613 288.870   2
  -2  -4 -11 1543.26 359.592   3
   2   4  11 1533.28 433.402   8
  -2  -4 -12 21620.0 1321.38   3
   2   4  12 22361.3 1549.34   8
  -2  -4 -13-15.7416 113.215   3
   2   4  13 539.516 287.472   8
  -2  -4 -14 3601.46 849.539   5
   2   4  14 4300.95 756.820   8
  -2  -5  10 3544.04 803.238   2
   2   5 -10 4028.79 897.125   4
   2   5  -9-386.234 339.155   4
  -2  -5   9-68.4721 301.840   2
   2   5  -8 3932.12 845.966   4
  -2  -5   8 4517.04 810.788   2
  -2  -5   7-219.330 329.183   2
  -2  -5   7 230.415 135.633   6
  -2  -5   7 511.944 220.437   5
   2   5  -7 184.411 287.998   4
   2   5  -7 43.9937 82.3857   3
  -2  -5   6 13925.6 1243.12   2
   2   5  -6 11847.3 814.413   3
  -2  -5   6 13342.0 956.987   5
   2   5  -6 12549.1 1284.61   4
  -2  -5   6 14595.0 831.912   6
  -2  -5   5 838.354 252.285   5
  -2  -5   5 1059.47 218.721   6
  -2  -5   5 1018.25 333.649   2
  -2  -5   5 984.194 270.199   3
   2   5  -5 846.513 353.863   4
  -2  -5   4 10869.1 1020.86   2
  -2  -5   4 10873.7 848.785   5
   2   5  -4 11575.5 1102.70   4
  -2  -5   4 9860.83 744.424   3
  -2  -5   4 10673.7 572.437   6
  -2  -5   3 11348.5 871.508   5
  -2  -5   3 11268.8 982.462   2
  -2  -5   3 11455.3 516.938   6
  -2  -5   3 12203.5 1063.42   8
   2   5  -3 10376.0 961.834   4
   2   5  -3 11326.3 1049.66   8
  -2  -5   3 10507.4 777.636   3
  -2  -5   2 91786.2 2426.30   5
  -2  -5   2 97108.9 2771.61   2
   2   5  -2 95943.7 2876.22   8
  -2  -5   2 99540.3 2862.74   8
   2   5  -2 93548.6 2625.56   4
  -2  -5   2 93769.2 2308.90   3
  -2  -5   1 2241.97 388.847   5
  -2  -5   1 2671.42 503.587   2
  -2  -5   1 2441.23 412.534   3
   2   5  -1 2226.81 473.589   8
   2   5  -1 3306.95 500.767   4
   2   5  -1 2133.70 181.469   6
  -2  -5   0 22562.0 1154.27   3
   2   5   0 21740.7 1302.68   8
   2   5   0 21167.1 1035.35   4
   2   5   0 21461.5 621.592   6
  -2  -5  -1 9662.34 771.520   3
   2   5   1 9739.59 760.773   3
   2   5   1 9100.92 839.210   8
   2   5   1 9649.08 640.626   4
   2   5   1 9379.22 492.009   6
  -2  -5  -2 136303. 2909.01   3
   2   5   2 130476. 2003.90   4
   2   5   2 135142. 3122.10   8
  -2  -5  -3 8653.83 759.244   3
   2   5   3 8217.76 782.150   8
   2   5   3 8719.64 431.156   4
   2   5   4 1251.17 112.072   4
  -2  -5  -4 1219.97 329.131   3
   2   5   4 1023.05 312.401   8
  -2  -5  -5 600.496 273.917   3
   2   5   5 254.326 123.085   3
   2   5   5 433.659 246.440   8
  -2  -5  -6 35605.0 1632.70   3
   2   5   6 35572.1 1538.25   3
  -2  -5  -6 35828.6 619.000   7
   2   5   6 37043.3 1694.51   8
  -2  -5  -6 36189.8 1573.73   1
  -2  -5  -7 9269.87 859.119   1
   2   5   7 10497.4 854.685   3
   2   5   7 9619.13 896.376   8
  -2  -5  -7 9766.27 885.432   3
  -2  -5  -8 60702.4 2219.27   3
   2   5   8 59256.9 2054.09   3
   2   5   8 56410.5 2213.92   8
  -2  -5  -8 56012.9 2049.24   2
  -2  -5  -9 20097.2 1305.72   3
   2   5   9 22180.6 1286.19   3
  -2  -5  -9 19835.5 1339.01   2
   2   5   9 20397.9 1389.47   8
  -2  -5 -10 5532.36 716.750   3
   2   5  10 6328.62 710.443   3
   2   5  10 5496.00 755.679   8
  -2  -5 -10 5519.44 780.464   2
   2   5  11 157.315 262.060   8
  -2  -5 -11-101.844 159.915   3
  -2  -5 -12 1407.52 386.382   3
   2   5  12 1622.38 469.262   8
  -2  -5 -13 163.998 172.022   3
   2   5  13 469.661 300.828   8
  -2  -6   9 157.411 189.131   2
   2   6  -9 340.065 354.225   4
  -2  -6   8 5110.97 879.389   2
   2   6  -8 6074.92 1040.75   4
  -2  -6   7 2992.05 655.579   2
   2   6  -7 3211.54 751.866   4
   2   6  -6 7827.47 1082.95   4
  -2  -6   6 9531.08 1084.32   2
  -2  -6   6 7162.66 770.451   5
  -2  -6   5 826.155 161.600   6
  -2  -6   5 316.166 266.555   2
  -2  -6   5 393.796 208.107   5
  -2  -6   5 846.759 259.721   3
   2   6  -5 560.549 329.138   4
   2   6  -4 20938.7 1206.26   3
  -2  -6   4 23714.2 1397.20   5
   2   6  -4 20617.7 1505.98   4
  -2  -6   4 23529.6 1571.03   2
  -2  -6   4 24280.3 1250.97   3
  -2  -6   4 24211.5 595.746   6
  -2  -6   3 148.381 231.640   2
  -2  -6   3 204.400 195.642   5
  -2  -6   3 356.478 197.857   3
   2   6  -3 205.054 239.743   8
   2   6  -3 258.347 182.182   3
   2   6  -3 290.943 201.372   4
  -2  -6   2 76.7189 163.469   3
  -2  -6   2 73.1359 164.459   5
   2   6  -2-8.66069 246.442   8
  -2  -6   2 62.8129 265.901   2
   2   6  -2 150.476 136.129   3
   2   6  -2-31.9614 204.826   4
   2   6  -1 2694.81 446.651   3
  -2  -6   1 2166.10 435.489   5
  -2  -6   1 2076.40 404.058   3
   2   6  -1 2919.66 578.429   8
  -2  -6   1 2382.55 463.723   8
  -2  -6   1 2869.21 521.515   2
   2   6  -1 2761.13 461.058   4
  -2  -6   0 94279.3 2555.39   3
   2   6   0 91435.0 2523.48   3
  -2  -6   0 94279.5 2755.81   8
   2   6   0 92090.3 2909.04   8
   2   6   1 464.299 118.139   6
  -2  -6  -1 310.784 207.874   8
   2   6   1 406.626 199.147   3
   2   6   1 230.896 247.632   8
   2   6   1 41.0480 127.740   4
  -2  -6  -1 38.9964 186.124   3
  -2  -6  -2 27470.0 1434.26   3
   2   6   2 32110.5 1686.30   8
   2   6   2 32178.3 1509.88   3
  -2  -6  -2 32202.1 1502.10   8
   2   6   2 29748.4 1034.27   4
  -2  -6  -3-45.6030 159.552   8
  -2  -6  -3-88.3032 217.459   3
   2   6   3-101.512 159.341   3
   2   6   3-143.250 250.293   8
   2   6   3-47.9690 88.5999   4
  -2  -6  -4 34411.6 1656.54   3
   2   6   4 32012.7 1532.27   3
   2   6   4 30734.1 1669.11   8
  -2  -6  -4 31567.6 1446.10   8
   2   6   4 29704.8 603.945   4
  -2  -6  -5 554.235 146.814   7
  -2  -6  -5 558.431 263.984   3
   2   6   5 801.166 329.316   8
  -2  -6  -5 933.605 276.952   8
   2   6   5 545.915 237.345   3
  -2  -6  -6 111034. 3099.09   3
   2   6   6 112009. 2959.00   3
   2   6   6 104380. 3144.36   8
  -2  -6  -6 104907. 1367.38   7
  -2  -6  -7 5517.23 732.279   3
   2   6   7 4990.77 720.061   8
  -2  -6  -8 9874.67 968.079   3
   2   6   8 10490.1 1046.42   8
  -2  -6  -9 6235.56 795.217   3
   2   6   9 5392.30 790.294   8
  -2  -6  -9 5942.84 745.689   2
   2   6  10 3510.67 658.727   8
  -2  -6 -10 3452.00 615.301   3
   2   6  11 2925.22 622.420   8
  -2  -6 -11 2911.24 561.886   3
  -2  -6 -12 7611.93 923.888   3
   2   6  12 7810.55 1008.58   8
  -2  -6 -13 479.233 252.254   3
   2   6  13 84.1176 276.826   8
  -2  -7   8 2684.64 678.125   2
   2   7  -8 1826.17 643.491   4
  -2  -7   7 8793.16 1151.98   2
   2   7  -7 7310.04 1131.88   4
  -2  -7   6 6395.14 939.420   2
   2   7  -6 6029.16 960.497   4
  -2  -7   6 6627.01 665.247   3
  -2  -7   5 2430.80 581.090   2
  -2  -7   5 2113.13 388.331   3
   2   7  -5 2036.13 410.947   3
   2   7  -5 3492.20 710.025   4
   2   7  -4 5768.58 709.309   3
  -2  -7   4 7007.93 932.069   2
   2   7  -4 7726.65 969.761   4
  -2  -7   4 6177.31 689.166   3
  -2  -7   3 474.694 240.401   5
  -2  -7   3 171.667 240.796   2
  -2  -7   3 425.793 219.744   3
   2   7  -3 445.011 340.152   8
   2   7  -3 532.509 262.573   3
   2   7  -3 676.692 330.371   4
   2   7  -2 12968.1 1248.51   8
   2   7  -2 12349.0 1018.44   3
  -2  -7   2 12320.0 1109.55   5
  -2  -7   2 11459.3 1106.87   2
   2   7  -2 13808.6 1107.86   4
  -2  -7   2 12912.0 1005.07   3
  -2  -7   1 700.989 312.031   5
   2   7  -1 1027.53 332.351   4
   2   7  -1 931.883 300.622   3
   2   7  -1 1015.01 366.306   8
  -2  -7   1 1660.81 378.100   3
  -2  -7   1 1038.85 366.509   2
  -2  -7   0 13986.4 1078.58   3
   2   7   0 12477.2 1027.63   3
   2   7   0 12092.2 1160.20   8
   2   7   0 13255.1 923.726   4
   2   7   1 709.458 98.0355   6
  -2  -7  -1 505.411 306.380   3
   2   7   1 528.188 87.7454   6
   2   7   1 546.762 336.852   8
   2   7   1 420.301 260.637   3
   2   7   1 346.294 173.424   4
   2   7   2 20915.9 777.077   6
  -2  -7  -2 25039.7 1484.15   3
   2   7   2 24107.3 1615.21   8
   2   7   2 24744.7 1438.71   3
   2   7   2 22361.8 959.457   4
  -2  -7  -3 4467.35 653.488   3
   2   7   3 4196.40 368.122   4
   2   7   3 4814.54 739.533   8
  -2  -7  -4 50695.3 2154.41   3
   2   7   4 47171.4 2269.99   8
  -2  -7  -4 45227.7 1429.39   7
  -2  -7  -5 16112.2 1240.61   3
  -2  -7  -5 14699.8 738.768   7
   2   7   5 16851.4 1375.57   8
  -2  -7  -6 854.604 383.779   3
  -2  -7  -6 796.141 149.786   7
   2   7   6 522.449 351.550   8
  -2  -7  -7 24957.9 1603.52   3
   2   7   7 23519.4 1647.09   8
  -2  -7  -8 33804.4 1881.16   3
   2   7   8 31394.7 1932.91   8
  -2  -7  -9-96.4591 247.712   3
   2   7   9-50.8188 250.648   8
  -2  -7 -10 13515.2 1246.87   3
   2   7  10 14814.3 1389.69   8
  -2  -7 -11 1546.10 456.244   3
   2   7  11 1438.55 516.880   8
  -2  -7 -12 7016.56 923.807   3
   2   7  12 5811.00 923.957   8
  -2  -7 -13 178.864 203.470   3
  -2  -7 -14 4645.13 761.858   3
  -2  -8   7 1003.54 460.437   2
   2   8  -7 821.040 390.386   4
  -2  -8   6 2713.17 660.265   2
   2   8  -6 1807.60 595.988   4
  -2  -8   5 1882.14 547.756   2
  -2  -8   5 2527.60 456.814   3
   2   8  -5 1822.49 556.011   4
  -2  -8   4 10126.3 1179.95   2
   2   8  -4 9290.98 1107.92   4
  -2  -8   4 10080.4 932.694   3
   2   8  -3 477.229 299.269   4
   2   8  -3 674.877 401.016   8
  -2  -8   3 700.427 377.501   2
  -2  -8   3 929.823 355.545   3
  -2  -8   2 12080.1 1066.82   3
   2   8  -2 13614.7 1381.35   8
  -2  -8   2 12548.5 1256.56   2
   2   8  -2 10852.8 1036.55   4
  -2  -8   1 16302.0 1243.44   3
   2   8  -1 21169.5 1679.73   8
  -2  -8   1 20489.8 1586.82   2
   2   8  -1 17587.6 1226.27   4
   2   8   0 2375.95 446.817   4
  -2  -8   0 2062.66 494.153   3
   2   8   0 2050.13 543.362   8
  -2  -8  -1 19450.0 1369.10   3
   2   8   1 18880.0 1064.16   4
   2   8   1 18184.8 1526.11   8
  -2  -8  -1 19038.7 1250.43   7
  -2  -8  -2 46755.9 2150.26   3
  -2  -8  -2 42807.8 1780.36   7
   2   8   2 46659.7 2412.23   8
   2   8   2 45753.8 1472.24   4
   2   8   2 45931.0 1038.21   6
   2   8   2 46708.3 1015.20   6
   2   8   3 1384.18 248.951   6
  -2  -8  -3 1297.82 441.921   3
   2   8   3 1624.40 458.860   8
  -2  -8  -3 1688.10 351.704   7
   2   8   3 1140.52 225.575   4
   2   8   4 1282.02 269.269   6
  -2  -8  -4 2287.15 547.580   3
   2   8   4 1258.76 464.067   8
  -2  -8  -5 12.0419 333.881   3
   2   8   5-25.5817 242.057   8
  -2  -8  -5 114.768 105.184   7
   2   8   6 13022.7 1310.77   8
  -2  -8  -6 13522.8 685.511   7
  -2  -8  -6 16162.6 1344.41   3
   2   8   6 13174.1 950.818   6
  -2  -8  -7 3968.34 688.848   3
   2   8   7 4267.32 772.627   8
  -2  -8  -7 3677.65 252.484   7
   2   8   7 4027.89 563.806   6
  -2  -8  -8 16500.5 1400.04   3
   2   8   8 15037.2 1455.07   8
  -2  -8  -9 1312.90 445.548   3
   2   8   9 1256.34 447.832   8
  -2  -8 -10 6665.75 933.531   3
   2   8  10 5908.01 954.959   8
  -2  -8 -11 227.363 261.381   3
   2   8  11 202.667 202.814   8
   2   8  12 8956.69 1209.47   8
  -2  -8 -12 6901.03 966.740   3
  -2  -8 -13 90.3439 232.066   3
  -2  -8 -14 3004.77 640.366   3
   2   9  -6 927.645 439.546   4
  -2  -9   5 2119.38 597.623   2
   2   9  -5 1179.76 477.581   4
  -2  -9   4 4637.32 691.027   3
  -2  -9   4 5067.79 929.179   2
   2   9  -4 4014.17 764.107   4
  -2  -9   3 747.608 331.170   3
   2   9  -3 1199.08 477.646   8
   2   9  -3 525.278 325.562   4
  -2  -9   3 468.076 325.533   2
  -2  -9   2 4772.27 732.116   3
   2   9  -2 5946.99 972.858   8
  -2  -9   2 4908.48 870.924   2
   2   9  -2 4622.66 725.160   4
  -2  -9   1 6847.26 877.526   3
   2   9  -1 7831.01 1112.07   8
  -2  -9   1 8079.59 1074.79   2
   2   9  -1 7307.87 825.688   4
  -2  -9   0 18084.9 1403.05   3
   2   9   0 19453.1 1235.04   4
   2   9   0 18100.4 1635.33   8
   2   9   1-150.650 345.603   8
   2   9   1-46.4046 157.551   4
  -2  -9  -1-135.968 288.335   3
  -2  -9  -2 1935.75 477.034   3
   2   9   2 2209.30 614.145   8
   2   9   2 2638.84 395.164   4
   2   9   3 3770.20 412.569   4
  -2  -9  -3 4446.79 585.465   7
   2   9   3 3033.35 714.133   8
  -2  -9  -3 3942.64 716.578   3
  -2  -9  -4 17024.2 1422.56   3
   2   9   4 12706.3 1382.51   8
  -2  -9  -4 14804.9 1002.10   7
   2   9   4 13827.0 862.422   6
  -2  -9  -5 4155.52 721.445   3
  -2  -9  -5 3677.62 460.691   7
   2   9   5 2971.89 694.195   8
   2   9   6 3166.04 488.629   6
  -2  -9  -6 2991.09 632.429   3
   2   9   6 2752.94 672.085   8
   2   9   7 6901.18 1049.70   8
  -2  -9  -7 4821.16 804.815   3
  -2  -9  -8 8323.51 1059.07   3
   2   9   8 7392.85 1102.98   8
  -2  -9  -9 410.682 304.416   3
   2   9   9-9.54232 204.116   8
  -2  -9 -10 3719.74 737.800   3
   2   9  10 2089.73 619.554   8
  -2  -9 -11 2301.86 597.142   3
   2   9  11 1813.26 567.512   8
  -2  -9 -12-98.1593 219.427   3
   2  10  -4 1701.19 557.257   4
  -2 -10   3-321.167 315.073   3
  -2 -10   3-600.940 375.058   2
   2  10  -3 286.151 274.998   8
   2  10  -3-76.7144 225.913   4
   2  10  -2 6792.43 898.529   4
   2  10  -2 7065.55 1125.84   8
  -2 -10   2 7247.72 1134.07   2
  -2 -10   2 7045.44 941.081   3
  -2 -10   1 2335.98 636.705   2
  -2 -10   1 1820.66 520.136   3
   2  10  -1 2316.13 631.070   8
   2  10  -1 1779.91 444.438   4
  -2 -10   0 1723.23 499.812   3
   2  10   0 1742.23 410.098   4
   2  10   0 1327.76 561.576   8
  -2 -10  -1 14713.2 1362.48   3
   2  10   1 14209.4 1553.46   8
   2  10   1 16004.5 1087.49   4
  -2 -10  -2 19340.9 1577.30   3
   2  10   2 16964.4 1698.31   8
   2  10   2 19697.5 1087.28   4
  -2 -10  -3 2158.44 567.955   3
   2  10   3 900.445 424.355   8
  -2 -10  -4 14724.6 1407.59   3
   2  10   4 15304.2 1626.69   8
   2  10   5 1094.20 456.489   8
  -2 -10  -5 291.152 337.520   3
  -2 -10  -6 4617.17 839.991   3
   2  10   6 4485.87 941.447   8
  -2 -10  -7-10.1851 253.887   3
   2  10   7-183.765 318.378   8
  -2 -10  -8 7110.68 1045.39   3
   2  10   8 5809.07 1035.23   8
  -2 -10  -9 200.892 247.554   3
   2  10   9 409.021 305.540   8
   2  11  -3-482.265 312.004   4
   2  11  -2 2205.83 552.690   4
  -2 -11   2 2529.71 611.423   3
   2  11  -1-58.5765 181.923   4
  -2 -11   1 448.027 349.610   3
   2  11  -1-11.2055 148.713   8
  -2 -11   0 5505.70 888.808   3
   2  11   0 5597.16 736.324   4
   2  11   0 4734.69 965.288   8
   2  11   1-499.863 391.330   8
  -2 -11  -1 76.6743 194.303   3
  -2 -11  -2 5947.73 942.882   3
   2  11   2 6350.14 1103.64   8
  -2 -11  -3 980.099 430.470   3
   2  11   3 1121.02 499.490   8
  -2 -11  -4 4124.79 794.069   3
   2  11   4 4263.26 970.586   8
  -2 -11  -5 326.836 316.542   3
   2  11   5 830.406 479.982   8
  -2 -11  -6 4634.08 864.898   3
   2  11   6 4719.06 999.612   8
   2  11   7-88.5469 411.200   8
   3 -11   1 5079.08 906.073   3
   3 -11   2-229.494 256.345   3
  -3  10   7 1636.14 570.917   8
  -3  10   6 264.087 256.237   8
  -3  10   5 6124.72 964.393   8
  -3  10   4-115.097 157.839   8
   3 -10  -4-9.28424 250.552   3
  -3  10   3 1692.95 471.008   8
   3 -10  -3 2752.16 673.848   3
  -3  10   2 646.895 273.863   8
   3 -10  -2 693.930 406.180   3
   3 -10  -1 5993.06 982.675   3
   3 -10   0-10.1799 191.801   3
   3 -10   1 6628.14 971.554   3
   3 -10   2 313.193 233.261   3
   3 -10   3 663.667 330.935   3
   3 -10   5 253.164 295.309   2
  -3   9  10 1052.51 426.042   8
  -3   9   9 3533.63 775.436   8
  -3   9   8-247.375 286.652   8
   3  -9  -7 8172.72 1161.50   3
  -3   9   7 5399.31 906.056   8
  -3   9   6 621.925 347.894   8
   3  -9  -6 730.412 409.965   3
   3  -9  -5 9088.97 1189.52   3
  -3   9   5 8671.78 1075.64   8
  -3   9   5 7758.72 788.686   7
   3  -9  -4 1729.44 538.542   3
  -3   9   4 1564.89 479.813   8
  -3   9   4 2034.35 462.497   7
   3  -9  -3 18154.5 1621.14   3
  -3   9   3 18558.4 1428.04   8
  -3   9   3 16731.3 1248.19   7
   3  -9  -2 2699.88 472.201   6
  -3   9   2 2632.36 523.474   8
   3  -9  -2 3044.72 670.170   3
  -3   9   2 2195.05 489.617   7
   3  -9  -1 13136.3 1329.40   3
  -3   9   1 12999.8 1098.00   8
  -3   9   1 11694.0 1125.88   7
   3  -9  -1 12604.5 945.770   6
   3  -9   0 93.8040 152.519   6
  -3   9   0-360.240 227.429   8
   3  -9   0 453.014 345.519   3
  -3   9   0 57.8155 218.704   7
   3  -9   1 8571.35 1048.58   3
  -3   9  -1 8100.73 844.959   8
  -3   9  -2 1038.15 357.011   8
   3  -9   2-18.4335 204.155   3
   3  -9   3 2573.78 567.470   3
   3  -9   4 155.651 216.912   3
   3  -9   5 7307.72 1025.90   2
   3  -9   6-195.904 346.609   2
   3  -9   7 2175.89 592.659   2
  -3   8  10-73.5990 272.960   8
   3  -8  -9 10151.3 1240.71   3
  -3   8   9 8454.68 1097.39   8
  -3   8   8 728.052 407.842   8
   3  -8  -8 458.205 267.470   3
   3  -8  -7 7789.98 1084.45   3
  -3   8   7 7804.99 1019.88   8
  -3   8   6 512.235 230.885   8
   3  -8  -6 1384.60 529.705   3
  -3   8   6 1143.17 318.520   7
   3  -8  -5 17201.7 1540.88   3
  -3   8   5 16349.4 1097.52   7
  -3   8   5 17558.8 1431.07   8
   3  -8  -4 158.974 259.393   6
  -3   8   4-117.883 190.231   8
   3  -8  -4 540.417 375.717   3
  -3   8   4-172.292 175.953   7
   3  -8  -3 18950.8 1245.17   4
   3  -8  -3 18778.9 1567.93   3
  -3   8   3 18223.9 1237.19   7
  -3   8   3 19359.1 1356.69   8
   3  -8  -3 18213.3 1227.78   6
   3  -8  -2 7390.71 751.995   6
   3  -8  -2 6949.29 961.554   3
  -3   8   2 6526.92 780.439   7
  -3   8   2 7016.30 781.901   8
  -3   8   2 7547.81 853.772   6
  -3   8   1 3578.37 564.102   6
  -3   8   1 3502.49 539.832   8
   3  -8  -1 3980.65 708.664   3
  -3   8   1 3445.75 562.646   7
   3  -8  -1 4725.03 576.222   6
   3  -8   0 70.3708 187.208   6
  -3   8   0-64.9353 149.947   8
  -3   8   0-41.0377 166.067   6
   3  -8   0-94.4932 279.465   3
   3  -8   0-253.725 119.904   8
  -3   8   0-5.67629 231.059   7
  -3   8  -1 23666.0 1582.15   7
   3  -8   1 23328.8 1614.89   3
  -3   8  -1 25822.8 1370.26   8
   3  -8   1 25342.3 1220.82   6
   3  -8   2-147.592 137.851   6
  -3   8  -2 25.7854 152.355   8
   3  -8   2-54.5556 218.071   3
  -3   8  -2-88.7217 218.900   7
   3  -8   3 30956.9 1769.72   3
   3  -8   3 32080.9 1285.66   6
   3  -8   4 109.545 205.019   3
   3  -8   5 5655.79 710.407   3
   3  -8   6 589.315 274.365   2
   3  -8   7 18560.9 1562.78   2
   3  -8   8 164.652 237.174   2
   3  -7 -11 2263.59 606.096   3
  -3   7  11 1698.74 543.372   8
  -3   7  10 648.610 301.268   8
   3  -7 -10 956.509 440.189   3
   3  -7  -9 9190.27 1139.07   3
  -3   7   9 8480.15 1020.08   8
   3  -7  -8 3683.65 720.141   3
  -3   7   8 4033.74 707.908   8
   3  -7  -7 6118.80 901.492   3
  -3   7   7 5079.57 759.095   8
  -3   7   7 4950.49 555.659   7
  -3   7   6 3291.54 604.050   8
   3  -7  -6 3043.68 638.526   3
  -3   7   6 3178.06 458.435   7
   3  -7  -5 11081.7 1037.80   6
   3  -7  -5 11309.4 1193.73   3
  -3   7   5 12066.8 899.313   7
  -3   7   5 10456.4 1019.85   8
   3  -7  -4 15568.6 1370.89   3
  -3   7   4 13839.2 1125.33   8
  -3   7   4 14430.9 1023.75   7
   3  -7  -4 15465.8 1165.00   6
   3  -7  -3 2902.61 503.374   6
  -3   7   3 2407.92 498.176   6
   3  -7  -3 3268.49 424.540   1
  -3   7   3 2974.81 507.584   8
   3  -7  -3 2531.83 448.423   4
   3  -7  -3 3242.66 682.981   3
  -3   7   3 3106.90 493.589   7
   3  -7  -2 38.6582 172.084   6
  -3   7   2-69.5187 158.711   6
  -3   7   2 511.615 228.210   8
   3  -7  -2 351.808 197.856   4
   3  -7  -2 538.980 306.862   3
  -3   7   2 144.019 171.119   7
   3  -7  -2 818.662 244.149   7
   3  -7  -2 137.636 106.035   1
  -3   7   1 15830.6 1144.52   7
   3  -7  -1 18993.8 1451.49   3
   3  -7  -1 17350.6 1181.09   4
   3  -7  -1 16777.2 796.998   1
  -3   7   1 16321.6 1031.19   8
   3  -7  -1 16692.1 1069.18   6
  -3   7   1 15990.8 1139.13   6
   3  -7   0-58.5251 147.874   6
  -3   7   0-88.6387 123.774   6
  -3   7   0 38.0497 120.079   8
  -3   7   0-51.1326 193.517   7
   3  -7   0-449.492 165.183   8
   3  -7   0-386.733 256.764   3
  -3   7  -1 42660.0 1593.00   8
   3  -7   1 42886.9 2061.94   3
   3  -7   1 39910.7 1314.01   8
  -3   7  -1 40695.5 1931.24   7
   3  -7   1 43201.0 1596.39   6
   3  -7   2 2440.80 390.571   6
   3  -7   2 2299.82 334.880   8
  -3   7  -2 2098.00 367.571   8
   3  -7   2 2058.43 493.253   3
  -3   7  -2 2305.74 514.018   7
   3  -7   3 16906.1 1243.17   3
   3  -7   3 16870.3 946.619   8
  -3   7  -3 17403.4 1354.30   7
   3  -7   3 20573.2 1088.10   6
   3  -7   4 1820.72 341.228   6
   3  -7   4 1292.83 353.617   3
   3  -7   4 1058.32 265.053   8
  -3   7  -4 1316.73 419.767   7
   3  -7   5 12321.4 966.207   3
   3  -7   5 12615.2 882.151   6
   3  -7   6 309.819 140.899   6
   3  -7   6 107.299 185.641   2
   3  -7   6 117.913 167.420   3
  -3   7  -7 19536.8 1819.10   5
   3  -7   7 21276.1 1541.67   2
   3  -7   8-101.392 240.505   2
  -3   7  -8 442.075 375.975   5
   3  -7   9 7048.65 932.577   2
   3  -6 -12 1972.06 547.360   3
  -3   6  11 497.133 331.861   8
   3  -6 -11 625.466 335.902   3
  -3   6  10 431.416 275.742   8
   3  -6 -10 199.762 348.762   3
  -3   6   9 4217.60 679.057   8
   3  -6  -9 5082.22 613.662   4
   3  -6  -9 4811.35 806.234   3
  -3   6   8 87.5214 167.378   8
   3  -6  -8 524.107 334.091   3
  -3   6   8 179.439 123.453   7
   3  -6  -7 5424.13 818.758   3
  -3   6   7 5330.34 718.003   8
  -3   6   7 4849.97 529.307   7
   3  -6  -6 648.097 363.889   6
  -3   6   6 459.806 227.509   8
   3  -6  -6 722.318 339.016   3
  -3   6   6 464.023 198.144   7
   3  -6  -5-47.8782 233.967   6
  -3   6   5 335.677 242.762   8
   3  -6  -5 743.699 343.401   3
  -3   6   5 125.148 182.961   7
   3  -6  -4 36999.9 1953.83   5
   3  -6  -4 36365.8 1987.79   3
  -3   6   4 35576.3 1649.56   8
  -3   6   4 35000.4 1486.08   7
   3  -6  -4 35830.3 1737.62   6
  -3   6   4 36630.9 1901.48   6
   3  -6  -3 51353.6 2312.76   5
   3  -6  -3 49914.1 2308.99   3
  -3   6   3 50857.7 1841.17   7
   3  -6  -3 49429.2 1956.14   6
  -3   6   3 50663.3 1855.21   8
  -3   6   3 50306.0 2129.71   6
   3  -6  -2 5066.57 441.445   1
   3  -6  -2 5543.30 593.955   7
   3  -6  -2 6796.75 858.240   3
   3  -6  -2 5222.41 746.267   5
  -3   6   2 4931.22 555.959   8
  -3   6   2 4511.39 571.487   7
   3  -6  -2 6387.51 698.065   6
  -3   6   2 5904.01 699.441   6
   3  -6  -1 18027.1 745.242   1
  -3   6   1 18824.2 988.231   8
   3  -6  -1 19160.0 1378.34   3
   3  -6  -1 19047.7 1181.18   4
   3  -6  -1 19279.6 1453.98   5
   3  -6  -1 18112.7 1106.33   7
   3  -6  -1 17136.5 1065.13   6
  -3   6   1 17937.6 1169.55   6
  -3   6   1 19177.2 1184.68   7
   3  -6   0 123.865 155.025   6
  -3   6   0 274.472 173.144   6
  -3   6   0 278.263 162.491   8
   3  -6   0 159.911 146.336   4
  -3   6   0 94.8145 190.610   7
   3  -6   0 296.019 177.450   7
   3  -6   0 458.313 291.887   3
  -3   6  -1 6895.61 754.901   7
   3  -6   1 7664.86 516.050   8
   3  -6   1 7620.10 851.243   3
   3  -6   1 8356.77 821.510   4
  -3   6  -1 8177.95 617.235   8
   3  -6   1 9216.96 756.411   6
   3  -6   2 2364.06 312.186   8
  -3   6  -2 2557.22 489.898   7
  -3   6  -2 3059.03 385.994   8
   3  -6   2 3542.63 583.976   3
   3  -6   2 3263.76 456.496   6
   3  -6   3 9882.89 911.484   3
   3  -6   3 9410.17 652.034   8
   3  -6   3 9780.15 769.179   6
  -3   6  -3 9467.14 933.851   7
   3  -6   4 447.050 221.254   6
   3  -6   4 606.537 200.481   8
   3  -6   4 150.191 157.611   3
  -3   6  -4 640.117 291.379   7
   3  -6   5 196.342 134.758   6
  -3   6  -5 409.715 305.074   5
   3  -6   5 677.897 216.491   8
   3  -6   5 508.744 215.577   3
  -3   6  -5 52.0990 193.932   7
   3  -6   6-307.705 201.150   6
  -3   6  -6 324.497 344.112   5
   3  -6   6-639.931 228.393   8
   3  -6   6 119.703 214.571   2
   3  -6   6-148.960 166.456   3
   3  -6   7 8585.15 657.498   3
  -3   6  -7 8039.62 1134.08   5
   3  -6   7 9369.39 958.265   2
   3  -6   7 9953.15 889.453   6
   3  -6   8 573.409 279.270   6
   3  -6   8 578.953 300.120   2
  -3   6  -8 235.194 336.308   5
   3  -6   9 65035.4 2600.25   2
  -3   6  -9 67461.5 3500.18   5
  -3   6 -10-556.970 425.662   5
   3  -5 -12 420.892 203.643   3
  -3   5  12-167.270 216.585   1
   3  -5 -11 3488.77 653.416   3
  -3   5  11 3562.93 643.447   1
   3  -5 -10-214.523 238.051   3
  -3   5  10 56.2426 175.791   1
   3  -5 -10 40.2765 137.274   4
   3  -5  -9 5883.48 824.989   3
   3  -5  -9 7021.05 763.264   4
  -3   5   9 6066.70 563.238   7
  -3   5   9 6420.86 777.137   1
  -3   5   8-184.194 188.520   7
   3  -5  -8 19.0795 220.655   3
  -3   5   8-55.0132 217.327   1
   3  -5  -7 8705.87 991.252   3
  -3   5   7 8529.72 848.242   8
  -3   5   7 7675.30 646.996   7
   3  -5  -7 9478.72 1034.88   6
   3  -5  -6 24233.9 1574.79   3
  -3   5   6 21382.8 1267.84   8
  -3   5   6 21316.9 1084.52   7
   3  -5  -6 24499.7 1542.15   6
  -3   5   5 48018.1 1819.43   8
  -3   5   5 51756.6 1699.58   7
   3  -5  -5 51277.0 2145.36   6
   3  -5  -4 1143.08 339.382   6
  -3   5   4 973.003 353.845   6
  -3   5   4 1163.42 311.649   8
  -3   5   4 1029.70 274.911   7
   3  -5  -3 26906.7 1523.70   5
  -3   5   3 27296.2 1510.04   6
  -3   5   3 24722.2 1182.79   8
  -3   5   3 25465.4 1233.24   7
   3  -5  -3 25865.9 1461.40   2
   3  -5  -3 24985.5 1377.18   6
   3  -5  -2 2643.43 445.301   6
  -3   5   2 3036.79 496.072   6
   3  -5  -2 2701.86 505.622   5
  -3   5   2 1725.27 361.217   7
  -3   5   2 2230.11 345.530   8
  -3   5   1 2893.38 464.453   6
   3  -5  -1 3197.21 277.908   1
   3  -5  -1 3382.17 550.475   5
  -3   5   1 3465.56 376.736   8
  -3   5   1 3483.37 488.821   7
   3  -5  -1 3104.89 435.444   7
   3  -5  -1 3538.96 482.755   6
   3  -5   0 1244.59 307.037   6
   3  -5   0 1913.24 439.391   5
  -3   5   0 1601.37 254.273   8
   3  -5   0 1826.27 352.115   4
  -3   5   0 1838.48 382.336   7
   3  -5   0 1868.07 360.028   7
   3  -5   0 1866.35 194.017   1
   3  -5   1 2299.53 390.756   6
  -3   5  -1 1920.90 260.104   8
   3  -5   1 2768.63 508.551   5
   3  -5   1 1980.31 226.156   8
   3  -5   1 1624.77 361.531   4
  -3   5  -1 1657.27 374.853   7
   3  -5   1 2155.51 399.266   7
   3  -5   2 99.4310 154.053   6
   3  -5   2 258.806 175.218   4
   3  -5   2-141.335 184.847   5
   3  -5   2-59.3180 161.533   7
   3  -5   2 150.755 158.442   8
  -3   5  -2 20.8712 194.281   7
   3  -5   3 48811.5 1981.88   4
  -3   5  -3 46769.1 1932.82   7
  -3   5  -3 46867.7 2139.55   5
   3  -5   3 46828.5 1293.37   8
   3  -5   3 50171.6 1741.12   6
   3  -5   4 52.4871 134.399   6
  -3   5  -4-4.50087 268.753   5
   3  -5   4-245.589 127.240   8
  -3   5  -4-64.9126 238.484   7
   3  -5   4 269.375 150.436   3
   3  -5   5 2345.56 416.209   6
  -3   5  -5 2122.65 530.909   5
   3  -5   5 2257.66 380.930   3
  -3   5  -5 2080.04 486.690   7
   3  -5   5 2157.83 359.028   8
   3  -5   6-32.5709 170.553   6
   3  -5   6-105.033 199.741   2
   3  -5   6-89.5436 110.630   8
   3  -5   6-85.0085 130.392   3
  -3   5  -6 317.974 300.864   7
   3  -5   7 4832.06 646.318   8
   3  -5   7 5439.17 491.026   3
   3  -5   7 5700.31 679.503   2
  -3   5  -7 5779.59 898.217   5
   3  -5   7 5930.48 705.912   6
   3  -5   8 65.6010 193.366   6
   3  -5   8 1.18442 227.214   2
  -3   5  -8-2.18465 257.195   5
   3  -5   9 427.579 254.998   2
   3  -5   9 761.194 298.641   6
  -3   5  -9 1048.13 507.397   5
   3  -5  10-494.725 293.081   6
  -3   5 -10 296.115 400.607   5
   3  -5  10-485.110 289.765   2
  -3   5 -11 12508.3 1616.85   5
   3  -5  12-359.928 309.081   1
  -3   4  12-107.533 258.077   1
   3  -4 -12 367.874 253.343   3
   3  -4 -12 407.808 231.960   4
  -3   4  11 2199.02 541.524   1
   3  -4 -11 2258.79 515.149   4
   3  -4 -11 2729.43 563.067   3
   3  -4 -10 749.101 314.796   3
  -3   4  10 546.663 273.423   1
  -3   4  10 590.518 196.697   7
   3  -4 -10 507.797 249.816   4
  -3   4   9 18823.9 1312.32   1
   3  -4  -9 22092.3 1510.57   3
   3  -4  -9 20063.5 1299.94   4
  -3   4   9 19736.8 1014.95   7
  -3   4   8-22.0350 174.991   1
   3  -4  -8-188.252 258.690   3
  -3   4   8 43.5668 119.778   7
  -3   4   7 66001.8 1864.14   7
   3  -4  -7 72752.3 2739.78   6
  -3   4   7 66948.9 2188.93   1
   3  -4  -6-13.0098 306.270   6
  -3   4   6 39.4541 193.982   1
  -3   4   6 49.1953 167.091   7
   3  -4  -5 51.9962 191.935   6
  -3   4   5 215.964 166.844   6
  -3   4   5 163.693 175.396   7
  -3   4   5 194.866 199.716   1
  -3   4   4 4448.40 492.686   8
   3  -4  -4 3651.71 584.412   2
  -3   4   4 4822.53 530.740   7
   3  -4  -4 5122.15 636.365   6
  -3   4   4 5079.66 675.333   6
  -3   4   3 25263.2 1403.50   6
  -3   4   3 25631.1 1080.38   8
  -3   4   3 24120.8 1151.80   7
   3  -4  -3 24406.7 1355.09   2
   3  -4  -3 25745.5 1354.85   6
   3  -4  -2 6832.69 671.605   2
  -3   4   2 6233.14 499.936   8
  -3   4   2 6301.84 608.982   7
   3  -4  -2 6712.63 682.050   6
  -3   4   2 7276.51 714.720   6
  -3   4   1 75267.4 1507.89   8
  -3   4   1 76454.9 2102.24   7
   3  -4  -1 76634.8 2163.74   6
   3  -4   0 4469.90 592.680   5
   3  -4   0 4096.97 216.560   1
  -3   4   0 4202.13 320.996   8
  -3   4   0 4114.40 504.857   7
   3  -4   0 4283.20 488.474   7
   3  -4   0 4310.88 517.792   6
   3  -4   1 80403.4 2474.63   5
   3  -4   1 79752.7 1103.18   8
  -3   4  -1 80037.6 2257.55   7
   3  -4   1 80795.8 2158.33   7
  -3   4  -1 79134.3 1279.91   8
   3  -4   1 85991.0 2228.82   6
   3  -4   2 11066.4 475.711   8
  -3   4  -2 9380.57 869.513   5
   3  -4   2 10036.8 895.354   5
   3  -4   2 12415.4 909.353   4
  -3   4  -2 10886.3 865.948   7
   3  -4   2 11299.4 847.260   7
   3  -4   2 11537.6 825.054   6
   3  -4   3 95321.6 2782.39   5
   3  -4   3 95705.3 2603.04   4
  -3   4  -3 88706.2 2770.27   5
   3  -4   3 88542.0 2435.43   7
  -3   4  -3 89093.6 2509.91   7
   3  -4   3 86771.1 1563.46   8
   3  -4   3 93972.1 2336.26   6
   3  -4   4 122.465 133.941   6
  -3   4  -4-139.712 241.142   5
  -3   4  -4-36.6892 197.319   7
   3  -4   4 132.379 147.438   5
   3  -4   4 190.666 110.864   8
   3  -4   4 223.095 160.761   4
   3  -4   4-66.0615 149.496   7
   3  -4   5 10686.1 779.847   2
  -3   4  -5 10558.7 1061.30   5
   3  -4   5 10671.6 728.359   8
  -3   4  -5 12124.4 992.327   7
   3  -4   5 10845.9 865.579   6
   3  -4   6-27.7307 197.381   6
  -3   4  -6-24.5224 243.143   5
   3  -4   6-444.516 208.730   2
   3  -4   6 85.3909 109.851   8
  -3   4  -6 62.1101 169.815   7
   3  -4   6-77.4784 139.277   3
   3  -4   7 12693.8 984.136   8
  -3   4  -7 11422.5 1226.85   5
   3  -4   7 12601.0 906.371   2
   3  -4   7 11271.4 651.193   3
  -3   4  -7 11396.2 1046.29   7
   3  -4   7 12846.3 1052.58   6
   3  -4   8-107.097 154.396   2
   3  -4   8 24.1007 66.8208   3
  -3   4  -8 114.332 267.269   5
   3  -4   8 347.130 195.464   8
   3  -4   8-15.1587 80.6230   3
   3  -4   9 25143.0 1387.56   2
  -3   4  -9 25683.5 2017.94   5
  -3   4 -10 179.820 318.358   5
   3  -4  10 108.178 202.687   2
   3  -4  11 6774.01 792.827   2
  -3   4 -11 5382.57 1050.71   5
   3  -4  11 6369.84 883.932   1
  -3   4 -12 179.682 448.172   5
   3  -4  12 151.472 284.694   1
   3  -4  13 666.906 383.251   1
  -3   3  12 200.671 241.352   1
   3  -3 -12 404.704 289.992   4
   3  -3 -11 10151.6 983.531   3
  -3   3  11 7967.69 970.423   1
   3  -3 -11 8157.59 942.695   4
  -3   3  10 1443.86 383.115   1
   3  -3 -10 806.719 316.744   3
   3  -3 -10 598.831 286.339   4
   3  -3  -9 13239.1 1107.15   3
  -3   3   9 13063.5 1105.15   1
   3  -3  -9 12845.9 1086.99   4
  -3   3   8 3648.87 569.627   1
   3  -3  -8 3075.21 523.097   4
   3  -3  -7 4589.39 719.155   6
  -3   3   7 4923.00 614.117   1
  -3   3   6 6260.81 648.679   1
   3  -3  -6 7839.66 863.422   6
  -3   3   5 56269.6 1743.19   1
   3  -3  -5 58835.4 2185.21   6
  -3   3   5 60350.5 2300.22   6
  -3   3   4 4237.96 447.179   1
   3  -3  -4 4184.79 599.911   2
  -3   3   4 3627.22 445.592   7
   3  -3  -4 4717.55 610.204   6
  -3   3   4 3921.17 564.467   6
   3  -3  -3 123013. 2531.77   5
  -3   3   3 113251. 2436.98   7
   3  -3  -3 113308. 2853.65   2
   3  -3  -3 120806. 2829.53   6
  -3   3   3 120669. 2962.19   6
  -3   3   3 123262. 2083.39   1
   3  -3  -2 1819.22 367.103   6
  -3   3   2 1863.32 365.701   6
   3  -3  -2 1421.37 284.683   5
   3  -3  -2 1517.06 323.324   2
  -3   3   2 1548.29 311.868   7
  -3   3   2 1591.17 225.108   8
   3  -3  -1 100510. 2364.07   5
  -3   3   1 97044.8 1465.37   8
   3  -3  -1 98450.6 2243.64   2
  -3   3   1 101140. 2330.45   7
   3  -3  -1 104648. 2457.92   6
   3  -3   0 40377.0 1529.22   5
  -3   3   0 42780.8 751.561   8
  -3   3   0 40762.1 1491.62   7
  -3   3  -1 58839.6 1838.84   6
  -3   3  -1 58470.9 1870.76   5
  -3   3  -1 59797.3 1836.79   7
   3  -3   1 60983.8 1837.58   6
   3  -3   2 1626.51 344.555   6
  -3   3  -2 1235.87 341.446   5
   3  -3   2 1518.17 138.419   8
  -3   3  -2 1279.68 309.993   7
   3  -3   3 51823.7 1031.40   8
  -3   3  -3 53541.1 2008.72   5
   3  -3   3 55595.2 1952.95   5
  -3   3  -3 53307.0 1819.60   7
   3  -3   3 51794.2 1717.38   6
   3  -3   4-16.4706 164.523   6
  -3   3  -4-17.7119 209.620   5
   3  -3   4 164.937 103.549   8
  -3   3  -4 253.910 215.032   7
   3  -3   4-9.59677 133.537   7
   3  -3   5 104346. 2166.73   8
  -3   3  -5 105922. 3110.69   5
   3  -3   5 108225. 2929.47   5
   3  -3   5 115143. 2202.24   2
   3  -3   5 110138. 2826.35   4
  -3   3  -5 104507. 2708.44   7
   3  -3   5 106852. 2661.67   7
   3  -3   5 112098. 2732.14   6
  -3   3  -6-100.788 235.158   7
   3  -3   6-54.3032 139.973   2
  -3   3  -6 86.5779 254.283   5
   3  -3   6 589.197 244.051   5
   3  -3   6 59.8291 163.636   4
   3  -3   6 73.1715 107.989   8
   3  -3   6 116.449 140.862   7
   3  -3   7 15570.3 1048.92   8
   3  -3   7 15654.3 892.087   2
  -3   3  -7 16453.3 1385.73   5
  -3   3  -7 15505.4 1135.01   7
   3  -3   7 14696.6 724.024   3
   3  -3   8-105.796 146.736   2
   3  -3   8 19.5158 63.6132   3
  -3   3  -8-23.6579 298.484   5
   3  -3   8 34.9529 74.8291   3
  -3   3  -8-12.7442 188.591   7
   3  -3   8-619.629 235.051   8
   3  -3   9 14784.3 980.482   2
  -3   3  -9 13058.0 1396.44   5
   3  -3   9 13049.2 1151.72   8
   3  -3   9 13466.7 1118.05   1
   3  -3  10 188.444 277.623   1
   3  -3  10-12.2274 178.280   2
  -3   3 -10-148.123 405.587   5
  -3   3 -11 7972.89 1217.95   5
   3  -3  11 7490.78 929.588   1
   3  -3  11 7944.35 801.217   2
   3  -3  12 380.465 373.331   1
  -3   3 -12 452.615 417.595   5
  -3   3 -13 2643.69 823.473   5
   3  -3  13 3599.81 753.567   1
   3  -2 -13 4510.93 792.872   4
  -3   2  12 923.435 459.157   2
  -3   2  12 429.922 261.091   1
   3  -2 -12 817.925 323.257   4
  -3   2  11 1489.12 515.976   2
   3  -2 -11 2279.65 447.421   3
  -3   2  11 1713.81 501.342   1
   3  -2 -11 2374.79 557.647   4
  -3   2  10 1916.81 496.612   1
  -3   2  10 1190.80 420.248   2
   3  -2 -10 1554.74 373.608   3
   3  -2 -10 1545.78 325.220   5
   3  -2 -10 1720.97 464.229   4
  -3   2   9 551.098 277.457   1
  -3   2   9 275.591 309.197   2
   3  -2  -9 245.753 144.124   5
   3  -2  -9 715.569 332.634   4
  -3   2   8 6389.58 822.482   2
  -3   2   8 7118.73 798.650   1
   3  -2  -8 6763.42 786.570   4
  -3   2   7 87299.5 2552.03   1
  -3   2   7 88868.3 2894.57   2
   3  -2  -7 92749.2 3003.66   6
   3  -2  -6 19263.7 1484.52   2
  -3   2   6 20514.0 1165.66   1
  -3   2   6 23829.3 1438.58   2
   3  -2  -6 21441.5 1364.37   6
  -3   2   6 21400.9 1397.48   6
  -3   2   5 19123.5 1266.36   6
  -3   2   5 19825.8 1272.38   2
   3  -2  -5 19975.5 1250.43   6
   3  -2  -5 18561.9 1375.11   2
  -3   2   4 7622.56 759.800   2
   3  -2  -4 7464.66 736.725   6
   3  -2  -4 6646.42 758.177   2
   3  -2  -3 2975.17 468.424   6
   3  -2  -3 3593.38 368.184   5
  -3   2   3 3566.61 532.355   2
   3  -2  -3 3986.36 547.871   2
  -3   2   3 2687.22 324.813   1
   3  -2  -2 21207.0 905.713   5
  -3   2   2 20932.1 742.754   1
  -3   2   2 22295.5 1065.41   7
   3  -2  -2 23438.0 1177.57   6
   3  -2  -2 21016.6 1131.46   2
  -3   2   1 239229. 1919.30   1
   3  -2  -1 240208. 3112.80   5
  -3   2   1 248078. 3546.36   7
   3  -2  -1 238692. 3670.22   6
  -3   2   0 17214.3 853.404   5
   3  -2   0 16320.7 846.773   5
  -3   2   0 16227.4 909.112   7
   3  -2   0 16615.5 817.431   2
   3  -2   0 17170.0 965.757   6
  -3   2  -1 24140.5 1093.36   5
   3  -2   1 23913.5 1062.48   5
  -3   2  -1 23180.7 1089.37   7
   3  -2   1 23503.6 866.749   2
   3  -2   1 22806.9 1096.89   6
  -3   2  -1 20209.1 1053.81   6
   3  -2   2 1251.41 308.764   6
  -3   2  -2 1022.87 244.202   7
  -3   2  -2 1439.03 320.221   5
   3  -2   2 1059.83 250.769   5
   3  -2   3 129818. 1505.16   1
  -3   2  -3 133654. 2899.58   5
  -3   2  -3 134716. 2697.12   7
   3  -2   3 132716. 1454.75   8
   3  -2   3 133851. 2705.60   6
   3  -2   4 2172.10 379.699   6
   3  -2   4 2355.52 277.042   1
  -3   2  -4 2134.66 417.323   5
  -3   2  -4 1847.96 343.724   7
  -3   2  -5 95995.5 2755.98   5
   3  -2   5 97112.8 1671.40   2
   3  -2   5 90988.1 1925.20   1
  -3   2  -5 89358.7 2344.23   7
   3  -2   5 92010.6 2291.08   7
   3  -2   6 1730.67 279.242   3
   3  -2   6 1221.78 312.132   5
  -3   2  -6 806.113 316.611   5
   3  -2   6 1747.83 340.864   1
   3  -2   6 1761.01 382.131   4
  -3   2  -6 2059.54 404.285   7
   3  -2   6 1679.26 249.008   2
   3  -2   6 1448.73 324.898   7
   3  -2   7 50752.7 1404.80   2
  -3   2  -7 51917.1 2326.22   5
   3  -2   7 50060.3 1854.79   7
   3  -2   7 52455.8 1827.09   1
  -3   2  -7 50097.1 1880.59   7
   3  -2   7 57867.6 2126.16   4
   3  -2   7 53542.7 1288.04   3
   3  -2   8 605.683 128.943   3
  -3   2  -8 857.606 364.960   5
   3  -2   8 420.868 233.149   1
  -3   2  -8 741.515 292.328   7
   3  -2   8 1197.86 305.929   7
   3  -2   8 540.818 185.021   2
  -3   2  -9 20976.5 1696.39   5
   3  -2   9 22813.6 1395.25   1
   3  -2   9 22312.0 1110.71   2
  -3   2 -10 381.422 358.743   5
   3  -2  10 103.441 166.072   2
   3  -2  10-106.209 274.195   1
  -3   2 -11 21283.5 1946.83   5
   3  -2  11 22242.0 1555.38   1
   3  -2  11 22105.7 1238.43   2
  -3   2 -12-86.7395 263.610   5
   3  -2  12 543.812 331.557   1
  -3   2 -13 1132.57 524.522   5
   3  -2  13 821.547 406.961   1
   3  -2  14 399.063 334.438   1
   3  -1 -13 2174.21 583.811   4
  -3   1  12 322.854 340.133   2
  -3   1  12 510.432 309.295   1
   3  -1 -12 560.817 298.609   4
   3  -1 -11 4777.58 599.443   3
  -3   1  11 4380.79 759.668   1
  -3   1  11 3758.77 742.613   2
   3  -1 -11 3643.52 706.621   4
   3  -1 -10 1728.29 322.514   5
  -3   1  10 1210.63 458.649   2
   3  -1 -10 942.412 384.416   4
   3  -1  -9 11542.9 770.402   5
   3  -1  -9 12487.0 1185.05   4
  -3   1   9 12104.0 1180.36   2
   3  -1  -8 9721.04 651.890   5
   3  -1  -8 9773.87 1004.67   4
  -3   1   8 10968.9 1079.35   2
   3  -1  -7 1918.43 487.297   6
   3  -1  -7 1931.21 274.418   5
  -3   1   7 1837.09 468.999   2
   3  -1  -7 1738.67 451.635   4
   3  -1  -6 6650.25 896.492   2
   3  -1  -6 6987.44 790.008   6
  -3   1   6 6919.71 797.099   2
  -3   1   6 6886.74 775.790   6
   3  -1  -5 19517.2 1395.53   2
   3  -1  -5 20181.5 1232.70   6
  -3   1   5 18688.0 1212.66   2
  -3   1   5 18828.5 1218.29   6
   3  -1  -4 6827.88 770.717   2
  -3   1   4 6368.51 680.509   2
   3  -1  -4 6291.17 660.955   6
   3  -1  -3 84133.3 2471.05   2
   3  -1  -3 83861.5 1302.29   5
  -3   1   3 86882.4 2297.95   2
   3  -1  -3 81804.2 2214.29   6
   3  -1  -2 226.288 175.377   6
   3  -1  -2 280.248 102.256   5
  -3   1   2 93.0143 198.140   2
   3  -1  -2 41.9001 164.496   2
  -3   1   1 2041.09 231.352   8
   3  -1  -1 2124.93 359.485   6
   3  -1  -1 2250.22 254.299   5
  -3   1   1 2311.31 354.526   2
   3  -1  -1 2183.10 349.998   2
  -3   1   0 5612.69 430.690   5
   3  -1   0 6065.14 435.559   5
  -3   1   0 5741.56 293.596   8
   3  -1   0 7085.17 615.196   6
   3  -1   0 6032.22 492.327   2
  -3   1  -1 137561. 2311.62   5
   3  -1   1 139618. 2246.39   5
  -3   1  -1 139898. 2568.47   7
  -3   1  -1 137916. 1046.85   1
   3  -1   1 136210. 2620.17   6
   3  -1   1 134316. 1977.12   2
  -3   1  -2 35644.7 1272.70   5
   3  -1   2 33731.4 1189.46   5
  -3   1  -2 36079.9 1308.41   7
   3  -1   2 33881.3 825.341   2
   3  -1   2 35859.6 1351.10   6
  -3   1  -3 67218.3 1872.16   5
   3  -1   3 62981.1 1726.27   5
   3  -1   3 64594.4 902.035   8
  -3   1  -3 67520.9 1784.23   7
   3  -1   3 63583.8 900.172   2
   3  -1   3 63923.1 1872.66   6
   3  -1   4 7809.08 308.623   2
  -3   1  -4 7750.87 696.046   5
  -3   1  -4 7335.31 613.876   7
   3  -1   4 7261.32 568.593   7
   3  -1   4 7585.50 454.423   1
   3  -1   5 138931. 1457.70   2
   3  -1   5 136845. 2235.68   1
  -3   1  -5 144790. 3194.14   5
  -3   1  -5 138832. 2683.70   7
   3  -1   5 133965. 2542.52   7
   3  -1   5 131525. 2296.22   3
   3  -1   6 1240.43 276.373   1
   3  -1   6 1424.66 233.199   3
   3  -1   6 730.155 209.558   7
  -3   1  -6 659.082 303.185   5
  -3   1  -6 1224.99 293.404   7
   3  -1   6 1325.78 193.882   2
   3  -1   6 1428.16 309.514   4
  -3   1  -7 14442.4 1186.03   5
   3  -1   7 15308.2 951.547   1
   3  -1   7 15632.2 1036.36   4
  -3   1  -7 14252.9 931.977   7
   3  -1   7 13488.1 883.634   7
   3  -1   7 14171.9 644.982   2
   3  -1   7 14881.3 667.097   3
   3  -1   8 1987.00 426.469   1
  -3   1  -8 1315.95 447.433   5
   3  -1   8 1249.49 180.236   3
   3  -1   8 2021.01 289.582   2
  -3   1  -8 1323.78 322.979   7
   3  -1   8 1811.78 393.164   4
   3  -1   8 1301.40 299.318   7
   3  -1   9 10391.9 429.502   3
  -3   1  -9 10664.4 1190.25   5
   3  -1   9 11176.2 966.720   1
   3  -1   9 10214.0 849.147   7
   3  -1   9 11155.2 715.460   2
   3  -1  10 17.0848 221.141   1
  -3   1 -10-166.052 372.041   5
   3  -1  10 87.2033 144.421   2
   3  -1  10 41.9974 140.647   7
  -3   1 -11 21511.6 1908.61   5
   3  -1  11 21166.2 1491.65   1
   3  -1  11 22882.6 1170.89   2
  -3   1 -12 252.311 359.737   5
   3  -1  12 507.468 217.994   2
   3  -1  13 15468.2 1405.67   1
  -3   1 -13 12681.2 1647.61   5
   3  -1  14-419.093 332.088   1
  -3   1 -14 178.768 273.336   5
  -3   0  12 454.278 349.305   2
   3   0 -12 944.236 373.139   4
   3   0 -11 5080.21 866.402   4
  -3   0  11 8110.42 1103.13   2
   3   0 -10 7732.57 664.070   5
   3   0 -10 8272.02 1070.99   4
  -3   0  10 8653.67 1089.85   2
   3   0  -9 2131.84 329.858   5
  -3   0   9 1997.57 565.042   2
   3   0  -9 1912.11 532.824   4
   3   0  -8 2550.61 326.997   5
  -3   0   8 2663.28 581.768   2
   3   0  -8 2012.78 522.041   4
   3   0  -7 37218.2 1055.50   5
   3   0  -7 38143.7 1974.08   4
   3   0  -7 39385.9 1903.61   6
  -3   0   7 38438.3 1952.02   2
   3   0  -6 7946.56 935.893   2
   3   0  -6 7575.49 399.518   5
   3   0  -6 8400.04 889.290   4
   3   0  -6 9035.18 871.569   6
  -3   0   6 8433.87 846.872   6
  -3   0   6 8138.45 871.979   2
   3   0  -5 45765.4 2100.19   2
   3   0  -5 42691.6 688.877   5
   3   0  -5 44159.7 1783.54   6
  -3   0   5 46379.1 1853.91   6
  -3   0   5 41218.4 1794.47   2
   3   0  -4 14020.3 957.404   6
  -3   0   4 14157.3 976.758   6
  -3   0   4 13121.6 970.790   2
  -3   0   3 22016.3 1170.68   2
   3   0  -3 21510.5 1228.21   2
  -3   0   3 21959.6 1050.58   8
   3   0  -3 24023.8 1190.19   6
  -3   0   3 23575.0 1189.95   6
   3   0  -2 111.394 156.321   6
  -3   0   2 213.012 121.762   8
  -3   0   2 164.150 190.280   2
   3   0  -2 321.183 190.169   2
   3   0  -1 85057.4 1986.75   2
  -3   0   1 87765.4 1090.83   5
  -3   0   1 83373.5 1644.61   8
   3   0  -1 87498.8 2110.73   6
  -3   0   1 87889.1 1990.95   2
   3   0   0 86432.0 1754.67   2
  -3   0   0 89695.2 1419.85   5
  -3   0   0 89753.2 1465.29   8
   3   0   0 91148.7 2120.25   6
  -3   0  -1 259409. 2125.56   8
   3   0   1 253568. 2499.41   2
  -3   0  -1 272092. 2766.75   2
  -3   0  -1 264713. 2782.05   5
   3   0   1 261800. 2194.80   8
   3   0   1 267189. 3589.33   6
   3   0   2 12631.5 426.867   2
  -3   0  -2 12746.2 697.168   5
   3   0   2 13507.7 489.542   8
  -3   0  -2 13447.2 466.699   8
  -3   0  -2 14772.2 812.673   7
   3   0   2 14001.6 866.971   6
  -3   0  -3 62831.6 1360.86   1
  -3   0  -3 68587.0 1761.17   5
  -3   0  -3 70457.1 1727.86   7
   3   0   3 65130.6 1142.02   8
   3   0   3 61339.4 1633.64   3
   3   0   3 66886.0 1874.97   6
  -3   0  -4 6070.00 596.653   5
   3   0   4 6168.28 392.184   8
  -3   0  -4 5864.64 488.502   1
  -3   0  -4 5950.78 509.315   7
   3   0   4 5888.63 471.489   7
   3   0   4 6349.56 523.816   3
  -3   0  -5 13549.4 959.479   5
   3   0   5 12928.6 693.950   1
  -3   0  -5 14169.3 793.502   7
   3   0   5 14009.8 743.873   7
   3   0   5 13432.4 730.175   3
  -3   0  -6 3734.73 574.849   5
  -3   0  -6 4537.47 475.450   7
   3   0   6 4198.78 427.976   7
   3   0   6 4192.86 462.699   1
   3   0   6 4241.29 397.675   3
   3   0   7 6329.45 461.660   3
   3   0   7 6236.09 614.162   1
   3   0   7 6574.20 626.268   4
  -3   0  -7 7108.68 620.964   7
   3   0   7 6556.59 565.520   7
   3   0   7 6670.47 381.296   2
   3   0   8 55.9841 113.271   2
  -3   0  -8-29.2121 259.744   5
   3   0   8-96.2064 77.3653   3
   3   0   8-32.8854 187.670   1
  -3   0  -8 32.3802 88.0122   2
   3   0   8-2.85926 117.873   4
   3   0   8 202.810 164.449   7
   3   0   9 26239.1 1428.77   1
   3   0   9 26471.5 847.529   3
  -3   0  -9 25425.4 1814.44   5
  -3   0  -9 27229.9 1110.92   2
   3   0   9 25858.8 1364.12   4
  -3   0  -9 26733.0 1277.94   7
   3   0   9 23955.3 1179.20   7
   3   0   9 28448.3 1040.13   2
   3   0  10 1465.62 188.359   3
   3   0  10 1562.44 293.956   2
  -3   0 -10 1005.25 244.936   2
   3   0  10 592.904 323.316   1
   3   0  10 825.036 228.293   7
  -3   0 -10 940.796 436.737   5
   3   0  11 29490.5 1717.74   1
  -3   0 -11 25074.3 2033.12   5
   3   0  11 22688.6 1247.93   7
   3   0  11 28120.3 1231.11   2
  -3   0 -12-93.0814 300.933   5
   3   0  12 52.8650 147.620   2
   3   0  12 528.502 342.654   1
  -3   0 -13 4297.59 955.348   5
   3   0  13 5804.59 855.482   1
  -3   0 -14 181.207 383.068   5
   3   0  14-145.210 326.761   1
   3   1 -12 1565.25 552.770   4
   3   1 -11 6789.29 1052.74   4
  -3  -1  11 8366.03 1141.58   2
  -3  -1  10 865.704 440.282   2
   3   1 -10 1371.92 483.061   4
   3   1  -9 10776.3 735.835   5
   3   1  -9 10707.1 1209.26   4
  -3  -1   9 11828.9 1238.32   2
   3   1  -8 736.865 199.613   5
  -3  -1   8 681.991 406.701   2
   3   1  -8 391.652 260.533   4
   3   1  -7 6545.02 454.564   5
   3   1  -7 7127.30 923.365   4
  -3  -1   7 7797.71 828.559   6
  -3  -1   7 7608.75 912.027   2
  -3  -1   6 319.567 190.196   6
  -3  -1   6 23.9611 149.609   8
   3   1  -6 230.449 93.9079   5
  -3  -1   6 402.726 256.101   2
   3   1  -6 470.413 278.472   6
   3   1  -6 442.451 307.692   4
   3   1  -5 34291.4 1811.15   2
   3   1  -5 33530.0 1523.25   6
  -3  -1   5 34962.5 1671.62   8
   3   1  -5 31131.9 1680.53   4
  -3  -1   5 32457.2 1507.11   6
  -3  -1   5 33077.0 1653.08   2
   3   1  -4 2738.68 433.766   6
  -3  -1   4 2713.23 424.658   6
  -3  -1   4 2691.24 438.838   8
  -3  -1   4 2328.01 440.060   2
  -3  -1   3 124603. 2793.94   2
   3   1  -3 116892. 2790.26   2
   3   1  -3 119778. 2550.78   6
   3   1  -3 114517. 2597.36   3
  -3  -1   3 116948. 2562.87   6
  -3  -1   2 50792.4 1655.24   2
   3   1  -2 45507.4 1589.60   2
  -3  -1   2 46943.7 1532.32   8
  -3  -1   2 46698.4 1547.76   6
   3   1  -2 47604.9 1549.19   6
  -3  -1   1 44236.7 1415.84   2
   3   1  -1 39985.9 1346.31   2
  -3  -1   1 44395.0 609.024   5
  -3  -1   1 39989.2 1289.53   8
   3   1  -1 39590.5 1431.72   3
   3   1  -1 40208.9 1396.45   6
  -3  -1   1 38838.4 1367.95   6
  -3  -1   0 18305.2 833.610   2
   3   1   0 17225.8 788.370   2
  -3  -1   0 17029.7 540.429   5
  -3  -1   0 17238.5 774.245   8
   3   1   0 17811.1 798.678   8
   3   1   0 17889.0 922.634   6
  -3  -1   0 17866.5 915.088   6
   3   1   1 1942.55 330.316   6
   3   1   1 1859.56 237.226   2
   3   1   1 1535.12 229.850   8
  -3  -1  -1 1336.27 207.161   8
  -3  -1  -1 1636.21 232.521   2
  -3  -1  -2 24280.7 689.358   2
   3   1   2 22632.3 804.291   8
  -3  -1  -2 23477.7 776.185   8
   3   1   2 23457.9 1074.30   6
  -3  -1  -3 75924.3 889.228   2
   3   1   3 73136.5 1481.27   8
  -3  -1  -3 70379.8 1380.98   8
  -3  -1  -3 74886.5 1708.21   7
   3   1   3 75765.6 1851.44   3
   3   1   4 66.1737 111.371   3
  -3  -1  -4 221.984 130.504   1
   3   1   4 227.636 123.033   8
  -3  -1  -4 205.941 150.684   7
   3   1   5 173412. 2667.89   3
  -3  -1  -5 164648. 2959.87   1
  -3  -1  -5 165600. 2918.14   3
   3   1   5 168446. 2434.01   8
   3   1   5 168031. 2594.96   4
  -3  -1  -5 169824. 2529.92   7
   3   1   6 28808.6 1074.76   3
  -3  -1  -6 31491.6 690.686   2
  -3  -1  -6 30877.1 1555.66   5
   3   1   6 30448.2 1121.27   8
   3   1   6 31569.1 1188.80   4
  -3  -1  -6 30085.3 1097.91   7
   3   1   6 28106.8 995.716   7
  -3  -1  -6 30645.1 1298.37   3
   3   1   7 58380.2 1498.84   3
  -3  -1  -7 64785.5 1282.52   2
  -3  -1  -7 62575.9 2402.56   5
  -3  -1  -7 64977.4 1664.67   7
   3   1   7 60980.8 1522.67   7
   3   1   7 62766.0 1870.10   1
  -3  -1  -7 68012.2 1921.24   3
   3   1   8 1497.02 338.480   1
  -3  -1  -8 1552.98 249.805   2
  -3  -1  -8 854.603 377.296   5
   3   1   8 1487.13 242.848   3
  -3  -1  -8 1100.82 238.968   7
   3   1   8 1015.81 262.171   4
   3   1   8 1438.81 263.454   7
   3   1   9 9394.71 590.524   3
  -3  -1  -9 10560.5 718.819   2
  -3  -1  -9 9071.73 1101.05   5
   3   1   9 11229.1 839.436   4
  -3  -1  -9 10306.2 721.880   7
   3   1   9 9051.41 650.845   7
   3   1   9 11092.6 926.836   1
   3   1  10 5840.38 460.505   3
  -3  -1 -10 5613.64 588.431   2
  -3  -1 -10 6279.78 991.831   5
   3   1  10 5272.18 515.446   7
   3   1  10 6214.82 667.100   4
   3   1  10 6189.46 764.484   1
  -3  -1 -11 4940.68 925.268   5
   3   1  11 5423.32 558.644   7
   3   1  11 6031.01 805.092   1
   3   1  12 146.971 292.296   1
  -3  -1 -12 303.546 234.952   5
  -3  -1 -13 3276.86 843.043   5
   3   1  13 4556.36 766.164   1
  -3  -1 -14 754.203 424.583   5
   3   1  14 343.859 337.964   1
   3   2 -11 2243.37 653.294   4
  -3  -2  11 2077.36 592.293   2
   3   2 -10 8400.63 1162.78   4
  -3  -2  10 8817.41 1150.94   2
   3   2  -9 6131.22 560.509   5
   3   2  -9 6289.57 994.234   4
  -3  -2   9 8485.03 1106.37   2
   3   2  -8 9833.63 659.491   5
   3   2  -8 10639.6 1221.12   4
  -3  -2   8 9560.81 1088.19   2
   3   2  -7 31494.1 2007.64   4
  -3  -2   7 30019.5 1576.05   6
  -3  -2   7 27980.0 1785.29   2
   3   2  -6 2500.70 476.325   6
  -3  -2   6 2110.60 407.921   6
  -3  -2   6 2143.70 501.453   2
   3   2  -6 1310.70 468.812   4
  -3  -2   5 72751.2 2523.93   2
   3   2  -5 69643.8 2608.23   2
  -3  -2   5 71546.7 2534.53   8
   3   2  -5 70349.3 2678.57   4
   3   2  -5 69777.0 2178.99   6
  -3  -2   5 68035.5 2119.15   6
   3   2  -4 3371.87 554.276   2
  -3  -2   4 4763.04 619.779   8
   3   2  -4 3635.30 478.560   6
   3   2  -4 3060.19 561.397   4
  -3  -2   4 4154.84 608.414   2
  -3  -2   4 3280.01 451.361   6
  -3  -2   3 21732.7 1230.68   2
   3   2  -3 21187.4 1222.91   2
  -3  -2   3 19895.4 416.458   5
  -3  -2   3 21551.8 1211.17   8
   3   2  -3 21569.0 1057.18   6
  -3  -2   3 20512.9 1045.66   6
   3   2  -3 22634.5 1156.33   3
  -3  -2   2 4644.68 531.657   2
  -3  -2   2 4039.23 226.977   5
   3   2  -2 4437.46 518.205   2
   3   2  -2 4745.72 494.045   6
  -3  -2   2 4568.17 474.197   6
   3   2  -2 3701.63 464.439   3
  -3  -2   1 1000.98 265.732   2
   3   2  -1 473.496 177.886   6
  -3  -2   1 757.356 198.509   6
   3   2  -1 565.486 202.328   3
   3   2  -1 905.716 259.608   8
   3   2  -1 414.660 166.819   2
  -3  -2   1 828.480 229.580   8
   3   2   0 43696.4 1433.88   8
  -3  -2   0 40845.8 1314.60   2
   3   2   0 40655.0 1317.23   2
  -3  -2   0 40945.0 1356.46   8
   3   2   0 41979.0 1370.10   6
  -3  -2   0 42226.9 1381.45   6
  -3  -2  -1 34563.0 1096.25   2
   3   2   1 34966.6 1232.45   8
  -3  -2  -1 32612.4 1134.16   8
  -3  -2  -1 35964.5 1368.22   3
   3   2   1 33039.7 1211.80   6
  -3  -2  -2 63103.4 1348.92   2
  -3  -2  -2 60493.1 1476.93   8
   3   2   2 63642.3 1619.31   8
  -3  -2  -2 64354.5 1847.16   3
   3   2   2 67438.1 1792.02   6
  -3  -2  -3 218843. 2766.75   8
   3   2   3 217529. 2998.38   8
  -3  -2  -3 223158. 2227.26   2
  -3  -2  -3 225309. 3467.43   3
   3   2   4 14457.0 824.665   3
   3   2   4 14156.1 779.657   8
  -3  -2  -4 14071.2 703.100   7
  -3  -2  -4 14600.5 797.698   1
  -3  -2  -4 15271.5 918.395   3
   3   2   5 73733.3 1836.72   3
  -3  -2  -5 75226.0 2071.81   3
   3   2   5 72084.9 1781.95   8
  -3  -2  -5 73417.3 1565.33   7
  -3  -2  -5 76626.9 1291.89   2
   3   2   6 4669.92 468.898   3
   3   2   6 5161.98 518.920   8
   3   2   6 5214.77 442.865   4
  -3  -2  -6 4986.40 416.839   7
  -3  -2  -6 5449.58 421.252   2
  -3  -2  -6 5620.99 591.955   3
  -3  -2  -7 57996.1 1418.30   7
   3   2   7 54430.5 1561.13   3
   3   2   7 56095.6 1521.04   4
   3   2   7 54377.7 1711.22   8
  -3  -2  -7 56847.4 2098.87   1
  -3  -2  -7 57900.9 1878.74   3
   3   2   8 609.675 243.458   8
  -3  -2  -8 624.758 227.492   3
   3   2   8 402.542 167.881   3
  -3  -2  -8 595.501 167.651   7
  -3  -2  -8 584.520 201.633   2
  -3  -2  -9 5966.30 607.733   2
  -3  -2  -9 6990.83 688.560   3
   3   2   9 6554.46 551.516   3
  -3  -2  -9 6577.88 518.796   7
   3   2   9 5896.85 687.168   1
  -3  -2 -10 2522.33 447.902   2
   3   2  10 2896.34 377.259   3
  -3  -2 -10 2401.45 435.135   3
  -3  -2 -10 1419.09 481.286   5
   3   2  10 2267.63 296.228   7
   3   2  10 1700.44 325.073   4
   3   2  10 2493.17 505.616   1
   3   2  11 11725.0 743.604   3
  -3  -2 -11 11401.3 1405.49   5
   3   2  11 11523.0 881.746   4
   3   2  11 11254.7 675.769   7
   3   2  11 12809.2 1143.23   1
  -3  -2 -11 12033.7 933.537   3
  -3  -2 -12 2252.73 691.888   5
   3   2  12 1332.80 430.347   1
  -3  -2 -13 12043.7 1593.92   5
   3   2  13 12795.8 1263.97   1
  -3  -2 -14 629.033 469.186   5
   3   2  14 2254.70 581.691   1
  -3  -3  11 5808.96 992.973   2
   3   3 -11 7342.20 1186.20   4
  -3  -3  10 3442.84 775.205   2
   3   3 -10 3697.85 849.949   4
   3   3  -9 9730.66 1282.02   4
  -3  -3   9 8440.27 1124.88   2
  -3  -3   8 13470.2 1348.53   2
   3   3  -8 15037.5 1511.13   4
   3   3  -7 5370.64 905.668   4
  -3  -3   7 4589.64 772.476   2
  -3  -3   7 4828.18 621.137   6
  -3  -3   6-105.493 143.550   6
   3   3  -6 250.903 320.983   4
  -3  -3   6 4.47686 269.071   2
  -3  -3   5 11877.0 1089.18   2
   3   3  -5 12834.1 1221.89   4
   3   3  -5 14163.0 979.783   6
  -3  -3   5 12002.7 873.940   6
  -3  -3   4 3661.74 585.327   2
   3   3  -4 3742.40 616.069   2
  -3  -3   4 2963.30 416.857   6
  -3  -3   4 3022.20 287.462   5
  -3  -3   4 2764.60 515.614   8
   3   3  -4 3959.65 489.178   6
   3   3  -4 3757.42 649.997   4
  -3  -3   3 90347.4 2592.27   2
  -3  -3   3 82388.9 1464.13   5
   3   3  -3 92629.1 2685.90   2
   3   3  -3 84990.0 2757.28   4
  -3  -3   3 82763.7 2548.23   8
   3   3  -3 85160.6 2063.02   6
  -3  -3   3 79220.9 1988.01   6
  -3  -3   2 18371.6 1113.76   2
  -3  -3   2 18110.9 716.577   5
   3   3  -2 20977.6 1220.90   8
   3   3  -2 20704.4 1195.26   2
   3   3  -2 19104.4 1208.43   4
  -3  -3   2 17980.2 1117.97   8
   3   3  -2 19356.7 939.620   6
  -3  -3   2 18676.6 923.328   6
  -3  -3   1 55508.3 1804.12   2
   3   3  -1 54448.7 1875.16   8
  -3  -3   1 58532.0 1835.44   3
   3   3  -1 57980.8 1581.95   6
  -3  -3   1 56243.8 1559.96   6
  -3  -3   0 36034.2 1345.06   2
   3   3   0 35141.8 1437.06   8
  -3  -3   0 34380.7 1402.04   3
   3   3   0 33523.8 1193.32   6
  -3  -3   0 35102.2 1203.78   6
  -3  -3  -1 86441.6 1964.50   2
   3   3   1 88244.7 2205.37   8
  -3  -3  -1 82845.9 2039.42   8
   3   3   1 86583.5 1939.64   6
  -3  -3  -1 90371.6 2278.74   3
  -3  -3  -2 2623.96 422.879   3
  -3  -3  -2 2105.95 320.542   2
  -3  -3  -2 2056.76 325.830   8
   3   3   2 2285.99 382.323   8
   3   3   2 2789.26 394.173   6
   3   3   3 16591.8 948.794   8
  -3  -3  -3 16286.2 850.954   8
  -3  -3  -3 16524.8 989.749   3
  -3  -3  -4 807.762 254.282   3
   3   3   4 686.678 238.840   8
   3   3   4 711.112 201.778   3
   3   3   5 141339. 2705.12   3
   3   3   5 138247. 2754.67   8
  -3  -3  -5 137173. 2048.48   7
  -3  -3  -6 7854.31 715.815   1
   3   3   6 7978.49 646.293   3
   3   3   6 7840.17 675.131   8
   3   3   6 7313.11 471.801   4
  -3  -3  -6 8324.94 490.292   7
  -3  -3  -6 8852.56 759.059   3
   3   3   7 18276.1 982.864   3
  -3  -3  -7 17626.2 1173.46   1
   3   3   7 17683.1 1055.58   8
   3   3   7 18271.0 777.654   4
  -3  -3  -7 18776.6 724.953   7
  -3  -3  -7 21117.6 1016.03   2
  -3  -3  -7 18567.5 1120.55   3
   3   3   8 8175.27 666.007   3
   3   3   8 8380.21 752.733   8
  -3  -3  -8 7885.34 859.192   1
   3   3   8 7201.74 527.157   4
  -3  -3  -8 7274.90 458.021   7
  -3  -3  -8 7471.97 733.723   3
  -3  -3  -8 6839.04 662.729   2
   3   3   9 21021.8 1074.95   3
   3   3   9 19875.8 1223.63   8
   3   3   9 18345.1 889.555   4
  -3  -3  -9 21576.4 780.189   7
  -3  -3  -9 22635.7 1290.02   3
   3   3  10 1913.31 336.105   3
  -3  -3 -10 2395.97 447.285   3
   3   3  10 2170.23 465.839   8
  -3  -3 -11 36883.4 1908.99   2
   3   3  11 37816.0 1483.69   3
   3   3  11 38065.9 1862.94   8
   3   3  11 35973.3 1410.38   4
  -3  -3 -11 41394.2 1842.55   3
  -3  -3 -12-115.762 172.073   3
  -3  -3 -12-5.19359 333.588   5
   3   3  12 380.994 296.487   8
  -3  -3 -13 5481.22 1051.42   5
   3   3  13 10528.2 1091.74   8
  -3  -3 -14 38.3636 345.486   5
   3   3  14 285.021 312.625   8
  -3  -4  10-53.5599 318.629   2
   3   4 -10 535.036 429.175   4
   3   4  -9 2641.46 732.293   4
  -3  -4   9 3197.06 729.482   2
   3   4  -8 4369.28 895.536   4
  -3  -4   8 4751.62 831.540   2
  -3  -4   7 19929.8 1592.81   2
   3   4  -7 17288.9 1648.48   4
  -3  -4   7 17234.1 1141.18   6
  -3  -4   6 1287.80 291.953   6
  -3  -4   6 1346.62 252.276   5
   3   4  -6 2280.63 605.192   4
  -3  -4   6 1395.05 447.654   2
  -3  -4   5 29419.9 1758.62   2
  -3  -4   5 24604.6 996.662   5
   3   4  -5 27407.7 1856.87   4
  -3  -4   5 27016.4 1263.06   6
  -3  -4   4 6403.57 785.341   2
  -3  -4   4 7368.41 556.117   5
   3   4  -4 6931.51 904.254   4
   3   4  -4 7727.33 658.306   6
  -3  -4   4 7629.40 633.083   6
  -3  -4   3 11660.0 1010.28   2
  -3  -4   3 12818.6 732.224   5
  -3  -4   3 12990.9 1081.47   8
   3   4  -3 10900.8 1047.12   4
   3   4  -3 13156.0 790.867   6
  -3  -4   3 11299.1 721.070   6
  -3  -4   2 45621.0 1396.82   5
  -3  -4   2 45506.5 1853.29   2
   3   4  -2 47698.2 1998.86   8
  -3  -4   2 50609.3 2026.31   8
   3   4  -2 47485.8 1395.07   6
  -3  -4   2 47265.4 1721.91   3
  -3  -4   2 46336.5 1390.33   6
   3   4  -2 48515.2 2026.54   4
  -3  -4   1 127407. 2930.42   2
   3   4  -1 121560. 3070.90   8
   3   4  -1 120065. 2962.78   4
   3   4  -1 119899. 2180.73   6
  -3  -4   1 124888. 3016.38   8
  -3  -4   1 122513. 2795.15   3
  -3  -4   1 125847. 2212.10   6
   3   4   0 1647.51 281.174   6
  -3  -4   0 2584.98 461.556   3
  -3  -4   0 1889.50 378.074   2
  -3  -4   0 1785.09 366.307   8
   3   4   0 1724.34 395.377   8
   3   4   0 1579.62 321.802   3
   3   4   0 1835.89 364.289   4
   3   4   1 156.682 136.509   6
  -3  -4  -1 152.908 218.637   3
   3   4   1 77.8070 207.160   8
  -3  -4  -1 767.017 243.999   2
   3   4   2 10654.7 848.763   8
  -3  -4  -2 11380.8 861.486   3
   3   4   2 11545.6 746.625   6
   3   4   3 51948.8 1848.59   8
  -3  -4  -3 50075.5 1806.51   3
  -3  -4  -4 8925.84 687.001   8
   3   4   4 8826.04 783.154   8
  -3  -4  -4 8441.33 749.642   3
   3   4   5 6329.87 624.451   3
  -3  -4  -5 7346.59 642.836   8
   3   4   5 6052.98 649.845   8
  -3  -4  -5 6331.08 667.369   3
  -3  -4  -6 431.382 197.999   1
   3   4   6 156.480 80.6322   4
  -3  -4  -6 522.495 255.825   3
   3   4   6 84.7917 135.157   3
   3   4   6 230.542 214.657   8
  -3  -4  -6 354.281 118.792   7
  -3  -4  -7 36819.8 1673.42   3
  -3  -4  -7 33605.7 1621.87   1
   3   4   7 34720.7 1465.26   3
   3   4   7 33363.3 1565.17   8
   3   4   7 34194.4 911.016   4
  -3  -4  -7 34370.5 877.206   7
   3   4   8 7837.04 712.215   3
   3   4   8 6924.60 757.048   8
   3   4   8 7589.77 457.057   4
  -3  -4  -8 7396.36 377.012   7
  -3  -4  -8 7374.36 769.937   3
   3   4   9 38343.6 1575.50   3
   3   4   9 37071.1 1777.59   8
   3   4   9 37347.3 1096.14   4
  -3  -4  -9 34578.7 1686.58   3
   3   4  10 22083.2 1408.88   8
   3   4  10 21786.0 1221.95   3
   3   4  10 21745.9 901.207   4
  -3  -4 -10 21851.8 1416.73   2
  -3  -4 -10 21031.9 1333.29   3
  -3  -4 -11 3113.25 536.288   3
   3   4  11 3007.54 575.785   8
   3   4  11 2717.19 344.310   4
   3   4  11 2998.51 467.020   3
  -3  -4 -11 2047.61 482.692   2
   3   4  12 7382.93 903.991   8
  -3  -4 -12 7249.53 837.851   3
   3   4  13 9446.57 1066.11   8
  -3  -4 -13 8295.82 908.962   3
   3   4  14-217.996 215.069   8
  -3  -4 -14-107.119 228.245   5
   3   5  -9 5680.21 1087.73   4
  -3  -5   9 6601.87 1033.51   2
   3   5  -8-75.0446 277.879   4
  -3  -5   8 557.214 396.912   2
  -3  -5   7 7199.54 1027.16   2
   3   5  -7 6303.52 1063.43   4
  -3  -5   6 1149.05 425.285   2
  -3  -5   6 1276.24 297.073   6
  -3  -5   6 867.031 233.996   5
   3   5  -6 1279.97 324.624   3
   3   5  -6 1331.10 524.299   4
   3   5  -5 12000.8 945.954   3
  -3  -5   5 12757.0 1213.90   2
  -3  -5   5 12859.4 824.754   6
  -3  -5   5 12601.8 836.012   5
   3   5  -5 14079.1 1373.15   4
   3   5  -4 828.932 269.140   3
  -3  -5   4 759.487 203.470   6
  -3  -5   4 661.722 299.334   2
  -3  -5   4 608.328 196.781   5
   3   5  -4 503.468 353.949   4
   3   5  -3 26850.7 1391.19   3
  -3  -5   3 27972.0 1619.71   2
  -3  -5   3 27311.6 1259.81   5
   3   5  -3 29896.7 1757.11   8
   3   5  -3 27696.6 1720.37   4
   3   5  -3 28597.6 1109.31   6
  -3  -5   3 29255.6 1434.50   3
  -3  -5   3 28505.8 1081.51   6
   3   5  -2 11178.8 897.205   3
  -3  -5   2 10725.3 797.851   5
  -3  -5   2 10800.5 986.537   2
  -3  -5   2 12500.2 1080.61   8
   3   5  -2 12659.3 1092.71   4
   3   5  -2 10758.6 1046.43   8
   3   5  -2 12406.6 685.297   6
  -3  -5   2 11486.5 916.345   3
  -3  -5   2 12374.3 673.566   6
   3   5  -1 17937.1 1116.14   3
  -3  -5   1 16631.6 1161.58   2
  -3  -5   1 18579.3 1255.16   8
   3   5  -1 17560.9 1283.27   8
   3   5  -1 16613.7 1162.30   4
   3   5  -1 17349.2 775.531   6
  -3  -5   1 16414.4 1091.30   3
   3   5   0 384.390 262.112   8
   3   5   0 631.490 177.719   6
  -3  -5   0 966.904 303.928   3
   3   5   0 665.074 239.332   3
  -3  -5   0 423.276 241.628   2
  -3  -5   0 860.445 307.422   8
   3   5   0 951.128 298.441   4
   3   5   1 85775.6 2419.61   3
   3   5   1 85423.7 2661.22   8
  -3  -5  -1 89386.6 2556.99   8
  -3  -5  -1 90178.5 2510.24   2
   3   5   1 87406.8 2201.13   4
   3   5   1 82914.4 1822.13   6
  -3  -5  -1 86732.2 2490.99   3
   3   5   2 399.804 163.758   6
  -3  -5  -2 232.806 242.230   3
   3   5   2 442.974 195.562   3
   3   5   2 196.909 236.346   8
  -3  -5  -2 133.734 162.617   8
   3   5   2 385.692 162.867   4
  -3  -5  -3 13914.4 1015.43   3
   3   5   3 14684.7 1088.14   8
  -3  -5  -3 13968.6 955.092   8
   3   5   3 12595.9 675.210   4
  -3  -5  -4 22952.8 1315.60   3
   3   5   4 22694.5 1244.80   3
   3   5   4 21056.9 1306.94   8
  -3  -5  -4 23247.2 1207.37   8
  -3  -5  -5 23110.8 1353.60   3
   3   5   5 21995.7 1251.56   3
   3   5   5 19121.9 1266.76   8
  -3  -5  -5 21553.3 1170.09   8
  -3  -5  -6 9739.12 906.185   3
   3   5   6 11559.7 991.489   8
   3   5   6 11340.9 899.175   3
   3   5   6 10556.5 377.823   4
  -3  -5  -6 10172.0 856.567   1
  -3  -5  -7 73485.1 2493.14   3
   3   5   7 70752.2 2259.03   3
   3   5   7 73383.0 866.069   4
  -3  -5  -7 68725.3 1148.38   7
   3   5   7 69266.6 2445.66   8
  -3  -5  -8 9706.94 940.474   3
   3   5   8 11105.5 905.555   3
   3   5   8 10089.3 980.835   8
   3   5   8 11554.2 353.018   4
  -3  -5  -8 9817.32 305.710   7
  -3  -5  -8 10909.5 857.462   2
  -3  -5  -9 1550.23 388.362   3
   3   5   9 1477.56 401.163   8
   3   5   9 1657.37 381.739   3
  -3  -5  -9 1629.57 399.182   2
  -3  -5 -10 93.4359 159.773   2
  -3  -5 -10 75.7153 206.178   3
   3   5  10 364.047 278.580   8
   3   5  11 7206.58 920.306   8
  -3  -5 -11 5964.87 810.002   2
  -3  -5 -11 7797.74 877.271   3
   3   5  12 1628.76 486.249   8
  -3  -5 -12 1351.77 405.721   3
   3   5  13 8318.63 1035.65   8
  -3  -5 -13 8285.25 947.014   3
   3   5  14 282.132 388.656   8
   3   6  -8 4839.62 986.002   4
  -3  -6   8 5216.21 936.567   2
  -3  -6   7 11511.0 1316.33   2
   3   6  -7 10287.2 1368.69   4
  -3  -6   6 1263.56 482.454   2
   3   6  -6 637.967 392.229   4
   3   6  -5 10720.1 957.284   3
  -3  -6   5 12216.9 1242.65   2
  -3  -6   5 10772.1 880.569   5
   3   6  -5 11300.2 1288.22   4
  -3  -6   4 1846.11 494.795   2
  -3  -6   4 2536.10 463.263   3
  -3  -6   4 2148.41 421.765   5
   3   6  -4 1708.08 396.674   3
   3   6  -4 2290.26 574.987   4
  -3  -6   4 2207.56 291.249   6
   3   6  -3 18120.3 1224.21   3
  -3  -6   3 16703.0 1115.39   5
  -3  -6   3 17643.9 1369.02   2
   3   6  -3 16206.4 1368.22   4
   3   6  -3 16933.1 1425.38   8
  -3  -6   3 17708.8 1183.66   3
   3   6  -2 36.1911 82.2069   6
  -3  -6   2-24.0404 173.007   5
  -3  -6   2-266.212 204.601   3
  -3  -6   2 321.392 348.839   2
   3   6  -2 504.443 307.050   8
   3   6  -2 293.160 228.535   3
   3   6  -2 293.265 278.668   4
   3   6  -1 11900.5 982.371   3
  -3  -6   1 13761.4 1007.83   5
  -3  -6   1 14707.5 1185.49   2
   3   6  -1 13094.8 1075.94   4
   3   6  -1 14668.8 1276.94   8
   3   6  -1 12727.1 593.383   6
  -3  -6   1 14472.3 1087.99   3
   3   6   0-29.9517 100.552   6
   3   6   0 354.792 167.546   3
  -3  -6   0 129.349 216.355   3
   3   6   0 121.356 250.634   8
  -3  -6   0 158.946 239.967   2
   3   6   0 127.639 181.962   4
   3   6   1 64386.3 2243.22   3
   3   6   1 62553.0 2492.23   8
  -3  -6  -1 70082.3 2429.27   8
   3   6   1 66169.8 1988.98   4
   3   6   1 67733.8 1561.82   6
  -3  -6  -1 65939.4 2299.53   3
  -3  -6  -2 5694.31 698.685   3
   3   6   2 6830.44 737.589   3
   3   6   2 5742.75 767.105   8
  -3  -6  -2 5502.60 673.047   8
   3   6   2 6012.66 542.431   4
   3   6   2 5822.51 522.383   6
  -3  -6  -3 11383.3 1000.84   3
   3   6   3 10185.0 898.514   3
   3   6   3 9059.99 972.854   8
  -3  -6  -3 8992.23 823.773   8
   3   6   3 9433.27 602.970   4
  -3  -6  -4 16746.2 1210.50   3
   3   6   4 17596.4 1326.70   8
   3   6   4 17260.1 1182.85   3
  -3  -6  -4 18958.0 1179.15   8
   3   6   4 17035.7 685.671   4
  -3  -6  -5 77280.8 2621.86   3
   3   6   5 74394.5 1096.18   4
   3   6   5 72237.0 2676.02   8
  -3  -6  -6 1423.96 447.636   3
   3   6   6 2070.43 529.874   8
  -3  -6  -7 4814.35 696.690   3
   3   6   7 4885.67 741.859   8
  -3  -6  -7 4433.67 298.089   7
  -3  -6  -8 1172.66 379.397   3
   3   6   8 2128.32 508.332   8
  -3  -6  -9 24172.9 1570.20   3
   3   6   9 22990.5 1597.18   8
  -3  -6  -9 21959.3 1343.96   2
  -3  -6 -10 10153.7 1053.51   3
   3   6  10 10793.2 1122.92   8
  -3  -6 -10 9502.81 960.876   2
  -3  -6 -11 5869.74 820.335   3
   3   6  11 6576.91 925.184   8
  -3  -6 -12 1738.10 467.238   3
   3   6  12 2238.73 572.137   8
  -3  -6 -13 5014.61 771.295   3
   3   6  13 4825.80 833.233   8
  -3  -7   7 556.086 338.911   2
   3   7  -7 562.313 413.660   4
  -3  -7   6 56.0442 267.169   2
   3   7  -6 26.8935 356.368   4
  -3  -7   5 17682.5 1565.81   2
   3   7  -5 18730.3 1695.06   4
  -3  -7   4 126.147 227.216   2
  -3  -7   4 194.155 156.509   3
   3   7  -4-436.708 232.137   3
   3   7  -4 285.572 323.489   4
   3   7  -3 7563.08 852.138   3
  -3  -7   3 8166.69 873.378   5
  -3  -7   3 8934.45 1062.78   2
   3   7  -3 9151.79 1115.16   8
   3   7  -3 8660.69 1029.92   4
  -3  -7   3 9759.07 934.405   3
  -3  -7   2 5887.89 752.085   5
  -3  -7   2 6539.29 889.593   2
   3   7  -2 5885.96 880.518   8
   3   7  -2 4794.35 719.543   4
  -3  -7   2 5817.12 741.724   3
  -3  -7   1 22491.7 1430.24   5
  -3  -7   1 22297.8 1582.12   2
   3   7  -1 20087.1 1594.60   8
   3   7  -1 19083.0 1320.53   4
  -3  -7   1 19812.8 1341.64   3
   3   7   0 6206.09 879.450   8
  -3  -7   0 6608.15 847.490   2
   3   7   0 5567.21 666.258   4
   3   7   0 6531.60 350.262   6
  -3  -7   0 5694.01 741.002   3
  -3  -7  -1 7130.33 839.298   3
   3   7   1 7435.90 954.550   8
   3   7   1 7016.22 677.677   4
   3   7   1 7310.38 471.367   6
   3   7   2 2105.16 302.422   6
  -3  -7  -2 2253.46 500.989   3
   3   7   2 2713.75 606.560   8
   3   7   2 2010.99 340.183   4
  -3  -7  -3 49813.1 2176.04   3
   3   7   3 48131.5 2358.84   8
   3   7   3 46263.1 1358.64   4
   3   7   3 51544.5 1626.93   6
  -3  -7  -4 13632.1 1177.10   3
   3   7   4 16404.4 1385.27   8
   3   7   4 15076.1 660.180   4
  -3  -7  -5 410.670 250.937   3
   3   7   5 433.667 346.515   8
   3   7   5 270.364 84.0368   4
  -3  -7  -6 11523.7 1105.07   3
   3   7   6 7630.09 967.030   8
  -3  -7  -7 58215.4 2499.14   3
  -3  -7  -7 56575.7 1199.73   7
  -3  -7  -8 167.356 231.740   3
   3   7   8 412.920 290.514   8
  -3  -7  -9 19466.4 1488.88   3
   3   7   9 17517.5 1484.24   8
   3   7  10 2504.34 601.536   8
  -3  -7 -10 1350.55 420.652   3
  -3  -7 -11 6539.08 929.228   3
   3   7  11 6626.87 996.175   8
  -3  -7 -12 317.937 221.350   3
   3   7  12 86.7323 291.894   8
  -3  -7 -13 6431.38 919.669   3
  -3  -7 -14-225.650 233.601   3
  -3  -8   6 11335.2 1366.64   2
   3   8  -6 10105.1 1359.40   4
  -3  -8   5 891.871 450.443   2
  -3  -8   5 511.687 283.087   3
   3   8  -5 272.761 346.737   4
  -3  -8   4 2389.78 640.643   2
  -3  -8   4 1847.84 449.716   3
   3   8  -4 1980.39 546.609   4
  -3  -8   3 16975.4 1528.22   2
   3   8  -3 14409.4 1496.98   8
   3   8  -3 14789.9 1380.15   4
  -3  -8   3 13624.3 1180.23   3
  -3  -8   2 3507.54 629.741   3
  -3  -8   2 2831.72 641.971   2
   3   8  -2 2936.74 682.257   8
   3   8  -2 2467.07 564.558   4
   3   8  -1 7440.54 1065.07   8
  -3  -8   1 7673.93 996.850   2
  -3  -8   1 6987.85 861.480   3
   3   8  -1 5829.40 764.626   4
  -3  -8   0 4284.46 695.998   3
   3   8   0 5819.41 912.073   8
   3   8   0 5576.76 684.768   4
  -3  -8   0 4639.71 755.674   2
  -3  -8  -1 16409.3 1320.30   3
   3   8   1 16649.4 1511.56   8
   3   8   1 15155.8 1026.18   4
  -3  -8  -2 5813.15 815.807   3
   3   8   2 5716.83 578.879   4
   3   8   2 5716.53 443.329   6
   3   8   2 6501.08 951.525   8
   3   8   3 2078.34 328.508   6
  -3  -8  -3 1965.36 513.341   3
   3   8   3 2309.87 579.111   8
   3   8   3 2057.89 316.869   4
  -3  -8  -4 7730.81 953.952   3
   3   8   4 6142.79 921.147   8
   3   8   4 7223.91 475.699   4
  -3  -8  -5 12586.4 1213.04   3
   3   8   5 11589.0 1251.15   8
  -3  -8  -6 183.144 131.369   7
  -3  -8  -6 372.085 298.131   3
  -3  -8  -7 17791.4 1470.10   3
   3   8   7 18311.5 1600.47   8
  -3  -8  -8 378.322 310.490   3
   3   8   8 525.389 295.331   8
  -3  -8  -9 7736.00 999.091   3
   3   8   9 8220.40 1145.40   8
  -3  -8 -10 729.538 336.175   3
   3   8  10-184.533 244.174   8
  -3  -8 -11 2884.88 631.923   3
   3   8  11 2393.29 664.741   8
  -3  -8 -12 157.788 201.154   3
   3   8  12-76.5142 241.750   8
  -3  -8 -13 5819.88 924.364   3
   3   9  -5 689.706 422.813   4
  -3  -9   4 493.073 436.728   2
  -3  -9   4 732.256 325.636   3
   3   9  -4 843.434 366.870   4
  -3  -9   3 6622.61 871.461   3
  -3  -9   3 5938.47 975.280   2
   3   9  -3 7793.01 1180.92   8
   3   9  -3 7348.19 994.936   4
  -3  -9   2 1685.00 494.753   3
  -3  -9   2 2478.27 665.194   2
   3   9  -2 1540.30 621.986   8
   3   9  -2 2271.30 546.075   4
  -3  -9   1 4644.66 764.627   3
   3   9  -1 4355.08 696.568   4
   3   9  -1 4872.23 917.523   8
  -3  -9   1 4145.77 800.822   2
  -3  -9   0 6851.39 998.284   2
   3   9   0 6683.30 1049.69   8
   3   9   0 5623.15 710.752   4
  -3  -9   0 5979.57 848.504   3
  -3  -9  -1 7765.94 995.498   3
   3   9   1 7457.46 1098.50   8
   3   9   1 8050.78 778.173   4
  -3  -9  -2 17388.9 1457.92   3
   3   9   2 16544.6 1601.19   8
   3   9   2 16737.7 1016.87   4
  -3  -9  -3 12123.5 1242.14   3
   3   9   3 12992.3 1427.57   8
   3   9   3 13093.1 798.512   4
   3   9   3 13720.5 735.734   6
   3   9   4 449.747 206.620   6
  -3  -9  -4 565.159 359.126   3
   3   9   4 225.259 309.388   8
   3   9   4 370.527 140.407   4
  -3  -9  -4 375.429 191.630   7
   3   9   5 4437.00 870.425   8
  -3  -9  -5 4431.47 782.064   3
   3   9   6 352.488 369.769   8
  -3  -9  -6 380.734 259.887   3
   3   9   7 1431.49 541.526   8
  -3  -9  -7 1741.46 507.876   3
  -3  -9  -8-187.608 309.412   3
   3   9   8 411.078 403.541   8
   3   9   9 4833.96 916.638   8
  -3  -9  -9 4642.17 825.023   3
  -3  -9 -10-228.370 237.535   3
   3   9  10-678.347 425.718   8
  -3  -9 -11 1254.49 469.070   3
  -3  -9 -12 1138.40 417.431   3
   3  10  -4-257.008 333.339   4
  -3 -10   3 521.284 297.013   3
   3  10  -3 629.207 320.641   4
  -3 -10   2-221.997 320.701   3
   3  10  -2 80.0810 160.982   8
   3  10  -2-153.967 281.859   4
  -3 -10   2 299.011 388.342   2
  -3 -10   1 8831.65 1231.83   2
   3  10  -1 8634.30 1243.32   8
   3  10  -1 9030.50 997.190   4
  -3 -10   1 8449.41 1062.68   3
  -3 -10   0 8421.02 1165.28   2
   3  10   0 7825.93 1196.91   8
   3  10   0 8778.32 913.285   4
  -3 -10   0 7983.45 1046.45   3
  -3 -10  -1 4357.01 781.150   3
   3  10   1 3405.57 794.638   8
  -3 -10  -1 3679.07 795.651   2
   3  10   1 3904.49 570.145   4
  -3 -10  -2 3105.07 698.015   3
   3  10   2 3919.60 514.126   4
  -3 -10  -3 8009.96 1066.36   3
   3  10   3 7848.80 1195.15   8
  -3 -10  -4 100.494 239.432   3
   3  10   4 363.373 268.185   8
  -3 -10  -5 2652.71 642.411   3
   3  10   5 1925.52 671.323   8
  -3 -10  -6 608.056 354.452   3
   3  10   6 368.008 418.033   8
  -3 -10  -7 7132.28 1027.65   3
   3  10   7 8824.64 1275.73   8
  -3 -10  -8 247.830 231.328   3
   3  10   8-619.339 431.198   8
  -3 -10  -9 2462.90 688.355   3
   3  10   9 4193.55 934.343   8
   3  11  -3 2176.87 626.435   4
  -3 -11   2 328.007 331.325   3
   3  11  -2 870.279 355.434   4
  -3 -11   1 1041.28 421.445   3
   3  11  -1 1758.89 465.186   4
  -3 -11   0 79.2007 254.389   3
  -3 -11  -1 3131.83 738.227   3
  -3 -11  -2 598.212 409.735   3
   3  11   2 107.547 250.002   8
   3  11   3 4078.86 911.724   8
  -3 -11  -3 4139.71 804.610   3
   3  11   4 482.608 413.905   8
  -3 -11  -4 2570.64 646.808   3
  -3 -11  -5 6951.88 1048.36   3
   3  11   5 6950.57 1214.21   8
  -4  10   3 1375.54 455.616   7
  -4  10   2 2765.37 617.261   7
   4 -10  -1 4566.68 902.908   3
  -4  10   1 3746.50 712.331   7
   4 -10   0 5863.04 1012.73   3
  -4  10   0 3598.60 725.333   7
   4 -10   1 1314.74 468.103   3
   4 -10   2 204.363 295.668   3
   4 -10   3-28.1945 251.441   3
   4  -9  -5 1109.62 498.836   3
  -4   9   5 385.011 275.023   7
  -4   9   4 6339.45 807.913   7
   4  -9  -4 6615.55 1096.61   3
   4  -9  -4 7236.42 913.257   6
   4  -9  -3-46.1325 198.630   6
  -4   9   3-123.717 259.959   7
   4  -9  -2 6789.85 1086.71   3
   4  -9  -2 5974.02 774.019   6
   4  -9  -1 446.977 303.307   6
   4  -9  -1 605.049 287.743   3
   4  -9   0 1308.94 536.411   3
  -4   9   0 1549.83 503.852   7
   4  -9   1 3703.63 778.599   3
  -4   9  -1 4085.21 748.123   7
   4  -9   2 8643.93 1117.57   3
  -4   9  -2 9430.34 1152.92   7
   4  -9   3 176.598 258.517   3
  -4   9  -3 100.090 378.250   7
   4  -9   4 3628.09 694.064   3
  -4   8   9 26.9651 166.327   8
  -4   8   8 5717.56 907.928   8
   4  -8  -7-930.193 407.204   3
  -4   8   7 656.718 323.145   8
  -4   8   6 4387.13 722.624   8
  -4   8   6 6335.03 736.357   7
   4  -8  -6 5717.21 962.264   3
   4  -8  -6 6989.69 949.758   6
   4  -8  -5 2996.39 622.375   6
  -4   8   5 2920.46 606.823   8
   4  -8  -5 2988.45 690.170   3
  -4   8   5 2140.73 468.695   7
   4  -8  -4 13909.2 1475.63   3
  -4   8   4 13320.0 1139.59   8
  -4   8   4 12661.1 1105.44   7
   4  -8  -4 11620.2 1125.45   6
  -4   8   3 5330.15 682.255   8
   4  -8  -3 5713.77 955.765   3
  -4   8   3 4657.91 710.776   7
   4  -8  -3 5210.46 737.370   6
   4  -8  -2 3771.80 618.151   6
  -4   8   2 3027.09 480.571   8
   4  -8  -2 3621.61 782.589   3
  -4   8   2 2975.62 601.371   7
  -4   8   1 11476.3 836.788   8
   4  -8  -1 14299.0 1449.07   3
  -4   8   1 10614.2 1080.53   7
   4  -8  -1 11580.9 1030.77   6
   4  -8   0 31711.8 2092.73   3
  -4   8   0 30596.7 1309.77   8
  -4   8   0 29128.1 1812.01   7
   4  -8   0 32757.8 1659.21   6
   4  -8   1 582.408 262.061   6
   4  -8   1 75.1284 259.937   3
  -4   8  -1 300.535 271.166   7
   4  -8   2 17456.2 1485.13   3
  -4   8  -2 16267.0 1429.75   7
   4  -8   2 19179.5 1214.68   6
   4  -8   3 256.781 220.750   6
  -4   8  -3-266.805 257.636   7
   4  -8   4 3091.89 604.261   3
  -4   8  -4 3027.51 685.195   7
   4  -8   5 715.473 316.343   3
   4  -8   6 10763.8 1156.50   2
  -4   7  10 1817.73 479.763   8
  -4   7   9 110.221 261.208   8
   4  -7  -9 834.602 380.187   3
   4  -7  -8 7535.84 1105.06   3
  -4   7   8 9551.30 1067.91   8
  -4   7   7-277.060 243.182   8
   4  -7  -7-200.560 311.776   3
  -4   7   7-328.156 216.416   7
   4  -7  -7 490.896 352.282   6
   4  -7  -6 4166.24 728.051   6
  -4   7   6 4390.91 687.052   8
   4  -7  -6 3490.13 759.566   3
  -4   7   6 3447.39 548.073   7
   4  -7  -5 409.146 332.093   6
  -4   7   5 33.6185 172.297   8
   4  -7  -5 138.890 335.324   3
  -4   7   5-26.3818 190.293   7
   4  -7  -4 17139.2 1549.68   3
  -4   7   4 13581.4 1104.75   8
  -4   7   4 14296.7 1137.62   7
   4  -7  -4 14922.4 1252.99   6
   4  -7  -3 1.39011 228.389   6
  -4   7   3-179.864 150.651   8
   4  -7  -3-121.832 295.867   3
  -4   7   3 301.276 241.164   7
   4  -7  -2 48637.6 2544.09   3
  -4   7   2 47925.7 1707.55   8
  -4   7   2 44834.9 2061.67   7
   4  -7  -2 45690.8 2056.06   6
   4  -7  -1 4098.77 614.457   6
  -4   7   1 3632.58 441.380   8
   4  -7  -1 3785.98 733.960   3
  -4   7   1 4208.34 692.238   7
   4  -7   0 7426.77 990.549   3
  -4   7   0 6343.92 535.998   8
  -4   7   0 7070.17 873.451   7
   4  -7   0 6805.73 756.512   6
  -4   7   0 5730.55 778.528   6
   4  -7   1 1944.48 430.699   6
  -4   7  -1 2480.23 322.009   8
   4  -7   1 1552.47 489.631   3
  -4   7  -1 1637.30 483.201   7
   4  -7   2 15829.3 1376.87   3
  -4   7  -2 15852.1 1328.17   7
   4  -7   2 15581.5 1114.29   6
   4  -7   3 243.473 177.589   6
   4  -7   3 119.291 244.566   3
  -4   7  -3 30.1081 244.726   7
   4  -7   4 12691.7 1151.88   3
  -4   7  -4 12725.2 1267.57   7
   4  -7   4 12881.1 1020.11   6
   4  -7   5 113.954 181.569   6
   4  -7   5 165.593 184.660   3
  -4   7  -5 410.971 299.151   7
   4  -7   6 16922.1 1186.74   3
   4  -7   6 17557.2 1362.39   2
  -4   7  -6 18574.5 1589.58   7
   4  -7   6 18178.6 1265.03   6
   4  -7   7-752.495 334.506   2
  -4   7  -7-67.7009 291.711   5
  -4   6  11-251.190 218.393   8
   4  -6 -11 705.963 437.078   3
  -4   6  10 4119.68 701.054   8
   4  -6 -10 5751.21 922.797   3
   4  -6  -9 1798.99 538.817   3
  -4   6   9 1107.51 360.552   8
  -4   6   8 2287.42 498.599   8
   4  -6  -8 3259.76 700.533   3
  -4   6   8 2334.76 417.521   7
   4  -6  -7 2866.76 653.919   6
  -4   6   7 2352.74 485.327   8
   4  -6  -7 2442.90 610.214   3
  -4   6   7 2083.61 401.466   7
   4  -6  -6 7600.16 1011.04   3
  -4   6   6 6514.72 768.985   8
  -4   6   6 7177.38 748.250   7
   4  -6  -6 7171.80 936.915   6
   4  -6  -5 3312.23 631.811   6
  -4   6   5 2721.78 481.955   8
   4  -6  -5 3697.47 710.751   3
  -4   6   5 3025.98 508.078   7
  -4   6   4 31616.4 1592.54   7
  -4   6   4 32125.8 1548.30   8
   4  -6  -4 32799.6 1823.51   6
   4  -6  -3 470.322 298.735   6
  -4   6   3 564.054 216.055   8
  -4   6   3 529.958 301.645   7
   4  -6  -2 1444.71 389.993   6
  -4   6   2 1315.11 276.041   8
  -4   6   2 513.807 256.222   7
   4  -6  -1 1341.39 379.181   6
  -4   6   1 906.744 303.703   6
  -4   6   1 1363.93 241.467   8
  -4   6   1 1580.44 420.464   7
  -4   6   0 8743.39 541.038   8
  -4   6   0 8687.63 905.342   7
   4  -6   0 8549.18 849.110   6
  -4   6   0 7846.15 858.490   6
   4  -6   1 122.438 160.127   6
  -4   6  -1 131.235 143.213   6
  -4   6  -1-43.1041 224.710   7
  -4   6  -2 37212.4 1941.51   7
   4  -6   2 35054.0 1666.16   6
   4  -6   3 333.625 203.883   6
   4  -6   3 179.574 79.7431   8
   4  -6   3 360.041 284.275   3
  -4   6  -3 92.1690 205.960   7
  -4   6  -4 19079.4 1570.81   5
   4  -6   4 21863.9 1444.57   3
   4  -6   4 20251.4 837.414   8
  -4   6  -4 21531.5 1532.57   7
   4  -6   4 22057.1 1334.75   6
   4  -6   5 565.298 304.680   6
  -4   6  -5 1174.73 455.301   5
   4  -6   5 1498.18 388.054   3
  -4   6  -5 1079.31 404.574   7
  -4   6  -6 12021.6 1362.82   5
   4  -6   6 13270.9 1026.52   3
   4  -6   6 12949.1 1070.35   2
  -4   6  -6 10711.1 1159.06   7
   4  -6   6 12521.3 1062.15   6
   4  -6   7-83.6673 168.502   6
  -4   6  -7 131.443 304.000   5
   4  -6   7-19.3108 179.892   2
   4  -6   7-61.6815 124.088   3
  -4   6  -7-445.956 321.420   7
  -4   6  -8 31562.8 2358.82   5
   4  -6   8 31375.5 1685.33   2
   4  -6   8 32028.1 1802.45   6
  -4   6  -9 340.624 405.965   5
  -4   5  12 3112.89 612.375   1
   4  -5 -11 1946.58 519.454   3
  -4   5  11 786.926 351.575   1
   4  -5 -10 467.353 305.514   3
   4  -5 -10 393.683 242.069   4
  -4   5  10 216.810 230.724   1
   4  -5  -9 510.401 333.223   3
  -4   5   9-13.6393 133.182   7
  -4   5   9 180.023 163.243   1
   4  -5  -8 13698.8 1333.46   3
  -4   5   8 14038.3 989.681   7
  -4   5   8 15513.0 1145.68   1
   4  -5  -8 14954.7 1410.33   6
   4  -5  -7 1715.42 506.309   6
   4  -5  -7 1328.67 356.362   5
  -4   5   7 1183.24 328.299   8
  -4   5   7 840.553 279.518   7
   4  -5  -6 2606.03 567.005   6
   4  -5  -6 3034.52 530.653   5
  -4   5   6 2123.22 417.516   8
  -4   5   6 2472.88 449.171   7
   4  -5  -5 8509.61 896.082   5
  -4   5   5 9380.72 818.536   8
  -4   5   5 7894.79 770.263   7
   4  -5  -5 8327.44 946.319   6
   4  -5  -4 642.500 356.343   6
   4  -5  -4 623.302 243.123   5
  -4   5   4 863.058 254.268   8
  -4   5   4 763.340 295.989   7
   4  -5  -3 2239.98 488.934   6
   4  -5  -3 1810.39 463.329   5
  -4   5   3 1441.91 298.170   8
  -4   5   3 1792.98 411.087   7
   4  -5  -2 51258.1 2202.24   5
  -4   5   2 50021.6 1469.85   8
  -4   5   2 49788.2 1997.25   7
   4  -5  -2 47633.0 2025.12   2
   4  -5  -2 49544.3 2063.54   6
  -4   5   2 52503.3 2228.92   6
   4  -5  -1 1181.49 350.932   6
  -4   5   1 1503.47 381.508   6
   4  -5  -1 1399.24 388.157   5
   4  -5  -1 1369.13 361.051   2
  -4   5   1 782.105 171.583   8
  -4   5   1 554.429 267.992   7
  -4   5   0 17572.9 605.066   8
   4  -5   0 19546.7 1388.31   5
  -4   5   0 15881.9 1165.23   7
   4  -5   0 18749.0 1153.53   7
   4  -5   0 17071.3 1174.15   6
  -4   5   0 17183.3 1220.19   6
   4  -5   1 309.021 233.698   6
  -4   5  -1 293.346 217.267   6
   4  -5   1-42.0116 155.969   5
  -4   5  -1 151.842 203.148   7
  -4   5  -2 11165.3 1025.09   7
   4  -5   2 12058.5 981.136   6
  -4   5  -3 5298.49 777.696   5
   4  -5   3 7310.08 350.074   8
  -4   5  -3 7251.03 847.567   7
   4  -5   3 6974.84 756.758   6
  -4   5  -4 18574.2 1473.12   5
   4  -5   4 17901.7 697.135   8
  -4   5  -4 15809.9 1260.77   7
   4  -5   4 17207.4 1187.90   6
   4  -5   5 148.121 185.162   6
   4  -5   5 528.948 171.603   8
  -4   5  -5 354.752 221.708   7
   4  -5   6 438.245 278.119   6
  -4   5  -6 443.304 371.951   5
   4  -5   6 237.479 153.675   8
   4  -5   6 414.886 225.828   2
  -4   5  -6 395.449 243.430   7
   4  -5   6 671.265 260.610   3
   4  -5   7 8.34387 177.628   6
  -4   5  -7-235.295 277.748   5
   4  -5   7-81.7258 138.220   2
   4  -5   7 20.9043 116.885   3
  -4   5  -7 131.282 209.537   7
   4  -5   8 15543.4 1072.16   2
  -4   5  -8 15265.2 1598.40   5
  -4   5  -8 14951.3 1373.63   7
   4  -5   8 16439.6 1144.05   1
   4  -5   8 17474.2 1360.05   6
   4  -5   9 411.603 235.562   1
   4  -5   9 112.151 302.485   6
  -4   5  -9 180.651 344.212   5
  -4   5 -10 22244.4 2101.13   5
   4  -5  10 25639.5 1629.39   1
   4  -5  10 28283.7 1915.73   6
  -4   4  12 1042.68 443.915   1
  -4   4  11 852.568 351.791   1
   4  -4 -11 555.913 320.494   3
   4  -4 -11 331.580 269.268   4
  -4   4  10 5504.02 765.576   1
   4  -4 -10 6574.98 874.657   4
   4  -4 -10 5924.40 854.772   3
  -4   4   9 667.133 281.915   1
   4  -4  -9 1763.26 511.407   3
  -4   4   9 1148.26 308.298   7
   4  -4  -9 768.265 347.715   4
  -4   4   8 8323.67 834.940   1
  -4   4   8 7903.70 749.679   7
   4  -4  -8 10282.3 1155.23   6
   4  -4  -7 1432.20 481.217   6
  -4   4   7 1495.55 336.694   1
  -4   4   7 1077.45 279.872   7
   4  -4  -6 3115.02 611.324   6
  -4   4   6 3185.65 474.444   1
  -4   4   6 2720.82 452.683   7
  -4   4   5 8293.17 766.833   7
  -4   4   5 10363.3 761.928   1
   4  -4  -5 9441.84 988.119   6
  -4   4   4 50685.2 1913.13   7
   4  -4  -4 54044.8 2289.83   6
  -4   4   3 13763.9 799.156   8
  -4   4   3 12608.5 978.664   7
   4  -4  -3 13472.8 1110.10   2
   4  -4  -3 14261.4 1135.92   6
  -4   4   3 14975.9 1206.33   6
   4  -4  -2 17252.4 1162.16   5
  -4   4   2 18648.7 821.780   8
  -4   4   2 17407.1 1145.87   7
   4  -4  -2 18921.3 1233.76   2
   4  -4  -2 18124.7 1234.10   6
  -4   4   2 17726.8 1258.70   6
   4  -4  -1 1331.83 378.792   6
  -4   4   1 2528.99 472.786   6
   4  -4  -1 2003.76 412.941   5
   4  -4  -1 1931.06 394.351   2
  -4   4   1 2052.26 227.237   8
  -4   4   1 2995.23 503.466   7
   4  -4   0 2280.82 451.291   6
  -4   4   0 1227.41 336.412   6
   4  -4   0 1879.54 405.610   5
   4  -4   0 2940.31 431.717   2
  -4   4   0 1825.26 398.438   7
   4  -4   1 11859.6 995.461   5
  -4   4  -1 11105.2 953.620   7
   4  -4   1 10735.6 845.176   7
   4  -4   1 12176.8 980.762   6
  -4   4  -1 12496.4 1005.46   6
  -4   4  -2 30083.4 1621.91   5
   4  -4   2 33211.6 1685.11   5
  -4   4  -2 32254.9 1633.69   7
   4  -4   2 31166.4 1475.19   7
   4  -4   2 32134.7 1572.63   6
   4  -4   3 1240.87 354.564   6
  -4   4  -3 1293.13 431.718   5
   4  -4   3 1449.00 375.667   5
  -4   4  -3 1007.75 325.562   7
   4  -4   3 1176.89 110.410   1
  -4   4  -4 9102.30 990.026   5
   4  -4   4 8414.08 454.997   1
   4  -4   4 7945.38 402.195   8
  -4   4  -4 8077.20 868.137   7
   4  -4   4 8716.87 845.984   6
   4  -4   5 207.864 192.923   6
  -4   4  -5 104.045 295.731   5
   4  -4   5 171.391 82.8542   8
  -4   4  -5 98.2437 177.879   7
   4  -4   5 252.002 145.125   1
   4  -4   6 5460.57 563.635   2
  -4   4  -6 5867.99 866.259   5
   4  -4   6 6699.42 575.486   8
   4  -4   6 6247.51 571.444   1
  -4   4  -6 6349.41 803.237   7
   4  -4   6 6204.85 753.291   6
   4  -4   7-33.6430 216.020   6
   4  -4   7-71.4835 137.993   2
   4  -4   7-130.252 192.624   1
  -4   4  -7-107.725 324.945   5
   4  -4   7 312.662 194.494   8
  -4   4  -7-335.219 251.064   7
   4  -4   8 4840.12 551.314   2
   4  -4   8 6573.65 567.410   3
  -4   4  -8 5427.71 933.313   5
   4  -4   8 5695.32 666.106   8
   4  -4   8 5409.97 649.013   1
  -4   4  -8 6510.37 873.535   7
   4  -4   8 5653.46 789.934   6
   4  -4   9 61.6484 201.187   1
   4  -4   9 82.3460 260.460   6
  -4   4  -9 646.020 449.416   5
  -4   4  -9-25.2901 262.611   7
   4  -4   9 209.652 156.823   2
  -4   4 -10 13421.5 1605.84   5
   4  -4  10 13765.4 1168.66   1
   4  -4  10 13254.2 1315.91   6
  -4   4 -11 381.300 363.342   5
   4  -4  11 196.666 259.336   1
   4  -4  12 2656.91 593.745   1
   4  -3 -12 3520.46 707.105   4
  -4   3  12 4653.89 806.063   1
   4  -3 -11 214.005 204.632   3
   4  -3 -11 549.678 306.583   4
  -4   3  11 453.564 279.658   1
  -4   3  10 2997.17 606.167   1
   4  -3 -10 3929.61 667.608   3
   4  -3 -10 4297.95 745.306   4
  -4   3   9-6.85782 192.062   1
   4  -3  -9 404.901 311.258   4
  -4   3   8 17877.0 1234.76   1
   4  -3  -8 18953.9 1541.31   6
   4  -3  -7-7.93631 232.567   6
  -4   3   7 117.853 186.409   1
   4  -3  -6 50665.7 1676.95   5
  -4   3   6 47094.8 1750.93   1
   4  -3  -6 47740.9 2227.02   6
   4  -3  -5 33040.2 1351.36   5
  -4   3   5 35153.7 1397.21   1
   4  -3  -5 33352.9 1822.69   6
   4  -3  -4 908.902 328.862   6
   4  -3  -4 725.665 223.523   5
   4  -3  -4 701.442 318.455   2
  -4   3   4 787.653 296.458   7
  -4   3   4 1700.01 309.644   1
   4  -3  -3-110.082 268.710   6
  -4   3   3 85.0964 100.448   1
  -4   3   3 207.730 185.761   6
   4  -3  -3 24.8512 121.314   5
   4  -3  -3 186.796 202.681   2
  -4   3   3-169.280 234.612   7
   4  -3  -2 60045.9 1873.91   5
  -4   3   2 60431.0 2063.01   7
  -4   3   2 60561.9 1226.48   1
   4  -3  -2 62038.8 2239.11   6
   4  -3  -2 59019.5 2116.01   2
  -4   3   2 63484.1 2303.70   6
   4  -3  -1 3191.65 529.327   6
  -4   3   1 2903.78 491.895   6
   4  -3  -1 2331.53 392.004   5
  -4   3   1 2988.78 254.609   8
   4  -3  -1 2551.06 438.512   2
  -4   3   1 3094.91 484.318   7
   4  -3   0 97397.7 2337.15   2
  -4   3   0 102523. 2738.10   7
   4  -3   0 105070. 2811.18   6
  -4   3   0 103650. 2814.87   6
   4  -3   1 117.563 164.903   6
  -4   3  -1 45.6359 203.209   6
  -4   3  -1-112.374 159.872   5
   4  -3   1-2.75785 130.101   2
  -4   3  -1 31.6725 224.064   7
   4  -3   2 497.967 265.987   6
  -4   3  -2 82.8003 163.257   5
   4  -3   2 302.380 166.016   2
   4  -3   2 194.615 132.543   5
  -4   3  -2 213.039 216.646   7
   4  -3   2 161.411 115.579   7
   4  -3   3 155.544 184.949   6
  -4   3  -3 117.181 254.565   5
   4  -3   3-87.6057 177.257   5
  -4   3  -3 119.172 220.829   7
   4  -3   3-259.553 163.609   7
  -4   3  -4 43906.0 2035.08   5
   4  -3   4 45012.7 1914.27   5
   4  -3   4 43735.7 823.973   8
   4  -3   4 47236.0 1915.91   4
  -4   3  -4 45793.3 1895.78   7
   4  -3   4 42962.3 1708.09   7
   4  -3   4 44828.4 946.519   1
   4  -3   4 44298.6 1859.31   6
   4  -3   5 5114.17 416.368   1
  -4   3  -5 5900.64 827.362   5
   4  -3   5 5314.33 681.969   5
   4  -3   5 6136.73 440.554   8
  -4   3  -5 6342.91 733.049   7
   4  -3   5 5549.50 688.010   6
  -4   3  -6 20056.9 1526.87   5
   4  -3   6 19227.1 931.322   1
   4  -3   6 19381.2 870.449   2
   4  -3   6 19493.0 944.436   8
  -4   3  -6 17926.9 1259.28   7
   4  -3   6 18805.9 1316.34   6
   4  -3   7 341.312 148.103   2
   4  -3   7 564.006 296.480   6
   4  -3   7 355.502 190.343   1
   4  -3   7 262.849 156.184   3
  -4   3  -7 513.653 300.635   5
  -4   3  -7 549.361 273.806   7
   4  -3   7 814.643 227.283   8
   4  -3   8 14589.4 805.794   2
  -4   3  -8 12574.6 1330.21   5
   4  -3   8 15722.2 1052.67   1
   4  -3   8 14913.7 1061.19   8
  -4   3  -8 15441.1 1241.51   7
   4  -3   8 14620.3 828.511   3
   4  -3   8 15396.1 1299.61   6
   4  -3   9 112.338 211.614   1
   4  -3   9 245.873 153.512   8
  -4   3  -9-4.48033 182.134   7
   4  -3   9 284.148 136.305   2
  -4   3 -10 6821.67 1099.69   5
   4  -3  10 8161.34 881.339   1
   4  -3  11 6.02231 202.322   1
  -4   3 -11 181.685 299.187   5
  -4   3 -12 1708.17 665.016   5
   4  -3  12 1707.67 476.923   1
   4  -3  13 264.570 283.037   1
   4  -2 -12 4425.76 823.540   4
  -4   2  11-274.734 391.563   2
   4  -2 -11 86.1288 167.744   3
  -4   2  11 167.468 197.622   1
   4  -2 -11-393.144 293.345   4
  -4   2  10 3960.78 690.726   1
  -4   2  10 5379.15 874.010   2
   4  -2 -10 4115.37 745.383   4
  -4   2   9 2067.62 568.618   2
  -4   2   9 1956.73 463.656   1
   4  -2  -9 1459.70 424.403   4
   4  -2  -8 9997.55 593.796   5
  -4   2   8 9914.84 951.968   1
   4  -2  -8 9717.48 1036.95   4
  -4   2   8 11331.6 1154.69   2
   4  -2  -8 12082.9 1208.71   6
  -4   2   7 26664.1 1450.34   1
  -4   2   7 27837.8 1723.46   2
   4  -2  -7 28117.9 1758.96   6
   4  -2  -6 15030.3 735.823   5
  -4   2   6 14916.1 1246.21   2
   4  -2  -6 15136.6 1247.39   6
   4  -2  -5 3421.15 609.980   6
   4  -2  -5 4043.92 389.044   5
  -4   2   5 3890.21 648.318   2
   4  -2  -4 56420.5 1435.41   5
  -4   2   4 60936.3 2286.03   2
   4  -2  -4 61401.8 2326.52   6
  -4   2   4 58857.6 2337.62   6
   4  -2  -3 6841.22 524.978   5
  -4   2   3 7042.33 766.491   2
   4  -2  -3 7521.12 800.269   6
  -4   2   3 8515.68 856.304   6
   4  -2  -3 5563.68 697.483   2
   4  -2  -2 67885.2 1677.00   5
  -4   2   2 68904.5 2153.85   7
   4  -2  -2 68509.2 2282.77   6
  -4   2   2 67669.1 2325.43   6
   4  -2  -2 65183.5 2214.92   2
   4  -2  -1-203.048 271.553   6
   4  -2  -1 139.025 129.257   5
  -4   2   1-14.9074 81.8475   8
   4  -2  -1 134.292 132.852   2
  -4   2   1 73.4240 75.9156   1
  -4   2   1-16.5858 192.986   7
  -4   2   0 14919.4 863.261   5
   4  -2   0 16304.4 900.852   5
  -4   2   0 15504.2 358.368   8
  -4   2   0 15914.1 386.142   8
  -4   2   0 16850.9 1078.18   7
   4  -2   0 15679.7 925.203   2
   4  -2   0 16420.3 1095.82   6
  -4   2   0 16408.5 1100.70   6
   4  -2   1 139.108 193.191   6
  -4   2  -1 27.3929 130.451   6
  -4   2  -1 233.001 184.752   5
   4  -2   1-368.605 178.910   5
   4  -2   1-36.9053 140.569   2
  -4   2  -1-152.319 207.384   7
  -4   2  -2 90125.7 2435.29   5
  -4   2  -2 93342.6 2527.20   7
   4  -2   2 86406.3 1745.93   2
   4  -2   2 87902.7 2480.09   6
  -4   2  -3 22732.7 1295.60   5
   4  -2   3 23270.9 1236.89   5
  -4   2  -3 23180.5 1286.70   7
   4  -2   3 24720.2 827.488   2
   4  -2   3 23990.9 1325.77   6
  -4   2  -4 59116.2 2208.49   5
   4  -2   4 58808.3 2038.11   5
   4  -2   4 60883.6 997.606   8
   4  -2   4 60030.8 864.530   8
   4  -2   4 60407.0 2047.16   4
  -4   2  -4 57883.3 2032.82   7
   4  -2   4 57686.9 1869.90   7
   4  -2   4 63009.3 2183.09   6
   4  -2   5 49.2998 120.146   1
   4  -2   5 126.090 197.662   6
   4  -2   5 146.877 177.363   5
   4  -2   5 36.8028 76.4096   2
   4  -2   5 1.07163 188.077   4
  -4   2  -5 250.469 217.662   7
   4  -2   5 265.025 176.847   7
  -4   2  -5-28.1138 243.364   5
   4  -2   6 18626.0 881.602   1
   4  -2   6 19960.5 671.227   2
  -4   2  -6 19486.8 1429.84   5
   4  -2   6 21367.2 1315.03   5
   4  -2   6 17783.2 1187.60   4
  -4   2  -6 21247.9 1283.09   7
   4  -2   6 19129.6 1140.72   7
   4  -2   6 16787.4 973.061   3
   4  -2   6 19898.0 1328.87   6
   4  -2   7 765.702 186.740   3
   4  -2   7 796.785 239.359   1
  -4   2  -7 984.353 302.067   7
   4  -2   7 816.813 173.435   2
  -4   2  -7 522.796 363.225   5
   4  -2   8 7567.45 703.576   1
  -4   2  -8 7756.65 1030.92   5
  -4   2  -8 7900.04 830.763   7
   4  -2   8 7525.60 580.822   3
   4  -2   8 7087.80 480.971   2
  -4   2  -9 507.348 364.699   5
   4  -2   9 86.9133 74.5521   3
   4  -2   9 88.6625 106.652   2
  -4   2  -9 80.8963 200.329   7
   4  -2   9-148.220 206.474   1
   4  -2  10 21404.8 1370.73   1
  -4   2 -10 20382.2 1855.67   5
  -4   2 -10 22923.9 1499.98   7
   4  -2  10 22548.3 981.078   2
  -4   2 -11 1387.69 562.728   5
   4  -2  11 972.954 354.949   1
   4  -2  12 9544.20 1052.60   1
  -4   2 -12 7620.06 1267.76   5
   4  -2  13-197.368 320.821   1
   4  -2  14 1670.78 491.537   1
   4  -1 -12 1923.02 598.650   4
  -4   1  11 2507.03 585.843   1
  -4   1  11 3164.82 742.794   2
   4  -1 -11 2019.44 558.866   4
  -4   1  10 2408.33 634.196   2
   4  -1 -10 3674.08 745.210   4
  -4   1   9 393.877 352.667   2
   4  -1  -9 458.376 311.299   4
   4  -1  -8 10341.5 391.127   5
   4  -1  -8 11232.5 1153.10   4
  -4   1   8 12614.8 1232.53   2
   4  -1  -8 12205.4 1201.08   6
   4  -1  -7 456.745 301.229   6
  -4   1   7 130.657 303.307   2
  -4   1   6 23062.0 1513.72   2
   4  -1  -6 21532.5 1463.69   6
  -4   1   5 8129.02 872.379   2
   4  -1  -5 9009.75 931.518   6
   4  -1  -4 1821.83 433.015   6
  -4   1   4 1374.23 364.511   6
   4  -1  -4 1889.67 143.299   5
  -4   1   4 1550.57 413.683   2
   4  -1  -4 1420.33 408.395   2
   4  -1  -3 29300.8 1583.01   2
   4  -1  -3 27712.5 688.172   5
  -4   1   3 30731.2 1515.00   2
   4  -1  -3 29140.4 1501.70   6
  -4   1   3 28791.9 1526.72   6
   4  -1  -2 31962.1 1533.52   2
   4  -1  -2 32485.3 881.447   5
  -4   1   2 30840.3 1132.15   8
  -4   1   2 32933.6 1503.00   2
   4  -1  -2 29424.6 1476.89   6
   4  -1  -1 1523.93 369.412   6
   4  -1  -1 1722.35 238.941   5
  -4   1   1 1638.38 231.972   8
  -4   1   1 1715.15 352.418   2
   4  -1  -1 2118.41 369.994   2
   4  -1   0 255206. 3604.10   2
  -4   1   0 256475. 3166.55   5
   4  -1   0 261041. 3088.83   5
  -4   1   0 253616. 2299.17   8
  -4   1   0 260659. 4103.77   7
  -4   1   0 249820. 3580.46   2
   4  -1   0 254926. 4230.71   6
  -4   1  -1 45514.3 1472.04   5
   4  -1   1 44716.3 1386.11   5
  -4   1  -1 45280.6 653.482   8
  -4   1  -1 47480.8 1756.57   7
   4  -1   1 47045.9 1788.23   6
   4  -1   1 44172.4 1349.36   2
  -4   1  -2 83934.8 2138.72   5
   4  -1   2 73178.5 1892.18   5
  -4   1  -2 78306.8 1130.44   1
  -4   1  -2 89023.8 2399.19   7
   4  -1   2 81502.7 2353.43   6
   4  -1   2 85681.5 1608.59   2
   4  -1   3 1740.60 403.930   6
  -4   1  -3 1689.31 364.723   5
   4  -1   3 1773.65 145.915   8
   4  -1   3 1398.31 182.115   2
  -4   1  -3 1668.06 363.382   7
   4  -1   4 732.861 283.003   6
  -4   1  -4 1007.02 293.523   5
   4  -1   4 973.841 139.241   8
  -4   1  -4 740.685 234.546   7
   4  -1   4 1143.59 113.498   2
  -4   1  -5 4671.64 627.971   5
   4  -1   5 4646.58 345.732   8
   4  -1   5 5869.60 625.089   4
  -4   1  -5 5164.29 590.894   7
   4  -1   5 4118.06 498.731   7
   4  -1   5 4862.51 541.628   3
   4  -1   5 5384.75 675.204   6
  -4   1  -6 9152.68 928.533   5
   4  -1   6 8830.58 793.886   4
  -4   1  -6 9088.05 797.273   7
   4  -1   6 8219.79 706.261   7
   4  -1   6 8376.24 594.122   1
   4  -1   6 8835.58 695.020   3
  -4   1  -7 2724.20 576.181   5
   4  -1   7 3877.67 553.751   4
  -4   1  -7 3403.09 504.901   7
   4  -1   7 2635.48 412.882   7
   4  -1   7 3304.22 434.082   1
   4  -1   7 3096.42 401.631   3
   4  -1   8 37455.4 1283.07   3
  -4   1  -8 39014.2 2188.11   5
  -4   1  -8 41921.4 1786.24   7
   4  -1   8 35362.0 1562.38   7
   4  -1   8 43994.4 815.058   2
   4  -1   8 38840.5 1556.93   1
   4  -1   9 5672.26 660.934   1
   4  -1   9 4275.49 404.484   3
  -4   1  -9 4892.18 858.892   5
   4  -1   9 4915.09 344.808   2
  -4   1  -9 4434.04 605.573   7
   4  -1  10 31894.8 1665.95   1
  -4   1 -10 30583.0 2192.31   5
  -4   1 -10 31055.6 1629.19   7
   4  -1  10 32758.2 1008.10   2
   4  -1  11 1255.17 389.988   1
  -4   1 -11 966.535 430.930   5
   4  -1  12 12138.0 1165.10   1
  -4   1 -12 12069.2 1556.80   5
   4  -1  13 815.608 358.802   1
  -4   1 -13-317.526 433.858   5
   4  -1  14 3574.27 721.920   1
  -4   0  11 228.944 367.192   2
   4   0 -11 186.240 330.597   4
  -4   0  10 6096.11 963.352   2
   4   0 -10 8484.16 1147.90   4
  -4   0   9 269.606 308.780   2
   4   0  -9 585.059 407.075   4
   4   0  -8 1464.23 419.483   6
  -4   0   8 1327.04 470.116   2
   4   0  -8 1296.98 440.433   4
   4   0  -7 512.021 279.976   6
  -4   0   7 241.625 289.181   2
   4   0  -7 155.727 272.515   4
  -4   0   6 14339.3 1154.79   8
   4   0  -6 15589.9 1221.30   6
  -4   0   6 14311.7 1220.54   2
  -4   0   5 21106.1 1308.40   8
   4   0  -5 18554.1 1274.89   6
  -4   0   5 18836.4 1325.55   2
  -4   0   5 19302.8 1332.14   6
   4   0  -4 44045.8 2061.72   2
  -4   0   4 44589.6 1762.47   8
   4   0  -4 43693.4 1888.72   6
  -4   0   4 42122.2 1924.15   2
  -4   0   4 46609.6 1980.83   6
   4   0  -3 35821.3 1716.32   2
   4   0  -3 35716.7 1641.03   6
  -4   0   3 37069.2 1651.44   2
  -4   0   3 38475.8 1716.13   6
   4   0  -2 29619.4 1446.08   2
  -4   0   2 29087.5 1203.28   8
  -4   0   2 29793.7 1409.59   2
   4   0  -2 30435.3 1478.52   6
  -4   0   2 31960.3 1518.63   6
   4   0  -1 2023.46 352.149   2
   4   0  -1 1812.50 374.539   6
  -4   0   1 2305.53 215.997   5
  -4   0   1 2076.38 296.945   8
  -4   0   1 2257.85 387.182   2
   4   0   0 20440.1 985.185   2
  -4   0   0 19243.5 752.277   5
  -4   0   0 18435.4 768.932   8
  -4   0   0 20359.1 1018.55   2
   4   0   0 19481.3 1149.46   6
   4   0   1 553.706 156.183   2
  -4   0  -1 471.715 192.181   2
   4   0   1 513.135 233.280   6
  -4   0  -1 338.068 138.008   5
   4   0   1 328.001 115.850   8
  -4   0  -1 666.814 145.412   8
   4   0   2 51375.4 1083.76   8
   4   0   2 49085.3 1103.47   2
  -4   0  -2 50703.1 1531.01   5
  -4   0  -2 51043.8 1009.68   8
  -4   0  -2 55831.6 1836.83   7
  -4   0  -2 55062.8 1272.73   2
   4   0   2 52497.7 1861.58   6
   4   0   3 1133.14 320.428   6
   4   0   3 1358.53 141.708   2
  -4   0  -3 1370.71 216.134   1
   4   0   3 1602.92 344.741   3
  -4   0  -3 1370.29 296.794   5
   4   0   3 954.356 170.038   8
  -4   0  -3 1927.64 364.167   7
  -4   0  -4 81565.3 1849.09   1
  -4   0  -4 84822.0 2321.47   5
   4   0   4 88053.0 1554.20   8
  -4   0  -4 88622.6 2274.77   7
   4   0   4 84939.7 2243.73   3
   4   0   4 89384.1 2563.83   6
  -4   0  -5 25403.0 1376.95   5
   4   0   5 27444.8 930.642   8
  -4   0  -5 28351.4 1289.88   7
   4   0   5 27228.9 1254.30   3
  -4   0  -6 50503.5 2104.09   5
   4   0   6 49904.7 1344.28   8
   4   0   6 50390.3 1771.28   4
  -4   0  -6 48614.9 1701.91   7
   4   0   6 45776.6 1600.45   3
  -4   0  -7 4805.46 733.971   5
   4   0   7 5824.47 512.925   8
   4   0   7 6176.65 656.067   4
  -4   0  -7 5660.94 605.514   7
   4   0   7 5727.59 564.506   7
   4   0   7 5471.67 531.163   3
  -4   0  -8 1561.75 484.505   5
   4   0   8 2122.84 328.669   3
   4   0   8 1730.37 378.226   4
  -4   0  -8 2124.90 407.918   7
   4   0   8 1736.40 335.810   7
   4   0   8 1945.07 374.362   1
   4   0   9 807.879 259.416   1
  -4   0  -9 1562.55 529.182   5
   4   0   9 861.844 201.980   3
   4   0   9 1067.77 272.358   7
  -4   0  -9 1033.29 280.036   7
   4   0  10 18655.7 838.264   3
  -4   0 -10 18819.8 1707.58   5
  -4   0 -10 18844.5 1185.01   7
   4   0  10 17264.6 1087.49   7
   4   0  10 20178.6 1308.83   1
   4   0  11 1949.18 468.344   1
  -4   0 -11 1105.60 490.753   5
  -4   0 -12 9669.68 1406.40   5
   4   0  12 9488.46 1029.04   1
   4   0  13 2597.39 592.863   1
  -4   0 -13 1531.99 627.470   5
   4   0  14 2332.23 619.376   1
   4   1 -11-537.292 394.503   4
  -4  -1  10 2073.36 604.021   2
   4   1 -10 1515.12 479.637   4
  -4  -1   9 3053.92 700.833   2
   4   1  -9 3140.28 687.990   4
   4   1  -8 17890.4 1606.16   4
  -4  -1   8 18638.7 1556.39   2
   4   1  -8 16292.5 1317.76   3
   4   1  -7 765.490 330.382   6
   4   1  -7 809.713 298.592   3
  -4  -1   7 1160.07 453.441   2
   4   1  -7 420.402 353.562   4
   4   1  -6 15274.0 1358.36   4
   4   1  -6 18057.4 1305.65   6
   4   1  -6 19389.1 1350.66   3
  -4  -1   6 17175.1 1352.88   2
   4   1  -5 3922.32 605.216   6
  -4  -1   5 3942.00 596.901   6
   4   1  -5 3173.45 535.902   3
  -4  -1   5 4097.94 617.303   8
  -4  -1   5 3137.15 587.273   2
   4   1  -4 3367.93 581.877   2
   4   1  -4 2679.14 474.678   3
  -4  -1   4 3769.14 566.029   8
  -4  -1   4 3019.37 557.557   2
   4   1  -4 3720.58 569.862   6
  -4  -1   4 3633.71 552.015   6
   4   1  -3 1239.54 344.179   6
  -4  -1   3 335.874 199.959   6
   4   1  -3 771.135 282.476   2
   4   1  -3 855.040 324.094   3
  -4  -1   3 858.553 261.686   8
  -4  -1   3 367.729 251.169   2
   4   1  -2 4927.76 588.701   2
   4   1  -2 4608.92 577.956   6
   4   1  -2 4588.88 592.195   3
  -4  -1   2 5214.07 598.615   6
  -4  -1   2 5179.41 612.347   2
   4   1  -1 307.076 164.009   6
  -4  -1   1 503.451 215.233   6
   4   1  -1 702.083 226.602   2
   4   1  -1 374.150 172.683   3
  -4  -1   1 489.107 89.8151   5
  -4  -1   1 537.335 195.169   8
  -4  -1   1 351.790 191.858   2
   4   1   0 72747.1 1845.36   2
  -4  -1   0 79198.7 1368.80   5
   4   1   0 78349.0 1834.58   8
  -4  -1   0 75736.9 1797.07   8
   4   1   0 79626.5 2272.71   6
  -4  -1   0 77785.3 2240.65   6
  -4  -1   0 76847.0 1953.81   2
   4   1   1 7268.79 520.143   2
  -4  -1  -1 7285.37 487.718   5
   4   1   1 6975.78 526.436   8
  -4  -1  -1 6423.39 481.284   8
   4   1   1 7514.76 706.994   6
  -4  -1  -1 7202.72 560.143   2
  -4  -1  -1 6486.82 642.176   6
  -4  -1  -2 80241.1 1813.10   5
   4   1   2 82331.1 1515.00   2
   4   1   2 82090.6 1724.53   8
  -4  -1  -2 80706.4 1586.14   8
  -4  -1  -2 84959.9 1659.83   2
   4   1   2 82743.9 2321.85   6
  -4  -1  -3 59323.9 1716.89   5
   4   1   3 63092.2 1505.20   8
  -4  -1  -3 59206.9 1353.00   8
  -4  -1  -3 63475.7 1885.30   7
  -4  -1  -3 61655.5 1172.81   2
   4   1   3 62557.1 1960.40   3
   4   1   3 63757.4 2084.68   6
  -4  -1  -4 182054. 3294.90   5
   4   1   4 187800. 2676.78   8
  -4  -1  -4 187511. 3170.96   7
   4   1   4 188021. 3326.50   3
   4   1   4 192081. 3765.68   6
   4   1   5 1468.51 344.533   3
  -4  -1  -5 1322.52 378.387   5
  -4  -1  -5 1614.78 406.614   7
  -4  -1  -5 2079.11 386.678   1
   4   1   6 740.028 208.471   3
  -4  -1  -6 474.640 301.335   5
   4   1   6 180.026 131.139   8
   4   1   6 519.559 183.776   4
  -4  -1  -6 910.036 253.453   7
  -4  -1  -7-32.4116 244.438   5
   4   1   7-164.169 122.404   3
   4   1   7 107.838 132.879   8
   4   1   7 135.152 154.318   4
  -4  -1  -7 126.954 141.274   7
   4   1   8 20042.1 1011.36   3
  -4  -1  -8 18025.2 1454.49   5
   4   1   8 21020.1 1085.05   8
   4   1   8 20424.7 1141.90   4
  -4  -1  -8 21741.4 1116.51   7
   4   1   9 241.576 159.911   4
  -4  -1  -9-41.9483 340.247   5
   4   1   9-31.3257 107.461   3
   4   1   9-2.69171 148.359   8
  -4  -1  -9 252.592 156.861   7
   4   1  10 8516.06 626.284   3
  -4  -1 -10 8131.50 1142.67   5
   4   1  10 7919.17 763.643   8
   4   1  10 7938.87 783.487   4
  -4  -1 -10 9430.18 780.959   7
   4   1  10 7276.53 655.335   7
   4   1  10 7936.86 839.142   1
   4   1  11 161.285 131.108   7
   4   1  11-76.3511 203.569   1
  -4  -1 -12 6963.80 1208.54   5
   4   1  12 8733.18 981.964   1
  -4  -1 -13 2307.12 681.572   5
   4   1  13 3032.48 643.767   1
  -4  -1 -14 4278.24 1063.99   5
   4   1  14 6349.47 940.647   1
  -4  -2  10 5585.42 983.684   2
   4   2 -10 6548.21 1105.39   4
  -4  -2   9 3989.06 788.384   2
   4   2  -9 2428.45 652.303   4
  -4  -2   8 1948.65 553.822   2
   4   2  -8 1469.88 512.881   4
   4   2  -7-31.6075 194.087   6
   4   2  -7-275.875 176.357   3
  -4  -2   7-92.7771 269.718   2
   4   2  -7-88.2902 207.313   4
  -4  -2   6 5267.74 811.838   2
   4   2  -6 6713.98 791.632   6
   4   2  -6 4701.23 808.918   4
   4   2  -6 5578.90 727.681   3
   4   2  -5 2010.88 439.951   6
  -4  -2   5 2073.57 439.180   6
   4   2  -5 2356.88 494.145   3
  -4  -2   5 2142.68 504.053   2
   4   2  -5 2302.04 563.120   4
  -4  -2   4 41616.4 1954.53   2
   4   2  -4 40915.4 2001.24   2
  -4  -2   4 42505.5 1936.67   8
   4   2  -4 40180.4 1745.80   6
  -4  -2   4 41760.3 1774.63   6
   4   2  -4 39244.6 1812.38   3
  -4  -2   3 6977.93 775.716   2
   4   2  -3 7101.16 782.446   2
  -4  -2   3 7873.82 780.286   8
   4   2  -3 5963.03 650.714   6
   4   2  -3 6968.27 749.466   3
  -4  -2   3 6462.92 675.530   6
  -4  -2   2 52866.9 1957.29   2
   4   2  -2 53981.2 1969.35   2
  -4  -2   2 53778.4 1913.15   8
   4   2  -2 49941.2 1829.72   6
   4   2  -2 55142.3 2030.75   3
  -4  -2   2 49237.3 1794.19   6
   4   2  -1 186.029 149.002   6
  -4  -2   1 288.086 190.504   6
   4   2  -1 264.567 194.024   3
   4   2  -1 529.910 203.133   2
   4   2  -1 345.627 218.838   8
  -4  -2   1 356.814 199.557   2
   4   2   0 765.069 271.227   6
  -4  -2   0 876.365 275.613   6
   4   2   0 982.795 253.955   8
   4   2   0 1050.86 249.409   2
  -4  -2   0 1066.08 244.900   8
  -4  -2   0 1029.21 264.431   2
   4   2   1 1361.17 341.849   6
   4   2   1 1319.07 278.815   8
  -4  -2  -1 1546.81 268.695   8
   4   2   1 1259.03 245.655   2
  -4  -2  -1 1738.79 295.306   2
  -4  -2  -2 93952.4 1864.69   2
   4   2   2 97504.7 2179.83   8
  -4  -2  -2 95772.1 2009.08   8
   4   2   2 96561.6 2477.98   6
  -4  -2  -3 173.184 104.537   2
   4   2   3 446.770 222.675   6
   4   2   3 347.586 162.362   8
  -4  -2  -3 660.023 180.673   8
  -4  -2  -4 22921.9 680.242   2
   4   2   4 22498.0 1058.85   8
  -4  -2  -4 21740.0 949.851   8
  -4  -2  -4 22231.7 1066.98   7
  -4  -2  -4 21486.2 1235.73   3
   4   2   4 22676.9 1175.72   3
   4   2   4 23296.3 1311.78   6
  -4  -2  -5 345.538 88.1444   2
  -4  -2  -5 141.158 179.024   3
   4   2   5 176.634 139.769   3
   4   2   5 215.981 157.495   8
  -4  -2  -5 372.600 197.590   7
   4   2   6 121638. 2648.79   3
  -4  -2  -6 116539. 2808.42   1
  -4  -2  -6 116019. 2371.06   7
   4   2   6 117558. 2506.35   8
  -4  -2  -7 189.091 169.145   3
   4   2   7 255.281 141.143   3
   4   2   7 120.577 136.641   8
  -4  -2  -7 192.932 133.007   7
  -4  -2  -7 149.104 136.954   1
  -4  -2  -7 286.175 76.0190   2
   4   2   8 5929.21 584.731   3
  -4  -2  -8 6404.95 351.040   2
  -4  -2  -8 5387.24 818.119   5
   4   2   8 5703.65 615.427   8
   4   2   8 5875.57 574.564   4
  -4  -2  -8 6173.92 554.468   7
  -4  -2  -8 6838.31 816.542   1
  -4  -2  -8 6360.76 735.370   3
  -4  -2  -9 416.095 118.116   2
  -4  -2  -9 114.894 141.654   3
  -4  -2  -9 253.932 281.527   5
   4   2   9-30.3925 115.554   3
   4   2   9 60.6919 150.530   8
   4   2   9 218.394 157.036   4
  -4  -2  -9 500.307 195.242   7
   4   2  10 15705.1 923.633   3
  -4  -2 -10 17139.8 797.555   2
  -4  -2 -10 14361.1 1512.79   5
   4   2  10 16169.4 1116.39   8
   4   2  10 16830.0 1049.38   4
  -4  -2 -10 17925.9 979.052   7
  -4  -2 -11 304.402 342.514   5
   4   2  11 466.967 236.948   8
   4   2  11 525.667 241.032   4
  -4  -2 -12 21676.6 2099.84   5
   4   2  12 24746.3 1567.03   8
  -4  -2 -13 3954.05 983.291   5
   4   2  13 5544.94 777.477   8
  -4  -2 -14 132.462 346.874   5
   4   2  14 729.543 313.257   8
  -4  -3   9 3771.73 821.072   2
   4   3  -9 2853.80 750.615   4
   4   3  -8 11520.9 1412.98   4
  -4  -3   8 14340.7 1444.76   2
   4   3  -7 3172.70 566.728   3
  -4  -3   7 2864.11 648.602   2
   4   3  -7 4034.88 839.833   4
  -4  -3   6 20774.5 1593.51   2
   4   3  -6 19259.9 1697.92   4
   4   3  -6 20566.3 1366.78   6
  -4  -3   6 19965.5 1324.45   6
   4   3  -6 18642.2 1297.84   3
   4   3  -5 203.446 195.893   6
  -4  -3   5 157.307 121.562   6
   4   3  -5 280.500 196.134   3
  -4  -3   5 549.025 372.683   2
   4   3  -5 360.099 308.742   4
   4   3  -4 1990.64 416.046   6
  -4  -3   4 2116.87 404.897   6
   4   3  -4 2792.01 499.004   3
   4   3  -4 2260.65 567.691   4
  -4  -3   4 3104.36 604.568   2
  -4  -3   3 20426.0 1353.35   2
  -4  -3   3 18569.0 456.238   5
   4   3  -3 20812.2 1378.04   2
  -4  -3   3 20556.7 1349.20   8
   4   3  -3 17940.7 1391.87   4
   4   3  -3 19273.3 1139.65   6
  -4  -3   3 20142.4 1154.50   6
   4   3  -3 18022.7 1201.34   3
  -4  -3   2 11740.6 980.795   2
  -4  -3   2 12793.4 514.009   5
   4   3  -2 12931.1 1021.14   2
  -4  -3   2 12954.4 1015.52   8
   4   3  -2 11446.4 854.555   6
  -4  -3   2 11770.9 863.778   6
   4   3  -2 12857.9 985.859   3
  -4  -3   1 1613.30 377.874   2
   4   3  -1 1407.86 333.285   6
  -4  -3   1 2147.08 374.397   6
   4   3  -1 1307.33 332.973   8
   4   3  -1 1682.96 368.898   3
  -4  -3   1 2479.33 423.974   8
   4   3  -1 2124.11 390.501   2
  -4  -3   0 64475.0 1995.14   2
   4   3   0 66405.5 2125.67   8
   4   3   0 66497.8 2008.64   6
   4   3   0 66037.6 2148.12   3
  -4  -3   0 68494.4 1999.76   6
   4   3   1 28.2190 139.804   6
  -4  -3  -1 108.836 154.528   2
  -4  -3  -1 326.608 251.547   3
   4   3   1 93.4689 163.682   8
   4   3   2 1473.89 338.926   6
  -4  -3  -2 1849.96 304.124   2
  -4  -3  -2 1038.29 299.350   3
   4   3   2 1266.44 301.021   8
   4   3   3 189.577 165.062   6
  -4  -3  -3 159.610 126.426   2
   4   3   3 104.124 140.640   8
   4   3   4 77496.7 2237.98   3
  -4  -3  -4 77917.3 1639.54   2
   4   3   4 76798.5 2170.09   8
  -4  -3  -4 75201.6 2399.39   3
   4   3   5 3595.20 496.859   3
  -4  -3  -5 3923.10 577.933   3
   4   3   5 3633.14 485.216   8
  -4  -3  -5 3687.51 420.189   7
  -4  -3  -5 4057.98 505.191   1
   4   3   6 48516.8 1759.12   3
   4   3   6 48145.5 1758.69   8
  -4  -3  -6 49063.6 1448.04   7
  -4  -3  -6 46472.3 1956.98   3
  -4  -3  -6 49713.8 1838.49   1
  -4  -3  -7 1092.98 363.785   3
  -4  -3  -7 1372.90 238.489   2
   4   3   7 1250.45 298.788   3
   4   3   7 1241.14 316.141   8
  -4  -3  -7 1279.65 248.513   7
  -4  -3  -7 1186.70 339.254   1
   4   3   7 952.263 228.878   4
   4   3   8 13090.4 911.443   3
  -4  -3  -8 14881.4 1194.59   1
   4   3   8 12251.3 943.082   8
  -4  -3  -8 14034.1 771.764   7
  -4  -3  -8 14599.2 1121.95   3
  -4  -3  -9 4763.92 500.206   2
   4   3   9 4169.29 518.446   3
  -4  -3  -9 4200.08 629.081   3
   4   3   9 4641.48 610.803   8
  -4  -3  -9 4614.02 456.900   7
  -4  -3 -10 39779.0 1521.97   2
   4   3  10 37581.8 1536.78   3
   4   3  10 42605.0 1915.72   8
   4   3  10 42477.4 1520.02   4
  -4  -3 -10 45096.6 1401.44   7
  -4  -3 -10 46584.4 2107.64   3
  -4  -3 -11 587.525 291.884   3
  -4  -3 -11 1041.55 500.120   5
   4   3  11 915.836 326.560   8
   4   3  11 616.325 211.979   3
   4   3  11 1410.94 318.768   4
  -4  -3 -12 4050.28 649.551   3
  -4  -3 -12 4192.09 955.137   5
   4   3  12 4725.47 723.342   8
  -4  -3 -13 1597.65 612.042   5
   4   3  13 2572.62 554.875   8
  -4  -3 -14 3045.39 856.235   5
   4   3  14 5734.31 863.706   8
  -4  -4   9 4200.78 849.594   2
   4   4  -9 5455.29 1079.83   4
  -4  -4   8 5099.93 915.218   2
   4   4  -8 4003.08 900.079   4
   4   4  -7 310.603 333.142   4
  -4  -4   7 392.975 330.590   2
  -4  -4   6 3064.40 520.342   6
   4   4  -6 3013.07 531.893   3
   4   4  -6 3047.46 748.339   4
  -4  -4   6 3714.40 748.316   2
   4   4  -5 13369.0 1096.05   3
  -4  -4   5 17232.0 1417.31   2
   4   4  -5 12781.7 1376.02   4
   4   4  -5 15949.6 1124.85   6
  -4  -4   5 14796.9 1060.14   6
   4   4  -4 21174.7 1356.66   3
  -4  -4   4 21170.1 1523.24   2
  -4  -4   4 20103.4 723.943   5
   4   4  -4 21031.3 1702.69   4
   4   4  -4 20368.5 1200.80   6
  -4  -4   4 20769.3 1194.54   6
   4   4  -3 17894.3 1208.01   3
  -4  -4   3 15068.8 1214.46   2
  -4  -4   3 15866.2 703.585   5
   4   4  -3 15009.2 1353.78   4
   4   4  -3 16616.1 1030.77   6
  -4  -4   3 16848.1 1035.04   6
   4   4  -2 11341.7 946.191   3
   4   4  -2 8926.34 927.054   8
  -4  -4   2 9561.10 924.928   2
  -4  -4   2 9571.84 594.911   5
  -4  -4   2 11236.1 1013.88   8
   4   4  -2 7987.22 933.130   4
   4   4  -2 9524.43 760.292   6
  -4  -4   2 10873.1 805.881   6
   4   4  -1 6057.10 686.751   3
  -4  -4   1 6646.48 742.671   8
  -4  -4   1 5975.98 711.828   2
   4   4  -1 5834.70 726.954   8
  -4  -4   1 6996.38 758.364   3
   4   4  -1 5718.69 584.066   6
  -4  -4   1 5671.06 576.428   6
   4   4   0 30646.9 1502.83   3
  -4  -4   0 30513.7 1462.60   2
   4   4   0 33163.0 1656.54   8
  -4  -4   0 31081.0 1538.99   8
  -4  -4   0 32644.0 1600.08   3
   4   4   0 32000.9 1371.13   6
   4   4   1 2429.12 397.650   6
  -4  -4  -1 2390.17 478.755   3
  -4  -4  -1 1657.36 357.880   2
   4   4   1 2424.00 429.333   3
   4   4   1 2599.27 477.744   8
  -4  -4  -1 2052.26 377.996   8
   4   4   2 9202.24 818.672   3
  -4  -4  -2 9034.94 729.634   2
   4   4   2 10026.2 888.434   8
  -4  -4  -2 9232.97 772.401   8
  -4  -4  -2 9236.25 873.059   3
   4   4   2 9589.20 780.784   6
   4   4   3 19098.5 1172.80   3
  -4  -4  -3 18801.6 991.479   2
   4   4   3 19657.9 1219.11   8
  -4  -4  -3 19826.0 1091.29   8
  -4  -4  -3 20707.6 1302.56   3
   4   4   3 18668.1 1140.06   6
   4   4   4 40340.3 1698.56   3
   4   4   4 37727.2 1685.79   8
  -4  -4  -4 40019.2 1528.20   8
  -4  -4  -4 43662.4 1896.03   3
   4   4   5 21684.3 1251.43   3
   4   4   5 22246.4 1302.58   8
  -4  -4  -5 24693.1 1210.60   8
  -4  -4  -5 23537.9 1425.12   3
   4   4   6 15167.0 1035.39   3
   4   4   6 13547.6 1032.14   8
  -4  -4  -6 13660.3 746.899   7
  -4  -4  -6 14301.1 1007.51   1
  -4  -4  -6 13562.5 1106.04   3
  -4  -4  -7 854.446 325.310   3
  -4  -4  -7 834.634 302.404   1
   4   4   7 648.134 249.593   3
   4   4   7 1244.19 378.125   8
   4   4   7 760.588 181.516   4
  -4  -4  -7 755.397 203.695   7
   4   4   8 32756.6 1528.64   3
   4   4   8 32709.1 1645.06   8
   4   4   8 31971.9 1101.04   4
  -4  -4  -8 31809.5 1085.03   7
  -4  -4  -8 31209.3 1270.72   2
  -4  -4  -8 33161.0 1769.53   3
  -4  -4  -9 1647.51 438.107   3
   4   4   9 781.551 257.729   3
  -4  -4  -9 1178.48 286.367   2
   4   4   9 1294.96 402.683   8
   4   4   9 901.404 201.194   4
  -4  -4  -9 1039.71 212.187   7
  -4  -4 -10 212.059 267.675   3
   4   4  10-48.2253 262.684   8
   4   4  10-121.035 191.074   3
  -4  -4 -10 334.904 205.665   2
  -4  -4 -10 201.302 111.310   7
   4   4  10-55.6197 121.149   4
  -4  -4 -11 1305.88 402.333   3
   4   4  11 1755.30 445.985   8
   4   4  12 31541.6 1886.65   8
  -4  -4 -12 30733.0 1823.48   3
  -4  -4 -13-179.466 205.469   3
  -4  -4 -13-102.847 263.347   5
   4   4  13 342.565 248.097   8
   4   4  14 4869.51 819.708   8
   4   5  -8 1923.95 675.525   4
  -4  -5   8 2982.85 740.924   2
  -4  -5   7 12027.8 1354.47   2
   4   5  -7 11823.3 1506.03   4
  -4  -5   6 33573.4 2158.05   2
   4   5  -6 33206.6 2391.95   4
  -4  -5   5 130.488 309.406   2
  -4  -5   5 252.857 169.743   6
   4   5  -5 75.2904 182.688   3
   4   5  -5 436.931 397.404   4
   4   5  -4 563.588 231.004   6
  -4  -5   4 1028.38 386.257   2
  -4  -5   4 265.437 158.785   6
  -4  -5   4 557.285 170.147   5
   4   5  -4 1054.73 311.457   3
   4   5  -4 978.136 448.179   4
   4   5  -3 426.366 205.147   6
  -4  -5   3 743.692 334.270   2
  -4  -5   3 258.944 144.184   6
  -4  -5   3 854.172 221.369   5
   4   5  -3 465.587 235.978   3
   4   5  -3 355.117 328.491   4
   4   5  -2 21108.3 1351.55   3
  -4  -5   2 20631.1 1409.90   2
  -4  -5   2 21247.7 1059.39   5
   4   5  -2 23673.1 1609.73   8
   4   5  -2 19835.6 1510.01   4
   4   5  -2 22308.2 1119.95   6
  -4  -5   2 22404.0 1392.92   3
  -4  -5   2 22012.7 1101.47   6
   4   5  -1 14030.9 1090.20   3
  -4  -5   1 12866.3 1076.14   2
   4   5  -1 14074.1 1222.75   8
   4   5  -1 12681.7 1136.08   4
   4   5  -1 13336.9 856.415   6
  -4  -5   1 14324.2 1117.91   3
   4   5   0 5473.52 675.075   3
  -4  -5   0 5377.26 678.551   2
   4   5   0 6262.99 797.440   8
  -4  -5   0 5221.32 686.250   8
   4   5   0 5100.03 686.437   4
   4   5   0 5144.24 540.276   6
  -4  -5   0 6778.08 788.428   3
   4   5   1 21496.0 1315.01   3
  -4  -5  -1 20978.0 1259.19   2
   4   5   1 23647.8 1504.14   8
  -4  -5  -1 22468.0 1359.76   8
   4   5   1 20618.8 1254.44   4
  -4  -5  -1 21519.9 1379.45   3
   4   5   1 22487.0 1132.22   6
   4   5   2 52985.4 2058.96   3
  -4  -5  -2 54265.5 1954.41   2
   4   5   2 55329.4 2244.76   8
  -4  -5  -2 53640.3 2018.79   8
  -4  -5  -2 55891.9 2207.79   3
   4   5   2 53621.2 1800.31   6
   4   5   3 33744.0 1634.03   3
  -4  -5  -3 33314.0 1483.93   2
   4   5   3 32079.1 1714.89   8
  -4  -5  -3 33412.6 1553.18   8
  -4  -5  -3 34465.8 1756.42   3
   4   5   3 34312.2 1537.20   6
  -4  -5  -4 1524.85 431.415   3
   4   5   4 835.581 266.685   3
   4   5   4 1048.56 296.507   8
  -4  -5  -4 604.590 256.227   8
   4   5   5 8459.54 816.307   3
   4   5   5 8386.18 877.458   8
  -4  -5  -5 7169.61 706.782   8
  -4  -5  -5 8568.23 913.480   3
  -4  -5  -6 61239.8 2066.25   8
   4   5   6 57555.9 2305.07   8
  -4  -5  -6 56864.8 2326.76   3
   4   5   7 9130.69 941.006   8
   4   5   7 9420.70 521.694   4
  -4  -5  -7 8102.77 551.857   7
  -4  -5  -7 8613.21 931.969   3
   4   5   8 328.006 114.626   4
  -4  -5  -8 312.192 236.421   3
   4   5   8 548.412 287.783   8
  -4  -5  -8 408.153 145.185   7
   4   5   9 8991.45 966.904   8
   4   5   9 10661.0 553.221   4
  -4  -5  -9 9866.88 511.171   7
  -4  -5  -9 11132.3 1080.96   3
   4   5  10 9819.20 1042.41   8
  -4  -5 -10 11225.1 443.855   7
  -4  -5 -10 9917.39 890.500   2
  -4  -5 -10 11607.5 1134.54   3
  -4  -5 -11 2618.52 562.871   3
   4   5  11 2221.31 539.250   8
   4   5  12 8134.84 1010.26   8
  -4  -5 -12 9617.64 1064.27   3
  -4  -5 -13-585.851 301.836   3
   4   5  13-79.6071 267.380   8
   4   5  14 2997.58 653.304   8
   4   6  -7 46.4124 309.076   4
  -4  -6   7 235.720 395.419   2
   4   6  -6 1954.83 640.430   4
  -4  -6   6 1822.76 549.267   2
  -4  -6   5 707.409 414.760   2
   4   6  -5 408.539 330.481   4
  -4  -6   4 44927.1 2371.72   2
   4   6  -4 48556.2 2700.62   4
  -4  -6   3 11329.9 1151.89   2
  -4  -6   3 11232.4 855.219   5
   4   6  -3 12692.4 1293.27   8
   4   6  -3 11986.2 1273.25   4
   4   6  -3 13159.9 854.812   6
  -4  -6   3 11724.2 1051.77   3
   4   6  -2 197.797 132.089   6
  -4  -6   2 447.482 284.137   2
  -4  -6   2 170.204 222.000   3
  -4  -6   2 316.554 184.576   5
   4   6  -2 552.505 295.876   8
   4   6  -2 217.983 251.904   4
  -4  -6   1 6267.69 661.581   5
  -4  -6   1 7499.63 891.896   2
   4   6  -1 7167.50 930.151   8
   4   6  -1 7760.81 931.500   4
   4   6  -1 7389.01 601.769   6
  -4  -6   1 6917.93 827.351   3
  -4  -6   0 20557.3 1395.17   2
   4   6   0 18409.7 1456.78   8
   4   6   0 20493.2 1370.20   4
   4   6   0 21662.0 1047.40   6
  -4  -6   0 17865.7 1305.87   3
   4   6   1 195.353 149.787   6
  -4  -6  -1 291.273 257.531   3
  -4  -6  -1 200.174 213.717   2
   4   6   1 158.872 275.849   8
   4   6   1 259.326 190.823   4
  -4  -6  -2 12403.9 1034.58   2
   4   6   2 12361.6 1177.91   8
   4   6   2 11166.5 858.806   4
   4   6   2 12727.3 871.681   6
  -4  -6  -2 11729.1 1079.50   3
   4   6   3 1213.86 308.900   6
   4   6   3 699.793 327.800   8
  -4  -6  -3 1039.60 394.790   3
   4   6   3 1414.53 314.796   4
   4   6   4 26971.9 1706.54   8
   4   6   4 26199.8 1092.24   4
  -4  -6  -4 24474.5 1566.68   3
   4   6   4 27119.4 1422.76   6
   4   6   5 5318.87 776.244   8
  -4  -6  -5 5206.46 744.398   3
   4   6   5 4851.12 427.975   4
   4   6   6 8048.55 944.046   8
  -4  -6  -6 10962.4 1086.33   3
   4   6   7 27770.2 1752.05   8
   4   6   7 29658.2 761.679   4
  -4  -6  -7 30426.6 1802.88   3
   4   6   8 24044.9 1643.93   8
   4   6   8 26997.3 554.269   4
  -4  -6  -8 22263.3 804.189   7
  -4  -6  -8 24031.1 1629.88   3
  -4  -6  -9 538.132 269.996   3
  -4  -6  -9 626.401 232.285   2
   4   6   9 493.584 332.977   8
  -4  -6  -9 179.261 79.4950   7
  -4  -6 -10 2737.74 593.888   3
  -4  -6 -10 2812.69 512.351   2
   4   6  10 3455.75 669.690   8
   4   6  11 678.887 376.454   8
  -4  -6 -11 1580.20 478.094   3
  -4  -6 -12 3770.34 691.672   3
   4   6  12 4715.37 819.567   8
  -4  -6 -13 56.6059 132.229   3
   4   6  13-220.030 284.199   8
  -4  -7   6 11458.5 1359.96   2
   4   7  -6 10780.0 1460.97   4
  -4  -7   5 5225.85 912.499   2
   4   7  -5 5362.86 990.719   4
  -4  -7   4 6289.70 960.308   2
   4   7  -4 6945.65 1060.32   4
  -4  -7   3 1118.23 409.930   2
  -4  -7   3 1313.03 409.160   3
   4   7  -3 1214.63 481.675   8
   4   7  -3 850.445 427.345   4
  -4  -7   2 13446.2 1076.55   5
  -4  -7   2 13578.6 1288.22   2
   4   7  -2 16757.1 1546.22   8
   4   7  -2 15261.5 1384.86   4
   4   7  -2 14366.3 763.839   6
  -4  -7   2 15999.8 1293.49   3
   4   7  -1 980.831 222.003   6
  -4  -7   1 1401.10 369.900   5
  -4  -7   1 1192.78 399.104   3
  -4  -7   1 538.505 301.157   2
   4   7  -1 721.532 386.018   8
   4   7  -1 566.453 283.646   4
  -4  -7   0 9704.44 1047.90   2
   4   7   0 11151.7 1220.63   8
   4   7   0 9767.23 969.727   4
   4   7   0 11376.4 710.568   6
  -4  -7   0 11806.0 1127.42   3
   4   7   1 234.578 149.819   6
  -4  -7  -1 323.100 314.724   3
  -4  -7  -1 113.160 218.313   2
   4   7   1-116.644 314.337   8
   4   7   1-12.5696 239.999   4
  -4  -7  -2 7213.61 867.909   2
   4   7   2 6577.02 942.585   8
   4   7   2 7470.76 726.993   4
   4   7   2 7050.13 631.996   6
  -4  -7  -2 7036.66 885.848   3
   4   7   3 465.786 187.113   6
   4   7   3 89.3463 318.054   8
   4   7   3 618.923 232.046   4
   4   7   4 16618.0 1443.59   8
   4   7   4 14917.7 814.460   4
  -4  -7  -4 16396.6 1362.14   3
   4   7   4 16220.6 1094.90   6
   4   7   5 26145.0 1802.63   8
   4   7   5 27988.7 968.690   4
  -4  -7  -5 28151.1 1772.60   3
   4   7   6 24336.0 1758.88   8
   4   7   6 24368.0 710.618   4
  -4  -7  -6 25341.8 1710.57   3
  -4  -7  -7 986.929 389.923   3
   4   7   7 1229.42 452.686   8
   4   7   8 20297.6 1621.17   8
  -4  -7  -8 17724.3 706.095   7
  -4  -7  -8 18929.1 1514.31   3
   4   7   9 98.8471 233.634   8
  -4  -7  -9 786.174 342.198   3
  -4  -7 -10 1901.24 520.408   3
   4   7  10 2683.44 658.040   8
  -4  -7 -11 374.954 274.236   3
   4   7  11-502.085 316.955   8
   4   7  12 8746.97 1162.19   8
  -4  -7 -12 9109.91 1139.41   3
  -4  -7 -13-258.546 264.937   3
  -4  -7 -14 2975.52 689.599   3
  -4  -8   5-48.8644 347.156   2
   4   8  -5 497.811 315.712   4
  -4  -8   4 7035.48 1056.94   2
   4   8  -4 7101.63 1091.88   4
  -4  -8   4 8237.75 956.488   3
  -4  -8   3 3101.93 694.355   2
  -4  -8   3 2356.69 571.769   3
   4   8  -3 3153.85 743.158   8
   4   8  -3 3025.39 679.413   4
  -4  -8   2 20981.2 1708.20   2
   4   8  -2 19116.5 1734.27   8
   4   8  -2 18787.2 1567.63   4
  -4  -8   2 17681.2 1437.96   3
  -4  -8   1 2976.78 615.890   3
  -4  -8   1 3750.70 733.842   2
   4   8  -1 3213.22 719.818   8
   4   8  -1 2341.53 548.899   4
   4   8   0 866.026 168.729   6
  -4  -8   0 936.508 410.906   3
  -4  -8   0 641.095 317.764   2
   4   8   0 547.188 369.913   8
   4   8   0 528.340 300.706   4
   4   8   1 94.8834 103.479   6
  -4  -8  -1 35.2958 250.425   3
   4   8   1-113.815 219.394   8
  -4  -8  -1-116.740 304.829   2
   4   8   1 269.812 221.902   4
  -4  -8  -2 21197.0 1593.87   2
   4   8   2 23499.8 1854.11   8
   4   8   2 20741.5 1205.97   4
   4   8   2 21881.3 1047.02   6
  -4  -8  -2 22019.8 1622.84   3
   4   8   3 222.438 151.858   6
  -4  -8  -3-183.353 307.129   3
   4   8   3 115.430 270.739   8
   4   8   3 91.7827 149.237   4
  -4  -8  -4 4746.07 795.722   3
   4   8   4 5734.28 937.722   8
   4   8   4 4119.91 439.684   4
   4   8   4 5334.70 631.250   6
  -4  -8  -5-85.4847 313.332   3
   4   8   5-186.937 235.172   8
   4   8   5-60.7734 80.8236   4
  -4  -8  -6 11052.7 1190.66   3
   4   8   6 9940.84 1197.96   8
   4   8   7 41.5832 268.713   8
  -4  -8  -7 1076.67 424.494   3
  -4  -8  -8 6772.36 963.458   3
   4   8   8 7424.22 1062.97   8
  -4  -8  -9 1325.21 480.529   3
   4   8   9 192.267 274.266   8
  -4  -8 -10 9914.52 1210.68   3
   4   8  10 9341.76 1222.42   8
  -4  -8 -11-192.798 239.063   3
   4   8  11 21.2171 214.507   8
  -4  -8 -12 6196.54 973.133   3
  -4  -8 -13 660.834 392.563   3
  -4  -9   4 3068.09 637.171   3
   4   9  -4 3645.39 786.833   4
  -4  -9   3 389.453 377.390   2
  -4  -9   3 457.250 319.992   3
   4   9  -3 919.171 500.796   8
   4   9  -3 381.503 270.676   4
  -4  -9   2 2410.30 645.416   2
  -4  -9   2 1963.22 553.927   3
   4   9  -2 2681.35 746.962   8
   4   9  -2 2224.90 554.435   4
  -4  -9   1 4422.61 843.680   2
  -4  -9   1 4059.47 732.112   3
   4   9  -1 3143.66 751.411   8
   4   9  -1 3491.51 657.054   4
  -4  -9   0 12427.5 1358.84   2
   4   9   0 12307.8 1472.74   8
   4   9   0 12097.8 1113.23   4
  -4  -9   0 10949.3 1210.45   3
   4   9   1 6388.56 1081.76   8
   4   9   1 6327.77 758.019   4
  -4  -9  -1 6752.91 1004.27   2
  -4  -9  -1 6202.84 930.153   3
  -4  -9  -2 1537.62 499.623   3
   4   9   2 1746.07 580.957   8
  -4  -9  -2 2360.27 596.200   2
   4   9   2 2057.63 392.127   4
  -4  -9  -3-261.206 292.811   3
   4   9   3 153.397 152.238   4
   4   9   4 7566.79 1136.38   8
   4   9   4 6875.15 570.010   4
   4   9   4 6703.85 672.077   6
  -4  -9  -4 7269.25 995.424   3
   4   9   5 702.427 268.615   6
  -4  -9  -5 888.828 399.830   3
   4   9   5 462.976 426.821   8
  -4  -9  -6 5140.42 879.425   3
   4   9   6 5442.99 977.447   8
  -4  -9  -7 2435.55 639.492   3
   4   9   7 1956.58 592.740   8
  -4  -9  -8 9284.65 1183.62   3
   4   9   8 11297.4 1408.09   8
  -4  -9  -9 748.350 403.366   3
   4   9   9 953.957 455.768   8
  -4  -9 -10 1588.06 517.506   3
   4   9  10 445.281 346.676   8
  -4  -9 -11 1137.59 491.964   3
  -4 -10   3 738.166 379.272   3
   4  10  -3 565.009 338.520   4
  -4 -10   2 3480.48 748.946   3
   4  10  -2 1782.00 541.029   4
  -4 -10   1 2851.28 662.974   3
  -4 -10   1 2355.48 657.387   2
   4  10  -1 1416.21 445.369   4
   4  10   0 1668.53 616.776   8
  -4 -10   0 2150.14 592.323   3
  -4 -10   0 1623.99 575.390   2
   4  10   0 1973.96 466.309   4
  -4 -10  -1 1611.40 530.948   3
   4  10   1 1702.17 554.538   8
  -4 -10  -1 1565.95 590.507   2
   4  10   1 1305.86 378.216   4
  -4 -10  -2 4133.61 792.552   3
   4  10   2 5445.21 1028.18   8
  -4 -10  -2 5002.16 895.399   2
  -4 -10  -3-254.294 313.350   3
   4  10   3 115.041 373.829   8
   4  10   4 6652.84 1132.99   8
  -4 -10  -4 6460.47 1012.49   3
  -4 -10  -5 3533.39 761.963   3
   4  10   5 2239.14 696.248   8
  -4 -10  -6 4636.49 880.008   3
   4  10   6 4952.42 1012.87   8
  -4 -10  -7 2111.59 633.752   3
   4  10   7 2585.35 689.971   8
  -4 -10  -8 1648.35 523.677   3
   4  10   8 887.980 431.700   8
  -4 -11   1 480.384 406.144   3
  -4 -11   0 2446.67 662.310   3
  -4 -11  -1 730.081 428.289   3
  -4 -11  -2 1702.46 562.541   3
  -4 -11  -3 1734.42 582.350   2
  -5  10   2 134.560 198.936   7
  -5  10   1 1882.37 544.053   7
   5  -9  -5 3582.31 737.841   6
   5  -9  -4 460.434 355.296   6
  -5   9   4-43.3148 266.370   7
   5  -9  -3 1355.98 457.651   6
  -5   9   3 1928.31 546.128   7
   5  -9  -2 2322.48 528.814   6
  -5   9   2 2630.64 634.946   7
   5  -9  -1 1382.25 454.371   6
   5  -9  -1 1920.54 614.218   3
  -5   9   1 1321.16 465.053   7
   5  -9   0 3692.85 847.156   3
  -5   9   0 4257.67 793.235   7
   5  -9   1 12963.8 1498.26   3
  -5   9  -1 11296.0 1304.53   7
   5  -9   2 1888.65 580.118   3
  -5   9  -2 1060.84 457.281   7
   5  -9   3-26.2799 287.143   3
   5  -9   4 329.336 260.629   3
   5  -8  -6 589.288 437.582   6
   5  -8  -5 2998.43 666.104   6
  -5   8   5 2985.48 584.196   7
   5  -8  -4 96.8748 231.033   6
   5  -8  -4-178.541 259.590   3
  -5   8   4-1.62295 205.850   7
   5  -8  -3 10128.8 1326.65   3
  -5   8   3 8345.93 1010.74   7
   5  -8  -3 8651.38 1031.17   6
   5  -8  -2 889.240 354.712   6
   5  -8  -2 1058.86 494.447   3
  -5   8   2 1326.28 444.770   7
   5  -8  -1 7448.27 1147.59   3
  -5   8   1 6985.80 959.561   7
   5  -8  -1 7354.17 905.238   6
   5  -8   0 2591.23 542.400   6
   5  -8   0 3144.50 783.622   3
  -5   8   0 2313.93 580.766   7
   5  -8   1 236.634 245.075   6
   5  -8   1 303.216 371.249   3
  -5   8  -1 306.897 269.863   7
   5  -8   2 467.006 220.066   6
   5  -8   2-121.115 248.605   3
  -5   8  -2 239.726 262.388   7
   5  -8   3 7999.02 1101.72   3
  -5   8  -3 6359.51 989.131   7
   5  -8   3 6843.08 825.521   6
   5  -8   4 28.7217 272.865   3
  -5   8  -4-306.015 343.785   7
   5  -8   5 3916.25 728.502   3
   5  -7  -7 1790.78 548.154   6
   5  -7  -7 2501.76 691.755   3
   5  -7  -6-417.610 398.273   6
   5  -7  -6-287.393 298.553   3
  -5   7   6-288.377 231.114   7
   5  -7  -5 16472.6 1630.35   3
  -5   7   5 13599.1 1184.44   7
   5  -7  -5 15543.2 1438.87   6
   5  -7  -4 12.3735 223.611   6
   5  -7  -4-154.753 282.195   3
  -5   7   4-307.116 324.560   7
   5  -7  -3 16259.9 1586.63   3
  -5   7   3 15918.8 1337.99   7
   5  -7  -3 16141.4 1394.82   6
   5  -7  -2 567.407 338.547   6
  -5   7   2 283.421 206.364   7
   5  -7  -1 608.292 366.656   6
  -5   7   1 1134.68 410.574   7
   5  -7   0 193.989 214.255   6
  -5   7   0 72.5884 261.541   7
   5  -7   1 30668.9 2096.03   3
  -5   7  -1 29808.9 1953.80   7
   5  -7   1 27603.0 1673.27   6
   5  -7   2 1299.78 408.477   6
  -5   7  -2 1580.05 506.779   7
   5  -7   2 1072.02 436.362   3
   5  -7   3 14502.4 1393.11   3
  -5   7  -3 15064.5 1422.41   7
   5  -7   3 16112.9 1280.51   6
   5  -7   4 99.8076 167.419   6
   5  -7   4-74.0364 231.003   3
   5  -7   5 3832.07 642.267   6
   5  -7   5 3375.04 656.142   3
  -5   7  -5 3050.38 712.780   7
   5  -7   6 567.787 275.656   6
   5  -7   6 553.117 301.399   3
  -5   7  -6 746.874 420.814   7
  -5   6   9 1861.83 450.969   8
   5  -6  -8 1080.86 529.074   6
  -5   6   8 592.983 340.472   8
   5  -6  -8 373.250 245.417   3
  -5   6   7 7388.21 853.896   8
  -5   6   7 6102.37 759.065   7
   5  -6  -7 6744.87 1026.04   3
   5  -6  -7 7668.42 1065.13   6
   5  -6  -6 1551.43 493.662   6
  -5   6   6 769.793 281.743   8
  -5   6   6 873.556 336.507   7
   5  -6  -5 3982.98 740.650   6
  -5   6   5 2965.54 494.039   8
  -5   6   5 3533.06 602.626   7
   5  -6  -4 188.470 251.373   6
  -5   6   4 345.869 151.988   8
  -5   6   4 522.322 292.160   7
  -5   6   3 15986.6 938.465   8
  -5   6   3 14063.5 1213.23   7
   5  -6  -3 15882.8 1351.62   6
   5  -6  -2 3678.75 667.289   6
  -5   6   2 3248.03 352.198   8
  -5   6   2 3835.13 666.594   7
  -5   6   1 41115.2 837.860   8
  -5   6   1 42302.1 2160.25   7
   5  -6  -1 43358.4 2133.61   6
  -5   6   0 6563.51 890.737   7
   5  -6   0 7168.37 869.969   6
  -5   6  -1 6352.40 892.770   7
   5  -6   1 7076.29 869.505   6
   5  -6   2-123.883 265.927   6
  -5   6  -2 375.503 271.715   7
  -5   6  -3 18381.8 1512.22   7
   5  -6   3 18556.2 1373.91   6
   5  -6   4-188.012 231.528   6
  -5   6  -4 236.520 242.848   7
  -5   6  -5 18338.1 1657.01   5
  -5   6  -5 18670.5 1577.35   7
   5  -6   5 18916.7 1406.16   6
   5  -6   6 166.381 308.312   6
  -5   6  -6 34.3682 207.870   5
   5  -6   6-21.9726 214.974   2
  -5   6  -6 215.007 294.832   7
   5  -6   6-110.839 259.762   3
   5  -6   7 8411.39 878.541   3
  -5   6  -7 8349.83 1237.88   5
  -5   6  -7 7602.00 1044.65   7
   5  -6   7 8731.32 1011.38   6
   5  -6   8-35.0518 214.180   6
  -5   6  -8 475.618 371.529   7
   5  -5 -10 2541.61 660.061   3
   5  -5 -10 1737.91 528.017   4
   5  -5  -9 5769.74 935.764   3
  -5   5   9 4874.85 685.718   1
   5  -5  -8-296.912 328.196   6
  -5   5   8-563.520 282.566   7
   5  -5  -7 3459.79 759.109   6
  -5   5   7 3224.37 539.329   8
  -5   5   7 3276.02 565.654   7
   5  -5  -6-126.045 258.195   6
  -5   5   6 321.311 167.586   8
  -5   5   6-106.498 227.240   7
   5  -5  -5 4366.08 767.566   6
   5  -5  -5 4963.81 696.267   5
  -5   5   5 4547.41 578.434   8
  -5   5   5 3390.22 571.532   7
   5  -5  -4 84.4207 221.056   6
   5  -5  -4 365.115 212.738   5
  -5   5   4-10.7930 93.1279   8
  -5   5   4 609.817 319.974   7
   5  -5  -3 24107.9 1548.84   5
  -5   5   3 28155.6 1192.59   8
  -5   5   3 24950.2 1553.30   7
   5  -5  -3 25949.3 1691.46   6
   5  -5  -2 26675.9 1631.40   5
  -5   5   2 27490.9 974.761   8
  -5   5   2 23059.4 1532.96   7
   5  -5  -2 25930.0 1656.30   6
   5  -5  -1 2223.60 503.439   6
   5  -5  -1 2188.36 487.625   5
  -5   5   1 1553.22 129.554   8
  -5   5   1 1697.24 457.263   7
   5  -5   0 1761.09 451.013   6
   5  -5   0 1756.84 421.561   2
  -5   5   0 1699.60 456.021   7
  -5   5  -1 16418.2 1332.41   7
   5  -5   1 14741.2 1052.06   2
   5  -5   1 16679.2 1286.21   6
   5  -5   2 221.634 242.771   6
   5  -5   2 148.078 153.999   2
  -5   5  -2-123.042 334.052   7
  -5   5  -3 40253.2 2168.12   5
  -5   5  -3 43167.6 2210.82   7
   5  -5   3 40844.4 2000.03   6
   5  -5   4 305.054 274.527   6
  -5   5  -4-159.282 293.897   5
  -5   5  -4 103.253 287.426   7
  -5   5  -5 6197.23 944.506   5
  -5   5  -5 5916.62 858.248   7
   5  -5   5 5843.19 801.138   6
   5  -5   6 66.7084 276.428   6
  -5   5  -6-340.993 397.546   5
   5  -5   6-45.2019 144.433   2
  -5   5  -6-97.5728 211.577   7
  -5   5  -7 16635.5 1655.19   5
   5  -5   7 17247.4 1056.06   2
  -5   5  -7 16261.8 1452.46   7
   5  -5   7 17772.4 1432.62   6
   5  -5   8 450.743 279.528   6
  -5   5  -8 1070.43 549.639   5
  -5   5  -8 835.025 401.266   7
  -5   5  -9 12436.6 1569.41   5
  -5   5  -9 14604.6 1443.49   7
   5  -5   9 15899.2 1452.44   6
   5  -5  10 657.771 399.727   6
  -5   4  11 3165.06 632.311   1
   5  -4 -11 3283.99 690.571   3
  -5   4  10-56.4696 199.479   1
   5  -4 -10 589.752 334.090   3
   5  -4 -10 634.462 346.348   4
  -5   4   9 3762.32 606.911   1
  -5   4   9 2893.21 534.167   7
   5  -4  -8-4.14876 271.104   6
  -5   4   8 316.658 186.858   1
  -5   4   8 148.507 171.099   7
   5  -4  -7 5205.72 851.517   6
  -5   4   7 4689.04 647.800   7
  -5   4   7 5659.00 659.975   1
   5  -4  -6 2326.87 584.500   6
  -5   4   6 1901.05 373.170   1
  -5   4   6 1919.03 427.855   7
   5  -4  -5 2915.90 628.654   6
  -5   4   5 2719.36 500.586   7
  -5   4   5 2997.15 425.219   1
   5  -4  -4 2600.58 573.680   6
  -5   4   4 2911.31 417.264   8
  -5   4   4 3572.58 592.399   7
   5  -4  -3 6124.00 697.630   5
  -5   4   3 5079.79 492.198   8
  -5   4   3 4341.37 670.261   7
   5  -4  -3 5259.15 777.611   6
   5  -4  -2 1271.43 424.284   6
   5  -4  -2 811.984 281.035   5
  -5   4   2 845.992 187.860   8
  -5   4   2 548.668 282.628   7
   5  -4  -1 31920.2 1623.00   5
  -5   4   1 33396.5 622.635   8
  -5   4   1 31565.8 592.649   8
  -5   4   1 30211.3 1702.56   7
   5  -4  -1 28645.4 1569.64   2
   5  -4  -1 35420.2 1896.18   6
   5  -4   0 646.213 288.784   6
   5  -4   0 1119.09 343.180   5
   5  -4   0 883.606 280.538   2
  -5   4   0 994.222 351.878   7
   5  -4   1 4210.72 631.481   5
   5  -4   1 3464.41 604.702   6
   5  -4   1 2892.26 453.683   2
  -5   4  -1 3928.10 663.878   7
   5  -4   2 4982.33 691.577   5
  -5   4  -2 3944.98 623.025   5
  -5   4  -2 5229.04 742.386   7
   5  -4   2 4654.10 533.029   2
   5  -4   2 4847.27 692.592   6
   5  -4   3 3344.17 592.892   6
  -5   4  -3 3246.06 618.330   5
  -5   4  -3 3575.79 627.582   7
   5  -4   3 3301.13 429.310   2
   5  -4   4 699.546 335.235   6
  -5   4  -4 285.805 257.887   5
  -5   4  -4-270.900 254.345   7
  -5   4  -5 44056.5 2368.07   5
  -5   4  -5 46560.5 2265.53   7
   5  -4   5 45655.8 2157.39   6
   5  -4   6 4409.32 473.281   2
  -5   4  -6 5014.18 867.790   5
  -5   4  -6 5586.72 829.156   7
   5  -4   6 4672.30 385.990   1
   5  -4   6 5244.98 761.755   6
  -5   4  -7 12537.3 1384.43   5
   5  -4   7 12807.6 776.553   2
  -5   4  -7 14820.1 1338.97   7
   5  -4   7 14231.7 797.136   1
   5  -4   7 12587.2 1210.42   6
   5  -4   8 121.913 274.937   6
  -5   4  -8-540.366 370.472   5
   5  -4   8-112.744 148.955   1
  -5   4  -8-583.323 307.866   7
   5  -4   9 9549.27 819.612   1
  -5   4  -9 8769.86 1256.86   5
  -5   4  -9 10170.9 1156.92   7
   5  -4   9 9623.56 1143.94   6
   5  -4  10 88.5985 236.464   6
  -5   4 -10-197.531 297.027   5
  -5   4 -10 296.456 286.509   7
   5  -4  11 2210.05 602.744   6
   5  -4  12-245.337 288.049   6
   5  -3 -11 1511.53 500.891   3
  -5   3  11 1271.96 419.255   1
   5  -3 -11 1216.41 471.117   4
   5  -3 -10 1703.30 507.701   4
  -5   3  10 1019.05 345.548   1
   5  -3  -9 2858.37 688.755   6
  -5   3   9 3364.54 597.416   1
   5  -3  -9 3014.99 650.855   4
   5  -3  -8 5006.61 864.098   6
  -5   3   8 5014.08 677.850   1
  -5   3   7 7631.72 780.354   1
   5  -3  -7 8463.35 1065.18   6
   5  -3  -6 993.805 377.320   6
  -5   3   6 1004.96 281.925   1
   5  -3  -5 14862.8 859.149   5
  -5   3   5 15805.5 962.198   1
  -5   3   5 14624.5 1120.33   7
   5  -3  -5 15561.5 1350.54   6
  -5   3   4 8076.67 635.934   1
   5  -3  -4 7965.65 655.274   5
  -5   3   4 7685.85 834.612   7
   5  -3  -4 8509.44 976.690   6
  -5   3   3 15094.6 745.833   1
   5  -3  -3 16006.0 958.447   5
  -5   3   3 12932.9 1074.95   7
   5  -3  -3 15756.4 1284.75   6
   5  -3  -2 3464.64 614.717   6
  -5   3   2 3756.73 372.342   8
   5  -3  -2 3039.31 549.637   2
  -5   3   2 3214.35 566.870   7
  -5   3   1 7627.80 378.723   8
  -5   3   1 7894.23 379.448   8
  -5   3   1 8081.84 879.222   7
   5  -3  -1 8060.84 913.205   6
   5  -3  -1 7337.92 774.601   2
   5  -3   0 9946.48 843.087   5
  -5   3   0 12332.2 1088.76   7
   5  -3   0 12017.3 926.752   2
   5  -3   0 13845.8 1160.79   6
  -5   3  -1 6732.98 734.323   5
   5  -3   1 7860.56 774.475   5
  -5   3  -1 7036.19 838.764   7
   5  -3   1 6214.96 631.731   2
   5  -3   1 7672.07 856.331   6
  -5   3  -1 6752.68 837.109   6
   5  -3   2 4449.90 659.371   6
   5  -3   2 4387.60 603.810   5
  -5   3  -2 3802.76 588.010   5
  -5   3  -2 4390.47 670.771   7
   5  -3   2 4547.84 504.766   2
  -5   3  -3 35047.8 1819.23   5
   5  -3   3 34685.0 1723.51   5
  -5   3  -3 35311.7 1854.48   7
   5  -3   3 32974.6 1218.68   2
   5  -3   3 32456.9 1750.59   6
   5  -3   4 3648.04 631.728   6
  -5   3  -4 3270.10 600.505   5
  -5   3  -4 3808.58 632.415   7
   5  -3   4 4025.57 396.921   2
  -5   3  -5 16059.5 1377.00   5
  -5   3  -5 15859.7 1254.17   7
   5  -3   5 16327.6 714.912   2
   5  -3   5 15702.8 1267.30   6
  -5   3  -6-159.149 244.081   5
   5  -3   6-22.0013 92.5503   2
   5  -3   6 152.871 75.2176   8
   5  -3   6 57.3917 64.9220   8
  -5   3  -6 151.528 218.946   7
   5  -3   7 10410.0 540.686   2
  -5   3  -7 11788.4 1293.48   5
   5  -3   7 11905.8 724.503   8
  -5   3  -7 11037.0 1096.05   7
   5  -3   7 11674.8 711.012   1
   5  -3   7 11329.0 911.335   3
   5  -3   7 11026.7 1134.26   6
   5  -3   8 66.2861 134.869   1
   5  -3   8-81.9535 241.777   6
  -5   3  -8 2.14800 263.865   5
  -5   3  -8 81.4840 194.362   7
  -5   3  -9 8989.32 1262.67   5
  -5   3  -9 8092.12 995.577   7
   5  -3   9 9593.77 808.474   1
   5  -3   9 9888.10 1174.45   6
   5  -3  10 693.414 421.040   6
   5  -3  10 435.284 228.667   1
  -5   3 -10 855.871 462.359   5
  -5   3 -10 1039.97 361.286   7
   5  -3  11 6385.29 1042.51   6
  -5   3 -11 7792.90 1274.71   5
   5  -3  11 8276.38 891.668   1
   5  -3  12 460.556 330.957   6
  -5   2  11 3598.30 722.849   1
   5  -2 -11 3312.56 751.984   4
  -5   2  10 2387.22 568.894   1
   5  -2 -10 2400.09 614.713   4
   5  -2  -9 4224.95 795.712   6
  -5   2   9 3789.74 759.394   2
  -5   2   9 2931.14 575.662   1
   5  -2  -9 2890.47 658.080   4
   5  -2  -8 50.5218 268.762   6
  -5   2   8-120.618 223.123   1
  -5   2   8 56.7219 255.812   2
  -5   2   7 13126.8 1046.26   1
  -5   2   7 14969.7 1365.83   2
   5  -2  -7 14169.6 1345.28   6
   5  -2  -6 4106.32 730.533   6
  -5   2   6 3688.89 674.364   2
   5  -2  -5 3741.47 679.147   6
   5  -2  -5 3510.86 272.294   5
  -5   2   5 3188.10 609.619   2
  -5   2   5 3258.87 508.851   8
  -5   2   4 1283.22 402.042   2
   5  -2  -4 1357.89 212.760   5
  -5   2   4 1266.03 316.541   8
   5  -2  -3 23849.5 1541.99   2
   5  -2  -3 23396.3 931.947   5
  -5   2   3 21522.2 1063.34   8
   5  -2  -3 24900.7 1585.44   6
   5  -2  -2-198.541 321.374   6
   5  -2  -2-41.3403 126.439   5
  -5   2   2-7.18228 98.5229   8
   5  -2  -2-255.409 243.582   2
  -5   2   2-63.3929 208.684   7
   5  -2  -1 73704.3 1913.23   5
  -5   2   1 75008.7 1446.98   8
  -5   2   1 77764.0 1264.88   1
  -5   2   1 78797.7 2632.34   7
   5  -2  -1 75842.8 2675.55   6
  -5   2   1 76248.7 2690.31   6
   5  -2  -1 72125.8 2366.66   2
   5  -2   0 3811.49 631.334   6
  -5   2   0 3208.42 560.701   6
  -5   2   0 1874.88 345.368   5
  -5   2   0 2840.38 161.525   8
   5  -2   0 2795.80 408.793   5
   5  -2   0 3276.52 482.433   2
  -5   2   0 2385.91 508.251   7
  -5   2  -1 25863.7 1303.26   5
  -5   2  -1 27175.0 1558.22   7
   5  -2   1 25379.9 1512.75   6
   5  -2   1 24063.1 1176.35   2
  -5   2  -1 26991.2 1583.97   6
   5  -2   2 212.768 260.988   6
  -5   2  -2-78.4263 184.072   5
   5  -2   2 312.929 205.540   5
   5  -2   2 137.181 111.167   2
  -5   2  -2 335.206 260.665   7
   5  -2   3 225.954 189.997   6
  -5   2  -3 536.182 270.512   5
   5  -2   3 57.0075 131.829   5
   5  -2   3 310.055 154.133   2
  -5   2  -3 358.664 222.304   7
   5  -2   4 4513.31 603.737   5
  -5   2  -4 4643.05 677.009   5
  -5   2  -4 5113.78 690.664   7
   5  -2   4 4837.95 379.273   2
   5  -2   4 5018.58 698.584   6
  -5   2  -5 9483.49 998.775   5
   5  -2   5 10289.5 428.926   2
   5  -2   5 9219.94 360.692   8
   5  -2   5 9502.92 349.891   8
  -5   2  -5 10471.7 989.492   7
   5  -2   5 10181.8 428.993   2
   5  -2   5 9404.05 979.400   6
   5  -2   6 505.199 312.293   6
   5  -2   6-265.896 190.387   3
  -5   2  -6 368.771 285.934   5
   5  -2   6 81.3782 89.6174   8
   5  -2   6 75.8899 94.3465   8
  -5   2  -6 142.514 228.088   7
  -5   2  -7 26080.5 1819.36   5
   5  -2   7 30932.4 1010.57   8
  -5   2  -7 31589.9 1734.72   7
   5  -2   7 28569.8 1419.16   3
   5  -2   7 32210.3 1931.75   6
   5  -2   8 2958.61 634.000   6
   5  -2   8 3016.17 452.492   3
  -5   2  -8 3746.03 737.702   5
  -5   2  -8 3076.73 585.003   7
   5  -2   8 2415.47 380.818   1
  -5   2  -9 39334.5 2495.31   5
  -5   2  -9 38707.4 2004.29   7
   5  -2   9 41201.4 1643.98   1
   5  -2   9 40313.1 2306.12   6
   5  -2  10-120.050 166.575   1
  -5   2 -10 448.861 335.434   5
  -5   2 -10 199.098 249.122   7
   5  -2  11 3106.93 551.627   1
  -5   2 -11 3527.94 874.090   5
  -5   2 -11 2427.91 541.470   7
   5  -2  12 93.0991 241.381   1
  -5   2 -12-48.1051 319.058   5
   5  -2  13 1665.26 472.256   1
  -5   1  11 1996.26 592.624   1
  -5   1  10 1458.63 454.669   1
   5  -1 -10 858.666 435.526   4
  -5   1   9 6092.27 953.367   2
   5  -1  -9 5423.82 909.335   4
   5  -1  -9 5825.27 935.131   6
   5  -1  -8-56.7700 230.787   6
  -5   1   8 586.647 351.417   2
   5  -1  -8 649.708 396.550   4
   5  -1  -7 2951.12 638.609   6
  -5   1   7 3527.95 676.794   2
  -5   1   6 18282.3 1428.82   2
   5  -1  -6 19497.6 1513.65   6
  -5   1   5 39218.7 1796.58   8
  -5   1   5 37063.4 1956.00   2
   5  -1  -5 37475.4 2030.23   6
  -5   1   4 15086.7 1044.24   8
  -5   1   4 14127.7 1166.61   2
   5  -1  -4 15816.5 1286.35   6
   5  -1  -3 21291.8 1447.05   2
  -5   1   3 20735.7 1362.09   2
   5  -1  -3 20464.2 1414.59   6
   5  -1  -2 2305.77 488.460   6
  -5   1   2 2156.52 460.894   2
  -5   1   2 2283.29 347.139   8
   5  -1  -2 3362.43 548.887   2
   5  -1  -1 11000.9 914.070   2
  -5   1   1 11762.7 666.251   8
  -5   1   1 11986.5 955.569   2
   5  -1  -1 11205.2 1024.89   6
  -5   1   1 12062.0 1051.98   6
   5  -1   0 1827.69 454.978   6
  -5   1   0 2386.37 476.804   6
  -5   1   0 2020.67 316.237   5
  -5   1   0 2242.05 248.307   8
  -5   1   0 1621.95 430.472   7
   5  -1   0 2546.52 419.407   2
   5  -1   1 31343.0 1278.34   2
  -5   1  -1 30791.1 1313.13   5
  -5   1  -1 31752.1 661.747   8
  -5   1  -1 30609.1 1612.86   7
   5  -1   1 31413.5 1652.23   6
  -5   1  -1 31065.7 1668.66   6
  -5   1  -2 2488.78 223.959   1
   5  -1   2 2449.75 476.522   6
  -5   1  -2 2373.66 412.892   5
  -5   1  -2 2319.13 469.224   7
   5  -1   2 2101.88 294.636   2
   5  -1   3 40926.4 1061.08   2
  -5   1  -3 42362.0 1755.80   5
  -5   1  -3 42576.2 1899.65   7
   5  -1   3 41093.7 1895.93   6
   5  -1   4 60.4565 46.7975   2
   5  -1   4-15.5525 237.284   6
   5  -1   4-58.2979 167.923   3
  -5   1  -4 98.2203 195.557   5
   5  -1   4 88.3771 47.7252   8
  -5   1  -4-91.7002 184.804   7
  -5   1  -5 7947.29 868.220   5
   5  -1   5 8222.40 450.751   8
  -5   1  -5 7133.05 776.784   7
   5  -1   5 7435.08 761.734   3
   5  -1   5 7296.92 861.568   6
  -5   1  -6 4995.10 752.173   5
   5  -1   6 6967.49 471.512   8
  -5   1  -6 7153.86 787.517   7
   5  -1   6 6260.60 690.216   3
   5  -1   6 7583.54 921.265   6
  -5   1  -7 25261.9 1712.28   5
   5  -1   7 26956.0 1017.59   8
  -5   1  -7 27850.2 1543.95   7
   5  -1   7 25115.7 1327.55   3
   5  -1   7 27100.1 1745.25   6
   5  -1   8-139.577 294.202   6
   5  -1   8 39.4667 95.4706   3
   5  -1   8-29.3231 110.906   8
  -5   1  -8-416.451 256.049   7
   5  -1   9 9099.31 724.002   3
  -5   1  -9 10272.2 1252.47   5
   5  -1   9 10158.6 747.625   8
  -5   1  -9 10110.1 981.847   7
  -5   1 -10-120.003 340.381   5
   5  -1  10 147.854 178.451   1
  -5   1 -11 16958.9 1799.54   5
  -5   1 -11 16131.3 1294.66   7
   5  -1  11 18435.5 1282.95   1
  -5   1 -12-414.360 397.460   5
   5  -1  12 287.832 261.511   1
   5  -1  13 3631.82 658.041   1
   5  -1  14 770.111 363.203   1
   5   0 -10 3440.68 783.974   4
  -5   0   9 7717.47 1093.05   2
   5   0  -9 5666.02 940.577   4
   5   0  -8 2472.84 611.201   6
  -5   0   8 2418.32 655.128   2
   5   0  -8 2234.05 633.862   4
   5   0  -7 12733.1 1324.12   4
   5   0  -7 13666.7 1290.88   6
  -5   0   7 12606.7 1265.24   2
   5   0  -6 2363.20 541.676   6
  -5   0   6 3691.39 671.377   2
   5   0  -5 1006.95 391.797   6
  -5   0   5 799.501 314.747   8
  -5   0   5 882.032 361.841   2
  -5   0   4 21099.4 1302.00   8
  -5   0   4 22406.2 1468.38   2
   5   0  -4 20668.2 1443.47   6
   5   0  -3 12844.3 1110.13   2
  -5   0   3 13736.4 972.107   8
  -5   0   3 12579.1 1059.82   2
   5   0  -3 13164.7 1117.31   6
   5   0  -2 153.112 267.016   6
   5   0  -2-26.4213 167.918   2
  -5   0   2-36.9915 174.583   6
  -5   0   2-212.488 302.915   2
   5   0  -1 63451.5 2110.79   2
  -5   0   1 66716.8 1782.20   8
  -5   0   1 68034.9 2196.49   2
   5   0  -1 63428.4 2390.56   6
  -5   0   1 67746.9 2444.26   6
   5   0   0 14811.8 932.125   2
  -5   0   0 14724.9 750.911   5
  -5   0   0 14826.6 754.186   8
  -5   0   0 15181.8 1010.04   2
   5   0   0 15059.8 1140.18   6
  -5   0   0 14786.5 1128.00   6
   5   0   1 59813.6 1668.99   2
  -5   0  -1 61375.2 1692.13   5
  -5   0  -1 61037.5 1335.26   8
  -5   0  -1 60725.0 1836.59   2
   5   0   1 62628.0 2338.33   3
   5   0   1 65622.5 2339.77   6
  -5   0  -1 65832.9 2370.40   6
   5   0   2 23600.4 914.904   2
  -5   0  -2 25040.3 1179.16   5
   5   0   2 26730.7 854.791   8
  -5   0  -2 26340.1 802.156   8
  -5   0  -2 27537.4 1477.18   7
  -5   0  -2 28193.3 1087.10   2
   5   0   2 26222.3 1472.16   3
   5   0   2 27003.7 1504.79   6
  -5   0  -3 13093.8 918.124   5
   5   0   3 12401.8 531.764   2
   5   0   3 13200.4 597.352   8
  -5   0  -3 14762.6 1080.28   7
  -5   0  -3 12861.0 680.714   1
   5   0   3 12788.7 1017.94   3
   5   0   3 11703.6 1015.90   6
   5   0   4 3733.64 618.021   6
  -5   0  -4 4945.59 478.293   1
  -5   0  -4 3745.04 552.049   5
   5   0   4 4223.42 360.969   8
  -5   0  -4 4550.03 618.670   7
   5   0   4 5013.94 630.762   3
  -5   0  -5 24579.1 1436.62   5
   5   0   5 27071.4 973.256   8
  -5   0  -5 24685.0 1163.10   1
  -5   0  -5 25455.3 1396.27   7
   5   0   5 25856.2 1386.56   3
   5   0   5 26123.7 1596.12   6
   5   0   6 116.734 212.482   6
   5   0   6 194.796 152.033   3
  -5   0  -6 553.401 290.354   5
   5   0   6 432.461 159.927   8
   5   0   6 59.2044 113.583   4
  -5   0  -6 147.310 151.344   7
   5   0   7 178.243 245.134   6
   5   0   7 275.624 180.784   3
  -5   0  -7 130.483 241.147   5
   5   0   7 4.48025 96.2001   8
   5   0   7-52.3860 79.2141   4
  -5   0  -7 10.1198 163.878   7
   5   0   8 1322.91 300.316   3
  -5   0  -8 1899.65 518.494   5
   5   0   8 1783.47 318.447   8
  -5   0  -8 1581.31 382.889   7
   5   0   9 29167.1 1314.32   3
  -5   0  -9 34232.5 2235.71   5
   5   0   9 31556.3 1357.06   8
  -5   0  -9 30853.6 1605.13   7
  -5   0 -10-173.050 303.387   5
   5   0  10 190.106 138.588   8
  -5   0 -10 347.029 254.140   7
  -5   0 -11 10769.4 1433.29   5
   5   0  11 9112.32 853.807   8
  -5   0 -11 8506.50 881.315   7
  -5   0 -12 1113.02 500.189   5
   5   0  12 766.572 285.851   8
  -5   0 -12 723.477 270.587   7
  -5   0 -13 2031.39 749.325   5
   5   0  13 2921.36 553.446   8
   5   0  14 285.155 177.121   8
  -5  -1   9 2120.73 612.405   2
   5   1  -9 3077.14 788.661   4
   5   1  -8 491.157 322.553   6
  -5  -1   8 82.6753 311.168   2
   5   1  -8 518.151 362.593   4
   5   1  -7 1309.84 454.031   6
  -5  -1   7 1199.47 463.566   2
   5   1  -7 2088.78 607.882   4
   5   1  -6 344.014 246.696   6
  -5  -1   6 253.899 300.860   2
   5   1  -6 343.443 350.540   4
   5   1  -5 28728.8 1717.08   6
  -5  -1   5 26778.7 1715.32   2
  -5  -1   4 7284.19 811.011   8
   5   1  -4 7969.19 887.018   6
  -5  -1   4 8674.75 951.583   2
   5   1  -3 42284.2 2008.51   2
  -5  -1   3 42406.5 1800.50   8
   5   1  -3 42174.3 1969.82   6
   5   1  -3 42747.4 2092.31   3
  -5  -1   3 41333.1 1924.15   2
  -5  -1   3 45315.9 2053.69   6
   5   1  -2 1657.90 434.149   6
  -5  -1   2 1468.82 384.047   6
   5   1  -2 1739.36 417.615   2
   5   1  -2 2054.65 468.591   3
  -5  -1   2 1467.38 317.846   8
  -5  -1   2 1263.16 374.748   2
  -5  -1   1 8987.28 365.585   5
   5   1  -1 8206.88 769.588   2
   5   1  -1 8883.67 892.222   6
   5   1  -1 9098.56 923.896   3
  -5  -1   1 8711.77 809.797   2
  -5  -1   1 9272.69 900.574   6
   5   1   0 12494.8 859.164   2
  -5  -1   0 11647.4 585.954   5
  -5  -1   0 12700.1 796.896   8
   5   1   0 13120.3 1089.34   3
   5   1   0 13204.6 1055.99   6
  -5  -1   0 12864.9 908.115   2
  -5  -1   0 14988.2 1125.52   6
  -5  -1  -1 19568.9 882.200   5
   5   1   1 19577.1 967.505   2
   5   1   1 19386.7 936.056   8
  -5  -1  -1 18783.6 898.298   8
  -5  -1  -1 20507.3 1067.93   2
   5   1   1 21542.0 1353.04   3
   5   1   1 18074.6 1233.37   6
  -5  -1  -1 20216.2 1299.24   6
  -5  -1  -2 28330.6 1176.88   5
   5   1   2 31028.8 1084.51   2
   5   1   2 32215.1 1176.82   8
  -5  -1  -2 29748.1 1045.48   8
  -5  -1  -2 30833.5 1194.51   2
   5   1   2 31039.5 1589.50   3
   5   1   2 31963.3 1639.72   6
  -5  -1  -3 78964.1 2153.94   5
   5   1   3 78991.2 1815.76   8
  -5  -1  -3 78539.0 1654.05   8
  -5  -1  -3 84467.7 2496.20   7
   5   1   3 81100.2 2553.67   3
   5   1   3 81721.3 2643.90   6
  -5  -1  -4 5316.69 620.483   5
   5   1   4 4720.41 466.099   8
  -5  -1  -4 5047.06 631.418   7
  -5  -1  -4 4984.16 499.103   1
   5   1   4 5011.61 641.779   3
   5   1   4 5410.55 711.618   6
  -5  -1  -5 13098.9 1026.34   5
   5   1   5 11829.2 748.282   8
  -5  -1  -5 13499.5 990.506   7
   5   1   5 13455.6 1011.74   3
   5   1   5 13291.7 1147.39   6
   5   1   6 188.867 263.572   6
   5   1   6 785.305 263.997   3
  -5  -1  -6 684.187 332.022   5
   5   1   6 498.928 201.820   8
  -5  -1  -6 394.134 198.338   7
   5   1   7 11451.1 890.243   3
  -5  -1  -7 10810.7 1090.53   5
   5   1   7 11943.2 805.508   8
   5   1   7 11721.5 906.706   4
  -5  -1  -7 10259.3 854.954   7
   5   1   8 4537.28 556.124   3
  -5  -1  -8 4297.00 751.983   5
   5   1   8 4852.41 547.189   8
   5   1   8 5449.17 645.143   4
  -5  -1  -8 6090.82 665.976   7
   5   1   9 8201.18 730.617   3
  -5  -1  -9 9379.96 1176.91   5
   5   1   9 8714.96 756.012   8
  -5  -1  -9 9538.07 846.355   7
  -5  -1 -10 1209.58 500.170   5
   5   1  10 916.642 243.435   3
   5   1  10 1433.03 339.872   8
  -5  -1 -10 1124.39 318.590   7
  -5  -1 -11 8991.45 1336.33   5
   5   1  11 7896.73 808.150   8
  -5  -1 -11 7229.70 759.996   7
  -5  -1 -12 3299.71 850.061   5
   5   1  12 5489.34 721.631   8
  -5  -1 -12 4525.13 635.331   7
  -5  -1 -13 4340.22 1071.37   5
   5   1  13 5271.57 746.149   8
   5   1  14 1468.87 443.177   8
  -5  -2   9 3992.37 848.689   2
   5   2  -9 3210.46 827.972   4
  -5  -2   8 260.807 340.455   2
   5   2  -8 955.563 443.976   4
   5   2  -7 12564.1 1468.40   4
   5   2  -7 13933.2 1278.24   6
  -5  -2   7 12503.1 1316.71   2
   5   2  -6 1177.10 386.487   6
  -5  -2   6 1331.33 472.997   2
   5   2  -6 1176.51 448.840   4
   5   2  -5 2579.69 532.938   6
  -5  -2   5 2636.81 570.444   2
   5   2  -5 1491.12 508.925   4
   5   2  -4 305.574 266.441   6
  -5  -2   4 62.1683 283.132   2
   5   2  -3 2859.74 535.067   6
  -5  -2   3 3430.98 578.312   6
   5   2  -3 4440.41 679.298   3
  -5  -2   3 3184.21 542.478   8
  -5  -2   3 2818.58 552.683   2
   5   2  -2 20643.0 1338.66   2
  -5  -2   2 21601.7 1286.63   8
   5   2  -2 22138.2 1388.82   6
   5   2  -2 21534.0 1439.79   3
  -5  -2   2 20648.4 1324.81   6
  -5  -2   2 21353.6 1361.57   2
  -5  -2   1 77294.4 2408.04   2
  -5  -2   1 75775.0 1039.40   5
   5   2  -1 79532.7 2446.50   2
  -5  -2   1 79358.5 2328.42   8
   5   2  -1 81532.2 2614.50   6
   5   2  -1 77458.1 2671.79   3
  -5  -2   1 81225.5 2583.57   6
   5   2   0 1488.78 390.573   6
  -5  -2   0 1571.90 373.454   6
   5   2   0 1468.65 374.552   3
  -5  -2   0 757.648 163.329   5
   5   2   0 1852.52 378.974   8
   5   2   0 2071.61 383.264   2
  -5  -2   0 1468.24 339.198   2
  -5  -2  -1 23379.1 1153.04   2
  -5  -2  -1 21456.0 890.587   5
   5   2   1 22312.6 1103.49   2
   5   2   1 21868.2 1143.20   8
   5   2   1 22136.3 1350.95   6
   5   2   1 23692.2 1424.00   3
  -5  -2  -2 3446.29 418.016   2
   5   2   2 3332.20 557.473   6
  -5  -2  -2 3506.94 411.047   5
   5   2   2 3784.79 573.266   3
   5   2   2 3105.71 434.960   8
  -5  -2  -2 3201.46 411.073   8
  -5  -2  -3 34598.1 1149.28   2
  -5  -2  -3 32383.8 1342.07   5
   5   2   3 34710.3 1392.24   8
  -5  -2  -3 33631.6 1229.20   8
   5   2   3 35820.6 1756.63   6
   5   2   3 33883.1 1653.36   3
   5   2   4-77.6242 256.528   6
   5   2   4 46.2237 181.767   3
  -5  -2  -4 86.0752 158.169   5
   5   2   4 38.5733 177.737   8
  -5  -2  -4 1.97594 98.8870   8
  -5  -2  -4 64.4413 98.8559   2
  -5  -2  -4 415.326 227.542   7
  -5  -2  -5 31024.5 1546.44   5
   5   2   5 33132.3 1387.75   8
  -5  -2  -5 32373.9 1469.39   7
  -5  -2  -5 29586.2 1335.30   1
   5   2   5 34689.1 1850.02   6
   5   2   5 32980.2 1578.81   3
   5   2   6 3554.89 532.655   3
   5   2   6 3609.98 485.802   8
  -5  -2  -6 3420.97 587.491   5
  -5  -2  -6 3292.42 485.762   1
  -5  -2  -6 3087.86 488.790   7
   5   2   7 19569.9 1189.04   3
  -5  -2  -7 20739.9 1497.82   5
  -5  -2  -7 23795.1 1432.26   1
   5   2   7 21171.2 1172.12   8
   5   2   7 21297.2 1163.50   4
  -5  -2  -7 21410.0 1166.18   7
   5   2   8 17040.2 1102.86   3
  -5  -2  -8 13649.3 1293.90   5
   5   2   8 17035.9 1082.67   8
   5   2   8 16308.6 1039.84   4
  -5  -2  -8 15680.8 1261.11   1
  -5  -2  -8 16305.0 1022.57   7
   5   2   9 6958.42 698.018   3
  -5  -2  -9 7212.32 1015.23   5
   5   2   9 6353.87 685.929   8
   5   2   9 6472.98 680.282   4
  -5  -2  -9 6061.10 635.576   7
  -5  -2 -10 2131.15 633.284   5
   5   2  10 2582.33 429.281   3
   5   2  10 2537.05 479.770   8
   5   2  10 2857.63 463.509   4
  -5  -2 -10 3021.64 465.212   7
  -5  -2 -11 21018.4 1976.88   5
   5   2  11 24752.5 1492.87   8
  -5  -2 -11 25037.0 1311.51   7
  -5  -2 -12 680.890 447.985   5
   5   2  12-83.9189 211.350   8
  -5  -2 -12 357.838 217.309   7
  -5  -2 -13 154.283 239.843   5
   5   2  13-90.1391 214.229   8
   5   2  14 1427.14 430.929   8
  -5  -3   8 3398.10 784.909   2
   5   3  -8 4249.64 950.125   4
   5   3  -7 1430.52 443.899   6
  -5  -3   7 355.538 395.889   2
   5   3  -7 323.280 437.488   4
   5   3  -6 112.527 203.624   6
  -5  -3   6-19.0618 301.233   2
   5   3  -6 716.971 442.972   4
   5   3  -5 2596.66 540.813   6
  -5  -3   5 2468.74 600.752   2
   5   3  -5 1932.23 595.125   4
  -5  -3   4 26111.4 1717.14   2
   5   3  -4 26425.7 1927.95   4
   5   3  -4 26943.3 1563.88   6
  -5  -3   4 25020.5 1509.01   6
  -5  -3   3 34119.9 1852.72   2
   5   3  -3 34430.8 1718.75   6
  -5  -3   3 31476.9 1643.68   6
   5   3  -2 1522.62 388.086   6
  -5  -3   2 1796.47 397.027   6
   5   3  -2 838.881 323.254   3
  -5  -3   2 1874.74 420.297   8
   5   3  -2 1497.01 381.263   2
  -5  -3   2 1053.94 388.099   2
   5   3  -1 3275.12 532.200   6
  -5  -3   1 3668.16 565.587   6
   5   3  -1 3872.02 626.613   3
  -5  -3   1 4223.00 587.422   8
   5   3  -1 3716.84 584.488   8
   5   3  -1 4162.59 589.691   2
  -5  -3   1 3634.35 574.910   2
  -5  -3   0 9893.93 849.702   2
   5   3   0 10515.8 920.960   8
  -5  -3   0 10573.2 880.152   8
   5   3   0 10771.0 933.984   6
   5   3   0 8535.95 884.864   3
  -5  -3   0 11929.8 960.574   6
  -5  -3  -1 69530.3 2088.92   2
   5   3   1 70325.0 2287.08   8
  -5  -3  -1 71062.6 2155.51   8
   5   3   1 72500.7 2406.85   6
   5   3   1 72573.8 2495.03   3
  -5  -3  -2 3587.46 465.177   2
   5   3   2 3485.98 587.067   6
   5   3   2 2950.19 505.550   3
  -5  -3  -2 3546.25 469.815   8
   5   3   2 3613.30 520.623   8
   5   3   3 7012.74 762.955   3
  -5  -3  -3 5957.26 534.917   2
   5   3   3 6005.26 660.840   8
  -5  -3  -3 5051.18 544.970   8
   5   3   3 5731.95 720.654   6
   5   3   4 13211.4 1027.45   3
  -5  -3  -4 15551.7 776.049   2
   5   3   4 14207.3 1002.94   8
  -5  -3  -4 15263.4 909.488   8
   5   3   4 16615.3 1239.17   6
   5   3   5 69097.0 2340.67   3
  -5  -3  -5 67728.0 1425.30   2
   5   3   5 66553.1 2190.00   8
  -5  -3  -5 70362.3 1981.87   8
  -5  -3  -5 67571.4 2054.72   7
  -5  -3  -5 69734.6 2588.58   3
   5   3   5 71023.4 2621.45   6
  -5  -3  -6 201.113 138.309   1
  -5  -3  -6 154.246 90.3752   2
  -5  -3  -6 344.973 272.933   3
   5   3   6 262.343 165.327   3
   5   3   6-71.8956 202.102   8
  -5  -3  -6 140.986 158.106   7
   5   3   7 7827.67 791.522   3
  -5  -3  -7 6545.68 751.546   1
  -5  -3  -7 6940.13 315.188   2
   5   3   7 6970.43 738.503   8
  -5  -3  -7 7564.33 684.017   7
  -5  -3  -7 4588.01 297.777   2
  -5  -3  -7 7491.45 884.621   3
  -5  -3  -8 286.946 262.931   3
   5   3   8-218.018 184.699   3
   5   3   8 146.738 158.644   8
   5   3   8-4.25793 99.6117   4
  -5  -3  -8 332.034 192.712   7
   5   3   9 26910.0 1428.32   3
  -5  -3  -9 27588.0 1967.45   5
   5   3   9 28624.0 1553.59   8
   5   3   9 28708.5 1317.34   4
  -5  -3  -9 26493.7 1243.23   7
  -5  -3  -9 29133.4 1762.74   3
  -5  -3 -10 298.542 398.428   5
   5   3  10 45.8260 202.276   8
   5   3  10 134.149 173.695   4
  -5  -3 -10 315.124 168.391   7
  -5  -3 -11 6643.14 1107.28   5
   5   3  11 5781.05 758.704   8
  -5  -3 -11 6993.14 643.808   7
  -5  -3 -12 1016.81 536.057   5
   5   3  12 2174.91 512.191   8
  -5  -3 -13 11314.1 1626.67   5
   5   3  13 8764.72 1024.98   8
   5   3  14 1966.19 553.276   8
  -5  -4   8 638.364 398.236   2
   5   4  -8 1184.88 590.051   4
   5   4  -7 5136.19 1031.04   4
  -5  -4   7 9079.63 1199.56   2
  -5  -4   6 6266.53 976.802   2
   5   4  -6 5957.80 797.621   6
   5   4  -6 4954.15 957.317   4
  -5  -4   5 6811.82 965.705   2
   5   4  -5 7891.48 1181.73   4
   5   4  -5 9161.24 934.004   6
   5   4  -4 746.939 317.238   6
  -5  -4   4 309.993 192.205   6
   5   4  -4-21.9501 287.500   4
  -5  -4   4-35.4836 163.426   2
   5   4  -3 2795.78 506.196   6
  -5  -4   3 3426.27 540.041   6
   5   4  -3 2267.38 619.488   4
  -5  -4   3 3009.71 599.702   2
  -5  -4   2 5286.08 756.057   2
  -5  -4   2 5274.78 371.655   5
   5   4  -2 5414.18 658.697   6
  -5  -4   2 5220.22 654.847   6
  -5  -4   1 67146.7 2456.10   2
   5   4  -1 62673.5 2477.84   8
  -5  -4   1 62292.6 2391.77   8
   5   4  -1 65205.0 2250.33   6
  -5  -4   1 64312.3 2205.66   6
  -5  -4   0 20189.9 1276.60   2
   5   4   0 23653.0 1484.35   8
  -5  -4   0 20544.2 1319.81   8
   5   4   0 22170.7 1304.89   6
  -5  -4  -1 7196.01 715.695   2
   5   4   1 6176.25 754.864   8
  -5  -4  -1 7792.34 785.501   8
   5   4   1 7938.14 799.711   6
  -5  -4  -2 4277.98 540.148   2
  -5  -4  -2 4185.10 675.245   3
   5   4   2 4265.64 628.274   8
  -5  -4  -2 3977.37 544.384   8
   5   4   2 4468.23 612.603   6
  -5  -4  -3 40127.2 1502.09   2
   5   4   3 42041.0 1890.34   8
  -5  -4  -3 43662.7 1705.41   8
  -5  -4  -3 39222.4 1957.37   3
   5   4   3 39638.5 1835.59   6
   5   4   4 223.613 237.498   6
  -5  -4  -4 239.913 253.023   3
  -5  -4  -4 209.538 177.035   2
   5   4   4 50.2033 255.328   8
  -5  -4  -4 510.436 223.064   8
  -5  -4  -5 13208.9 770.351   2
   5   4   5 14565.6 1123.45   8
  -5  -4  -5 11627.7 865.599   8
  -5  -4  -5 13503.9 1190.40   3
   5   4   5 13626.3 1160.76   6
  -5  -4  -6 5537.80 476.749   2
   5   4   6 5849.41 726.658   8
  -5  -4  -6 5016.11 550.697   7
  -5  -4  -6 5465.53 649.985   1
  -5  -4  -6 5701.85 773.914   3
  -5  -4  -7 22977.5 909.734   2
   5   4   7 23817.2 1466.34   8
  -5  -4  -7 22757.1 1116.72   7
  -5  -4  -7 22923.1 1576.59   3
  -5  -4  -8 2483.89 540.363   3
   5   4   8 3085.46 559.656   8
  -5  -4  -8 2464.50 369.347   7
  -5  -4  -8 3121.28 352.223   2
  -5  -4  -9 3292.12 645.116   3
   5   4   9 2068.81 479.710   8
  -5  -4  -9 2405.72 333.574   2
  -5  -4  -9 2534.68 373.447   7
   5   4  10 13285.5 1170.04   8
   5   4  10 11361.2 790.749   4
  -5  -4 -10 12177.7 782.681   7
  -5  -4 -10 12924.6 1252.19   3
   5   4  11 25769.5 1683.57   8
  -5  -4 -11 27408.0 1121.88   7
  -5  -4 -11 25018.7 1723.26   3
  -5  -4 -12-172.024 207.695   3
  -5  -4 -12-599.336 384.498   5
   5   4  12-466.718 293.305   8
  -5  -4 -13 5733.68 1106.18   5
   5   4  13 7001.47 959.569   8
   5   4  14-191.521 281.177   8
   5   5  -7 3442.30 870.211   4
  -5  -5   7 6116.97 1030.64   2
   5   5  -6-584.979 419.436   4
  -5  -5   6 883.392 473.850   2
   5   5  -5 3473.40 573.290   6
   5   5  -5 2707.10 740.874   4
  -5  -5   5 3288.06 710.905   2
   5   5  -4 3961.92 826.616   4
   5   5  -4 6658.59 763.175   6
  -5  -5   4 5241.03 850.399   2
  -5  -5   3 12945.0 1255.66   2
   5   5  -3 11841.5 1357.54   4
   5   5  -3 13048.3 1026.27   6
  -5  -5   3 12191.6 978.974   6
  -5  -5   2 36026.1 1968.52   2
  -5  -5   2 33548.4 1202.31   5
   5   5  -2 39684.9 2153.36   8
   5   5  -2 39966.4 2350.16   4
   5   5  -2 40642.3 1751.91   6
  -5  -5   2 38101.1 1682.03   6
   5   5  -1 824.028 299.731   6
  -5  -5   1 928.996 386.800   2
   5   5  -1 877.331 380.498   8
   5   5  -1 412.481 291.268   4
   5   5   0 981.719 329.087   6
  -5  -5   0 311.031 220.521   2
  -5  -5   0 751.363 375.408   3
   5   5   0 751.270 346.749   8
  -5  -5  -1 30705.6 1587.08   2
   5   5   1 28777.2 1735.81   8
  -5  -5  -1 31552.6 1808.15   3
   5   5   1 32045.2 1557.28   6
  -5  -5  -2 3718.25 558.118   2
  -5  -5  -2 4714.49 726.885   3
   5   5   2 4834.01 727.157   8
   5   5   2 4161.12 596.827   6
  -5  -5  -3 25296.3 1336.45   2
   5   5   3 28224.7 1691.41   8
  -5  -5  -3 28234.8 1493.21   8
  -5  -5  -3 26163.3 1676.05   3
   5   5   3 27890.9 1531.13   6
  -5  -5  -4 14189.9 968.133   2
   5   5   4 15543.9 1257.88   8
  -5  -5  -4 14637.7 1050.57   8
  -5  -5  -4 16084.2 1329.18   3
   5   5   4 14827.6 1168.29   6
  -5  -5  -5 7345.15 671.422   2
   5   5   5 7579.22 886.366   8
  -5  -5  -5 8078.60 974.227   3
   5   5   5 7275.76 844.782   6
  -5  -5  -6 59.3850 201.433   3
   5   5   6-88.9484 236.970   8
  -5  -5  -6 41.9019 151.667   2
   5   5   7 14307.6 1218.39   8
  -5  -5  -7 14301.8 871.162   7
  -5  -5  -7 13253.9 1246.40   3
  -5  -5  -8 1238.30 454.189   3
   5   5   8 1773.31 482.919   8
   5   5   8 1533.58 271.339   4
  -5  -5  -8 1495.66 289.829   7
  -5  -5  -9 5307.23 823.147   3
   5   5   9 5386.95 786.882   8
   5   5   9 5479.77 482.652   4
  -5  -5  -9 5200.66 491.333   7
  -5  -5  -9 5671.57 583.096   2
   5   5  10 26.0296 204.715   8
  -5  -5 -10-131.328 103.646   7
   5   5  11 7486.91 958.749   8
  -5  -5 -11 7471.44 993.464   3
  -5  -5 -12-30.1903 303.783   3
   5   5  12 271.850 307.074   8
  -5  -5 -13 3106.28 672.686   3
   5   5  13 3964.64 783.326   8
   5   6  -6 774.887 448.131   4
  -5  -6   6 1894.91 596.041   2
  -5  -6   5 9540.83 1197.62   2
   5   6  -5 10500.8 1445.96   4
   5   6  -4 2509.21 466.585   6
  -5  -6   4 1961.97 558.044   2
   5   6  -4 1832.86 622.590   4
   5   6  -3 1452.99 353.183   6
  -5  -6   3 991.287 431.919   2
   5   6  -3 1265.95 550.492   4
   5   6  -2 169.263 189.334   6
  -5  -6   2 93.3179 230.841   2
   5   6  -2 363.753 310.586   8
   5   6  -2-30.7530 201.950   4
   5   6  -1 2721.40 457.517   6
  -5  -6   1 3422.94 640.846   2
  -5  -6   1 2856.89 590.626   3
  -5  -6   1 2602.61 424.344   5
   5   6  -1 2083.80 550.181   8
   5   6  -1 3030.49 686.635   4
  -5  -6   0 10514.1 1044.16   2
   5   6   0 10859.4 1176.74   8
   5   6   0 9778.67 1051.00   4
  -5  -6   0 10436.6 1077.61   3
   5   6   0 10722.4 873.940   6
  -5  -6  -1 21639.5 1439.32   2
   5   6   1 18732.8 1522.71   8
   5   6   1 18559.5 1379.70   4
  -5  -6  -1 19660.0 1488.35   3
   5   6   1 20475.0 1223.73   6
   5   6   2 2687.16 472.887   6
  -5  -6  -2 3104.76 644.928   3
  -5  -6  -2 1857.92 432.509   2
   5   6   2 2494.75 616.316   8
   5   6   2 3090.15 557.014   4
   5   6   3 2397.63 473.362   6
  -5  -6  -3 2609.17 572.700   3
  -5  -6  -3 2027.11 453.678   2
   5   6   3 1639.04 460.340   8
  -5  -6  -4 15231.3 1110.83   2
   5   6   4 13686.2 1281.75   8
  -5  -6  -4 14395.6 1295.11   3
   5   6   4 15280.7 1170.58   6
  -5  -6  -5 31043.7 1540.29   2
   5   6   5 31090.0 1914.52   8
  -5  -6  -5 30298.9 1890.68   3
   5   6   5 31557.8 1762.45   6
   5   6   6 15959.3 1370.53   8
  -5  -6  -6 16166.6 1405.57   3
   5   6   7 5716.15 842.791   8
  -5  -6  -7 5812.16 875.555   3
  -5  -6  -8-62.5578 281.301   3
   5   6   8-132.657 257.740   8
  -5  -6  -8 180.302 124.112   7
  -5  -6  -9 5088.18 851.553   3
   5   6   9 4299.15 757.694   8
  -5  -6  -9 3966.74 409.137   7
  -5  -6 -10-59.4673 310.139   3
   5   6  10-53.4414 151.140   8
  -5  -6 -11 1693.18 506.433   3
   5   6  11 2170.18 565.472   8
  -5  -6 -12 997.157 435.712   3
   5   6  12 308.545 308.591   8
  -5  -6 -13 5309.74 919.979   3
   5   6  13 5511.60 932.679   8
   5   7  -5 2416.52 728.857   4
  -5  -7   5 2770.46 713.811   2
  -5  -7   4-75.0015 306.707   2
   5   7  -4-325.652 316.654   4
  -5  -7   3 9445.16 1174.92   2
   5   7  -3 9333.56 1241.80   4
  -5  -7   2 5810.60 898.707   2
   5   7  -2 5149.30 922.532   8
   5   7  -2 5415.61 910.895   4
   5   7  -2 5154.34 584.927   6
  -5  -7   1 7874.51 993.046   2
   5   7  -1 8613.85 1147.50   8
   5   7  -1 7678.63 1012.45   4
   5   7  -1 8492.52 736.151   6
  -5  -7   1 7560.54 966.092   3
   5   7   0 107.802 118.295   6
  -5  -7   0-183.130 319.232   2
  -5  -7   0 94.1763 277.407   3
   5   7   0 107.427 329.724   8
   5   7   0 148.638 199.869   4
   5   7   1 179.014 140.221   6
  -5  -7  -1 208.846 227.984   3
  -5  -7  -1 335.229 321.028   2
   5   7   1 72.4781 221.410   8
   5   7   1 318.144 227.697   4
   5   7   2 723.670 247.040   6
  -5  -7  -2 959.874 445.581   3
  -5  -7  -2 364.755 264.962   2
   5   7   2 575.417 351.621   8
   5   7   2 425.201 224.110   4
  -5  -7  -3 24179.4 1571.73   2
   5   7   3 21548.8 1700.00   8
   5   7   3 22931.6 1320.81   4
  -5  -7  -3 26602.1 1826.57   3
   5   7   3 22599.7 1341.73   6
  -5  -7  -4 11397.3 1052.87   2
   5   7   4 10751.4 1226.72   8
   5   7   4 10587.1 831.423   4
  -5  -7  -4 11855.5 1235.68   3
   5   7   4 9450.71 911.149   6
   5   7   5 1641.74 425.415   6
  -5  -7  -5 1649.00 515.225   3
   5   7   5 2290.70 593.881   8
  -5  -7  -5 2743.71 540.410   2
   5   7   5 2182.56 352.941   4
  -5  -7  -6 5674.66 878.987   3
   5   7   6 6409.74 949.719   8
   5   7   6 6773.28 540.758   4
   5   7   6 6824.56 870.047   6
   5   7   7 11254.5 1242.61   8
   5   7   7 11737.6 611.993   4
  -5  -7  -7 10897.1 1228.27   3
  -5  -7  -8 172.985 335.611   3
   5   7   8 174.244 257.209   8
  -5  -7  -8 21.5230 81.8160   7
  -5  -7  -9 4756.82 822.365   3
   5   7   9 4737.73 829.275   8
  -5  -7 -10 2359.35 623.005   3
   5   7  10 1722.81 504.544   8
  -5  -7 -11 6381.35 999.282   3
   5   7  11 6575.32 1015.19   8
  -5  -7 -12 983.181 415.079   3
   5   7  12 824.134 407.348   8
  -5  -7 -13 1588.90 542.265   3
   5   8  -4 424.309 320.554   4
  -5  -8   3 5936.23 991.695   2
   5   8  -3 6868.18 1094.98   4
  -5  -8   2 568.861 364.036   2
  -5  -8   2 1087.02 420.414   3
   5   8  -2 479.014 403.512   8
   5   8  -2 320.524 321.005   4
  -5  -8   1 2062.04 583.137   2
  -5  -8   1 1189.68 471.944   3
   5   8  -1 2857.60 737.364   8
   5   8  -1 1810.79 524.536   4
  -5  -8   0 3955.86 750.946   2
  -5  -8   0 3413.74 701.389   3
   5   8   0 3126.62 765.555   8
   5   8   0 3131.53 643.641   4
  -5  -8  -1 7152.48 974.232   2
   5   8   1 6277.17 1032.74   8
   5   8   1 6760.21 846.447   4
   5   8   1 7607.78 683.791   6
  -5  -8  -1 7254.18 997.637   3
   5   8   2 494.350 239.094   6
  -5  -8  -2 146.036 229.235   3
  -5  -8  -2 336.275 276.939   2
   5   8   2 486.123 372.997   8
   5   8   2 113.827 169.239   4
  -5  -8  -3 4429.76 809.847   3
  -5  -8  -3 5027.29 787.887   2
   5   8   3 4915.30 904.651   8
   5   8   3 4250.10 574.615   4
   5   8   3 4623.46 591.416   6
   5   8   4 86.5598 148.713   6
  -5  -8  -4 35.1839 220.854   3
   5   8   4 141.927 235.048   8
   5   8   4-35.8198 101.405   4
  -5  -8  -5 8839.68 993.577   2
   5   8   5 8370.74 1149.15   8
   5   8   5 9213.75 677.604   4
  -5  -8  -5 9950.47 1188.73   3
   5   8   5 9494.86 959.042   6
   5   8   6-117.939 181.047   6
   5   8   6 309.790 349.751   8
   5   8   7 7375.64 1069.57   8
  -5  -8  -7 8103.10 1100.08   3
  -5  -8  -8 4758.45 863.909   3
   5   8   8 5741.00 970.641   8
  -5  -8  -9 4730.14 877.806   3
   5   8   9 4904.10 899.032   8
  -5  -8 -10 961.120 458.056   3
   5   8  10 1415.30 542.100   8
  -5  -8 -11 1913.83 594.396   3
   5   8  11 1315.68 533.189   8
  -5  -8 -12 492.797 329.240   3
   5   9  -3-232.360 330.020   4
  -5  -9   2 3264.62 756.420   2
  -5  -9   2 2467.16 601.978   3
   5   9  -2 1208.03 467.189   4
  -5  -9   1 3196.06 755.889   2
  -5  -9   1 5167.38 898.843   3
   5   9  -1 4014.72 879.440   8
   5   9  -1 3557.50 717.949   4
  -5  -9   0 945.668 437.567   3
  -5  -9   0 1016.82 447.265   2
   5   9   0 311.890 298.296   8
   5   9   0 596.123 378.043   4
  -5  -9  -1 5580.81 932.270   2
   5   9   1 5556.36 1015.26   8
   5   9   1 5929.39 801.806   4
  -5  -9  -1 7790.45 1088.24   3
  -5  -9  -2 595.029 417.860   3
  -5  -9  -2 52.4869 297.606   2
   5   9   2 451.105 366.071   8
   5   9   2 273.315 210.910   4
   5   9   3 6700.14 1128.78   8
  -5  -9  -3 5222.89 875.921   2
   5   9   3 5864.45 667.408   4
  -5  -9  -3 7330.05 1066.25   3
  -5  -9  -4 1532.91 538.371   3
   5   9   4 1015.92 506.519   8
  -5  -9  -4 1063.38 465.577   2
  -5  -9  -5 4461.66 854.804   3
   5   9   5 3927.48 859.624   8
  -5  -9  -5 4118.87 739.597   2
   5   9   5 5016.26 683.664   6
   5   9   6 3451.79 620.691   6
  -5  -9  -6 2938.60 674.275   3
   5   9   6 3178.00 797.593   8
   5   9   7 3194.89 631.917   6
  -5  -9  -7 3557.14 764.216   3
   5   9   7 3289.18 796.129   8
  -5  -9  -8 1102.39 477.943   3
   5   9   8 1017.33 465.414   8
  -5  -9  -9 2310.45 655.127   3
   5   9   9 3273.76 837.494   8
  -5 -10   2 590.557 345.914   3
   5  10  -2-167.061 333.376   4
  -5 -10   1 3255.26 752.496   3
   5  10  -1 2606.00 602.669   4
  -5 -10   0 1335.37 552.323   3
   5  10   0 878.116 330.098   4
  -5 -10  -1 1849.74 607.818   3
  -5 -10  -1 875.466 433.328   2
  -5 -10  -2 2909.19 725.508   3
  -5 -10  -2 1056.75 450.235   2
  -5 -10  -3 2555.67 701.211   3
   5  10   3 3149.30 866.666   8
  -5 -10  -3 1686.49 544.776   2
  -5 -10  -4 3681.11 831.485   3
   5  10   4 4270.44 928.974   8
  -5 -10  -4 5703.55 952.142   2
  -5 -10  -5 5621.87 987.515   3
   5  10   5 6978.39 1188.19   8
  -5 -10  -5 4971.03 892.038   2
   5  10   6 1616.69 653.769   8
   6  -8  -4 5011.61 881.322   6
  -6   8   4 5494.67 891.384   7
   6  -8  -3-84.1725 244.780   6
  -6   8   3 559.460 337.308   7
   6  -8  -2 772.778 412.367   6
  -6   8   2 304.431 259.579   7
   6  -8  -1 219.224 307.735   6
  -6   8   1 835.751 382.806   7
   6  -8   0 1536.05 472.449   6
  -6   8   0 615.941 381.918   7
   6  -8   0 1393.36 596.200   3
   6  -8   1-100.735 245.511   6
  -6   8  -1-335.230 248.738   7
   6  -8   2 9439.57 1305.07   3
   6  -8   2 11029.1 1163.69   6
   6  -8   3 852.536 415.698   3
   6  -8   4 4.64453 292.793   3
  -6   7   6 3813.36 657.744   7
   6  -7  -5-587.407 397.336   6
  -6   7   5 84.7795 198.177   7
   6  -7  -4 6153.55 977.553   6
  -6   7   4 4606.57 788.087   7
   6  -7  -3 60.1602 274.176   6
  -6   7   3-207.084 217.169   7
   6  -7  -2 4918.85 829.900   6
  -6   7   2 4921.01 842.090   7
   6  -7  -1-16.6680 281.925   6
  -6   7   1-252.075 251.569   7
   6  -7   0 5075.33 834.599   6
  -6   7   0 5178.05 898.514   7
   6  -7   1 4024.38 732.624   6
  -6   7  -1 2834.05 658.450   7
   6  -7   2 1630.21 492.811   6
  -6   7  -2 2656.48 673.470   7
   6  -7   3-150.316 317.284   6
  -6   7  -3 70.2693 202.803   7
   6  -7   4 5263.49 818.420   6
  -6   7  -4 5540.08 986.987   7
   6  -7   4 6021.73 960.686   3
   6  -7   5 238.344 294.294   6
   6  -7   5 138.635 274.386   3
   6  -6  -6 4035.64 836.413   6
  -6   6   6 2844.98 580.760   7
   6  -6  -5 345.567 271.018   6
  -6   6   5 691.412 303.359   7
  -6   6   4 8367.07 1029.78   7
   6  -6  -4 8504.62 1121.70   6
   6  -6  -3 4877.48 832.330   6
  -6   6   3 4816.83 805.895   7
  -6   6   2 9390.24 1113.97   7
   6  -6  -2 9879.37 1155.73   6
  -6   6   1 6476.54 948.701   7
   6  -6  -1 6855.03 942.880   6
   6  -6   0 4943.06 820.039   6
  -6   6   0 4819.33 850.298   7
   6  -6   1 2962.46 624.157   6
  -6   6  -1 3379.19 721.791   7
  -6   6  -2 18861.8 1665.86   7
   6  -6   2 20702.1 1604.59   6
   6  -6   3 610.019 408.721   6
  -6   6  -3 668.292 457.549   7
  -6   6  -4 10481.9 1268.27   7
   6  -6   4 8085.37 1026.95   6
   6  -6   5-49.0524 241.644   6
  -6   6  -5-6.86996 257.385   5
  -6   6  -5 532.558 367.723   7
   6  -6   6 676.209 362.095   6
  -6   6  -6 867.764 423.366   5
  -6   6  -6 857.924 497.440   7
   6  -6   7 816.871 410.097   6
  -6   6  -7 431.261 492.589   5
   6  -6   8 9223.33 1155.08   6
  -6   5   7 2284.61 529.973   7
   6  -5  -6 2979.08 673.756   6
  -6   5   6 3332.34 634.259   7
   6  -5  -5 4948.53 856.993   6
  -6   5   5 2654.78 566.083   7
  -6   5   4 6092.10 854.995   7
   6  -5  -4 7419.87 1053.49   6
   6  -5  -3 2755.65 667.020   6
  -6   5   3 1687.73 490.318   7
  -6   5   2 13422.6 1298.19   7
   6  -5  -2 20060.7 1597.87   6
   6  -5  -1 1599.93 536.301   6
  -6   5   1 1317.69 471.258   7
  -6   5   0 7478.17 1004.31   7
   6  -5   0 7610.35 982.756   6
   6  -5   1 1113.77 396.140   6
  -6   5  -1 1104.01 459.580   7
  -6   5  -2 9990.63 1186.44   7
   6  -5   2 9961.49 1098.92   6
   6  -5   3-406.585 307.122   6
  -6   5  -3 153.547 284.913   7
  -6   5  -4 20153.4 1685.30   5
  -6   5  -4 20727.2 1719.26   7
   6  -5   4 21987.3 1630.69   6
   6  -5   5 462.824 309.316   6
  -6   5  -5 661.055 392.321   5
  -6   5  -5 1083.97 454.276   7
  -6   5  -6 15300.7 1565.36   5
  -6   5  -6 16242.0 1566.76   7
   6  -5   6 15940.4 1440.90   6
   6  -5   7 323.576 235.014   6
  -6   5  -7-266.199 412.243   5
  -6   5  -7 521.322 280.539   7
   6  -5   8 2296.07 639.769   6
  -6   5  -8 1619.97 601.026   5
  -6   5  -8 1597.29 472.295   7
   6  -5   9-85.2707 213.844   6
   6  -5  10 2965.42 745.310   6
  -6   4   8 3736.39 652.988   7
   6  -4  -7 856.506 455.483   6
  -6   4   7 826.221 305.155   7
   6  -4  -6 4418.88 844.567   6
  -6   4   6 3939.38 655.007   7
   6  -4  -5 184.156 320.116   6
  -6   4   5 428.659 265.473   7
  -6   4   4 8487.06 691.363   8
  -6   4   4 7933.83 962.389   7
   6  -4  -4 8431.39 1069.36   6
   6  -4  -3 167.002 222.154   6
  -6   4   3-35.8976 94.6219   8
  -6   4   3-141.490 278.361   7
   6  -4  -2 3164.92 666.164   6
   6  -4  -2 2820.13 500.982   5
  -6   4   2 3038.08 271.516   8
  -6   4   2 1999.59 547.071   7
   6  -4  -1 14678.0 1140.82   5
  -6   4   1 14757.1 1339.42   7
   6  -4   0 12818.0 1088.62   5
  -6   4   0 12621.9 1250.09   7
   6  -4   0 14897.5 1346.11   6
   6  -4   0 10945.1 989.885   2
  -6   4  -1 9832.72 1126.22   7
   6  -4   1 11061.1 951.494   2
   6  -4   1 11696.8 1180.50   6
  -6   4  -2 18903.1 1412.38   5
  -6   4  -2 19282.8 1580.79   7
   6  -4   2 19317.2 1190.75   2
   6  -4   2 20961.2 1566.28   6
   6  -4   3 734.370 354.339   6
  -6   4  -3 222.294 309.787   5
   6  -4   3 823.411 249.963   2
  -6   4  -3 967.690 390.969   7
  -6   4  -4 24699.7 1767.14   5
  -6   4  -4 24874.8 1796.78   7
   6  -4   4 25163.5 1731.26   6
   6  -4   5 1246.94 448.067   6
  -6   4  -5 645.700 390.021   5
  -6   4  -5 1075.97 445.595   7
  -6   4  -6 8710.08 1171.35   5
  -6   4  -6 8606.60 1106.34   7
   6  -4   6 9145.00 1086.91   6
   6  -4   7-652.314 353.744   6
  -6   4  -7 16.2244 250.715   5
  -6   4  -7 164.371 287.102   7
  -6   4  -8 6328.97 1083.58   5
  -6   4  -8 7792.87 1078.35   7
   6  -4   8 6986.43 1018.56   6
   6  -4   9-196.258 287.013   6
  -6   4  -9-33.3728 308.667   5
  -6   4  -9 676.046 380.884   7
   6  -4  10 3516.22 797.394   6
  -6   4 -10 3343.66 725.061   7
   6  -4  11 600.209 475.164   6
  -6   3   9 222.545 251.297   7
   6  -3  -9 466.906 358.830   4
  -6   3   8 575.238 280.301   7
  -6   3   8 1275.82 385.405   1
   6  -3  -7 437.748 328.671   6
  -6   3   7 196.730 279.666   7
  -6   3   7 16.1176 142.892   1
  -6   3   6 6867.48 691.868   1
  -6   3   6 5685.47 773.612   7
   6  -3  -6 6578.12 1008.01   6
   6  -3  -5-58.2486 342.001   6
  -6   3   5 287.598 173.347   1
  -6   3   5 339.899 233.681   7
   6  -3  -4 3037.28 672.493   6
  -6   3   4 3216.67 411.742   1
  -6   3   4 3166.01 605.268   7
   6  -3  -3 307.127 322.468   6
  -6   3   3-177.784 98.3769   1
   6  -3  -3 39.1132 150.650   5
  -6   3   3 99.3082 114.392   8
  -6   3   3 156.870 223.359   7
  -6   3   2 28980.2 1001.47   8
  -6   3   2 26490.7 1729.50   7
   6  -3  -2 30103.6 1906.60   6
   6  -3  -1 3358.81 654.100   6
   6  -3  -1 3106.80 469.118   5
   6  -3  -1 2612.44 510.627   2
  -6   3   1 3203.97 626.358   7
   6  -3   0 6844.24 724.391   5
  -6   3   0 6731.72 893.702   7
   6  -3   0 6154.94 854.275   6
   6  -3   0 5016.66 662.843   2
   6  -3   1 8837.28 860.053   5
  -6   3  -1 9096.40 1041.68   7
   6  -3   1 11458.4 1161.85   6
   6  -3   1 9695.25 859.335   2
   6  -3   2 2156.41 524.337   6
  -6   3  -2 2149.55 486.093   5
   6  -3   2 2558.68 496.034   5
   6  -3   2 2630.95 431.410   2
  -6   3  -2 3111.57 642.401   7
   6  -3   3-114.616 333.572   6
  -6   3  -3-786.650 342.521   5
   6  -3   3 109.818 125.821   2
  -6   3  -3-428.016 303.051   7
  -6   3  -4 15819.9 1365.80   5
  -6   3  -4 17040.6 1432.77   7
   6  -3   4 16586.9 863.659   2
   6  -3   4 16417.1 1383.14   6
   6  -3   5 2847.56 612.635   6
  -6   3  -5 2521.91 629.600   5
  -6   3  -5 1633.84 515.794   7
  -6   3  -6 31892.4 2087.77   5
  -6   3  -6 31578.8 1970.54   7
   6  -3   6 29209.5 1918.85   6
   6  -3   7 3343.79 676.883   6
  -6   3  -7 3189.34 736.805   5
  -6   3  -7 3334.37 682.771   7
  -6   3  -8 13818.9 1539.93   5
  -6   3  -8 13219.8 1326.50   7
   6  -3   8 12380.8 1357.47   6
   6  -3   9 826.734 390.839   6
  -6   3  -9 1342.29 520.410   5
  -6   3  -9 946.790 410.097   7
   6  -3  10 5777.78 1007.14   6
  -6   3 -10 5421.32 1073.39   5
  -6   3 -10 5637.69 892.355   7
   6  -3  11-971.502 479.809   6
  -6   3 -11-61.9666 286.261   7
   6  -3  12-444.794 373.005   6
  -6   2  10-521.365 290.503   1
   6  -2  -9 1012.50 471.318   4
  -6   2   9 208.564 202.465   1
   6  -2  -8 3678.05 767.261   6
  -6   2   8 3992.06 642.008   1
   6  -2  -7 255.685 312.160   6
  -6   2   7 378.776 230.241   1
  -6   2   6 6106.99 691.647   1
   6  -2  -6 6419.55 965.480   6
   6  -2  -5 3647.89 750.610   6
  -6   2   5 3874.41 516.307   1
  -6   2   4 14153.8 1010.37   8
   6  -2  -4 17030.0 1474.00   6
   6  -2  -3 2602.20 592.196   6
  -6   2   3 1586.79 440.459   7
   6  -2  -2 1495.65 445.278   6
   6  -2  -2 1023.52 224.777   5
  -6   2   2 745.160 205.261   8
  -6   2   2 1125.49 424.141   7
  -6   2   2 478.201 150.937   1
   6  -2  -1-233.672 251.764   6
  -6   2   1 159.340 92.9582   1
   6  -2  -1 138.304 123.962   5
  -6   2   1-74.2551 69.0703   8
  -6   2   1-67.7372 253.294   7
   6  -2  -1 191.464 199.565   2
   6  -2   0 12708.9 1006.95   2
  -6   2   0 10454.5 1084.17   7
   6  -2   0 12647.4 1215.74   6
   6  -2   1 90.6813 260.768   6
  -6   2  -1 63.0913 171.787   5
   6  -2   1 640.764 243.047   5
  -6   2  -1-191.978 283.976   7
   6  -2   1 366.168 181.616   2
   6  -2   2 26941.4 1233.06   2
  -6   2  -2 29898.0 1580.50   5
   6  -2   2 25175.7 1359.50   5
  -6   2  -2 28882.2 1794.76   7
   6  -2   2 27139.3 1746.63   6
   6  -2   3-95.6329 272.691   6
  -6   2  -3-546.787 273.092   5
  -6   2  -3 149.971 220.530   7
   6  -2   3 229.670 141.614   2
   6  -2   4 12199.4 612.943   2
  -6   2  -4 11334.2 1087.99   5
  -6   2  -4 13200.4 1232.20   7
   6  -2   4 11688.8 1163.74   6
   6  -2   5 1882.25 148.070   2
   6  -2   5 2093.36 553.882   6
  -6   2  -5 1987.92 486.720   5
  -6   2  -5 1108.32 373.865   7
  -6   2  -6 14858.8 1380.12   5
  -6   2  -6 14123.7 1276.91   7
   6  -2   6 12468.3 1250.04   6
  -6   2  -7 2959.00 664.554   5
   6  -2   7 4018.66 318.286   8
  -6   2  -7 4110.46 716.198   7
  -6   2  -8 24827.2 1965.59   5
  -6   2  -8 28378.1 1836.11   7
   6  -2   8 27533.3 1977.45   6
   6  -2   9 41.2527 321.556   6
  -6   2  -9 520.451 413.729   5
  -6   2  -9-122.184 202.807   7
   6  -2  10 3373.57 760.019   6
  -6   2 -10 4099.98 916.656   5
  -6   2 -10 3341.05 660.625   7
   6  -2  11 947.735 457.450   6
  -6   2 -11 754.114 555.739   5
  -6   2 -11 673.559 348.216   7
   6  -2  12 4474.99 930.050   6
  -6   2 -12 4090.69 734.889   7
  -6   1  10 3186.36 686.683   1
   6  -1  -8 1293.50 478.276   6
  -6   1   8 1218.94 510.140   2
   6  -1  -8 2039.93 561.849   4
   6  -1  -7 1554.56 514.789   6
  -6   1   7 1447.00 505.059   2
   6  -1  -6 1496.78 509.446   6
  -6   1   6 1506.76 492.784   2
   6  -1  -5 1849.66 516.634   6
  -6   1   5 2048.35 521.219   2
   6  -1  -4 4470.60 746.628   6
  -6   1   4 4888.28 735.632   2
  -6   1   4 3665.13 529.482   8
   6  -1  -3 194.062 294.023   6
  -6   1   3-11.3040 239.436   2
  -6   1   3 332.434 174.094   8
   6  -1  -2 28922.6 1684.96   2
  -6   1   2 30624.1 1289.85   8
  -6   1   2 30995.4 1693.94   2
   6  -1  -2 33038.7 1952.50   6
   6  -1  -1 620.273 240.579   2
   6  -1  -1-305.617 380.346   6
  -6   1   1-42.0254 223.004   2
  -6   1   1 3.04317 111.059   8
  -6   1   1-283.717 305.477   7
   6  -1   0 18761.1 1185.16   2
  -6   1   0 18558.8 978.285   5
  -6   1   0 19428.7 746.321   8
  -6   1   0 16081.7 1310.59   7
   6  -1   0 18278.9 1417.65   6
   6  -1   1 817.022 257.283   2
   6  -1   1 552.724 315.246   6
  -6   1  -1 775.419 245.388   5
  -6   1  -1 1210.48 145.356   8
  -6   1  -1 946.700 382.918   7
   6  -1   2 2768.73 377.518   2
   6  -1   2 3171.81 617.639   6
  -6   1  -2 3163.10 255.012   1
  -6   1  -2 4332.51 591.018   5
  -6   1  -2 3192.15 613.074   7
   6  -1   3 666.090 168.872   2
   6  -1   3 924.382 371.129   6
  -6   1  -3 436.870 249.409   5
  -6   1  -3 661.742 351.073   7
   6  -1   4 13057.1 491.340   2
  -6   1  -4 12958.1 1107.10   5
  -6   1  -4 13477.9 1194.96   7
   6  -1   4 11390.1 1134.69   6
   6  -1   5 285.485 325.298   6
  -6   1  -5 29.2616 215.148   5
   6  -1   5 90.2065 42.8191   8
  -6   1  -5-19.8042 172.504   7
  -6   1  -6 16112.1 1362.82   5
   6  -1   6 17273.9 664.003   8
  -6   1  -6 16452.7 1332.36   7
   6  -1   6 16767.4 1448.90   6
   6  -1   7 351.821 239.320   6
  -6   1  -7 544.880 342.469   5
   6  -1   7 275.689 135.508   8
  -6   1  -7 56.9505 207.147   7
  -6   1  -8 16540.9 1547.90   5
   6  -1   8 17576.4 886.617   8
  -6   1  -8 15120.8 1273.01   7
   6  -1   8 17173.0 1562.98   6
   6  -1   9 332.820 304.289   6
  -6   1  -9-205.828 271.814   5
   6  -1   9 318.444 174.642   8
  -6   1  -9 47.7209 189.892   7
  -6   1 -10 18762.3 1849.96   5
   6  -1  10 18014.1 1044.39   8
  -6   1 -10 16606.5 1380.26   7
   6  -1  10 18741.5 1735.45   6
   6  -1  11-4.96485 247.776   6
  -6   1 -11 373.415 354.876   5
  -6   1 -11-87.1912 232.605   7
   6  -1  12 2372.52 706.357   6
  -6   1 -12 3259.32 642.049   7
   6   0  -8 1920.37 554.634   6
  -6   0   8 2323.21 633.197   2
   6   0  -8 2558.71 679.771   4
   6   0  -7 813.983 415.789   6
  -6   0   7-1.98260 288.667   2
  -6   0   6 10375.3 1172.02   2
   6   0  -6 10041.8 1168.28   6
   6   0  -5 3512.07 706.799   6
  -6   0   5 3392.47 691.482   2
  -6   0   4 21482.0 1380.32   8
  -6   0   4 22389.9 1559.82   2
   6   0  -4 21761.3 1600.05   6
  -6   0   3 10804.0 917.809   8
  -6   0   3 9967.31 1018.39   2
   6   0  -3 11056.7 1140.38   6
   6   0  -2 3920.49 698.912   6
   6   0  -2 5068.19 708.845   2
  -6   0   2 4968.13 681.602   2
   6   0  -1 62.7385 248.702   6
   6   0  -1-28.0346 148.747   2
  -6   0   1 322.512 201.404   2
  -6   0   1 378.290 153.793   8
   6   0   0 420.270 296.400   6
   6   0   0 339.119 205.998   2
  -6   0   0 790.097 221.039   5
  -6   0   0 424.556 280.792   2
  -6   0   0 500.749 184.463   8
   6   0   1 41066.8 1538.83   2
  -6   0  -1 39829.3 1467.02   5
  -6   0  -1 43095.9 1207.75   8
  -6   0  -1 38371.3 1611.45   2
   6   0   1 42732.5 2128.77   6
   6   0   2 39543.2 1341.55   2
  -6   0  -2 42392.0 1656.45   5
  -6   0  -2 41832.0 1082.33   8
  -6   0  -2 40285.4 2043.35   7
   6   0   2 43205.4 2167.26   6
  -6   0  -3-93.2711 138.974   1
   6   0   3-113.990 323.888   6
  -6   0  -3-115.903 174.748   5
   6   0   3-23.7060 82.9846   2
   6   0   3-43.9005 100.853   8
  -6   0  -3-14.1892 165.831   7
  -6   0  -4 9367.91 896.508   5
  -6   0  -4 9687.04 690.480   1
   6   0   4 9194.36 515.850   8
  -6   0  -4 11357.2 1081.26   7
   6   0   4 10251.5 1081.57   6
   6   0   5 1335.49 459.193   6
  -6   0  -5 2074.02 353.061   1
  -6   0  -5 1111.66 365.648   5
   6   0   5 1484.94 243.359   8
  -6   0  -5 1431.62 376.662   7
  -6   0  -6 11481.6 1127.33   5
   6   0   6 10892.6 669.340   8
  -6   0  -6 8958.86 935.794   7
   6   0   6 12480.2 1236.42   6
   6   0   7 1110.16 454.700   6
  -6   0  -7 398.879 293.799   5
   6   0   7 692.639 196.082   8
  -6   0  -7 455.460 259.307   7
  -6   0  -8 9410.36 1152.46   5
   6   0   8 11324.8 792.751   8
  -6   0  -8 12960.9 1129.98   7
   6   0   8 11394.3 1263.62   6
   6   0   9 236.659 328.300   6
  -6   0  -9 630.037 435.030   5
   6   0   9 167.417 144.442   8
  -6   0  -9 584.556 283.358   7
  -6   0 -10 12943.4 1501.75   5
   6   0  10 14473.6 993.545   8
  -6   0 -10 14991.5 1244.54   7
   6   0  10 17815.9 1697.85   6
  -6   0 -11-353.385 363.904   5
   6   0  11-77.0795 141.875   8
  -6   0 -11-136.938 171.625   7
  -6   0 -12 3450.44 897.452   5
  -6   0 -12 2715.22 557.911   7
  -6   0 -13 435.661 253.978   7
   6   1  -8 5539.50 915.592   6
  -6  -1   8 7170.17 1079.46   2
   6   1  -8 6135.27 1083.64   4
   6   1  -7 685.183 373.309   6
  -6  -1   7 934.093 471.808   2
   6   1  -7 745.420 451.223   4
   6   1  -6 4183.84 767.350   6
  -6  -1   6 3941.04 769.179   2
   6   1  -5 7335.23 966.101   6
  -6  -1   5 7520.98 978.644   2
   6   1  -4 2891.02 614.201   6
  -6  -1   4 3694.21 689.317   2
   6   1  -3 1841.82 496.791   6
  -6  -1   3 1713.60 407.019   8
  -6  -1   3 1377.46 440.076   2
  -6  -1   2 22960.9 1321.89   8
  -6  -1   2 23258.5 1480.06   2
   6   1  -2 24436.1 1635.66   6
   6   1  -1 28045.5 1542.85   2
  -6  -1   1 30892.1 1424.39   8
  -6  -1   1 29326.7 1576.34   2
   6   1  -1 30697.7 1805.67   6
  -6  -1   0 38842.7 1156.64   5
   6   1   0 37472.3 1642.00   2
  -6  -1   0 39608.2 1725.52   2
   6   1   0 37476.6 1987.37   6
   6   1   1 266.863 281.415   6
  -6  -1  -1 151.131 134.961   5
   6   1   1-12.2385 178.685   2
  -6  -1  -1 66.4845 174.964   2
  -6  -1  -1 252.812 151.471   8
   6   1   2 770.919 349.233   6
  -6  -1  -2 609.006 227.689   5
   6   1   2 938.593 244.148   8
  -6  -1  -2 389.040 212.438   2
   6   1   2 315.416 140.323   2
  -6  -1  -2 738.392 183.330   8
   6   1   3 4324.42 715.295   6
  -6  -1  -3 4277.17 552.868   5
   6   1   3 4778.25 478.542   8
  -6  -1  -3 4698.33 436.685   8
  -6  -1  -3 4402.48 457.834   2
  -6  -1  -3 3935.51 657.069   7
  -6  -1  -4 38569.3 1723.61   5
   6   1   4 38884.8 1358.83   8
  -6  -1  -4 42083.9 1964.38   7
   6   1   4 39355.4 2081.36   6
  -6  -1  -5 4272.21 632.878   5
   6   1   5 5166.48 516.419   8
  -6  -1  -5 4545.60 677.826   7
   6   1   5 5518.99 820.835   6
   6   1   6 4172.79 753.095   6
   6   1   6 4231.48 500.391   8
  -6  -1  -6 3983.11 660.907   5
  -6  -1  -6 4760.28 618.355   1
  -6  -1  -6 4534.37 653.640   7
  -6  -1  -7 12422.4 1200.93   5
   6   1   7 15918.6 970.749   8
  -6  -1  -7 13104.6 1090.85   7
  -6  -1  -7 13026.4 1079.32   1
   6   1   7 16418.2 1478.67   6
  -6  -1  -8 13436.5 1342.39   5
   6   1   8 14206.6 958.584   8
  -6  -1  -8 12768.6 1072.44   7
   6   1   8 14854.1 1445.48   6
   6   1   9 1912.31 570.296   6
  -6  -1  -9 1654.77 552.737   5
   6   1   9 1746.39 363.232   8
  -6  -1  -9 2143.75 472.354   7
  -6  -1 -10 7203.86 1130.54   5
   6   1  10 6622.33 723.097   8
  -6  -1 -10 7414.96 843.023   7
   6   1  11 420.791 217.742   8
  -6  -1 -11 433.185 217.335   7
  -6  -1 -12 5211.47 1100.31   5
   6   1  12 4221.07 638.370   8
  -6  -1 -12 3527.94 604.514   7
   6   1  13-197.651 180.434   8
   6   2  -8 2064.63 583.700   6
   6   2  -7 3291.47 700.647   6
  -6  -2   7 2989.73 707.579   2
   6   2  -7 3936.56 889.182   4
   6   2  -6 2359.00 592.772   6
  -6  -2   6 2414.39 630.064   2
   6   2  -6 3099.40 767.281   4
   6   2  -5 949.805 372.996   6
  -6  -2   5 846.970 396.728   2
   6   2  -4 13246.4 1233.20   6
  -6  -2   4 11984.4 1202.89   2
   6   2  -3 12563.5 1174.45   6
  -6  -2   3 9012.06 1004.32   2
  -6  -2   2 36561.5 1780.49   8
   6   2  -2 36342.8 1961.15   6
  -6  -2   2 36359.4 1887.10   2
   6   2  -1 8167.75 850.134   2
  -6  -2   1 8057.60 792.934   8
   6   2  -1 6844.35 862.581   6
  -6  -2   1 7637.13 850.713   2
   6   2   0 978.332 393.009   6
  -6  -2   0 1030.06 196.253   5
   6   2   0 525.448 235.211   2
  -6  -2   0 1364.32 337.267   8
  -6  -2   0 1264.08 357.168   2
  -6  -2  -1 5417.89 498.950   5
   6   2   1 6410.89 646.772   2
   6   2   1 6018.35 655.817   8
  -6  -2  -1 5474.00 586.485   8
   6   2   1 6066.19 806.286   6
  -6  -2  -1 7294.36 727.303   2
  -6  -2  -2 42173.6 1497.88   5
   6   2   2 43427.3 1675.47   8
   6   2   2 41653.7 2073.54   6
  -6  -2  -2 44759.3 1640.75   2
   6   2   3 52198.0 1807.68   8
  -6  -2  -3 50808.9 1608.40   2
   6   2   3 55671.7 2415.91   6
   6   2   4 627.698 334.846   6
  -6  -2  -4 497.206 257.945   5
   6   2   4 712.970 253.751   8
  -6  -2  -4 606.763 189.898   2
  -6  -2  -4 591.368 297.525   7
  -6  -2  -5 857.450 246.302   1
   6   2   5 629.224 335.340   6
  -6  -2  -5 197.810 196.193   5
   6   2   5 564.008 214.272   8
  -6  -2  -5 949.126 337.969   7
  -6  -2  -6 20896.1 1277.84   1
  -6  -2  -6 20694.8 1431.23   5
   6   2   6 24712.1 1297.08   8
  -6  -2  -6 22557.1 1383.80   7
   6   2   6 25697.0 1784.92   6
   6   2   7 5194.95 857.254   6
  -6  -2  -7 4456.64 649.179   1
   6   2   7 4355.36 562.199   8
  -6  -2  -7 3208.99 640.533   5
  -6  -2  -7 3542.38 546.804   7
   6   2   8 6026.76 932.463   6
   6   2   8 5851.28 678.389   8
  -6  -2  -8 5096.98 840.449   5
  -6  -2  -8 5990.89 800.779   1
  -6  -2  -8 5643.07 688.398   7
  -6  -2  -9 5670.00 971.089   5
   6   2   9 6635.74 732.097   8
  -6  -2  -9 7872.56 810.806   7
  -6  -2 -10 11759.0 1419.64   5
   6   2  10 9712.75 925.869   8
  -6  -2 -10 9968.26 913.583   7
  -6  -2 -11-276.970 433.340   5
   6   2  11-92.3413 161.037   8
  -6  -2 -11 320.713 218.781   7
  -6  -2 -12 1297.28 565.653   5
   6   2  12 1536.87 428.599   8
  -6  -2 -12 1413.76 355.645   7
   6   2  13 2113.58 524.694   8
   6   2  14 936.023 385.232   8
   6   3  -7 878.569 386.584   6
  -6  -3   7 1308.88 520.574   2
   6   3  -7 1327.86 553.396   4
   6   3  -6 4666.54 766.049   6
  -6  -3   6 3549.67 755.135   2
   6   3  -6 3021.43 793.543   4
   6   3  -5 358.204 269.818   6
  -6  -3   5 230.727 336.575   2
   6   3  -5-85.3436 217.387   4
   6   3  -4 3537.61 652.521   6
  -6  -3   4 3163.76 656.907   2
   6   3  -3 132.651 216.068   6
  -6  -3   3 53.8030 246.920   2
  -6  -3   2 10718.5 1077.92   2
   6   3  -2 10621.1 1049.97   6
   6   3  -1 2217.26 519.535   6
  -6  -3   1 2438.84 179.950   5
  -6  -3   1 2649.73 512.487   8
  -6  -3   1 2669.67 533.883   2
  -6  -3   0 67601.9 2379.82   2
  -6  -3   0 68285.6 1476.69   5
   6   3   0 70254.6 2443.57   8
  -6  -3   0 69639.9 2367.05   8
   6   3   0 69849.5 2644.31   6
  -6  -3  -1 15466.2 1082.19   2
  -6  -3  -1 13575.9 766.108   5
   6   3   1 15348.8 1131.14   8
  -6  -3  -1 14978.3 1055.85   8
   6   3   1 14875.2 1229.94   6
   6   3   2 268.955 291.624   6
  -6  -3  -2 131.787 146.367   5
   6   3   2-17.9797 229.308   8
  -6  -3  -2 279.927 179.354   8
  -6  -3  -2 263.211 186.161   2
   6   3   3 2309.91 528.362   6
  -6  -3  -3 1160.20 307.191   5
   6   3   3 2234.25 452.243   8
  -6  -3  -3 1571.68 328.242   8
  -6  -3  -3 1967.80 365.902   2
  -6  -3  -4 14456.8 824.765   2
  -6  -3  -4 14201.0 1013.80   5
   6   3   4 12002.6 981.858   8
  -6  -3  -4 14817.8 942.243   8
   6   3   4 13597.9 1231.92   6
   6   3   5 30.7366 222.425   6
  -6  -3  -5 282.350 208.256   5
   6   3   5 143.568 169.967   8
  -6  -3  -5 144.153 119.405   8
  -6  -3  -5 221.477 140.959   2
  -6  -3  -5 25.6647 223.960   7
  -6  -3  -6 15534.6 1226.74   5
   6   3   6 18729.2 1248.80   8
  -6  -3  -6 17085.9 1152.99   7
  -6  -3  -6 17417.4 1175.06   1
  -6  -3  -6 17171.4 570.709   2
   6   3   6 20353.3 1583.42   6
   6   3   7 1478.90 478.752   6
  -6  -3  -7 1512.35 445.137   5
  -6  -3  -7 701.251 274.712   1
   6   3   7 1869.81 424.036   8
  -6  -3  -7 2001.80 413.994   7
   6   3   8 4987.52 670.588   8
  -6  -3  -8 4048.79 745.239   5
   6   3   8 5537.04 640.678   4
  -6  -3  -8 6170.44 684.608   7
  -6  -3  -9 7435.98 1059.75   5
   6   3   9 10304.0 994.779   8
  -6  -3  -9 9277.88 835.914   7
  -6  -3 -10 12572.6 1437.91   5
   6   3  10 13830.2 1162.13   8
  -6  -3 -10 13086.7 1000.75   7
  -6  -3 -11 7168.23 1204.42   5
   6   3  11 7522.32 893.360   8
  -6  -3 -11 7203.38 743.771   7
  -6  -3 -12 5683.29 1074.37   5
   6   3  12 7080.75 900.949   8
   6   3  13 5.25618 220.134   8
   6   3  14 311.461 297.078   8
   6   4  -7 68.9847 160.666   6
   6   4  -6 2405.55 564.503   6
  -6  -4   6 2101.44 627.669   2
   6   4  -6 2921.97 830.078   4
   6   4  -5 3473.38 639.063   6
  -6  -4   5 3525.21 736.891   2
   6   4  -5 2950.77 787.472   4
   6   4  -4 2297.20 520.894   6
  -6  -4   4 3047.15 639.506   2
   6   4  -4 2069.21 638.157   4
  -6  -4   3 5207.74 816.069   2
   6   4  -3 4944.11 727.722   6
   6   4  -3 4616.68 888.710   4
  -6  -4   2 7239.54 915.783   2
   6   4  -2 6393.48 815.789   6
   6   4  -1 3321.93 599.553   6
  -6  -4   1 2872.13 271.580   5
  -6  -4   1 2598.29 250.605   5
   6   4  -1 3146.56 609.161   8
  -6  -4   1 3804.59 658.264   2
  -6  -4   0 14031.5 1138.39   2
   6   4   0 13512.9 1183.49   8
   6   4   0 13812.7 1172.00   6
  -6  -4  -1 6370.44 745.428   2
   6   4   1 5983.67 773.375   8
  -6  -4  -1 6356.68 765.740   8
   6   4   1 7542.57 878.086   6
  -6  -4  -2 28542.8 1450.17   2
   6   4   2 29019.0 1677.31   8
  -6  -4  -2 29137.3 1510.31   8
   6   4   2 30147.6 1732.17   6
  -6  -4  -3 13551.7 946.135   2
   6   4   3 13162.6 1112.27   8
  -6  -4  -3 13970.6 1016.21   8
   6   4   3 14723.5 1244.53   6
  -6  -4  -4 19967.1 1053.68   2
   6   4   4 19012.3 1346.21   8
  -6  -4  -4 19326.2 1171.42   8
   6   4   4 19194.9 1442.27   6
  -6  -4  -5 52.9140 117.945   2
   6   4   5 347.555 277.980   6
   6   4   5 371.504 261.318   8
  -6  -4  -5 123.250 131.730   8
  -6  -4  -6 1503.80 249.771   2
   6   4   6 1054.96 412.411   6
   6   4   6 1502.56 397.528   8
  -6  -4  -6 1519.58 346.504   7
  -6  -4  -7 334.212 116.817   2
   6   4   7 384.116 226.752   6
   6   4   7 273.668 223.621   8
  -6  -4  -7 572.729 265.745   7
  -6  -4  -8 18682.2 536.275   2
   6   4   8 18308.9 1116.02   4
  -6  -4  -8 17553.6 1118.38   7
   6   4   9 7784.78 923.826   8
   6   4   9 6999.31 695.809   4
  -6  -4  -9 7028.82 702.666   7
  -6  -4 -10 6992.77 1065.78   5
   6   4  10 5398.37 788.141   8
  -6  -4 -10 5987.62 638.572   7
  -6  -4 -11 1397.18 552.773   5
   6   4  11 1534.22 436.544   8
   6   4  12 8962.37 1063.06   8
  -6  -4 -12 6335.27 1146.17   5
   6   4  13-61.2779 284.185   8
   6   4  14 1779.19 521.036   8
   6   5  -6 3122.57 632.127   6
   6   5  -5 775.366 319.670   6
  -6  -5   5 287.171 390.882   2
   6   5  -5 497.855 313.659   4
   6   5  -4 2108.49 496.129   6
   6   5  -4 922.576 485.954   4
  -6  -5   4 2664.88 636.807   2
   6   5  -3 3219.80 585.317   6
   6   5  -3 2437.06 688.446   4
  -6  -5   3 3400.15 690.462   2
   6   5  -2 2923.88 542.528   6
   6   5  -2 2218.31 639.782   4
  -6  -5   2 3005.14 633.491   2
   6   5  -1 1177.29 345.643   6
   6   5  -1 1058.70 441.174   8
   6   5  -1 1229.75 482.758   4
  -6  -5   1 1392.98 424.971   2
  -6  -5   0 10367.6 1030.54   2
   6   5   0 12387.2 1216.26   8
   6   5   0 12431.6 1089.07   6
  -6  -5  -1 8342.73 887.190   2
   6   5   1 6354.67 880.471   8
   6   5   1 7224.18 842.747   6
  -6  -5  -2 33112.2 1658.33   2
   6   5   2 32672.7 1905.67   8
   6   5   2 34751.2 1847.72   6
   6   5   3 1786.02 471.096   6
  -6  -5  -3 1497.62 357.920   2
  -6  -5  -3 1567.59 504.852   3
   6   5   3 1063.40 379.230   8
   6   5   4 1197.19 390.307   6
  -6  -5  -4 1243.66 294.403   2
  -6  -5  -4 1638.98 499.257   3
   6   5   4 1801.30 534.686   8
   6   5   5 2016.72 513.612   6
  -6  -5  -5 2310.47 382.784   2
  -6  -5  -5 2067.83 551.576   3
   6   5   5 2265.41 557.207   8
  -6  -5  -6 23270.2 1139.10   2
   6   5   6 25047.1 1682.67   8
  -6  -5  -6 24932.8 1786.92   3
   6   5   6 25108.1 1762.35   6
   6   5   7 46.5682 242.522   6
  -6  -5  -7-108.788 289.187   3
  -6  -5  -7 22.1413 89.3702   2
   6   5   7-6.47131 192.621   8
  -6  -5  -7-45.3681 157.260   7
  -6  -5  -8 2851.52 632.280   3
  -6  -5  -8 2513.98 338.930   2
   6   5   8 2955.99 602.056   8
  -6  -5  -8 2637.08 424.079   7
  -6  -5  -9-122.647 202.029   3
   6   5   9 100.505 254.756   8
  -6  -5  -9-477.217 206.292   7
   6   5  10 8294.33 1030.62   8
  -6  -5 -10 7561.35 673.927   7
  -6  -5 -10 7899.58 1064.17   3
  -6  -5 -11 84.7950 197.017   3
   6   5  11 418.871 332.478   8
  -6  -5 -12 5527.42 924.918   3
  -6  -5 -12 3805.20 882.949   5
   6   5  12 5097.98 852.658   8
   6   5  13 567.083 351.535   8
  -6  -6   5 955.146 476.503   2
  -6  -6   4 8610.43 1157.35   2
   6   6  -4 6149.07 1162.08   4
   6   6  -3 2415.48 492.742   6
   6   6  -3 2283.83 674.909   4
  -6  -6   3 3667.41 741.689   2
  -6  -6   2 1732.48 527.174   2
   6   6  -2 2548.62 501.696   6
   6   6  -2 3045.11 784.862   4
  -6  -6   1 2153.67 522.950   2
   6   6  -1 1661.66 421.222   6
   6   6  -1 1781.82 529.483   8
   6   6  -1 1179.76 470.771   4
  -6  -6   0 4897.82 779.001   2
   6   6   0 6028.03 930.440   8
   6   6   0 5296.64 895.646   4
   6   6   0 5402.76 706.455   6
   6   6   1 1153.56 366.691   6
  -6  -6  -1 1240.17 364.348   2
   6   6   1 1681.67 526.449   8
   6   6   1 240.826 210.518   4
  -6  -6  -2 4543.08 699.209   2
  -6  -6  -2 5211.98 865.785   3
   6   6   2 4328.45 785.528   8
   6   6   2 4787.39 688.733   6
  -6  -6  -3 11432.5 1018.40   2
   6   6   3 12554.3 1278.06   8
  -6  -6  -3 10466.4 1171.80   3
   6   6   3 11011.6 1057.46   6
  -6  -6  -4 13801.0 1070.45   2
   6   6   4 13260.6 1310.47   8
  -6  -6  -4 15518.1 1458.53   3
   6   6   4 13479.8 1210.29   6
  -6  -6  -5 5944.50 687.022   2
  -6  -6  -5 5334.77 861.949   3
   6   6   5 5515.45 865.704   8
   6   6   5 5926.57 837.762   6
  -6  -6  -6 5735.61 644.992   2
  -6  -6  -6 5411.44 877.008   3
   6   6   6 4206.29 758.232   8
   6   6   6 5858.88 887.311   6
   6   6   7-355.124 366.006   6
  -6  -6  -7 163.843 268.979   3
  -6  -6  -7-60.2223 171.068   2
   6   6   7-185.135 306.489   8
  -6  -6  -8 9246.42 759.696   2
   6   6   8 8150.57 1051.70   8
  -6  -6  -8 8187.42 733.060   7
  -6  -6  -8 8980.67 1152.88   3
  -6  -6  -9 99.8207 302.690   3
   6   6   9-226.729 228.432   8
  -6  -6  -9-5.16539 124.164   7
  -6  -6 -10 4449.43 827.318   3
   6   6  10 5028.47 855.698   8
  -6  -6 -11 2518.97 638.978   3
   6   6  11 2363.59 615.519   8
  -6  -6 -12 3516.15 757.964   3
   6   6  12 3035.56 713.772   8
  -6  -6 -13 20.8289 247.297   3
   6   7  -4 1829.57 704.918   4
  -6  -7   3 308.837 359.347   2
   6   7  -3-547.064 398.755   4
  -6  -7   2 3910.23 777.598   2
   6   7  -2 2743.64 753.919   4
  -6  -7   1 4031.11 779.079   2
   6   7  -1 4594.54 863.060   8
   6   7  -1 3405.56 736.002   4
   6   7  -1 4578.45 625.944   6
   6   7   0 918.445 278.709   6
  -6  -7   0 2134.87 551.080   2
   6   7   0 1308.58 469.083   8
   6   7   0 1518.19 526.254   4
   6   7   1 2445.42 465.894   6
  -6  -7  -1 2770.18 595.135   2
  -6  -7  -1 2327.19 641.289   3
   6   7   1 2739.27 673.450   8
   6   7   1 2350.77 594.356   4
  -6  -7  -2 4451.36 711.048   2
  -6  -7  -2 4688.33 842.744   3
   6   7   2 6538.28 1009.76   8
   6   7   2 4857.82 764.495   4
   6   7   2 4241.52 643.088   6
   6   7   3 727.258 278.799   6
  -6  -7  -3 1207.25 475.678   3
  -6  -7  -3 601.990 319.180   2
   6   7   3 727.913 358.910   8
   6   7   3 926.946 345.761   4
  -6  -7  -4 10514.6 1023.26   2
   6   7   4 10845.8 1269.53   8
   6   7   4 10405.0 949.159   4
  -6  -7  -4 10860.7 1276.98   3
   6   7   4 10704.6 1048.54   6
   6   7   5 1140.41 404.512   6
  -6  -7  -5 1443.77 520.033   3
  -6  -7  -5 1050.18 335.105   2
   6   7   5 1783.79 558.894   8
   6   7   5 1260.36 332.858   4
   6   7   6 2472.49 589.813   6
  -6  -7  -6 4075.39 823.863   3
  -6  -7  -6 4167.30 612.470   2
   6   7   6 3847.89 786.580   8
   6   7   7 2186.74 568.881   6
  -6  -7  -7 1835.69 554.151   3
  -6  -7  -7 2048.22 433.722   2
   6   7   7 1729.70 575.681   8
   6   7   8 4726.25 838.477   6
  -6  -7  -8 6129.26 1000.45   3
  -6  -7  -8 4628.62 620.946   2
   6   7   8 4096.06 820.644   8
  -6  -7  -8 3611.78 485.714   7
  -6  -7  -9 2192.91 632.483   3
   6   7   9 3334.21 722.415   8
  -6  -7 -10 3379.46 735.981   3
   6   7  10 3337.14 739.267   8
  -6  -7 -11 927.503 398.415   3
   6   7  11 6.97076 201.173   8
  -6  -7 -12 3455.76 824.271   3
  -6  -7 -13 228.107 257.456   3
   6   8  -3 2062.76 658.168   4
  -6  -8   2 2024.16 613.936   2
   6   8  -2 2550.10 676.199   4
  -6  -8   1-91.1365 267.912   2
   6   8  -1 1251.86 587.801   8
   6   8  -1 621.878 362.707   4
  -6  -8   0 4036.38 787.221   2
  -6  -8   0 4192.95 811.363   3
   6   8   0 4743.36 915.175   8
   6   8   0 3763.20 754.457   4
  -6  -8  -1 669.740 368.848   2
  -6  -8  -1 360.231 274.658   3
   6   8   1 188.788 265.174   8
   6   8   1 131.257 205.547   4
  -6  -8  -2 6918.45 943.663   2
  -6  -8  -2 7254.87 1075.22   3
   6   8   2 6490.30 1045.03   8
   6   8   2 6191.82 840.440   4
   6   8   2 5457.88 703.727   6
   6   8   3 2140.63 456.015   6
  -6  -8  -3 1797.57 594.159   3
  -6  -8  -3 1578.74 483.150   2
   6   8   3 1661.46 565.602   8
   6   8   3 1824.24 455.657   4
   6   8   4 2293.29 520.983   6
  -6  -8  -4 1761.37 525.031   3
  -6  -8  -4 1734.73 493.398   2
   6   8   4 2897.99 754.264   8
   6   8   4 1677.45 408.861   4
   6   8   5 2136.16 522.712   6
  -6  -8  -5 2494.17 665.851   3
  -6  -8  -5 1972.63 506.407   2
   6   8   5 1418.07 511.446   8
   6   8   5 2171.18 407.765   4
   6   8   6 2171.70 532.350   6
  -6  -8  -6 2349.99 651.504   3
  -6  -8  -6 2065.12 467.028   2
   6   8   6 2543.49 682.596   8
   6   8   7 167.761 224.622   6
  -6  -8  -7 1196.84 524.148   3
   6   8   7 648.350 320.513   8
  -6  -8  -7 803.715 318.676   2
   6   8   8 3504.81 731.983   6
  -6  -8  -8 2292.63 647.033   3
   6   8   8 3894.98 835.211   8
  -6  -8  -8 4768.37 687.386   2
  -6  -8  -9 1019.38 450.509   3
   6   8   9 1710.50 614.297   8
  -6  -8 -10 3048.18 756.568   3
   6   8  10 2542.34 727.621   8
   6   9  -2 2157.74 710.470   4
   6   9  -1 1928.94 595.396   4
  -6  -9   0 2526.74 649.680   2
  -6  -9   0 2507.14 673.922   3
   6   9   0 1848.13 515.304   4
  -6  -9  -1 1309.79 513.789   2
  -6  -9  -1 2201.94 603.445   3
   6   9   1 2565.68 763.386   8
   6   9   1 1426.05 447.211   4
  -6  -9  -2 1131.07 428.431   2
  -6  -9  -2 1498.40 456.143   3
   6   9   2 1240.43 608.907   8
   6   9   2 2080.71 511.994   4
  -6  -9  -3 3977.57 814.745   3
  -6  -9  -3 3278.36 694.529   2
   6   9   3 3598.38 849.321   8
  -6  -9  -4 2264.91 688.140   3
  -6  -9  -4 4206.20 765.705   2
   6   9   4 3492.89 870.258   8
  -6  -9  -5 1656.21 579.626   3
  -6  -9  -5 1688.34 501.317   2
   6   9   5 1461.79 589.241   8
   6   9   6 5849.14 842.359   6
  -6  -9  -6 4873.19 937.514   3
  -6  -9  -6 5022.91 834.891   2
   6   9   6 7015.19 1182.84   8
   6   9   7 615.111 285.235   6
   6   9   7 81.4111 259.348   8
  -6  -9  -7 163.560 217.175   2
   6   9   8 1091.85 440.046   6
   6   9   9 30.9559 219.397   6
  -6 -10  -3 2576.95 690.917   2
  -6 -10  -4 4876.24 888.549   2
  -6 -10  -5 1354.85 518.882   2
  -6 -10  -6 751.193 368.430   2
  -6 -10  -7 360.215 288.969   2
   7  -8   0 398.682 267.018   6
  -7   7   4 176.773 245.030   7
  -7   7   3 2899.79 686.942   7
   7  -7  -2-576.798 384.959   6
  -7   7   2-7.11079 254.140   7
   7  -7  -1 812.196 402.728   6
  -7   7   1 1672.62 628.194   7
   7  -7   0 533.872 379.996   6
   7  -7   1 3300.12 727.325   6
   7  -7   2 759.265 382.343   6
   7  -7   3 2897.28 654.851   6
   7  -7   4 1748.55 541.137   6
  -7   6   5 2793.14 629.006   7
  -7   6   4 227.568 256.322   7
   7  -6  -3 3455.17 753.831   6
  -7   6   3 2731.22 677.703   7
   7  -6  -2 254.878 374.154   6
  -7   6   2 203.374 255.462   7
   7  -6  -1 4828.41 859.974   6
  -7   6   1 3732.30 817.964   7
   7  -6   0 841.447 395.511   6
  -7   6   0 251.116 391.701   7
   7  -6   1 1466.40 471.173   6
  -7   6  -1 1035.57 452.795   7
   7  -6   2-194.982 262.876   6
  -7   6  -2 416.363 347.260   7
  -7   6  -3 7850.04 1200.27   7
   7  -6   3 8601.27 1126.96   6
   7  -6   4 1305.47 471.110   6
   7  -6   5 2128.55 599.202   6
   7  -6   6 366.223 317.522   6
   7  -6   7 1073.70 401.881   6
  -7   5   6 1499.48 479.828   7
  -7   5   5 1358.52 455.078   7
   7  -5  -4 145.344 309.809   6
  -7   5   4 38.3087 301.144   7
   7  -5  -3 7045.07 1054.25   6
  -7   5   3 4299.31 800.114   7
   7  -5  -2 4121.49 835.732   6
  -7   5   2 4385.34 834.072   7
   7  -5  -1 5885.87 934.169   6
  -7   5   1 3189.61 738.052   7
   7  -5   0 2847.49 699.639   6
  -7   5   0 2523.47 696.353   7
  -7   5  -1 12172.4 1409.70   7
   7  -5   1 14606.1 1456.96   6
   7  -5   2 1462.53 512.846   6
  -7   5  -2 675.547 379.525   7
   7  -5   3 4824.69 861.662   6
  -7   5  -3 5167.72 948.001   7
   7  -5   4-686.715 383.353   6
  -7   5  -4 67.0654 278.685   5
  -7   5  -4-162.214 280.000   7
   7  -5   5 3833.35 762.773   6
  -7   5  -5 4000.31 837.333   5
  -7   5  -5 4872.86 931.954   7
   7  -5   6 400.552 287.832   6
  -7   5  -6-76.2628 328.787   5
  -7   5  -6 401.643 366.448   7
   7  -5   7 2033.40 617.220   6
  -7   5  -7 1720.53 590.000   5
   7  -5   8 378.764 298.811   6
   7  -5   9 1434.44 410.956   6
  -7   4   7 1820.59 520.647   7
  -7   4   6 847.003 376.124   7
  -7   4   5 6026.64 906.369   7
   7  -4  -5 9565.29 1272.62   6
   7  -4  -4 1727.19 574.104   6
  -7   4   4 839.518 392.141   7
   7  -4  -3 5448.20 929.482   6
  -7   4   3 5097.00 857.772   7
  -7   4   2 6973.82 1008.18   7
   7  -4  -2 9235.84 1170.13   6
  -7   4   1 8344.28 1094.03   7
   7  -4  -1 8777.13 1140.53   6
   7  -4   0 6149.00 952.714   6
  -7   4   0 4697.32 864.555   7
   7  -4   1 1621.10 513.559   6
  -7   4  -1 2285.49 612.805   7
   7  -4   2 483.822 297.412   6
  -7   4  -2 166.049 274.268   7
  -7   4  -3 9919.56 1127.96   5
  -7   4  -3 12787.6 1436.08   7
   7  -4   3 12501.2 1325.69   6
   7  -4   4 101.308 220.291   6
  -7   4  -4 531.395 373.055   5
  -7   4  -4 349.758 272.692   7
  -7   4  -5 14605.1 1477.10   5
  -7   4  -5 14639.8 1538.75   7
   7  -4   5 15456.9 1504.36   6
   7  -4   6 547.168 328.351   6
  -7   4  -6 18.4630 271.479   5
  -7   4  -6 252.646 322.046   7
   7  -4   7 3192.90 743.123   6
  -7   4  -7 2062.87 684.319   5
  -7   4  -7 3459.19 754.554   7
   7  -4   8-28.2264 198.864   6
  -7   4  -8 141.964 273.199   5
   7  -4   9 798.501 342.124   6
  -7   3   8 418.080 265.601   7
  -7   3   7 3750.30 684.809   7
  -7   3   6 2708.72 603.600   7
   7  -3  -5 3837.84 829.915   6
  -7   3   5 2712.21 607.189   7
   7  -3  -4 3014.54 710.948   6
  -7   3   4 2277.28 564.967   7
   7  -3  -3 3059.87 719.370   6
  -7   3   3 1882.25 517.105   7
   7  -3  -2 363.968 257.458   6
  -7   3   2 926.643 420.178   7
   7  -3  -1 5190.82 863.847   6
  -7   3   1 3554.32 760.520   7
  -7   3   0 7026.11 1030.14   7
   7  -3   0 8228.00 1080.21   6
  -7   3  -1 21886.0 1793.71   7
   7  -3   1 25266.9 1859.26   6
   7  -3   2 3326.39 696.148   6
  -7   3  -2 4024.69 654.674   5
  -7   3  -2 3188.67 718.287   7
  -7   3  -3 9884.69 1057.00   5
  -7   3  -3 11927.9 1347.52   7
   7  -3   3 13159.4 1360.97   6
   7  -3   4 520.380 403.381   6
  -7   3  -4 843.522 364.996   5
  -7   3  -4 1022.89 469.236   7
   7  -3   5 2757.25 685.075   6
  -7   3  -5 3081.12 679.397   5
  -7   3  -5 3480.51 787.000   7
  -7   3  -6 10041.9 1244.06   5
  -7   3  -6 10361.0 1265.97   7
   7  -3   6 9418.44 1183.47   6
  -7   3  -7 9265.70 1254.97   5
  -7   3  -7 11229.8 1314.94   7
   7  -3   7 11747.3 1349.32   6
   7  -3   8 78.9094 210.214   6
  -7   3  -8 783.413 386.388   5
  -7   3  -8 615.933 389.592   7
   7  -3   9 2126.02 633.002   6
  -7   3  -9 2797.61 777.881   5
  -7   3  -9 2091.81 582.781   7
   7  -3  10 503.972 350.721   6
   7  -2  -6 429.247 354.758   6
  -7   2   6-6.80835 187.736   7
   7  -2  -5 3780.59 776.427   6
  -7   2   5 3696.03 688.184   7
   7  -2  -4 177.295 222.467   6
  -7   2   4 242.110 244.968   7
  -7   2   3 11660.1 1213.76   7
   7  -2  -3 14905.0 1461.85   6
   7  -2  -2 106.718 284.774   6
  -7   2   2-96.3561 221.913   7
  -7   2   1 12414.5 1305.02   7
   7  -2  -1 12215.6 1293.58   6
  -7   2   0 6843.64 972.972   7
   7  -2   0 7857.50 1044.33   6
   7  -2   1 5711.48 674.379   2
   7  -2   1 4528.96 789.921   6
  -7   2  -1 4999.65 627.490   5
  -7   2  -1 5852.68 941.918   7
   7  -2   2-176.326 261.510   6
  -7   2  -2-121.234 277.700   5
  -7   2  -2-494.356 323.854   7
  -7   2  -3 7294.89 893.065   5
  -7   2  -3 6977.97 1002.92   7
   7  -2   3 7972.49 1052.56   6
  -7   2  -4 7201.60 916.072   5
  -7   2  -4 7134.96 1021.87   7
   7  -2   4 8723.84 1112.96   6
  -7   2  -5 21896.5 1667.29   5
  -7   2  -5 22183.4 1782.70   7
   7  -2   5 22884.5 1799.40   6
   7  -2   6 2592.13 663.783   6
  -7   2  -6 1768.26 554.787   5
  -7   2  -6 2387.97 626.251   7
   7  -2   7 5488.32 948.730   6
  -7   2  -7 4934.92 883.519   5
  -7   2  -7 4524.92 808.654   7
   7  -2   8 163.063 307.505   6
  -7   2  -8 157.313 214.997   7
  -7   2  -9 6551.62 1123.51   5
  -7   2  -9 7813.12 1076.25   7
   7  -2   9 8990.53 1245.87   6
   7  -2  10 1023.98 460.525   6
  -7   2 -10 770.200 447.596   5
  -7   2 -10 1195.78 467.159   7
  -7   2 -11 880.977 371.745   7
   7  -1  -6-4.52144 189.246   6
  -7   1   6 75.9755 281.545   2
   7  -1  -5 6819.94 1022.80   6
  -7   1   5 6653.65 951.290   2
   7  -1  -4 191.335 270.336   6
  -7   1   4 218.262 291.156   2
   7  -1  -3 3307.93 725.439   6
  -7   1   3 2454.46 564.630   2
   7  -1  -2 772.372 377.588   6
  -7   1   2 521.466 254.750   7
   7  -1  -1 37.6608 231.378   6
  -7   1   1 697.995 349.448   7
   7  -1   0-553.500 319.032   6
   7  -1   0-440.673 239.574   2
  -7   1   0 125.495 222.831   7
   7  -1   1 12312.4 950.339   2
  -7   1  -1 12012.8 899.897   5
  -7   1  -1 8294.14 1043.07   7
  -7   1  -1 9350.21 454.015   1
   7  -1   1 13897.2 1367.01   6
   7  -1   2 9178.36 738.502   2
  -7   1  -2 8987.65 852.764   5
  -7   1  -2 7514.26 1000.01   7
   7  -1   2 10090.2 1162.32   6
  -7   1  -3 39961.9 1931.53   5
  -7   1  -3 44856.1 2428.04   7
   7  -1   3 44334.6 2414.33   6
  -7   1  -4 7640.35 907.500   5
  -7   1  -4 7936.20 1038.86   7
   7  -1   4 10079.8 1167.28   6
   7  -1   5 1756.39 551.671   6
  -7   1  -5 1891.55 547.653   5
  -7   1  -5 1636.58 498.172   7
   7  -1   6 485.732 279.805   6
  -7   1  -6 887.088 398.512   5
  -7   1  -6 802.455 366.394   7
  -7   1  -7 16241.9 1511.99   5
  -7   1  -7 16986.8 1488.77   7
   7  -1   7 18071.7 1657.05   6
   7  -1   8 4707.29 897.883   6
  -7   1  -8 3620.23 782.743   5
  -7   1  -8 3841.85 727.476   7
   7  -1   9 5942.08 1013.69   6
  -7   1  -9 4840.53 929.728   5
  -7   1  -9 6197.00 908.884   7
   7  -1  10 418.828 339.627   6
  -7   1 -10 162.516 256.681   5
  -7   1 -10-96.3413 232.109   7
   7  -1  11 4437.96 921.263   6
  -7   1 -11 3289.51 672.501   7
  -7   1 -12 1282.26 442.102   7
   7   0  -6 426.083 344.085   6
  -7   0   6 102.043 291.400   2
   7   0  -5 2312.43 612.905   6
  -7   0   5 1681.02 517.715   2
   7   0  -4 4451.23 814.362   6
  -7   0   4 4373.56 755.692   2
   7   0  -3 4930.52 833.853   6
  -7   0   3 6233.33 856.231   2
   7   0  -2 804.128 411.925   6
  -7   0   2 32.5871 226.189   2
  -7   0   1 7412.28 861.612   2
   7   0  -1 8314.37 1055.57   6
   7   0   0 5746.24 710.883   2
  -7   0   0 6616.57 564.134   8
  -7   0   0 6750.67 936.943   7
  -7   0   0 5467.36 704.726   2
   7   0   0 6269.15 931.257   6
   7   0   1 5664.75 865.735   6
  -7   0  -1 5778.46 594.350   5
   7   0   1 6000.24 668.397   2
  -7   0  -1 5727.89 467.248   8
   7   0   2 776.801 397.350   6
  -7   0  -2 943.972 298.073   5
   7   0   2 1007.23 249.251   2
  -7   0  -2 1649.97 234.796   8
  -7   0  -2 1544.69 462.850   7
   7   0   3 3609.29 710.987   6
   7   0   3 2798.90 352.649   2
  -7   0  -3 2827.07 507.539   5
  -7   0  -3 3672.37 684.919   7
  -7   0  -3 2869.98 367.803   1
   7   0   4-11.1352 233.607   6
  -7   0  -4 66.2914 107.687   1
  -7   0  -4 157.856 210.573   5
  -7   0  -4 39.3093 332.125   7
  -7   0  -5 44026.8 2169.54   5
   7   0   5 46298.7 1119.75   8
  -7   0  -5 44755.7 2333.18   7
   7   0   5 48550.7 2565.91   6
   7   0   6 6666.80 1007.25   6
  -7   0  -6 5004.52 792.968   5
   7   0   6 6680.62 481.744   8
  -7   0  -6 6030.03 868.155   7
   7   0   7 3265.96 764.821   6
  -7   0  -7 2111.78 564.576   5
  -7   0  -7 1528.77 446.894   7
   7   0   8-374.946 313.673   6
  -7   0  -8-60.2467 286.426   5
  -7   0  -8 15.5453 175.518   7
  -7   0  -9 9821.68 1269.89   5
  -7   0  -9 10167.3 1112.69   7
   7   0   9 11017.2 1392.11   6
   7   0  10 958.222 439.902   6
  -7   0 -10 390.086 399.666   5
  -7   0 -10 960.684 381.265   7
   7   0  11 4788.07 1016.76   6
  -7   0 -11 4370.59 958.838   5
  -7   0 -11 3465.01 674.582   7
  -7   0 -12 254.678 201.950   7
   7   1  -7 4367.26 818.441   6
   7   1  -6 965.367 463.026   6
  -7  -1   6 1177.69 460.637   2
   7   1  -5 1918.01 572.605   6
  -7  -1   5 2610.03 662.080   2
   7   1  -4 1873.36 534.146   6
  -7  -1   4 1861.98 501.138   2
  -7  -1   3 7754.10 951.575   2
   7   1  -3 8781.30 1100.66   6
   7   1  -2 589.228 328.341   6
  -7  -1   2 203.662 244.936   2
  -7  -1   2 629.395 263.941   8
   7   1  -1 3819.80 733.312   6
  -7  -1   1 3817.13 618.217   2
  -7  -1   1 3364.82 502.337   8
   7   1   0 858.137 386.124   6
  -7  -1   0 1783.48 255.826   5
   7   1   0 1506.65 395.587   2
  -7  -1   0 2448.14 472.202   2
  -7  -1   0 2166.60 383.118   8
   7   1   1 88.6560 228.961   6
  -7  -1  -1 140.619 148.159   5
  -7  -1  -1 15.6399 184.318   2
   7   1   1 416.118 226.937   2
  -7  -1  -2 16455.5 1038.28   5
   7   1   2 16711.5 989.627   2
  -7  -1  -2 17008.7 885.210   8
  -7  -1  -2 15542.9 1342.58   7
  -7  -1  -2 16016.8 1047.17   2
   7   1   2 18577.3 1531.41   6
  -7  -1  -3 21512.2 1281.32   5
   7   1   3 23870.2 1086.79   8
  -7  -1  -3 23786.5 1020.50   8
  -7  -1  -3 25754.5 1736.83   7
   7   1   3 24016.8 1741.25   6
  -7  -1  -4 6242.16 758.000   5
   7   1   4 8040.10 630.807   8
  -7  -1  -4 6970.32 907.357   7
   7   1   4 7239.93 1000.18   6
   7   1   5 5246.47 858.591   6
   7   1   5 5263.31 529.120   8
  -7  -1  -5 4551.89 708.474   5
  -7  -1  -5 3584.58 681.075   7
   7   1   6 1358.12 490.547   6
  -7  -1  -6 945.226 367.185   5
   7   1   6 1866.11 336.882   8
  -7  -1  -6 1451.68 362.268   1
  -7  -1  -6 976.360 402.307   7
  -7  -1  -7 14481.7 1347.52   5
   7   1   7 15098.0 951.723   8
  -7  -1  -7 16495.7 1352.96   7
   7   1   7 17524.3 1639.78   6
   7   1   8 4471.66 875.411   6
  -7  -1  -8 3807.88 780.251   5
   7   1   8 4506.55 554.915   8
  -7  -1  -8 4150.41 686.951   7
  -7  -1  -9 6634.35 1045.25   5
   7   1   9 9938.89 854.881   8
  -7  -1  -9 7479.91 931.374   7
   7   1   9 10561.1 1375.44   6
  -7  -1 -10 221.226 212.465   5
  -7  -1 -10 206.407 219.523   7
   7   1  11 3001.62 795.584   6
  -7  -1 -11 2351.89 722.297   5
  -7  -1 -11 2095.32 487.231   7
  -7  -1 -12 626.751 315.909   7
   7   2  -7 1734.05 544.387   6
   7   2  -6 1990.01 592.550   6
  -7  -2   6 1176.47 504.984   2
   7   2  -5 5592.67 885.058   6
  -7  -2   5 4060.42 790.134   2
   7   2  -4 657.815 359.402   6
  -7  -2   4-67.8365 276.509   2
   7   2  -3 7878.27 1024.53   6
  -7  -2   3 7623.35 980.604   2
   7   2  -2 7366.01 986.778   6
  -7  -2   2 7811.69 955.522   2
  -7  -2   1 10952.3 965.123   8
   7   2  -1 10569.1 1163.29   6
  -7  -2   1 10778.6 1065.63   2
   7   2   0 3027.14 632.126   6
  -7  -2   0 2117.47 253.211   5
  -7  -2   0 2774.21 458.606   8
   7   2   0 3503.05 574.556   2
  -7  -2   0 3327.83 574.852   2
   7   2   1 2994.88 633.428   6
  -7  -2  -1 2849.81 377.038   5
  -7  -2  -1 2320.97 404.534   8
  -7  -2  -1 2725.85 491.897   2
   7   2   1 2864.97 486.488   2
  -7  -2  -2 10382.7 792.007   5
   7   2   2 12828.1 950.429   8
  -7  -2  -2 11821.1 836.814   8
  -7  -2  -2 13493.0 977.386   2
   7   2   2 13323.4 1289.00   6
   7   2   3 21.2838 236.909   6
  -7  -2  -3 102.825 154.819   5
   7   2   3 242.816 149.528   8
  -7  -2  -3-30.8368 146.497   2
  -7  -2  -3 77.9148 109.641   8
   7   2   4 40.3396 270.554   6
  -7  -2  -4 171.714 201.569   5
  -7  -2  -4 307.039 166.233   2
   7   2   4 217.932 188.854   8
  -7  -2  -4 171.800 241.816   7
  -7  -2  -5 16721.3 1262.64   5
   7   2   5 16936.4 1078.90   8
  -7  -2  -5 17495.6 1392.27   7
  -7  -2  -5 16467.9 1101.66   1
   7   2   5 17787.5 1561.48   6
  -7  -2  -6 10791.3 956.542   1
  -7  -2  -6 10743.6 1080.86   5
   7   2   6 12289.6 944.796   8
  -7  -2  -6 9937.49 1043.29   7
   7   2   6 10932.3 1260.28   6
  -7  -2  -7 15242.9 1357.78   5
  -7  -2  -7 18489.4 1351.18   1
   7   2   7 17471.4 1153.98   8
  -7  -2  -7 16401.8 1313.43   7
   7   2   7 16486.3 1577.10   6
   7   2   8 5392.90 965.491   6
   7   2   8 5932.03 715.167   8
  -7  -2  -8 5129.65 859.251   5
  -7  -2  -8 4559.01 717.864   7
   7   2   9 2923.76 752.058   6
  -7  -2  -9 1776.21 568.179   5
   7   2   9 1916.09 421.931   8
  -7  -2  -9 1799.33 431.958   7
   7   2  10 796.896 517.278   6
  -7  -2 -10 161.735 340.984   5
   7   2  10 556.041 283.578   8
  -7  -2 -10 479.394 258.734   7
  -7  -2 -11 6272.82 1120.32   5
  -7  -2 -11 7949.53 909.860   7
   7   2  11 9630.21 1381.82   6
   7   3  -7 972.169 397.389   6
   7   3  -6 592.814 318.915   6
   7   3  -5 2435.30 616.707   6
  -7  -3   5 2231.57 634.592   2
   7   3  -5 3268.78 869.015   4
   7   3  -4 3861.63 733.111   6
  -7  -3   4 4251.51 798.885   2
   7   3  -3 3333.08 670.492   6
  -7  -3   3 4153.84 761.058   2
   7   3  -2-38.9124 199.290   6
  -7  -3   2 109.141 277.198   2
  -7  -3   1 4540.09 723.736   2
   7   3  -1 6359.27 894.470   6
   7   3   0 731.363 355.676   6
  -7  -3   0 1551.22 441.320   2
  -7  -3  -1 9792.50 662.349   5
   7   3   1 9627.94 930.616   8
  -7  -3  -1 11612.3 966.629   8
   7   3   1 11457.2 1188.58   6
  -7  -3  -1 11029.3 985.655   2
   7   3   2 2871.02 622.802   6
  -7  -3  -2 2293.54 378.001   5
   7   3   2 1981.14 451.377   8
  -7  -3  -2 2165.83 398.357   8
  -7  -3  -2 1764.50 390.819   2
   7   3   3 2934.95 614.935   6
  -7  -3  -3 2178.77 422.362   5
   7   3   3 2351.17 458.570   8
  -7  -3  -3 2540.49 409.182   8
  -7  -3  -3 2993.33 457.379   2
  -7  -3  -4 6623.09 736.469   5
   7   3   4 7722.62 825.740   8
  -7  -3  -4 7740.09 710.774   8
  -7  -3  -4 9411.56 715.322   2
   7   3   4 8878.11 1082.76   6
  -7  -3  -5 7804.64 852.619   5
   7   3   5 10317.5 945.228   8
  -7  -3  -5 8382.80 743.766   8
  -7  -3  -5 8741.84 960.863   7
  -7  -3  -5 8075.86 564.939   2
   7   3   5 9507.52 1146.88   6
   7   3   6 331.851 351.746   6
  -7  -3  -6-130.319 273.585   5
   7   3   6 351.650 273.927   8
  -7  -3  -6-48.7658 284.298   7
   7   3   7 1924.70 560.369   6
  -7  -3  -7 2550.44 582.484   5
   7   3   7 2391.97 497.648   8
  -7  -3  -7 2009.11 476.702   7
  -7  -3  -8 8585.79 1070.64   5
   7   3   8 11066.3 1038.13   8
  -7  -3  -8 7825.51 879.102   7
   7   3   8 12948.1 1453.49   6
  -7  -3  -9 9867.40 1237.38   5
   7   3   9 10248.2 1021.23   8
  -7  -3  -9 10656.4 1010.11   7
   7   3   9 12407.9 1449.07   6
   7   3  10 5034.59 964.633   6
   7   3  10 5746.36 788.683   8
  -7  -3 -10 4511.77 882.336   5
  -7  -3 -10 5191.04 705.980   7
   7   3  11 1812.85 639.605   6
  -7  -3 -11 2402.87 687.863   5
   7   3  11 2295.24 526.248   8
  -7  -3 -11 2251.43 475.596   7
   7   3  12-23.9772 138.891   8
   7   4  -6 309.590 242.848   6
   7   4  -5 3472.06 716.847   6
  -7  -4   5 1763.52 582.304   2
   7   4  -4 521.457 315.651   6
  -7  -4   4 661.856 379.779   2
   7   4  -4 1064.64 475.938   4
   7   4  -3 1496.17 461.727   6
  -7  -4   3 2113.34 583.400   2
   7   4  -3 1385.29 514.041   4
   7   4  -2 2297.00 549.612   6
  -7  -4   2 2454.15 613.253   2
  -7  -4   1 11299.9 1156.34   2
   7   4  -1 12448.6 1230.43   6
   7   4   0 1458.63 457.592   6
   7   4   0 1379.76 443.061   8
  -7  -4   0 1910.83 481.435   2
  -7  -4  -1 7683.14 864.470   2
  -7  -4  -1 7013.35 571.001   5
   7   4   1 8032.19 942.192   8
   7   4   1 8680.80 1014.41   6
   7   4   2 787.512 386.450   6
  -7  -4  -2 758.283 237.458   5
   7   4   2 893.218 337.609   8
  -7  -4  -2 820.480 279.617   2
  -7  -4  -3 6210.93 690.593   2
   7   4   3 5695.87 858.448   6
  -7  -4  -3 6172.60 661.509   5
   7   4   3 6631.14 835.049   8
   7   4   4 1352.72 440.914   6
  -7  -4  -4 958.249 289.177   5
   7   4   4 1117.66 369.548   8
  -7  -4  -4 965.509 263.762   2
   7   4   5 244.866 230.356   6
  -7  -4  -5 1020.70 363.560   5
   7   4   5 681.969 311.635   8
  -7  -4  -5 869.135 238.413   2
   7   4   6 1576.50 520.552   6
  -7  -4  -6 1362.81 447.440   5
   7   4   6 1895.12 467.431   8
  -7  -4  -6 1438.07 238.749   2
  -7  -4  -6 1393.14 391.589   7
  -7  -4  -7 9946.74 1086.92   5
   7   4   7 11248.2 1118.56   8
  -7  -4  -7 9435.48 931.406   7
   7   4   7 11614.3 1324.87   6
   7   4   8 2203.07 622.832   6
  -7  -4  -8 2992.93 655.827   5
   7   4   8 2232.88 518.453   8
  -7  -4  -8 2849.85 531.582   7
   7   4   9 3055.76 725.599   6
  -7  -4  -9 2950.17 700.784   5
   7   4   9 4915.28 763.032   8
  -7  -4  -9 3941.61 606.179   7
   7   4  10 1889.48 571.384   6
  -7  -4 -10 1584.82 574.674   5
   7   4  10 2075.04 520.923   8
  -7  -4 -10 1330.33 363.065   7
  -7  -4 -11 4618.27 975.505   5
   7   4  11 5966.54 865.005   8
   7   4  12 1098.13 414.873   8
   7   4  13 2035.69 572.972   8
   7   5  -4 1463.61 472.358   6
  -7  -5   4 1285.45 520.983   2
  -7  -5   3 9173.15 1158.83   2
   7   5  -3 10543.5 1130.00   6
   7   5  -3 7273.27 1236.92   4
   7   5  -2 2566.86 570.095   6
  -7  -5   2 1401.86 504.204   2
   7   5  -2 1319.19 572.375   4
   7   5  -1 2494.99 562.825   6
  -7  -5   1 2471.01 562.921   2
   7   5   0 281.812 259.833   6
   7   5   0 28.9462 239.555   8
  -7  -5   0 3.24802 241.756   2
  -7  -5  -1 6407.68 822.926   2
   7   5   1 7261.05 961.312   8
   7   5   1 6526.10 885.100   6
  -7  -5  -2 8086.49 872.829   2
   7   5   2 6611.95 913.396   8
   7   5   2 7399.58 948.951   6
  -7  -5  -3 6077.21 730.179   2
   7   5   3 5650.34 846.724   6
   7   5   3 6095.38 870.223   8
   7   5   4 2811.75 611.674   6
   7   5   4 2795.15 617.872   8
  -7  -5  -4 1341.95 336.017   2
  -7  -5  -5 5790.87 634.619   2
   7   5   5 5314.18 870.909   6
   7   5   5 5572.98 845.367   8
   7   5   6 46.6072 240.662   6
   7   5   6 92.6716 245.512   8
  -7  -5  -6 133.427 220.401   7
  -7  -5  -6-21.6752 128.410   2
   7   5   7 9443.21 1087.02   8
  -7  -5  -7 8435.20 872.559   7
   7   5   7 10374.5 1253.86   6
   7   5   8 59.9849 251.096   6
   7   5   8 282.395 251.660   8
  -7  -5  -8 498.585 260.463   7
   7   5   9 4713.25 923.456   6
   7   5   9 3191.94 653.581   8
  -7  -5  -9 3111.40 523.234   7
   7   5  10 2190.46 694.376   6
  -7  -5 -10 2068.94 606.371   5
   7   5  10 2398.58 583.616   8
  -7  -5 -11 2120.46 643.510   5
   7   5  11 2851.46 674.981   8
   7   5  12 441.067 287.221   8
   7   5  13 845.080 364.393   8
   7   6  -3 2472.38 756.942   4
  -7  -6   3 3172.38 719.398   2
   7   6  -2 2343.36 532.846   6
   7   6  -2 1045.61 594.768   4
  -7  -6   2 1784.13 552.788   2
   7   6  -1 4388.56 703.625   6
   7   6  -1 4509.64 918.941   4
  -7  -6   1 3431.94 724.370   2
   7   6   0 3904.78 675.573   6
   7   6   0 3995.81 771.388   8
   7   6   0 3334.20 789.577   4
  -7  -6   0 4588.58 767.243   2
   7   6   1 4720.73 739.836   6
   7   6   1 5128.24 867.221   8
  -7  -6  -1 4134.25 712.854   2
  -7  -6  -2 493.699 250.496   2
   7   6   2 344.309 340.372   8
  -7  -6  -3 6865.03 831.546   2
   7   6   3 6833.00 981.042   8
   7   6   3 7538.04 969.306   6
  -7  -6  -4 842.859 311.210   2
   7   6   4 1122.96 423.396   6
   7   6   4 669.739 432.483   8
  -7  -6  -5 8479.68 819.905   2
   7   6   5 9158.88 1142.35   8
   7   6   5 8054.05 1057.78   6
  -7  -6  -6 1617.11 345.555   2
   7   6   6 1841.43 566.672   6
  -7  -6  -6 1660.73 567.157   3
   7   6   6 1506.97 553.823   8
   7   6   7 1849.59 556.315   6
  -7  -6  -7 3268.36 760.632   3
   7   6   7 3015.82 708.310   8
  -7  -6  -7 1721.60 404.175   7
   7   6   8 3000.73 748.197   6
  -7  -6  -8 2553.72 680.268   3
   7   6   8 3806.41 757.497   8
  -7  -6  -8 3377.25 547.668   7
   7   6   9 5432.96 991.879   6
  -7  -6  -9 5153.31 953.582   3
   7   6   9 3975.78 791.454   8
   7   6  10 1468.49 627.503   6
  -7  -6 -10 1923.11 592.886   3
   7   6  10 1597.70 513.592   8
   7   6  11 3756.62 780.434   8
   7   6  12-631.504 341.698   8
   7   7  -2 731.232 410.075   4
  -7  -7   2-140.388 271.738   2
   7   7  -1 3859.22 874.308   8
   7   7  -1 4931.55 1003.89   4
  -7  -7   1 4594.02 861.576   2
  -7  -7   0 541.084 324.560   2
   7   7   0 534.487 333.165   8
   7   7   0 412.598 320.869   4
  -7  -7  -1 3239.54 673.630   2
   7   7   1 3703.78 650.125   6
   7   7   1 3181.08 768.828   8
   7   7   1 3524.29 765.798   4
  -7  -7  -2 1719.08 491.311   2
   7   7   2 1722.38 466.136   6
   7   7   2 1430.11 505.430   8
   7   7   2 2816.22 673.089   4
   7   7   3 4170.59 721.752   6
  -7  -7  -3 2582.01 557.433   2
   7   7   3 4105.26 824.163   8
   7   7   3 3542.86 672.807   4
   7   7   4 2122.19 559.079   6
  -7  -7  -4 1782.71 444.426   2
  -7  -7  -4 2911.49 720.467   3
   7   7   4 2003.57 618.546   8
   7   7   5 1778.03 525.158   6
  -7  -7  -5 2082.05 451.427   2
  -7  -7  -5 1904.38 607.750   3
   7   7   5 1845.30 579.439   8
   7   7   6 653.985 346.539   6
  -7  -7  -6 1203.64 353.440   2
  -7  -7  -6 761.037 415.915   3
   7   7   6 732.359 422.028   8
   7   7   7 4278.08 828.845   6
  -7  -7  -7 4761.44 890.633   3
   7   7   7 3357.86 800.792   8
   7   7   8 2934.40 703.480   6
  -7  -7  -8 3787.70 804.160   3
   7   7   8 1496.29 540.610   8
  -7  -7  -8 2174.59 429.156   7
   7   7   9 8142.72 1159.26   8
  -7  -7  -9 7777.95 1183.38   3
   7   7   9 10367.5 1343.68   6
   7   7  10 1533.28 574.787   6
   7   7  10 1245.08 498.387   8
   7   7  11 351.052 335.246   8
   7   8  -1 3203.46 795.926   4
  -7  -8   0 1556.93 555.911   2
   7   8   0 1259.96 500.725   4
  -7  -8  -1 1167.71 460.574   2
   7   8   1 1096.41 534.975   8
   7   8   1 534.365 336.277   4
  -7  -8  -2 851.317 356.317   2
   7   8   2-156.297 269.794   4
  -7  -8  -3 3376.03 665.959   2
  -7  -8  -3 3687.66 846.122   3
   7   8   3 5005.24 969.581   8
   7   8   3 3407.92 665.298   4
   7   8   4-96.5143 206.872   6
  -7  -8  -4 435.467 250.564   2
  -7  -8  -4 1055.19 475.353   3
   7   8   4 851.314 491.924   8
   7   8   4 791.692 330.991   4
   7   8   5 1844.39 501.192   6
  -7  -8  -5 1300.56 431.686   2
  -7  -8  -5 1265.16 523.192   3
   7   8   5 1184.44 479.050   8
   7   8   6 95.6187 177.796   6
   7   8   6-879.932 478.829   8
   7   8   7 3305.23 711.205   6
   7   8   7 4824.84 998.029   8
   7   8   8-156.986 299.736   6
   7   8   8 920.386 432.645   8
   7   8   9 362.581 277.611   6
   7   8   9 1409.94 521.255   8
   7   9   1 2197.41 600.803   4
  -7  -9  -2 1814.03 526.207   2
  -7  -9  -3 972.891 443.622   2
  -7  -9  -4 1626.26 494.215   2
  -7  -9  -5 2949.34 615.397   2
   8  -5   1-379.969 331.855   6
   8  -5   2 2627.27 645.281   6
   8  -5   3-382.404 439.620   6
   8  -5   4 5775.63 1001.12   6
  -8   5  -5-4.84195 232.953   5
  -8   4   2 2278.38 683.622   7
   8  -4  -1 364.034 410.236   6
  -8   4   1 457.787 304.105   7
   8  -4   0 7146.99 1086.33   6
  -8   4   0 5601.34 1021.15   7
   8  -4   1-72.2445 215.462   6
  -8   4  -1-274.035 361.348   7
   8  -4   2 5540.42 954.175   6
  -8   4  -2 4447.09 945.615   7
   8  -4   3 376.872 425.265   6
  -8   4  -3 166.506 282.665   7
   8  -4   4 638.797 402.825   6
  -8   4  -4 646.718 361.018   5
   8  -4   5 304.506 383.982   6
  -8   4  -5-150.932 226.304   5
   8  -4   6 493.711 489.963   6
  -8   4  -6 1773.90 552.252   5
  -8   3   3 1778.14 527.135   7
   8  -3  -2 4789.79 910.249   6
  -8   3   2 4907.50 926.834   7
   8  -3  -1 1164.54 457.172   6
  -8   3   1 1016.71 433.716   7
   8  -3   0 3885.76 839.652   6
  -8   3   0 2906.42 729.828   7
   8  -3   1 4587.65 881.961   6
  -8   3  -1 3785.68 833.311   7
   8  -3   2 2462.52 691.223   6
  -8   3  -2 2982.02 706.317   7
   8  -3   3 215.346 315.746   6
  -8   3  -3 157.624 219.151   5
  -8   3  -3-49.1304 231.770   7
   8  -3   4 2964.19 725.723   6
  -8   3  -4 2032.12 564.027   5
  -8   3  -4 2728.86 714.399   7
   8  -3   5 8211.71 1210.53   6
  -8   3  -5 7407.94 1049.51   5
  -8   3  -5 8816.18 1280.81   7
   8  -3   6 6219.79 1040.39   6
  -8   3  -6 5099.14 943.706   5
  -8   3  -6 4027.33 869.946   7
   8  -3   7 538.879 352.388   6
  -8   3  -7 174.617 305.833   5
  -8   2   4 1516.45 494.214   7
   8  -2  -3 2255.05 669.300   6
  -8   2   3 1562.35 524.964   7
   8  -2  -2 2691.72 689.858   6
  -8   2   2 3530.63 774.883   7
   8  -2  -1 3084.52 699.532   6
  -8   2   1 2590.30 664.605   7
   8  -2   0 6163.80 1003.74   6
  -8   2   0 7071.69 1105.05   7
   8  -2   1 1247.44 500.656   6
  -8   2  -1 836.547 411.624   7
  -8   2  -2 13539.6 1123.09   5
  -8   2  -2 11157.4 1375.53   7
   8  -2   2 15119.9 1552.41   6
   8  -2   3 2429.41 666.651   6
  -8   2  -3 2217.59 523.800   5
  -8   2  -3 1197.20 517.422   7
   8  -2   4 4606.84 891.907   6
  -8   2  -4 4789.89 768.569   5
  -8   2  -4 4359.28 870.833   7
   8  -2   5 674.865 406.477   6
  -8   2  -5 72.7777 257.986   5
  -8   2  -5 297.388 243.616   7
   8  -2   6 483.053 385.017   6
  -8   2  -6-80.0113 267.639   5
  -8   2  -6 764.906 447.841   7
   8  -2   7 6100.79 1030.17   6
  -8   2  -7 6623.14 1070.41   5
  -8   2  -7 6339.05 1053.91   7
   8  -2   8 8404.40 1252.06   6
  -8   2  -8 7735.34 1212.57   5
  -8   2  -8 9528.61 1267.08   7
  -8   1   4 4417.72 787.190   7
   8  -1  -3 2906.51 695.201   6
  -8   1   3 1171.23 462.791   7
   8  -1  -2 3272.20 759.736   6
  -8   1   2 2431.35 600.198   7
   8  -1  -1 803.373 433.542   6
  -8   1   1 72.2593 255.016   7
  -8   1   0 5632.97 958.670   7
   8  -1   0 7449.91 1121.28   6
   8  -1   1 907.787 443.109   6
  -8   1  -1 2.23251 252.092   7
  -8   1  -2 10664.2 945.065   5
  -8   1  -2 9849.92 1268.05   7
   8  -1   2 12435.5 1396.61   6
   8  -1   3-291.484 301.483   6
  -8   1  -3 311.526 239.076   5
  -8   1  -3-275.738 352.324   7
  -8   1  -4 7191.00 915.587   5
  -8   1  -4 7303.47 1080.92   7
   8  -1   4 9971.33 1283.61   6
   8  -1   5 3487.51 780.790   6
  -8   1  -5 4252.16 759.724   5
  -8   1  -5 3251.71 744.127   7
  -8   1  -6 6498.33 959.323   5
  -8   1  -6 5687.67 975.026   7
   8  -1   6 7570.83 1132.43   6
   8  -1   7 5653.70 979.700   6
  -8   1  -7 6184.06 983.815   5
  -8   1  -7 5872.99 984.617   7
   8  -1   8 85.9245 235.463   6
  -8   1  -8 58.0397 307.514   5
  -8   1  -8-70.9161 361.531   7
  -8   1  -9-143.763 241.717   5
  -8   1  -9-243.899 246.802   7
  -8   1 -10 5910.19 962.129   7
  -8   0   5-443.098 288.635   2
   8   0  -4 1764.55 609.760   6
  -8   0   4 329.608 322.155   2
   8   0  -3 1697.19 568.605   6
  -8   0   3 1206.59 415.291   2
   8   0  -2 5446.72 945.455   6
  -8   0   2 5321.22 807.127   2
   8   0  -1 170.663 285.163   6
  -8   0   1 35.6834 213.060   2
  -8   0   1 195.693 223.219   7
   8   0   0 3592.53 773.424   6
  -8   0   0 3524.03 745.086   7
   8   0   1 4874.28 900.959   6
  -8   0  -1 3638.04 763.375   7
  -8   0  -2 8527.69 817.964   5
  -8   0  -2 8859.92 1152.51   7
   8   0   2 11631.2 1322.35   6
   8   0   3 17.3794 252.828   6
  -8   0  -3 360.578 237.638   5
  -8   0  -3-152.566 282.389   7
  -8   0  -4 16131.1 1307.93   5
  -8   0  -4 16111.5 1571.79   7
   8   0   4 16637.9 1630.10   6
   8   0   5-248.888 387.075   6
  -8   0  -5 354.220 320.532   5
  -8   0  -5 177.046 251.708   7
   8   0   6 3526.16 793.170   6
  -8   0  -6 2065.91 564.131   5
  -8   0  -6 2978.43 692.518   7
   8   0   7 152.410 292.460   6
  -8   0  -7 224.406 260.660   5
  -8   0  -7-104.040 281.702   7
   8   0   8 6412.59 1104.33   6
  -8   0  -8 4387.67 895.780   5
  -8   0  -8 4111.82 820.234   7
   8   0   9 1771.74 675.229   6
  -8   0  -9 532.928 466.107   5
  -8   0  -9 1361.15 471.249   7
  -8   0 -10 2945.03 805.435   5
  -8   0 -10 2545.45 664.508   7
  -8   0 -11-125.585 201.895   7
  -8  -1   5 1667.55 511.606   2
   8   1  -4 5660.70 968.628   6
  -8  -1   4 5243.58 884.094   2
   8   1  -3 762.678 451.044   6
  -8  -1   3 33.1837 214.914   2
   8   1  -2 3897.14 777.525   6
  -8  -1   2 2579.13 574.633   2
   8   1  -1 4360.18 839.514   6
  -8  -1   1 4299.96 673.535   2
   8   1   0 2065.14 574.981   6
  -8  -1   0 2108.23 475.882   2
   8   1   1 102.214 201.625   6
  -8  -1  -1 855.682 304.156   2
  -8  -1  -1 680.724 309.519   7
   8   1   2 2131.27 591.593   6
  -8  -1  -2 2151.53 388.227   5
  -8  -1  -2 1746.34 524.874   7
   8   1   3 1103.09 483.153   6
  -8  -1  -3 1545.98 384.159   5
  -8  -1  -3 1588.77 519.719   7
  -8  -1  -4 14912.5 1212.20   5
  -8  -1  -4 15767.2 1489.51   7
   8   1   4 18007.6 1664.97   6
   8   1   5-240.604 327.417   6
  -8  -1  -5-51.7226 233.438   5
  -8  -1  -5 121.831 330.446   7
  -8  -1  -6 11073.4 1173.39   5
  -8  -1  -6 14119.6 1401.82   7
   8   1   6 15421.1 1597.04   6
   8   1   7 3828.27 822.648   6
  -8  -1  -7 3009.25 662.483   5
  -8  -1  -7 2183.94 600.205   7
   8   1   8 5631.68 1019.61   6
  -8  -1  -8 3497.78 761.102   5
  -8  -1  -8 3710.44 724.082   7
   8   1   9 272.348 336.130   6
  -8  -1  -9-83.9975 300.594   5
  -8  -1  -9 812.678 352.461   7
  -8  -1 -10 1181.45 520.460   5
  -8  -1 -10 1682.00 461.242   7
  -8  -1 -11 532.615 267.963   7
   8   2  -4 448.562 319.738   6
  -8  -2   4 693.591 299.336   2
   8   2  -3 1982.57 582.801   6
  -8  -2   3 1219.53 449.638   2
   8   2  -2 1712.84 547.659   6
  -8  -2   2 2021.66 525.743   2
   8   2  -1 1282.38 489.749   6
  -8  -2   1 941.205 328.596   2
   8   2   0 3430.18 716.099   6
  -8  -2   0 3895.92 650.371   2
   8   2   1 4139.07 806.136   6
  -8  -2  -1 4695.00 675.693   2
  -8  -2  -2 7592.97 786.143   2
   8   2   2 7261.25 1054.57   6
   8   2   3 3377.92 708.465   6
  -8  -2  -3 4080.20 571.830   5
  -8  -2  -3 2730.84 416.417   2
  -8  -2  -3 2531.36 608.019   7
   8   2   4 4030.74 791.633   6
  -8  -2  -4 4865.03 679.141   5
  -8  -2  -4 3879.27 729.397   7
   8   2   5 1086.46 495.953   6
  -8  -2  -5 507.414 296.367   5
  -8  -2  -5 961.810 401.250   7
  -8  -2  -6 10034.3 1089.99   5
  -8  -2  -6 11326.6 1223.93   7
   8   2   6 10879.9 1355.08   6
   8   2   7 1921.12 593.701   6
  -8  -2  -7 1608.49 488.903   5
  -8  -2  -7 1538.33 471.402   7
   8   2   8 3336.62 812.610   6
  -8  -2  -8 2276.16 631.331   5
  -8  -2  -8 2960.26 620.662   7
   8   2   9 2234.91 707.798   6
  -8  -2  -9 1504.91 562.474   5
  -8  -2  -9 1423.25 410.836   7
  -8  -2 -10 4930.17 972.330   5
  -8  -2 -10 3968.14 722.340   7
  -8  -2 -11-273.744 206.654   7
   8   3  -4 3072.97 724.560   6
  -8  -3   4 3822.61 778.998   2
   8   3  -3 2887.77 689.543   6
  -8  -3   3 5140.66 869.651   2
   8   3  -2 1447.10 496.437   6
  -8  -3   2 1662.50 504.318   2
   8   3  -1 618.903 413.272   6
  -8  -3   1 1094.36 438.053   2
   8   3   0 5723.13 926.301   6
  -8  -3   0 5532.10 786.742   2
   8   3   1 2013.26 555.602   6
  -8  -3  -1 1784.30 456.730   2
   8   3   2 1553.84 521.224   6
   8   3   2 1835.03 436.675   8
  -8  -3  -2 1918.29 452.290   2
   8   3   3 1006.20 460.520   6
  -8  -3  -3 874.274 283.076   5
   8   3   3 517.495 255.215   8
  -8  -3  -3 1490.40 341.583   2
   8   3   4 4007.92 801.975   6
  -8  -3  -4 3261.07 557.080   5
   8   3   4 2814.57 510.691   8
  -8  -3  -4 2932.36 652.350   7
   8   3   5 6053.39 995.039   6
   8   3   5 4943.64 687.062   8
  -8  -3  -5 4716.29 700.758   5
  -8  -3  -5 4864.07 791.916   7
   8   3   6 5275.61 965.890   6
   8   3   6 5490.72 729.623   8
  -8  -3  -6 4585.24 749.569   5
  -8  -3  -6 4767.92 773.411   7
  -8  -3  -7 2293.80 582.671   5
  -8  -3  -7 1756.52 500.015   7
   8   3   8 7510.31 1178.49   6
  -8  -3  -8 5502.69 914.870   5
  -8  -3  -8 4870.42 773.325   7
   8   3   9 1329.28 578.689   6
  -8  -3  -9 1818.07 607.877   5
  -8  -3  -9 530.486 275.802   7
  -8  -3 -10 3563.24 767.687   5
  -8  -3 -10 2113.30 505.363   7
   8   4  -4 2054.26 596.734   6
   8   4  -3 361.197 307.442   6
  -8  -4   3 268.361 298.269   2
   8   4  -2 1857.96 566.957   6
  -8  -4   2 1289.31 492.666   2
   8   4  -1 2310.72 625.644   6
  -8  -4   1 1229.11 457.146   2
   8   4   0 281.072 319.123   6
  -8  -4   0 60.4247 256.852   2
   8   4   1 1957.01 534.101   6
  -8  -4  -1 2292.10 514.746   2
   8   4   2 3385.85 714.583   6
   8   4   2 3927.81 685.589   8
  -8  -4  -2 3004.22 546.018   2
   8   4   3 5914.45 943.789   6
   8   4   3 4579.68 730.256   8
  -8  -4  -3 4685.67 650.170   2
   8   4   4 2649.04 661.707   6
  -8  -4  -4 3395.46 561.076   5
   8   4   4 3604.10 650.772   8
   8   4   5-282.731 270.793   6
  -8  -4  -5 45.3286 190.811   5
   8   4   5-73.6606 214.645   8
  -8  -4  -5-235.884 220.456   7
   8   4   6 5455.44 959.898   6
  -8  -4  -6 2327.98 496.883   5
   8   4   6 4902.02 739.800   8
  -8  -4  -6 3152.38 616.885   7
   8   4   7 1072.73 472.626   6
  -8  -4  -7 528.135 367.075   5
   8   4   7 613.857 282.018   8
  -8  -4  -7 222.888 216.800   7
   8   4   8 5554.17 1042.62   6
  -8  -4  -8 2890.00 648.267   5
   8   4   8 5512.59 817.557   8
  -8  -4  -8 4097.27 706.962   7
   8   4   9 1984.30 657.551   6
  -8  -4  -9 916.836 394.079   5
  -8  -4  -9 868.373 369.458   7
  -8  -4 -10 1202.61 524.106   5
  -8  -4 -10 658.611 297.930   7
   8   5  -3 1330.55 499.801   6
   8   5  -2 845.599 320.921   6
  -8  -5   2-633.187 387.666   2
   8   5  -1 1707.21 515.703   6
  -8  -5   1 2138.17 572.313   2
   8   5   0 38.0498 197.050   6
  -8  -5   0 816.937 390.559   2
   8   5   1 751.255 365.874   6
   8   5   1 460.116 294.810   8
  -8  -5  -1 585.268 280.717   2
   8   5   2 3362.20 712.465   6
   8   5   2 2650.32 633.692   8
  -8  -5  -2 3242.74 599.778   2
   8   5   3 475.067 379.466   6
   8   5   3 582.841 290.596   8
  -8  -5  -3 1353.12 384.950   2
   8   5   4 4093.12 785.795   6
  -8  -5  -4 3991.26 598.266   5
   8   5   4 5416.58 855.955   8
   8   5   5 1383.39 469.928   6
  -8  -5  -5 2154.90 486.977   5
   8   5   6 2482.43 655.933   6
  -8  -5  -6 2270.13 520.288   5
   8   5   6 2142.51 557.011   8
  -8  -5  -6 1686.13 455.877   7
   8   5   7 3033.25 761.560   6
  -8  -5  -7 1737.00 485.751   5
   8   5   7 1933.07 575.271   8
  -8  -5  -7 2249.78 522.743   7
   8   5   8 1834.65 608.721   6
  -8  -5  -8 1781.73 525.089   5
   8   5   8 1998.42 586.229   8
  -8  -5  -8 1054.52 369.779   7
   8   5   9 1692.12 574.941   6
  -8  -5  -9 1382.99 521.766   5
   8   5   9 961.433 397.277   8
  -8  -5 -10 723.759 389.576   5
   8   5  10 1802.25 543.194   8
   8   6  -1 597.464 327.307   6
  -8  -6   1 356.630 361.213   2
   8   6   0 717.985 318.950   6
  -8  -6   0 170.906 276.536   2
   8   6   1 3399.09 704.249   6
   8   6   1 2745.56 665.240   8
  -8  -6  -1 2266.78 563.124   2
   8   6   2 2195.33 588.054   6
   8   6   2 1816.15 497.197   8
  -8  -6  -2 2125.31 504.307   2
   8   6   3 3573.62 722.663   6
   8   6   3 2565.10 639.672   8
  -8  -6  -3 3513.51 624.381   2
   8   6   4 1601.23 515.525   6
   8   6   4 1603.24 531.098   8
   8   6   5 820.988 415.794   6
   8   6   5 548.121 391.248   8
   8   6   6 3585.61 786.530   6
   8   6   6 4142.41 804.211   8
   8   6   7 2822.94 716.006   6
   8   6   7 2324.90 609.666   8
  -8  -6  -7 2100.15 490.435   7
   8   6   8 2135.32 696.537   6
  -8  -6  -8 1397.76 467.341   5
   8   6   8 2712.69 688.281   8
  -8  -6  -8 2340.54 512.874   7
  -8  -6  -9 2741.91 654.781   5
   8   6   9 3396.61 737.772   8
   8   6  10 3613.58 809.349   8
  -8  -7   0 3223.80 758.205   2
   8   7   1 643.850 416.891   8
   8   7   1 963.563 414.200   4
  -8  -7  -1 999.633 427.402   2
   8   7   2 841.230 348.877   6
   8   7   2 670.063 483.794   8
   8   7   2 46.2336 228.638   4
  -8  -7  -2 105.217 198.449   2
   8   7   3-167.065 204.746   6
   8   7   3 344.164 281.811   8
   8   7   3 755.151 323.515   4
   8   7   4 3873.55 773.253   6
   8   7   4 5416.79 979.818   8
   8   7   5 1406.11 471.930   6
   8   7   5 1221.61 519.617   8
   8   7   6 1235.68 496.691   6
   8   7   6 1764.82 609.608   8
   8   7   7 2577.59 667.621   6
   8   7   7 1972.49 601.161   8
  -8  -7  -7 1319.22 385.070   7
   8   7   8 4081.53 917.597   6
   8   7   8 4356.79 908.116   8
   8   7   9 1019.22 477.342   8
   8   8   2 1232.16 436.918   4
  -8  -8  -2 308.804 264.252   2
   8   8   6 1963.77 547.182   6
   8   8   7 239.855 242.519   6
  -9   3  -5 472.382 328.790   5
  -9   3  -6 2004.01 624.562   5
  -9   2  -5 125.089 230.217   5
  -9   2  -6 2488.88 702.128   5
  -9   2  -7 1116.64 495.217   5
  -9   1  -5 364.026 256.631   5
  -9   1  -6 2925.31 685.494   5
  -9   1  -7 1037.79 426.575   5
  -9   1  -8 266.776 332.419   5
  -9   0  -3 3795.18 864.767   7
  -9   0  -4 240.979 310.142   7
  -9   0  -5 4621.66 781.496   5
  -9   0  -5 4257.12 898.157   7
  -9   0  -6 1352.29 490.909   5
  -9   0  -7 379.211 303.372   5
  -9   0  -8 355.702 283.192   5
  -9  -1   3 1052.45 387.836   2
  -9  -1   2 729.597 322.581   2
   9   1   1 4370.68 901.471   6
   9   1   2 777.530 415.277   6
  -9  -1  -2 823.920 393.351   7
   9   1   3 5255.08 977.838   6
  -9  -1  -3 5109.33 924.491   7
   9   1   4 1205.59 504.578   6
  -9  -1  -4 308.948 320.676   7
  -9  -1  -5 2075.85 607.922   7
  -9  -1  -6-208.519 269.794   5
  -9  -1  -6 481.273 353.582   7
  -9  -1  -7 1285.47 504.811   5
  -9  -1  -7 2413.40 672.811   7
  -9  -1  -8 632.280 361.072   5
  -9  -1  -8 284.196 264.734   7
  -9  -1  -9 834.255 454.410   5
  -9  -2   3 2665.09 673.717   2
  -9  -2   2 1906.23 544.623   2
  -9  -2   1 2289.40 536.491   2
   9   2   1 9358.43 1287.79   6
   9   2   2 2152.80 626.709   6
  -9  -2  -2 1770.11 554.157   7
   9   2   3 2315.67 703.619   6
  -9  -2  -3 1452.50 474.167   7
   9   2   4 1038.35 518.534   6
  -9  -2  -4 811.782 379.679   7
   9   2   5 4424.68 914.205   6
  -9  -2  -5 3539.21 773.053   7
  -9  -2  -6 1525.91 478.105   5
  -9  -2  -6 1388.26 501.089   7
  -9  -2  -7 2006.91 553.883   5
  -9  -2  -7 1795.81 560.437   7
  -9  -2  -8-89.3383 247.504   5
  -9  -2  -8 392.633 303.231   7
  -9  -2  -9 2904.60 721.998   5
  -9  -2  -9 501.197 360.990   7
  -9  -3   2 116.817 200.253   2
  -9  -3   1 1944.06 509.073   2
   9   3   0 2423.86 673.849   6
   9   3   1 2555.13 693.145   6
   9   3   2 2648.08 673.935   6
   9   3   3 8776.86 1249.26   6
  -9  -3  -3 5014.49 862.523   7
   9   3   4 1026.67 454.271   6
  -9  -3  -4 156.947 245.267   7
   9   3   5 3016.77 763.350   6
  -9  -3  -5 1610.99 568.008   7
  -9  -3  -6 496.573 334.679   7
  -9  -3  -7 2040.76 561.019   5
  -9  -3  -7 2698.22 649.322   7
  -9  -3  -8 1314.90 487.612   5
  -9  -3  -8 946.745 352.758   7
  -9  -3  -9 728.580 418.111   5
  -9  -3  -9 1269.28 460.545   7
  -9  -4   1 681.289 338.209   2
   9   4   0 981.335 443.295   6
   9   4   1 4948.83 923.546   6
   9   4   2 120.451 264.873   6
   9   4   3 3235.32 747.761   6
   9   4   4 4556.75 953.890   6
  -9  -4  -4 2594.55 624.682   7
   9   4   5 3753.11 833.082   6
  -9  -4  -5 3536.14 725.530   7
  -9  -4  -6 1573.66 477.579   7
  -9  -4  -7 1024.05 424.022   5
  -9  -4  -7 842.840 371.262   7
  -9  -4  -8 90.1190 300.029   5
  -9  -4  -8 412.690 303.113   7
  -9  -4  -9 1911.88 607.771   5
  -9  -4  -9 1185.81 411.752   7
   9   5   0-18.9125 169.715   6
   9   5   1 516.277 331.461   6
   9   5   2 2805.26 699.717   6
   9   5   3 3235.22 760.431   6
   9   5   4 492.399 336.180   6
   9   5   5 1399.40 480.724   6
  -9  -5  -5 660.472 334.500   7
  -9  -5  -6 183.445 226.585   7
  -9  -5  -7 2571.96 609.565   7
  -9  -5  -8 1266.00 439.746   5
  -9  -5  -8 1351.77 450.287   7
   9   6   2 1361.41 462.902   6
   9   6   3 429.540 309.567   6
   9   6   4 802.430 431.477   6
  -9  -6  -6 2705.58 632.884   7
  -9  -6  -7 955.759 365.862   7
   0   0   0    0.00    0.00   0

TITL exp_1220 in P-1
REM P-1 (#2 in standard setting)
CELL 0.71073   7.198530   9.086826  11.436715  77.8555  76.8351  84.2590
ZERR    2.00   0.000568   0.000576   0.000817   0.0057   0.0064   0.0058
LATT  1
SFAC C H F Fe
UNIT 32.00 20.00 12.00 2.00
TREF
HKLF 4
END
;
_shelx_hkl_checksum              90676
_olex2_date_sample_data_collection 2018-10-25
_olex2_exptl_crystal_mounting_method
'Crystal sealed in 1 mm X-ray glass capillary with excess solvent removed'
_olex2_submission_special_instructions 'No special instructions were received'
_oxdiff_exptl_absorpt_empirical_details
;
Empirical correction (ABSPACK) includes:
- Absorption correction using spherical harmonics
- Frame scaling
;
_oxdiff_exptl_absorpt_empirical_full_max 1.532
_oxdiff_exptl_absorpt_empirical_full_min 0.842
loop_
_space_group_symop_operation_xyz
'x, y, z'
'-x, -y, -z'
loop_
_atom_site_label
_atom_site_type_symbol
_atom_site_fract_x
_atom_site_fract_y
_atom_site_fract_z
_atom_site_U_iso_or_equiv
_atom_site_adp_type
_atom_site_occupancy
_atom_site_site_symmetry_order
_atom_site_calc_flag
Fe1 Fe 0.23951(3) 0.49615(3) 0.25232(2) 0.02657(10) Uani 1 1 d
C7 C 0.3175(3) 0.6799(2) 0.1198(2) 0.0472(6) Uani 1 1 d
H7 H 0.439(3) 0.714(2) 0.095(2) 0.049(6) Uiso 1 1 d
C8 C 0.2444(3) 0.5727(2) 0.07099(18) 0.0416(5) Uani 1 1 d
H8 H 0.312(3) 0.525(2) 0.009(2) 0.050(6) Uiso 1 1 d
C9 C 0.0563(3) 0.5492(2) 0.13595(18) 0.0377(5) Uani 1 1 d
H9 H -0.024(3) 0.481(2) 0.124(2) 0.046(6) Uiso 1 1 d
C10 C 0.0118(3) 0.6415(2) 0.22527(19) 0.0391(5) Uani 1 1 d
H10 H -0.105(3) 0.647(2) 0.282(2) 0.043(6) Uiso 1 1 d
C11 C 0.1736(3) 0.7221(2) 0.2154(2) 0.0424(5) Uani 1 1 d
H11 H 0.188(3) 0.792(2) 0.264(2) 0.046(6) Uiso 1 1 d
C12 C 0.4740(3) 0.4081(3) 0.3196(2) 0.0463(5) Uani 1 1 d
H12 H 0.602(3) 0.447(3) 0.290(2) 0.055(7) Uiso 1 1 d
C13 C 0.4058(3) 0.3016(2) 0.2675(2) 0.0429(5) Uani 1 1 d
H13 H 0.475(3) 0.260(2) 0.202(2) 0.048(6) Uiso 1 1 d
C14 C 0.2176(3) 0.2734(2) 0.32975(19) 0.0368(5) Uani 1 1 d
H14 H 0.134(3) 0.210(3) 0.312(2) 0.057(7) Uiso 1 1 d
C15 C 0.1671(3) 0.3626(2) 0.42157(18) 0.0361(4) Uani 1 1 d
H15 H 0.049(3) 0.367(2) 0.4752(19) 0.038(6) Uiso 1 1 d
C16 C 0.3264(3) 0.4462(2) 0.4142(2) 0.0395(5) Uani 1 1 d
H16 H 0.334(3) 0.516(3) 0.459(2) 0.055(7) Uiso 1 1 d
F1 F 0.37342(17) 1.00063(15) -0.11444(13) 0.0562(4) Uani 1 1 d
F2 F 0.13993(19) 0.81197(13) -0.15865(11) 0.0489(3) Uani 1 1 d
F3 F -0.23241(19) 0.81070(15) -0.04374(13) 0.0588(4) Uani 1 1 d
C1 C 0.1886(3) 1.0008(2) -0.05846(18) 0.0365(4) Uani 1 1 d
C2 C 0.0702(3) 0.9050(2) -0.08049(17) 0.0343(4) Uani 1 1 d
C3 C -0.1175(3) 0.9045(2) -0.02257(18) 0.0359(4) Uani 1 1 d
F4 F 0.80325(19) 0.15134(16) 0.50297(14) 0.0638(4) Uani 1 1 d
F5 F 0.4574(2) 0.20923(14) 0.64281(12) 0.0550(3) Uani 1 1 d
F6 F 0.15311(17) 0.05869(15) 0.63893(12) 0.0543(3) Uani 1 1 d
C4 C 0.6531(3) 0.0765(2) 0.50141(19) 0.0371(5) Uani 1 1 d
C5 C 0.4788(3) 0.1059(2) 0.57270(18) 0.0358(4) Uani 1 1 d
C6 C 0.3243(3) 0.0292(2) 0.57124(17) 0.0351(4) Uani 1 1 d
loop_
_atom_site_aniso_label
_atom_site_aniso_U_11
_atom_site_aniso_U_22
_atom_site_aniso_U_33
_atom_site_aniso_U_23
_atom_site_aniso_U_13
_atom_site_aniso_U_12
Fe1 0.02859(16) 0.02498(15) 0.02615(15) -0.00359(11) -0.00815(11) 0.00097(10)
C7 0.0432(13) 0.0395(12) 0.0513(14) 0.0136(10) -0.0123(11) -0.0079(10)
C8 0.0533(14) 0.0426(12) 0.0242(10) -0.0022(9) -0.0074(9) 0.0084(10)
C9 0.0440(12) 0.0374(11) 0.0359(11) -0.0055(9) -0.0205(9) 0.0026(9)
C10 0.0380(12) 0.0399(11) 0.0375(11) -0.0066(9) -0.0107(9) 0.0111(9)
C11 0.0604(14) 0.0257(10) 0.0456(12) -0.0067(9) -0.0236(11) 0.0053(9)
C12 0.0334(12) 0.0505(13) 0.0519(13) 0.0044(11) -0.0179(10) 0.0021(10)
C13 0.0462(13) 0.0378(11) 0.0396(12) -0.0056(10) -0.0087(10) 0.0172(9)
C14 0.0482(12) 0.0248(9) 0.0374(11) -0.0029(8) -0.0132(9) 0.0003(8)
C15 0.0408(12) 0.0348(11) 0.0293(10) -0.0011(8) -0.0061(9) 0.0002(9)
C16 0.0523(13) 0.0352(11) 0.0364(11) -0.0050(9) -0.0237(10) 0.0012(9)
F1 0.0354(7) 0.0622(8) 0.0637(9) -0.0143(7) 0.0066(6) -0.0039(6)
F2 0.0636(8) 0.0409(7) 0.0410(7) -0.0177(6) -0.0039(6) 0.0071(6)
F3 0.0564(8) 0.0565(8) 0.0713(9) -0.0234(7) -0.0128(7) -0.0178(7)
C1 0.0337(10) 0.0350(10) 0.0343(10) -0.0005(9) -0.0011(8) 0.0014(8)
C2 0.0454(12) 0.0271(9) 0.0279(9) -0.0044(8) -0.0065(8) 0.0045(8)
C3 0.0399(11) 0.0311(10) 0.0371(11) -0.0031(9) -0.0114(9) -0.0040(8)
F4 0.0482(8) 0.0687(9) 0.0808(10) -0.0177(8) -0.0150(7) -0.0234(7)
F5 0.0773(10) 0.0436(7) 0.0507(8) -0.0232(6) -0.0168(7) 0.0026(6)
F6 0.0405(7) 0.0590(8) 0.0509(8) -0.0049(6) 0.0060(6) 0.0085(6)
C4 0.0373(11) 0.0318(10) 0.0421(11) -0.0006(9) -0.0123(9) -0.0067(8)
C5 0.0492(12) 0.0269(9) 0.0327(10) -0.0064(8) -0.0133(9) 0.0040(8)
C6 0.0328(10) 0.0344(10) 0.0309(10) 0.0006(8) -0.0016(8) 0.0057(8)
loop_
_atom_type_symbol
_atom_type_description
_atom_type_scat_dispersion_real
_atom_type_scat_dispersion_imag
_atom_type_scat_source
C C 0.0033 0.0016 'International Tables Vol C Tables 4.2.6.8 and 6.1.1.4'
H H 0.0000 0.0000 'International Tables Vol C Tables 4.2.6.8 and 6.1.1.4'
F F 0.0171 0.0103 'International Tables Vol C Tables 4.2.6.8 and 6.1.1.4'
Fe Fe 0.3463 0.8444 'International Tables Vol C Tables 4.2.6.8 and 6.1.1.4'
loop_
_exptl_crystal_face_index_h
_exptl_crystal_face_index_k
_exptl_crystal_face_index_l
_exptl_crystal_face_perp_dist
7 -1 -9 0.2475
0 7 15 0.1066
2 -6 -14 0.2082
-3 11 -1 0.4054
-10 3 -4 0.3295
-9 -4 0 0.1656
6 -8 7 0.2830
9 -4 7 0.2603
-6 2 10 0.1065
9 6 4 0.2740
3 -11 3 0.3186
0 -7 -14 0.2183
5 -10 3 0.3136
9 4 0 0.2672
6 -3 12 0.2858
1 8 -10 0.4177
-6 4 -12 0.4437
0 13 0 0.3778
6 8 12 0.2410
2 -9 8 0.3067
10 -2 3 0.2746
8 8 2 0.3048
-6 -8 -12 0.1936
loop_
_geom_angle_atom_site_label_1
_geom_angle_atom_site_label_2
_geom_angle_atom_site_label_3
_geom_angle
_geom_angle_site_symmetry_1
_geom_angle_site_symmetry_3
C7 Fe1 C8 40.69(9) . .
C7 Fe1 C9 67.98(9) . .
C7 Fe1 C10 68.03(9) . .
C7 Fe1 C11 40.61(9) . .
C7 Fe1 C12 107.96(9) . .
C7 Fe1 C14 157.43(10) . .
C7 Fe1 C15 160.47(10) . .
C7 Fe1 C16 124.05(9) . .
C8 Fe1 C10 68.18(9) . .
C8 Fe1 C14 121.58(9) . .
C8 Fe1 C15 157.47(9) . .
C9 Fe1 C8 40.25(9) . .
C9 Fe1 C10 40.69(8) . .
C9 Fe1 C11 68.23(9) . .
C9 Fe1 C14 107.53(9) . .
C9 Fe1 C15 122.38(9) . .
C10 Fe1 C15 108.01(9) . .
C11 Fe1 C8 68.43(9) . .
C11 Fe1 C10 40.41(9) . .
C11 Fe1 C14 160.35(10) . .
C11 Fe1 C15 124.02(9) . .
C12 Fe1 C8 123.82(10) . .
C12 Fe1 C9 159.81(10) . .
C12 Fe1 C10 158.05(10) . .
C12 Fe1 C11 122.48(10) . .
C12 Fe1 C14 68.18(9) . .
C12 Fe1 C15 68.13(9) . .
C13 Fe1 C7 122.30(10) . .
C13 Fe1 C8 107.41(9) . .
C13 Fe1 C9 123.35(9) . .
C13 Fe1 C10 159.87(10) . .
C13 Fe1 C11 158.15(10) . .
C13 Fe1 C12 40.71(9) . .
C13 Fe1 C14 40.25(9) . .
C13 Fe1 C15 68.09(9) . .
C13 Fe1 C16 68.23(9) . .
C14 Fe1 C10 123.96(9) . .
C14 Fe1 C15 40.73(8) . .
C16 Fe1 C8 160.26(9) . .
C16 Fe1 C9 158.25(9) . .
C16 Fe1 C10 122.57(9) . .
C16 Fe1 C11 108.02(9) . .
C16 Fe1 C12 40.42(9) . .
C16 Fe1 C14 68.39(8) . .
C16 Fe1 C15 40.62(8) . .
Fe1 C7 H7 124.4(14) . .
C8 C7 Fe1 69.81(12) . .
C8 C7 H7 125.8(15) . .
C11 C7 Fe1 69.84(12) . .
C11 C7 H7 125.9(15) . .
C11 C7 C8 108.2(2) . .
Fe1 C8 H8 124.6(13) . .
C7 C8 Fe1 69.50(12) . .
C7 C8 H8 125.3(14) . .
C9 C8 Fe1 69.83(11) . .
C9 C8 C7 107.7(2) . .
C9 C8 H8 127.0(14) . .
Fe1 C9 H9 124.4(13) . .
C8 C9 Fe1 69.92(11) . .
C8 C9 H9 125.6(14) . .
C8 C9 C10 108.3(2) . .
C10 C9 Fe1 69.73(11) . .
C10 C9 H9 126.1(14) . .
Fe1 C10 H10 125.5(12) . .
C9 C10 Fe1 69.58(11) . .
C9 C10 H10 126.2(13) . .
C11 C10 Fe1 69.76(12) . .
C11 C10 C9 108.0(2) . .
C11 C10 H10 125.8(13) . .
Fe1 C11 H11 125.1(12) . .
C7 C11 Fe1 69.55(12) . .
C7 C11 H11 124.6(13) . .
C10 C11 Fe1 69.83(11) . .
C10 C11 C7 107.7(2) . .
C10 C11 H11 127.6(13) . .
Fe1 C12 H12 124.9(13) . .
C13 C12 Fe1 69.53(11) . .
C13 C12 H12 123.5(14) . .
C16 C12 Fe1 69.78(12) . .
C16 C12 H12 128.5(14) . .
C16 C12 C13 107.93(19) . .
Fe1 C13 H13 125.0(13) . .
C12 C13 Fe1 69.76(12) . .
C12 C13 H13 124.9(14) . .
C14 C13 Fe1 70.07(11) . .
C14 C13 C12 108.4(2) . .
C14 C13 H13 126.7(14) . .
Fe1 C14 H14 123.5(14) . .
C13 C14 Fe1 69.68(12) . .
C13 C14 H14 126.9(14) . .
C13 C14 C15 108.0(2) . .
C15 C14 Fe1 69.81(11) . .
C15 C14 H14 125.1(15) . .
Fe1 C15 H15 125.1(12) . .
C14 C15 Fe1 69.46(11) . .
C14 C15 H15 126.2(13) . .
C16 C15 Fe1 69.43(11) . .
C16 C15 C14 107.7(2) . .
C16 C15 H15 126.1(13) . .
Fe1 C16 H16 123.9(14) . .
C12 C16 Fe1 69.80(12) . .
C12 C16 C15 108.07(19) . .
C12 C16 H16 124.5(15) . .
C15 C16 Fe1 69.95(11) . .
C15 C16 H16 127.3(15) . .
F1 C1 C2 120.07(18) . .
F1 C1 C3 120.06(18) . 2_575
C2 C1 C3 119.87(19) . 2_575
F2 C2 C1 119.84(18) . .
F2 C2 C3 120.21(18) . .
C3 C2 C1 119.95(18) . .
F3 C3 C1 119.94(19) . 2_575
F3 C3 C2 119.87(18) . .
C2 C3 C1 120.18(18) . 2_575
F4 C4 C5 119.57(19) . .
F4 C4 C6 119.77(19) . 2_656
C5 C4 C6 120.66(18) . 2_656
F5 C5 C4 120.46(19) . .
F5 C5 C6 119.84(19) . .
C4 C5 C6 119.70(18) . .
F6 C6 C4 120.18(19) . 2_656
F6 C6 C5 120.18(19) . .
C4 C6 C5 119.63(18) 2_656 .
loop_
_geom_bond_atom_site_label_1
_geom_bond_atom_site_label_2
_geom_bond_distance
_geom_bond_site_symmetry_2
Fe1 C7 2.033(2) .
Fe1 C8 2.0373(19) .
Fe1 C9 2.0361(19) .
Fe1 C10 2.038(2) .
Fe1 C11 2.037(2) .
Fe1 C12 2.036(2) .
Fe1 C13 2.032(2) .
Fe1 C14 2.0375(19) .
Fe1 C15 2.0421(19) .
Fe1 C16 2.035(2) .
C7 H7 0.92(2) .
C7 C8 1.415(3) .
C7 C11 1.413(3) .
C8 H8 0.93(2) .
C8 C9 1.401(3) .
C9 H9 0.94(2) .
C9 C10 1.417(3) .
C10 H10 0.94(2) .
C10 C11 1.407(3) .
C11 H11 0.96(2) .
C12 H12 0.99(2) .
C12 C13 1.415(3) .
C12 C16 1.406(3) .
C13 H13 0.93(2) .
C13 C14 1.400(3) .
C14 H14 0.95(2) .
C14 C15 1.420(3) .
C15 H15 0.93(2) .
C15 C16 1.415(3) .
C16 H16 0.91(2) .
F1 C1 1.338(2) .
F2 C2 1.339(2) .
F3 C3 1.337(2) .
C1 C2 1.374(3) .
C1 C3 1.375(3) 2_575
C2 C3 1.363(3) .
C3 C1 1.375(3) 2_575
F4 C4 1.338(2) .
F5 C5 1.334(2) .
F6 C6 1.333(2) .
C4 C5 1.367(3) .
C4 C6 1.372(3) 2_656
C5 C6 1.375(3) .
C6 C4 1.372(3) 2_656
loop_
_exptl_oxdiff_crystal_face_indexfrac_h
_exptl_oxdiff_crystal_face_indexfrac_k
_exptl_oxdiff_crystal_face_indexfrac_l
_exptl_oxdiff_crystal_face_x
_exptl_oxdiff_crystal_face_y
_exptl_oxdiff_crystal_face_z
7.1460 -0.8970 -8.5624 -0.3328 -0.9430 -0.0025
-0.4073 6.6182 14.5550 -0.4471 0.8942 0.0217
1.9156 -5.7923 -13.9986 0.3016 -0.9531 -0.0248
-3.2028 11.4210 -1.4092 -0.1399 0.2743 0.9514
-9.5028 3.1568 -3.6351 0.6318 0.4665 0.6190
-9.4405 -3.9873 0.4506 0.8030 0.5956 -0.0206
6.1619 -7.5731 7.1630 -0.3019 -0.1106 -0.9469
8.6596 -3.9047 7.2365 -0.6074 -0.2257 -0.7616
-6.4476 1.7728 9.7610 0.2324 0.9726 0.0063
9.3755 5.9937 3.5418 -0.9356 -0.3510 0.0388
3.2517 -11.0965 2.8532 0.1005 -0.1955 -0.9755
0.4781 -6.8303 -14.4085 0.4468 -0.8936 -0.0435
5.2863 -9.7045 3.4135 -0.1021 -0.2818 -0.9540
9.4997 3.8156 -0.3413 -0.8032 -0.5957 0.0032
6.4216 -3.2661 12.2138 -0.5547 0.1980 -0.8081
0.9465 7.9611 -9.8456 -0.1729 -0.4965 0.8507
-6.2761 3.7907 -11.9412 0.5217 -0.1864 0.8325
0.2993 12.5931 0.4826 -0.4624 0.1608 0.8720
6.3645 8.2390 12.0273 -0.9429 0.3327 0.0181
1.6686 -9.4718 7.9870 0.0700 0.2058 -0.9761
9.7291 -2.3687 3.2294 -0.6681 -0.4937 -0.5568
8.1015 8.3092 1.7460 -0.8935 -0.3360 0.2979
-6.3126 -8.3860 -11.9277 0.9425 -0.3326 -0.0332
