#------------------------------------------------------------------------------
#$Date: 2019-11-26 09:59:38 +0200 (Tue, 26 Nov 2019) $
#$Revision: 243190 $
#$URL: file:///home/coder/svn-repositories/cod/cif/4/13/33/4133387.cif $
#------------------------------------------------------------------------------
#
# This file is available in the Crystallography Open Database (COD),
# http://www.crystallography.net/
#
# All data on this site have been placed in the public domain by the
# contributors.
#
data_4133387
loop_
_publ_author_name
'Ren, Yansong'
'Xie, Sheng'
'Svensson Grape, Erik'
'Inge, A. Ken'
'Ramstr\"om, Olof'
_publ_section_title
;
 Multistimuli-Responsive Enaminitrile Molecular Switches Displaying
 H<sup>+</sup>-Induced Aggregate Emission, Metal Ion-Induced Turn-On
 Fluorescence, and Organogelation Properties.
;
_journal_issue                   42
_journal_name_full               'Journal of the American Chemical Society'
_journal_page_first              13640
_journal_page_last               13643
_journal_paper_doi               10.1021/jacs.8b09843
_journal_volume                  140
_journal_year                    2018
_chemical_formula_sum            'C18 H17 N3'
_chemical_formula_weight         275.34
_space_group_crystal_system      triclinic
_space_group_IT_number           2
_space_group_name_Hall           '-P 1'
_space_group_name_H-M_alt        'P -1'
_atom_sites_solution_hydrogens   mixed
_audit_creation_method           SHELXL-2018/1
_audit_update_record
;
2018-09-05 deposited with the CCDC.
2018-09-07 downloaded from the CCDC.
;
_cell_angle_alpha                75.035(2)
_cell_angle_beta                 78.866(2)
_cell_angle_gamma                84.766(2)
_cell_formula_units_Z            2
_cell_length_a                   7.9989(3)
_cell_length_b                   8.2629(3)
_cell_length_c                   11.7753(4)
_cell_measurement_reflns_used    5126
_cell_measurement_temperature    294(2)
_cell_measurement_theta_max      23.19
_cell_measurement_theta_min      2.55
_cell_volume                     737.03(5)
_computing_structure_refinement  'SHELXL-2018/1 (Sheldrick, 2018)'
_computing_structure_solution    'SHELXT 2014/5 (Sheldrick, 2014)'
_diffrn_ambient_temperature      294(2)
_diffrn_measured_fraction_theta_full 1.000
_diffrn_measured_fraction_theta_max 1.000
_diffrn_measurement_device_type  'Bruker D8 Venture'
_diffrn_radiation_type           MoK\a
_diffrn_radiation_wavelength     0.71073
_diffrn_reflns_av_R_equivalents  0.0655
_diffrn_reflns_av_unetI/netI     0.0356
_diffrn_reflns_Laue_measured_fraction_full 1.000
_diffrn_reflns_Laue_measured_fraction_max 1.000
_diffrn_reflns_limit_h_max       10
_diffrn_reflns_limit_h_min       -10
_diffrn_reflns_limit_k_max       10
_diffrn_reflns_limit_k_min       -10
_diffrn_reflns_limit_l_max       14
_diffrn_reflns_limit_l_min       -14
_diffrn_reflns_number            23721
_diffrn_reflns_point_group_measured_fraction_full 1.000
_diffrn_reflns_point_group_measured_fraction_max 1.000
_diffrn_reflns_theta_full        25.242
_diffrn_reflns_theta_max         26.402
_diffrn_reflns_theta_min         2.554
_exptl_absorpt_coefficient_mu    0.075
_exptl_absorpt_correction_T_max  0.7454
_exptl_absorpt_correction_T_min  0.6947
_exptl_absorpt_correction_type   multi-scan
_exptl_absorpt_process_details
'Sheldrick, G. M. (1996). SADABS. University of G\~A?ttingen, Germany.'
_exptl_crystal_colour            colourless
_exptl_crystal_density_diffrn    1.241
_exptl_crystal_description       'stubby, anhedral'
_exptl_crystal_F_000             292
_exptl_crystal_size_max          0.36
_exptl_crystal_size_mid          0.18
_exptl_crystal_size_min          0.11
_refine_diff_density_max         0.152
_refine_diff_density_min         -0.165
_refine_diff_density_rms         0.033
_refine_ls_extinction_method     none
_refine_ls_goodness_of_fit_ref   1.035
_refine_ls_hydrogen_treatment    mixed
_refine_ls_matrix_type           full
_refine_ls_number_parameters     193
_refine_ls_number_reflns         3025
_refine_ls_number_restraints     0
_refine_ls_restrained_S_all      1.035
_refine_ls_R_factor_all          0.0949
_refine_ls_R_factor_gt           0.0525
_refine_ls_shift/su_max          0.000
_refine_ls_shift/su_mean         0.000
_refine_ls_structure_factor_coef Fsqd
_refine_ls_weighting_details
'w=1/[\s^2^(Fo^2^)+(0.0448P)^2^+0.2988P] where P=(Fo^2^+2Fc^2^)/3'
_refine_ls_weighting_scheme      calc
_refine_ls_wR_factor_gt          0.1188
_refine_ls_wR_factor_ref         0.1371
_reflns_Friedel_coverage         0.000
_reflns_number_gt                1936
_reflns_number_total             3025
_reflns_threshold_expression     'I > 2\s(I)'
_cod_data_source_file            ja8b09843_si_004.cif
_cod_data_source_block           CN8
_cod_depositor_comments
;
The following automatic conversions were performed:

data item '_exptl_absorpt_correction_type' value 'Multi-scan' was
changed to 'multi-scan' in accordance with the
/home/saulius/struct/COD-crude-data/automatic-downloads/DataCite-retrospective/ACS/depositions/lib/dictionaries/cif_core.dic
dictionary named 'cif_core.dic' version 2.4.2 last updated on
2011-04-26.

Automatic conversion script
Id: cif_fix_values 6909 2019-04-08 15:41:33Z antanas 
;
_cod_database_code               4133387
_shelx_shelxl_version_number     2018/1
_shelx_space_group_comment
;
The symmetry employed for this shelxl refinement is uniquely defined
by the following loop, which should always be used as a source of
symmetry information in preference to the above space-group names.
They are only intended as comments.
;
_shelx_res_file
;
TITL mo_esg_Yansong_CN8_180424_0m_a.res in P-1
    CN8_#5.res
    created by SHELXL-2018/1 at 13:33:00 on 26-Apr-2018
REM mo_esg_Yansong_CN8_180424_0m_a.res in P-1
REM 193 parameters refined using 0 restraints
CELL 0.71073 7.9989 8.2629 11.7753 75.035 78.866 84.766
ZERR 2 0.0003 0.0003 0.0004 0.002 0.002 0.002
LATT 1
SFAC C H N
UNIT 36 34 6

L.S. 30
PLAN  -4 0 0
TEMP 21.17
ACTA
FMAP 2
HTAB
BOND $H
CONF

WGHT    0.044800    0.298800
FVAR       0.89730
N1    3    0.548821    0.302008    0.411257    11.00000    0.05695    0.07562 =
         0.04152   -0.00366   -0.01682   -0.01033
N2    3    0.304409    0.261347    0.286332    11.00000    0.05470    0.08531 =
         0.03893    0.00433   -0.01834   -0.02364
H6    2    0.405498    0.302937    0.281281    11.00000   -1.20000
N3    3    0.086275    0.023986    0.690146    11.00000    0.08833    0.10773 =
         0.04868   -0.00839    0.00004   -0.02987
C2    1    0.753498    0.331390    0.526946    11.00000    0.06670    0.07678 =
         0.06882   -0.01453   -0.03207   -0.01126
AFIX  43
H2    2    0.858455    0.369079    0.529484    11.00000   -1.20000
AFIX   0
C1    1    0.697255    0.352539    0.421143    11.00000    0.06373    0.08787 =
         0.05142   -0.00533   -0.01627   -0.01876
AFIX  43
H1    2    0.767697    0.405881    0.351468    11.00000   -1.20000
AFIX   0
C5    1    0.446743    0.225417    0.511160    11.00000    0.05421    0.04098 =
         0.03807   -0.00769   -0.01404    0.00650
C6    1    0.284098    0.171706    0.499435    11.00000    0.05258    0.04849 =
         0.03648   -0.00572   -0.00788   -0.00104
C7    1    0.225917    0.189333    0.394212    11.00000    0.04741    0.05753 =
         0.04455   -0.00509   -0.01029   -0.00624
AFIX  43
H5    2    0.120494    0.146009    0.399838    11.00000   -1.20000
AFIX   0
C9    1    0.242076    0.266788    0.176234    11.00000    0.04603    0.06401 =
         0.04112   -0.00469   -0.01586   -0.01089
AFIX  13
H7    2    0.129922    0.217419    0.199429    11.00000   -1.20000
AFIX   0
C10   1    0.217499    0.445486    0.105822    11.00000    0.03181    0.05435 =
         0.03878   -0.01098   -0.01147   -0.00614
C15   1    0.257726    0.490479   -0.017888    11.00000    0.03943    0.05049 =
         0.04013   -0.00877   -0.01073   -0.00826
C14   1    0.225609    0.654063   -0.079052    11.00000    0.05997    0.05975 =
         0.04970   -0.00502   -0.01557   -0.01396
AFIX  43
H11   2    0.251123    0.683370   -0.162035    11.00000   -1.20000
AFIX   0
C13   1    0.157309    0.772874   -0.019877    11.00000    0.06408    0.05422 =
         0.07584   -0.01398   -0.02750   -0.00262
AFIX  43
H10   2    0.136853    0.882090   -0.062637    11.00000   -1.20000
AFIX   0
C3    1    0.648716    0.252402    0.628895    11.00000    0.09416    0.08066 =
         0.05337   -0.01140   -0.03948   -0.00974
AFIX  43
H3    2    0.681980    0.235263    0.702694    11.00000   -1.20000
AFIX   0
C4    1    0.495852    0.199066    0.621961    11.00000    0.07840    0.06470 =
         0.03966   -0.00686   -0.02018   -0.00692
AFIX  43
H4    2    0.424428    0.145214    0.690958    11.00000   -1.20000
AFIX   0
C18   1    0.357760    0.160114    0.104134    11.00000    0.06241    0.05756 =
         0.06651   -0.01156   -0.02428    0.00310
AFIX  23
H17   2    0.475220    0.188164    0.096500    11.00000   -1.20000
H16   2    0.347223    0.042852    0.145963    11.00000   -1.20000
AFIX   0
C17   1    0.314203    0.186331   -0.018598    11.00000    0.06209    0.05949 =
         0.06579   -0.02753   -0.02127    0.00786
AFIX  23
H15   2    0.386383    0.112040   -0.060933    11.00000   -1.20000
H14   2    0.196500    0.159380   -0.011410    11.00000   -1.20000
AFIX   0
C16   1    0.339395    0.364492   -0.087555    11.00000    0.07176    0.07112 =
         0.04617   -0.01991   -0.00841   -0.00374
AFIX  23
H12   2    0.291640    0.383844   -0.159877    11.00000   -1.20000
H13   2    0.460687    0.382377   -0.110918    11.00000   -1.20000
AFIX   0
C12   1    0.118674    0.732226    0.102190    11.00000    0.05560    0.06762 =
         0.08758   -0.03933   -0.02376    0.01142
AFIX  43
H9    2    0.073964    0.813645    0.142766    11.00000   -1.20000
AFIX   0
C11   1    0.146843    0.568961    0.164387    11.00000    0.04712    0.08192 =
         0.04962   -0.02644   -0.01476    0.00017
AFIX  43
H8    2    0.118035    0.540680    0.247245    11.00000   -1.20000
AFIX   0
C8    1    0.174268    0.089133    0.604655    11.00000    0.06516    0.06734 =
         0.04190   -0.01055   -0.01010   -0.00738
HKLF 4




REM  mo_esg_Yansong_CN8_180424_0m_a.res in P-1
REM R1 =  0.0525 for    1936 Fo > 4sig(Fo)  and  0.0949 for all    3025 data
REM    193 parameters refined using      0 restraints

END

WGHT      0.0445      0.2983

REM Instructions for potential hydrogen bonds
HTAB N2 N1
EQIV $1 -x, -y, -z+1
HTAB C9 N3_$1

REM Highest difference peak  0.152,  deepest hole -0.165,  1-sigma level  0.033
Q1    1   0.4064  0.3900 -0.1617  11.00000  0.05    0.15
Q2    1   0.1426  0.4013  0.2084  11.00000  0.05    0.15
Q3    1   0.2320  0.3613  0.3195  11.00000  0.05    0.14
Q4    1   0.3136  0.5261 -0.1061  11.00000  0.05    0.14
;
_shelx_res_checksum              1430
_shelx_hkl_file
;
  -1   0   0  460.65   14.80
  -1   0   0  462.25   15.00
  -1   0   0  473.65   14.90
  -1   0   0  475.35   15.10
  -1   0   0  504.65   14.90
   1   0   0  469.65   15.10
   1   0   0  473.15   14.90
   1   0   0  469.55   14.90
   1   0   0  519.25   14.90
   1   0   0  472.55   14.80
   1   0   0  481.95   15.20
  -2   0   0 3986.30  122.99
  -2   0   0 3471.95  125.19
  -2   0   0 4206.88  123.49
  -2   0   0 4098.39  124.89
  -2   0   0 3987.80  122.59
  -2   0   0 4028.90  124.99
   2   0   0 3932.91  124.39
   2   0   0 3917.21  122.89
   2   0   0 4115.99  125.49
   2   0   0 3863.31  122.39
  -3   0   0  103.69    4.50
  -3   0   0  106.99    3.80
  -3   0   0  108.39    3.90
  -3   0   0  106.59    4.70
  -3   0   0  105.89    4.20
  -3   0   0  102.59    5.00
   3   0   0  104.89    4.60
   3   0   0  110.59    3.70
   3   0   0  107.19    4.00
   3   0   0  107.29    5.00
   3   0   0  104.79    4.00
  -4   0   0   72.59    4.50
  -4   0   0   68.99    3.40
  -4   0   0   70.59    3.80
  -4   0   0   71.29    3.10
   4   0   0   73.79    4.60
   4   0   0   71.99    3.20
   4   0   0   68.69    4.00
   4   0   0   70.99    2.90
   4   0   0   73.19    3.30
  -5   0   0   99.19    6.10
  -5   0   0   93.69    4.50
  -5   0   0   99.09    4.00
  -5   0   0   98.89    5.10
   5   0   0   86.19    5.00
   5   0   0   95.89    4.20
   5   0   0  100.09    4.30
   5   0   0  100.59    6.10
   5   0   0   98.99    5.40
   5   0   0   95.49    3.70
  -6   0   0   12.90    2.70
  -6   0   0   20.20    3.70
   6   0   0   20.70    2.40
   6   0   0   10.10    2.60
   6   0   0   10.10    2.60
   6   0   0   18.00    2.20
  -7   0   0    5.60    1.60
  -7   0   0   13.80    3.70
  -7   0   0    5.30    1.40
  -7   0   0   10.00    3.10
   7   0   0    5.60    1.40
   7   0   0    4.90    2.90
   7   0   0    6.30    3.20
   7   0   0    7.20    3.40
   7   0   0    8.00    1.80
   7   0   0   10.60    1.90
  -8   0   0    2.70    1.50
  -8   0   0   -0.20    3.40
  -8   0   0   -4.90    3.90
   8   0   0    4.10    3.60
   8   0   0    1.60    4.10
   8   0   0    1.20    2.10
   8   0   0    2.40    1.90
   8   0   0    4.30    1.30
   8   0   0    1.30    1.70
   8   0   0    9.30    4.40
  -9   0   0    8.80    4.60
  -9   0   0   14.90    6.00
   9   0   0   11.40    2.20
   9   0   0   12.90    5.00
   9   0   0   10.80    2.80
   9   0   0   12.10    2.90
   9   0   0    8.10    2.10
   9  -1   0    6.10    4.70
   9  -1   0    1.00    2.60
   9  -1   0    8.70    1.60
   9  -1   0    8.70    1.90
   9  -1   0    6.10    1.60
   9  -1   0    6.00    2.70
  -9   1   0   12.50    4.90
   8  -1   0   12.70    5.00
   8  -1   0   12.00    1.90
   8  -1   0    9.20    4.40
   8  -1   0   11.30    1.60
   8  -1   0    7.70    3.60
  -8   1   0   10.70    3.80
   7  -1   0    1.10    4.20
   7  -1   0    1.30    1.10
   7  -1   0   -0.60    3.00
   7  -1   0    0.50    2.70
   7  -1   0    1.90    1.20
   7  -1   0    2.70    1.40
   7  -1   0   -6.60    3.20
  -7   1   0   -0.80    2.60
  -7   1   0   -1.00    3.60
   6  -1   0   16.80    2.80
   6  -1   0   18.40    1.80
   6  -1   0   22.80    4.50
   6  -1   0   22.50    1.80
   6  -1   0   19.90    1.80
   6  -1   0   20.60    3.60
   6  -1   0   22.70    3.60
  -6   1   0   18.30    2.50
  -6   1   0   18.30    3.70
  -6   1   0   20.30    3.10
   5  -1   0    1.30    2.20
   5  -1   0    3.10    1.90
   5  -1   0    3.40    0.90
   5  -1   0    2.10    0.90
   5  -1   0    5.70    2.80
   5  -1   0    1.10    0.80
   5  -1   0    0.60    1.40
  -5   1   0    3.30    1.40
  -5   1   0    5.70    1.80
  -5   1   0    1.70    2.00
   4  -1   0    7.00    0.90
   4  -1   0    5.40    1.00
   4  -1   0    4.50    1.70
   4  -1   0    6.60    1.60
   4  -1   0    7.00    2.00
   4  -1   0    6.50    0.80
   4  -1   0    5.50    1.50
   4  -1   0    7.30    1.70
  -4   1   0    7.00    1.90
  -4   1   0    4.40    1.90
  -4   1   0    6.50    1.70
  -4   1   0    5.70    0.60
  -4   1   0    6.80    1.30
   3  -1   0   98.39    4.40
   3  -1   0  103.79    5.10
   3  -1   0  109.49    5.00
   3  -1   0  106.39    4.00
   3  -1   0  108.29    3.60
   3  -1   0  100.69    3.60
   3  -1   0  107.59    4.60
   3  -1   0  105.09    4.60
  -3   1   0  111.69    5.20
  -3   1   0  108.79    4.10
  -3   1   0  101.79    4.90
  -3   1   0  107.19    4.60
   2  -1   0   18.80    0.80
   2  -1   0   18.70    1.80
   2  -1   0   17.70    1.50
   2  -1   0   19.30    1.90
   2  -1   0   17.30    1.40
   2  -1   0   21.20    1.50
  -2   1   0   17.60    1.80
  -2   1   0   17.20    1.50
  -2   1   0   19.00    1.20
  -2   1   0   18.70    1.50
   1  -1   0  471.65   15.10
   1  -1   0  470.35   14.70
   1  -1   0  447.46   14.80
   1  -1   0  475.85   15.40
   1  -1   0  511.15   14.80
   1  -1   0  483.95   15.10
   1  -1   0  469.55   14.70
  -1   1   0  467.25   14.70
  -1   1   0  437.76   14.80
  -1   1   0  509.25   14.80
   0  -1   0  203.78    6.70
   0  -1   0  206.38    6.70
   0  -1   0  205.28    6.70
   0  -1   0  210.58    6.70
   0   1   0  202.08    6.70
   0   1   0  203.88    6.70
   0   1   0  202.58    6.70
  -1  -1   0  192.98    6.20
  -1  -1   0  192.28    6.50
  -1  -1   0  188.08    6.30
   1   1   0  190.98    6.20
   1   1   0  200.28    6.60
  -2  -1   0 2296.47   76.79
  -2  -1   0 2535.25   77.39
  -2  -1   0 2461.55   76.99
  -2  -1   0 2490.15   77.09
   2   1   0 2559.34   77.69
   2   1   0 2410.16   76.89
   2   1   0 2666.73   77.39
   2   1   0 2581.94   77.89
   2   1   0 2387.96   76.89
  -3  -1   0  204.78    7.40
  -3  -1   0  203.98    8.10
  -3  -1   0  201.88    7.60
  -3  -1   0  212.28    6.90
   3   1   0  206.08    6.80
   3   1   0  217.18    7.50
   3   1   0  209.18    7.50
   3   1   0  209.08    7.40
  -4  -1   0  347.27   12.00
  -4  -1   0  345.17   12.80
  -4  -1   0  288.87   12.00
  -4  -1   0  339.77   11.60
  -4  -1   0  334.97   11.00
   4   1   0  341.57   10.80
   4   1   0  343.37   11.00
   4   1   0  340.07   11.70
   4   1   0  336.17   11.80
   4   1   0  339.07   11.70
  -5  -1   0   39.90    2.20
  -5  -1   0   41.40    2.90
  -5  -1   0   35.50    3.30
  -5  -1   0   32.70    3.90
  -5  -1   0   38.00    3.30
   5   1   0   43.00    3.30
   5   1   0   40.10    2.20
   5   1   0   41.90    3.00
   5   1   0   40.90    2.00
   5   1   0   41.70    2.90
  -6  -1   0    1.20    1.90
  -6  -1   0    0.40    1.50
  -6  -1   0   -3.00    2.20
  -6  -1   0    4.20    1.60
  -6  -1   0    0.20    1.00
   6   1   0    2.90    2.10
   6   1   0    0.50    1.50
   6   1   0    2.40    1.00
   6   1   0    1.50    0.90
   6   1   0    0.30    1.90
   6   1   0   -0.40    1.60
  -7  -1   0    6.40    2.90
  -7  -1   0    7.80    2.20
  -7  -1   0    6.60    3.50
   7   1   0    6.30    2.20
   7   1   0    6.10    1.30
   7   1   0    5.80    2.90
   7   1   0    3.60    3.00
   7   1   0    4.90    2.10
  -8  -1   0    1.10    4.80
  -8  -1   0    1.70    2.10
  -8  -1   0   10.00    3.70
  -8  -1   0    2.50    2.40
   8   1   0   -1.50    3.50
   8   1   0   -5.80    3.30
   8   1   0   -0.60    2.30
   8   1   0    1.60    1.20
   8   1   0   -1.20    2.40
  -9  -1   0   -2.00    2.90
  -9  -1   0    2.00    4.40
  -9  -1   0   14.60    6.20
   9   1   0   -0.80    3.20
   9   1   0   -2.90    4.10
   9   1   0    1.10    2.90
   9  -2   0    1.00    4.40
   9  -2   0    1.60    1.70
   9  -2   0    3.20    3.30
  -9   2   0    4.30    5.10
   8  -2   0   -1.50    5.20
   8  -2   0    4.70    1.50
   8  -2   0    1.40    3.50
   8  -2   0    0.60    6.30
   8  -2   0    1.00    4.20
   8  -2   0    3.40    2.60
   7  -2   0    2.60    4.40
   7  -2   0    2.10    2.70
   7  -2   0    6.40    3.30
   7  -2   0    5.50    4.20
   7  -2   0    1.70    1.30
  -7   2   0   -0.20    1.90
  -7   2   0    0.90    2.80
   6  -2   0   30.20    4.40
   6  -2   0   35.20    2.70
   6  -2   0   28.60    4.10
   6  -2   0   51.59    6.30
   6  -2   0   28.60    3.70
   6  -2   0   38.20    4.50
  -6   2   0   33.60    3.00
  -6   2   0   38.40    3.80
   5  -2   0   76.09    4.90
   5  -2   0   63.69    4.80
   5  -2   0   67.39    6.10
   5  -2   0   69.49    4.20
   5  -2   0   77.49    3.70
   5  -2   0   71.29    5.90
  -5   2   0   61.99    3.60
  -5   2   0   78.29    5.50
  -5   2   0   71.99    4.50
   4  -2   0   34.00    3.00
   4  -2   0   35.10    2.70
   4  -2   0   33.10    3.10
   4  -2   0   37.30    4.00
   4  -2   0   35.20    3.60
  -4   2   0   34.90    3.00
  -4   2   0   36.80    2.40
  -4   2   0   32.40    3.60
   3  -2   0   40.70    1.60
   3  -2   0   42.80    1.60
   3  -2   0   52.79    3.00
   3  -2   0   45.60    3.30
   3  -2   0   38.70    2.30
   3  -2   0   43.60    2.80
   3  -2   0   41.00    3.40
  -3   2   0   44.40    2.20
  -3   2   0   42.20    2.90
  -3   2   0   44.90    2.80
  -3   2   0   40.80    3.30
   2  -2   0   51.89    2.70
   2  -2   0   46.20    3.00
   2  -2   0   51.29    2.00
   2  -2   0   48.30    2.00
   2  -2   0   46.10    2.80
   2  -2   0   47.40    2.70
  -2   2   0   50.29    1.90
  -2   2   0   51.19    2.20
  -2   2   0   49.80    3.10
  -2   2   0   50.59    2.80
  -2   2   0   49.90    1.80
   1  -2   0 5614.74  176.28
   1  -2   0 5403.06  174.48
   1  -2   0 5528.55  174.28
   1  -2   0 5702.33  172.48
   1  -2   0 5821.22  173.08
  -1   2   0 5706.13  174.28
  -1   2   0 5610.54  176.28
  -1   2   0 5309.77  173.08
  -1   2   0 5941.01  173.48
  -1   2   0 5498.85  174.68
  -1   2   0 5682.83  176.48
   0  -2   0 3690.63  113.29
   0  -2   0 3347.17  111.89
   0  -2   0 3849.51  114.49
   0   2   0 3456.85  116.89
   0   2   0 3699.53  113.79
   0   2   0 3785.12  115.29
  -1  -2   0   79.19    3.50
  -1  -2   0   76.49    3.10
  -1  -2   0   79.79    3.50
   1   2   0   78.49    3.50
   1   2   0   81.29    3.10
   1   2   0   82.89    3.50
  -2  -2   0   53.99    2.40
  -2  -2   0   50.09    2.80
  -2  -2   0   48.00    2.40
  -2  -2   0   55.19    2.90
   2   2   0   56.39    2.90
   2   2   0   49.60    2.20
   2   2   0   48.80    2.80
  -3  -2   0   -0.80    0.90
  -3  -2   0    0.50    0.60
  -3  -2   0    2.80    0.80
  -3  -2   0   -1.50    1.00
   3   2   0   -1.30    0.90
   3   2   0    0.40    0.50
   3   2   0    0.00    0.60
   3   2   0    1.10    1.10
  -4  -2   0    5.50    1.60
  -4  -2   0    3.70    1.40
  -4  -2   0    3.60    1.90
  -4  -2   0    8.00    1.10
   4   2   0    5.90    1.60
   4   2   0    5.40    1.70
   4   2   0    8.60    1.10
   4   2   0    5.90    1.30
  -5  -2   0   18.50    3.30
  -5  -2   0   11.30    2.00
  -5  -2   0   11.40    1.40
  -5  -2   0   10.30    2.10
   5   2   0    9.30    2.00
   5   2   0   13.30    2.20
   5   2   0   10.70    1.30
   5   2   0   11.90    1.90
  -6  -2   0    0.60    2.40
  -6  -2   0   -1.50    2.00
  -6  -2   0    1.70    1.20
  -6  -2   0    1.80    1.90
  -6  -2   0    1.00    1.80
   6   2   0    2.50    1.90
   6   2   0    1.40    0.90
   6   2   0   -2.80    1.70
  -7  -2   0   11.60    3.00
  -7  -2   0    9.00    3.80
  -7  -2   0   13.60    3.60
  -7  -2   0   11.00    2.80
  -7  -2   0    9.90    1.80
   7   2   0    8.30    2.80
   7   2   0    9.20    3.10
   7   2   0   12.70    2.90
   7   2   0    9.40    2.70
   7   2   0   12.40    1.40
  -8  -2   0   -0.30    3.60
  -8  -2   0   -3.30    2.70
  -8  -2   0    0.20    2.70
  -8  -2   0    6.10    5.10
   8   2   0    0.50    2.80
   8   2   0   -0.50    3.00
   8   2   0   -6.20    5.30
  -9  -2   0   11.20    5.00
  -9  -2   0   -1.00    6.10
  -9  -2   0    9.20    4.00
  -9  -2   0   10.20    4.00
   9   2   0    0.20    3.50
   9   2   0    9.20    5.10
   9  -3   0    1.20    2.20
   9  -3   0   13.60    5.00
   9  -3   0    8.00    4.00
   8  -3   0    4.70    2.10
   8  -3   0    3.50    5.50
   8  -3   0    3.40    3.10
   8  -3   0    2.90    3.60
  -8   3   0    5.70    2.80
   7  -3   0    3.20    3.90
   7  -3   0    2.00    4.40
   7  -3   0   -2.00    5.60
   7  -3   0   -3.60    2.60
   7  -3   0    1.20    2.40
   7  -3   0   -2.00    1.70
   7  -3   0   -6.30    3.70
  -7   3   0   -0.50    1.80
   6  -3   0    2.80    2.00
   6  -3   0    4.20    3.50
   6  -3   0    0.90    4.00
   6  -3   0    4.80    3.10
   6  -3   0    0.90    1.60
   6  -3   0   -2.40    2.50
  -6   3   0   -1.80    3.40
  -6   3   0   -0.80    1.60
   5  -3   0   26.60    3.70
   5  -3   0   32.90    4.90
   5  -3   0   30.70    4.70
   5  -3   0   31.10    3.00
   5  -3   0   33.40    3.90
  -5   3   0   28.20    2.60
  -5   3   0   32.40    4.40
   4  -3   0   17.50    1.10
   4  -3   0   17.10    2.00
   4  -3   0   20.50    2.90
   4  -3   0   14.40    3.30
   4  -3   0   19.40    2.70
   4  -3   0   24.40    3.50
  -4   3   0   20.50    2.90
  -4   3   0   19.90    1.90
  -4   3   0   25.60    3.80
   3  -3   0   92.99    3.40
   3  -3   0   86.89    3.80
   3  -3   0   95.09    5.30
   3  -3   0   91.59    4.60
   3  -3   0   90.49    3.50
   3  -3   0   96.89    5.30
   3  -3   0   92.89    4.70
  -3   3   0   95.69    5.40
  -3   3   0   89.49    4.70
  -3   3   0   94.99    3.80
  -3   3   0   92.99    3.30
   2  -3   0  123.89    5.80
   2  -3   0  123.09    4.70
   2  -3   0  127.29    4.60
   2  -3   0  126.19    5.30
  -2   3   0  123.19    5.90
  -2   3   0  123.89    5.40
  -2   3   0  124.49    4.50
   1  -3   0   86.69    3.90
   1  -3   0   88.69    3.70
   1  -3   0   83.49    4.10
   1  -3   0   82.29    3.70
  -1   3   0   89.19    3.10
  -1   3   0   85.69    4.30
  -1   3   0   83.09    3.00
  -1   3   0   88.19    3.60
   0  -3   0   59.79    3.00
   0  -3   0   55.09    3.00
   0   3   0   56.79    3.00
   0   3   0   59.59    2.90
   0   3   0   58.19    3.10
  -1  -3   0    1.30    0.90
  -1  -3   0    2.60    1.10
  -1  -3   0    0.60    0.70
   1   3   0    2.10    1.10
   1   3   0    1.30    0.70
   1   3   0    1.90    1.00
  -2  -3   0    8.80    1.60
  -2  -3   0    6.40    1.40
  -2  -3   0    5.90    1.00
   2   3   0    4.70    1.00
   2   3   0    6.00    1.50
   2   3   0    5.20    1.40
  -3  -3   0   50.99    3.40
  -3  -3   0   47.70    2.40
  -3  -3   0   49.40    3.40
  -3  -3   0   47.10    2.70
   3   3   0   47.40    3.30
   3   3   0   48.70    3.30
   3   3   0   48.30    2.50
   3   3   0   47.50    1.90
  -4  -3   0    3.60    0.90
  -4  -3   0    4.60    1.20
  -4  -3   0    5.50    1.80
  -4  -3   0    3.70    1.80
   4   3   0    4.60    0.90
   4   3   0    3.40    1.60
   4   3   0    7.00    2.00
   4   3   0    3.20    1.00
  -5  -3   0   21.20    2.20
  -5  -3   0   22.10    3.60
  -5  -3   0   25.70    3.40
  -5  -3   0   21.10    1.70
  -5  -3   0   23.80    3.30
   5   3   0   26.60    3.40
   5   3   0   19.70    1.80
   5   3   0   21.00    2.00
   5   3   0   25.10    3.30
  -6  -3   0   59.49    4.80
  -6  -3   0   68.99    6.40
  -6  -3   0   63.69    4.90
  -6  -3   0   55.19    3.40
   6   3   0   56.29    4.90
   6   3   0   51.29    3.50
   6   3   0   52.99    2.80
   6   3   0   56.29    4.70
  -7  -3   0    2.60    2.90
  -7  -3   0   -2.30    2.60
  -7  -3   0    0.90    3.00
  -7  -3   0   -1.40    1.70
  -7  -3   0    0.40    3.70
   7   3   0    2.20    1.20
   7   3   0    4.10    2.90
   7   3   0    2.60    2.90
   7   3   0   -4.10    2.90
  -8  -3   0    2.20    3.20
  -8  -3   0   -0.10    3.60
  -8  -3   0    0.50    2.10
  -8  -3   0    3.60    3.60
  -8  -3   0   -0.60    5.00
   8   3   0    0.70    3.30
   8   3   0   -1.60    3.80
   8   3   0   -6.20    3.20
  -9  -3   0    5.60    2.60
  -9  -3   0    1.40    4.90
  -9  -3   0    4.40    4.20
  -9  -3   0    3.80    4.90
  -9  -3   0    8.00    7.40
   9   3   0   -2.30    4.50
   9   3   0   -1.30    4.60
   9   3   0    2.90    4.20
   8  -4   0   21.40    4.30
   8  -4   0   18.30    4.50
   8  -4   0   18.30    3.20
  -8   4   0    9.60    3.30
   7  -4   0    9.70    3.10
   7  -4   0    6.70    2.80
   7  -4   0    4.60    4.90
   7  -4   0   22.00    6.60
   7  -4   0    8.30    4.40
   7  -4   0    4.30    3.20
  -7   4   0    7.00    2.40
   6  -4   0   -0.20    4.80
   6  -4   0    5.40    3.50
   6  -4   0    6.50    3.50
   6  -4   0    8.90    2.70
   6  -4   0    8.00    2.30
   6  -4   0    5.70    4.30
  -6   4   0    6.40    2.00
  -6   4   0    0.70    4.20
   5  -4   0  112.59    6.90
   5  -4   0  118.59    5.30
   5  -4   0  113.59    6.00
   5  -4   0  114.39    8.30
   5  -4   0  106.09    6.50
   5  -4   0  121.49    7.90
  -5   4   0  110.49    7.70
  -5   4   0  113.19    5.20
  -5   4   0  107.69    6.50
   4  -4   0    2.80    2.90
   4  -4   0    3.30    2.90
   4  -4   0    0.60    2.10
   4  -4   0    5.30    2.00
   4  -4   0    0.40    1.00
   4  -4   0    2.50    0.90
   4  -4   0    2.70    0.90
  -4   4   0    5.00    2.00
  -4   4   0   -1.40    2.50
  -4   4   0    1.10    1.30
   3  -4   0    6.70    1.30
   3  -4   0    6.90    1.20
   3  -4   0    9.20    1.30
   3  -4   0    4.00    1.60
   3  -4   0    6.70    2.60
   3  -4   0    9.60    2.10
  -3   4   0    6.40    1.30
  -3   4   0    5.90    1.30
  -3   4   0    9.60    2.10
  -3   4   0    4.80    2.20
  -3   4   0    6.90    0.90
   2  -4   0  248.38    9.80
   2  -4   0  229.18    8.60
   2  -4   0  223.48    8.00
   2  -4   0  239.08    9.20
   2  -4   0  248.38    8.60
  -2   4   0  232.58    8.60
  -2   4   0  234.28    9.90
  -2   4   0  242.38    8.40
  -2   4   0  247.18    8.10
  -2   4   0  247.88    9.30
   1  -4   0  245.28    9.00
   1  -4   0  240.08    9.00
   1  -4   0  259.37    9.30
  -1   4   0  238.88    7.90
  -1   4   0  247.88    8.90
  -1   4   0  258.57    8.20
  -1   4   0  228.98    9.50
  -1   4   0  246.78    9.10
   0  -4   0  137.89    5.70
   0  -4   0  128.49    5.70
   0  -4   0  134.69    5.70
   0   4   0  132.79    5.60
   0   4   0  129.59    5.70
   0   4   0  134.79    5.80
   0   4   0  126.39    4.50
  -1  -4   0  342.57   12.30
  -1  -4   0  335.07   12.30
   1   4   0  333.37   11.60
   1   4   0  344.87   12.20
   1   4   0  337.37   12.30
  -2  -4   0   82.89    4.70
  -2  -4   0   87.09    4.80
  -2  -4   0   89.59    4.20
   2   4   0   88.59    3.60
   2   4   0   85.89    4.80
   2   4   0   91.09    4.80
  -3  -4   0  168.58    7.70
  -3  -4   0  177.08    6.70
  -3  -4   0  169.98    7.00
   3   4   0  176.88    7.70
   3   4   0  169.08    7.70
   3   4   0  175.28    6.70
  -4  -4   0    1.40    1.90
  -4  -4   0   -0.50    1.00
  -4  -4   0    2.20    1.40
  -4  -4   0    4.30    2.20
   4   4   0    0.60    1.90
   4   4   0   -1.50    1.00
   4   4   0   -0.30    1.90
  -5  -4   0   29.10    4.20
  -5  -4   0   31.60    3.10
  -5  -4   0   33.60    4.30
  -5  -4   0   34.70    2.50
   5   4   0   35.50    4.20
   5   4   0   34.30    4.20
   5   4   0   32.00    2.60
  -6  -4   0   24.20    5.00
  -6  -4   0   17.20    3.60
  -6  -4   0   13.70    3.40
  -6  -4   0   16.00    2.40
   6   4   0   13.70    3.40
   6   4   0   16.30    3.70
   6   4   0   16.90    2.00
  -7  -4   0   -0.30    2.00
  -7  -4   0    2.00    3.60
  -7  -4   0    5.90    4.70
   7   4   0   -3.20    2.90
   7   4   0    1.70    3.40
   7   4   0    1.80    3.40
  -8  -4   0    5.80    4.50
  -8  -4   0    6.70    4.30
  -8  -4   0   13.10    2.80
  -8  -4   0    4.70    4.80
  -8  -4   0   13.30    6.00
   8   4   0    9.30    4.80
   8   4   0    9.10    4.00
   8   4   0   11.60    4.60
  -9  -4   0    6.40    3.20
  -9  -4   0   -6.60    5.10
  -9  -4   0    0.90    5.10
  -9  -4   0   -7.10    7.80
   9   4   0   -0.20    5.20
   9   4   0   -6.30    5.40
   9   4   0    2.00    5.20
   8  -5   0   10.50    3.80
   8  -5   0    4.40    4.00
   8  -5   0    5.10    4.70
  -8   5   0    7.20    3.60
   7  -5   0   -1.60    2.70
   7  -5   0   -2.10    3.80
   7  -5   0   -3.50    3.00
  -7   5   0   -0.30    2.40
   6  -5   0   20.20    3.80
   6  -5   0   13.50    4.70
   6  -5   0   16.10    5.90
   6  -5   0   19.70    2.80
  -6   5   0   26.70    6.50
  -6   5   0   21.00    4.30
  -6   5   0   20.40    3.00
   5  -5   0   52.49    7.70
   5  -5   0   49.80    2.80
   5  -5   0   52.89    5.50
   5  -5   0   47.90    3.40
   5  -5   0   58.29    4.90
  -5   5   0   54.99    3.60
  -5   5   0   56.09    6.70
  -5   5   0   56.39    5.30
   4  -5   0   27.50    3.70
   4  -5   0   21.50    3.70
   4  -5   0   33.30    5.20
   4  -5   0   21.20    2.40
   4  -5   0   17.20    2.20
   4  -5   0   24.00    2.10
  -4   5   0   18.50    1.80
  -4   5   0   25.60    2.40
  -4   5   0   18.50    3.20
  -4   5   0   30.90    5.10
   3  -5   0   42.00    2.90
   3  -5   0   37.70    2.00
   3  -5   0   35.60    2.90
   3  -5   0   33.80    3.80
   3  -5   0   36.50    3.60
  -3   5   0   46.90    4.80
  -3   5   0   37.50    2.40
  -3   5   0   38.20    2.40
  -3   5   0   40.80    3.80
  -3   5   0   38.40    3.00
   2  -5   0   11.40    1.90
   2  -5   0   11.90    2.20
   2  -5   0    9.40    1.90
  -2   5   0   11.80    2.20
  -2   5   0   12.20    1.40
  -2   5   0    9.00    2.50
  -2   5   0   11.60    1.70
   1  -5   0   -0.60    1.30
   1  -5   0   -0.50    1.50
   1  -5   0   -0.80    1.40
  -1   5   0    1.60    1.20
  -1   5   0    0.40    0.40
  -1   5   0    2.50    1.40
  -1   5   0    0.10    0.80
  -1   5   0    1.80    1.60
   0  -5   0   39.50    3.30
   0  -5   0   40.80    3.20
   0  -5   0   33.90    3.20
   0   5   0   37.80    3.20
   0   5   0   39.00    3.10
   0   5   0   39.50    1.80
   0   5   0   35.30    3.30
  -1  -5   0   23.90    3.00
  -1  -5   0   17.40    2.30
  -1  -5   0   20.70    3.00
   1   5   0   22.60    2.30
   1   5   0   20.60    3.00
   1   5   0   26.70    3.20
  -2  -5   0    0.40    1.40
  -2  -5   0   -0.90    1.70
  -2  -5   0    0.60    1.80
   2   5   0    0.50    0.90
   2   5   0    3.20    2.00
   2   5   0   -0.20    1.70
  -3  -5   0   83.59    6.30
  -3  -5   0   91.69    4.40
  -3  -5   0   83.49    5.50
  -3  -5   0   77.99    4.90
   3   5   0   86.89    5.70
  -4  -5   0    2.10    2.50
  -4  -5   0   -0.20    2.60
  -4  -5   0    1.70    1.50
  -4  -5   0    2.30    2.10
   4   5   0   -0.60    2.20
   4   5   0    1.60    2.40
  -5  -5   0  168.08    8.90
  -5  -5   0  168.98    8.90
  -5  -5   0  166.98    6.80
   5   5   0  160.88    8.90
   5   5   0  161.68    8.90
  -6  -5   0    6.30    4.00
  -6  -5   0    2.20    4.00
  -6  -5   0    7.50    3.70
  -6  -5   0    2.50    2.40
  -6  -5   0    4.70    1.80
   6   5   0    3.20    3.30
   6   5   0    1.90    3.40
  -7  -5   0    0.40    5.00
  -7  -5   0   -1.30    3.90
  -7  -5   0    8.60    5.40
  -7  -5   0   -4.20    2.50
   7   5   0   -1.90    3.80
   7   5   0    5.50    4.10
   7   5   0    0.50    3.80
  -8  -5   0    1.10    3.20
  -8  -5   0    1.20    4.80
   8   5   0    2.40    4.80
   8   5   0  -11.20    4.70
   8   5   0    2.40    4.90
   7  -6   0    2.60    2.70
   7  -6   0   -1.40    4.90
  -7   6   0   -0.10    2.80
   6  -6   0   21.00    2.60
   6  -6   0   20.50    4.70
   6  -6   0   17.30    5.80
   6  -6   0   11.40    7.10
  -6   6   0   24.80    3.40
  -6   6   0   12.60    6.50
   5  -6   0    4.60    3.50
   5  -6   0   -0.70    5.80
   5  -6   0   -0.70    1.30
   5  -6   0   -1.90    3.60
   5  -6   0    1.70    1.80
  -5   6   0    5.80    3.60
  -5   6   0   -0.40    1.90
  -5   6   0    8.30    5.10
   4  -6   0   25.10    2.90
   4  -6   0   32.50    5.60
   4  -6   0   23.20    2.00
   4  -6   0   32.30    4.40
   4  -6   0   31.90    4.60
   4  -6   0   24.30    3.30
  -4   6   0   32.80    4.60
  -4   6   0   23.30    2.20
  -4   6   0   25.80    2.60
  -4   6   0   25.20    2.80
  -4   6   0   27.10    5.10
   3  -6   0  126.29    7.30
   3  -6   0  136.79    6.50
   3  -6   0  138.59    7.30
   3  -6   0  132.39    6.20
  -3   6   0  135.29    5.50
  -3   6   0  137.29    6.30
  -3   6   0  147.99    8.70
  -3   6   0  143.79    7.50
   2  -6   0   38.50    4.20
   2  -6   0   41.40    3.70
   2  -6   0   43.10    3.80
  -2   6   0   46.30    4.90
  -2   6   0   38.70    3.90
  -2   6   0   39.50    2.50
  -2   6   0   41.10    4.00
  -2   6   0   34.90    3.20
   1  -6   0    8.10    2.30
   1  -6   0   11.10    2.40
   1  -6   0    6.70    2.40
  -1   6   0    8.40    2.70
  -1   6   0   12.30    2.30
  -1   6   0    8.70    2.40
  -1   6   0    9.60    1.40
   0  -6   0   27.80    3.80
   0   6   0   28.60    3.50
   0   6   0   23.20    3.40
   0   6   0   31.60    3.40
   0   6   0   26.20    1.60
  -1  -6   0   10.30    2.30
  -1  -6   0   12.60    2.70
  -1  -6   0    9.90    2.70
   1   6   0   10.70    2.50
   1   6   0    7.20    2.60
   1   6   0   10.50    2.20
  -2  -6   0    2.20    2.90
  -2  -6   0    3.00    2.40
  -2  -6   0    2.20    1.90
   2   6   0    1.10    2.60
   2   6   0    0.20    2.40
   2   6   0    1.00    1.30
  -3  -6   0    4.90    2.60
  -3  -6   0    2.80    1.90
  -3  -6   0    0.40    2.80
  -3  -6   0    1.70    2.20
   3   6   0    3.70    2.70
   3   6   0    6.10    3.00
  -4  -6   0   26.60    4.70
  -4  -6   0   38.20    4.90
  -4  -6   0   29.90    3.40
  -4  -6   0   23.70    4.10
   4   6   0   30.20    4.50
   4   6   0   38.70    5.40
  -5  -6   0    7.50    3.10
  -5  -6   0    4.50    3.80
  -5  -6   0   10.30    4.00
  -5  -6   0    8.00    2.30
   5   6   0   12.40    4.00
   5   6   0    7.50    3.70
  -6  -6   0    3.30    4.30
  -6  -6   0    4.90    2.30
  -6  -6   0    3.90    3.20
  -6  -6   0    6.10    4.90
   6   6   0    2.00    4.50
  -7  -6   0    7.30    5.00
  -7  -6   0    2.90    6.70
  -7  -6   0    8.70    3.80
  -7  -6   0    8.30    2.50
   7   6   0    8.60    4.70
   7   6   0    2.20    4.90
   7   6   0   -9.60    4.40
  -8  -6   0    5.50    8.80
  -8  -6   0  -10.60    5.30
  -8  -6   0   -3.20    4.10
   8   6   0   10.00    6.00
   8   6   0   13.30    6.60
   8   6   0    4.40    5.80
   6  -7   0   -0.80    5.10
   6  -7   0   -0.50    1.80
  -6   7   0   -3.30    4.60
  -6   7   0   -4.30    2.90
   5  -7   0   -6.20    7.70
   5  -7   0    9.70    5.40
   5  -7   0   -0.80    2.10
   5  -7   0   -0.60    4.50
   5  -7   0    1.20    2.50
   5  -7   0    0.10    1.30
  -5   7   0    0.80    2.40
  -5   7   0    1.90    4.30
  -5   7   0    9.40    6.20
   4  -7   0   -7.10    5.40
   4  -7   0    0.10    2.40
   4  -7   0    0.50    2.20
   4  -7   0   -0.90    3.50
   4  -7   0    2.70    4.20
  -4   7   0    4.40    3.50
  -4   7   0   -2.10    1.90
  -4   7   0    4.50    4.60
  -4   7   0    0.70    2.10
  -4   7   0    2.00    1.70
   3  -7   0   -5.10    3.60
   3  -7   0    2.90    3.40
   3  -7   0    2.30    2.50
   3  -7   0    1.50    2.40
  -3   7   0    2.00    2.70
  -3   7   0   -2.90    3.50
  -3   7   0    0.60    1.90
  -3   7   0    1.10    1.60
   2  -7   0   -0.70    2.50
   2  -7   0    3.40    2.70
   2  -7   0    1.70    2.30
  -2   7   0    2.50    1.40
  -2   7   0   -2.90    2.50
  -2   7   0    1.50    1.90
  -2   7   0    2.40    2.30
  -2   7   0   -3.80    3.20
   1  -7   0   19.30    3.80
   1  -7   0   26.20    3.80
   1  -7   0   24.30    3.80
  -1   7   0   25.00    4.30
  -1   7   0   19.90    2.20
  -1   7   0   25.50    3.40
  -1   7   0   32.70    4.10
   0  -7   0   15.00    3.20
   0  -7   0   27.10    3.80
   0  -7   0   12.50    3.50
   0   7   0   20.30    3.60
   0   7   0   15.10    3.10
   0   7   0   13.10    2.90
   0   7   0   18.20    1.40
  -1  -7   0    0.30    2.50
  -1  -7   0    2.40    3.20
  -1  -7   0    2.10    2.50
   1   7   0    0.80    2.80
   1   7   0   -1.00    1.10
   1   7   0   -2.90    2.00
   1   7   0    0.30    2.70
  -2  -7   0    6.40    3.50
  -2  -7   0    0.70    3.00
  -2  -7   0    5.10    2.70
   2   7   0    0.60    1.70
   2   7   0    3.10    2.90
   2   7   0    3.30    3.40
  -3  -7   0    8.10    4.00
  -3  -7   0    5.70    3.50
  -3  -7   0    1.60    2.50
  -3  -7   0   -2.50    3.10
   3   7   0    0.10    3.50
   3   7   0    0.40    3.40
  -4  -7   0   35.40    5.80
  -4  -7   0   27.00    5.50
  -4  -7   0   25.10    4.60
  -4  -7   0   23.00    3.50
   4   7   0   18.00    4.40
   4   7   0   26.80    5.20
  -5  -7   0    4.40    2.70
  -5  -7   0    1.70    4.70
  -5  -7   0    7.20    5.60
  -5  -7   0    3.50    3.70
   5   7   0   -5.30    4.00
   5   7   0    5.00    5.70
  -6  -7   0   -0.50    4.20
  -6  -7   0    6.60    5.30
  -6  -7   0    2.50    2.80
   6   7   0    0.80    5.00
   6   7   0    3.60    5.10
  -7  -7   0  -10.20    4.70
  -7  -7   0   -2.20    3.10
  -7  -7   0    1.80    6.30
   7   7   0   -4.40    6.60
   7   7   0   -2.90    6.20
   7   7   0  -10.90    4.50
   5  -8   0    1.10    3.20
   5  -8   0    4.30    2.80
   5  -8   0   11.50    5.40
  -5   8   0    3.50    5.00
  -5   8   0   -4.50    2.80
   4  -8   0   -2.30    4.60
   4  -8   0    2.30    3.10
   4  -8   0    2.70    3.50
   4  -8   0    5.80    7.70
  -4   8   0    1.20    2.40
  -4   8   0   14.70    4.60
  -4   8   0   13.60    6.60
  -4   8   0   -0.80    2.40
   3  -8   0    2.00    3.30
   3  -8   0    0.70    3.80
   3  -8   0    2.70    3.50
   3  -8   0   -5.70    4.20
  -3   8   0    1.50    2.00
  -3   8   0   -2.80    3.30
  -3   8   0    3.20    3.30
  -3   8   0    1.40    2.60
  -3   8   0    0.70    5.00
   2  -8   0   -4.80    2.90
   2  -8   0    4.40    3.80
  -2   8   0    3.60    3.20
  -2   8   0    1.60    2.00
  -2   8   0    0.60    3.20
  -2   8   0    2.10    4.30
  -2   8   0   -2.40    2.50
   1  -8   0   11.30    4.00
   1  -8   0    2.70    3.50
   1  -8   0    5.50    3.20
  -1   8   0    4.60    2.70
  -1   8   0    7.70    3.70
  -1   8   0   10.30    2.00
  -1   8   0    9.50    3.80
   0  -8   0    3.40    3.50
   0  -8   0    5.90    3.30
   0  -8   0    3.10    4.20
   0   8   0    1.10    3.00
   0   8   0    3.00    1.70
   0   8   0    2.70    0.80
   0   8   0    8.60    3.60
   0   8   0    3.30    3.10
  -1  -8   0    3.40    3.50
  -1  -8   0    4.10    4.30
  -1  -8   0   10.40    3.90
   1   8   0    6.80    1.50
   1   8   0    4.30    2.70
   1   8   0    6.30    3.80
   1   8   0    3.40    3.50
  -2  -8   0   -5.20    4.30
  -2  -8   0    4.00    3.70
  -2  -8   0   -3.10    3.20
   2   8   0    5.50    4.00
   2   8   0    1.20    4.00
  -3  -8   0   29.30    4.30
  -3  -8   0   17.20    5.60
  -3  -8   0   31.00    6.30
  -3  -8   0   32.60    5.40
   3   8   0   19.40    5.10
   3   8   0   31.20    5.80
  -4  -8   0   22.60    4.10
  -4  -8   0   23.00    6.20
  -4  -8   0   10.90    6.10
  -4  -8   0   14.80    5.00
   4   8   0   23.60    5.80
   4   8   0   23.60    7.40
  -5  -8   0    5.90    5.60
  -5  -8   0   10.00    5.50
   5   8   0    5.70    3.80
   5   8   0    1.90    6.00
  -6  -8   0    5.10    3.80
  -6  -8   0   -1.20    5.70
  -6  -8   0  -10.30    6.20
   6   8   0    2.10    4.70
   6   8   0   -0.30    7.20
   3  -9   0    4.50    4.40
   3  -9   0    8.70    4.80
   3  -9   0    9.90    5.40
  -3   9   0    2.50    5.10
  -3   9   0   -2.00    3.70
  -3   9   0    6.50    3.90
  -3   9   0    5.60    2.80
   2  -9   0    4.00    4.30
   2  -9   0   -1.50    5.10
   2  -9   0    9.10    5.30
  -2   9   0   -0.40    2.60
  -2   9   0   -5.80    3.40
  -2   9   0    4.80    4.40
  -2   9   0    0.40    4.10
   1  -9   0   -2.00    4.20
   1  -9   0    6.90    5.00
   1  -9   0    9.40    5.30
  -1   9   0   -4.80    4.20
  -1   9   0    0.40    4.40
  -1   9   0   -3.30    2.10
   0  -9   0    3.70    4.60
   0  -9   0   -0.10    4.40
   0  -9   0    5.50    5.40
   0   9   0   -0.10    4.70
  -1  -9   0    0.00    6.20
  -1  -9   0   -5.70    4.50
  -1  -9   0    6.00    5.00
   1   9   0    2.50    1.70
   1   9   0    0.10    1.30
   1   9   0    1.90    5.10
  -2  -9   0  -12.30    6.30
  -2  -9   0    4.10    5.40
  -2  -9   0    8.90    4.80
   2   9   0    3.20    2.20
   2   9   0   10.30    2.70
   2   9   0   14.50    5.80
  -3  -9   0   13.80    5.80
  -3  -9   0   19.40    7.80
   3   9   0   20.00    3.60
  -4  -9   0   -1.00    6.30
  -4  -9   0    7.50    5.40
   4   9   0   -6.10    6.60
   4   9   0    3.40    3.70
   4   9  -1   -7.00    7.30
  -4  -9   1   -4.00    6.10
  -4  -9   1   10.50    9.00
   3   9  -1    1.40    6.50
  -3  -9   1    3.70    6.40
  -3  -9   1   -6.00    5.90
   2   9  -1    3.70    6.10
   2   9  -1    2.20    2.60
  -2  -9   1    7.40    6.90
  -2  -9   1    0.10    5.10
  -2  -9   1    7.40    5.00
   1   9  -1   -1.30    1.80
   1   9  -1   -3.20    3.50
   1   9  -1    2.20    5.40
  -1  -9   1    2.20    4.60
  -1  -9   1   -1.70    6.20
  -1  -9   1    6.70    4.90
   0   9  -1    0.60    1.30
   0   9  -1   -5.10    4.20
   0   9  -1   -5.90    4.70
   0   9  -1    4.20    2.30
   0  -9   1   -5.70    4.70
   0  -9   1    6.40    4.70
   0  -9   1    0.00    6.10
  -1   9  -1   12.90    5.50
  -1   9  -1   12.50    5.10
  -1   9  -1   15.20    2.70
   1  -9   1   16.20    5.50
   1  -9   1   -2.30    5.80
   1  -9   1   16.20    4.80
  -2   9  -1    4.20    2.50
  -2   9  -1    9.20    6.20
  -2   9  -1    9.40    4.70
  -2   9  -1   -3.10    4.30
   2  -9   1    2.00    4.50
   2  -9   1    3.60    6.00
  -3   9  -1   12.50    2.90
  -3   9  -1    4.00    5.20
  -3   9  -1    6.80    4.50
  -3   9  -1   12.30    7.20
   3  -9   1    4.90    5.60
   3  -9   1    1.70    4.60
   3  -9   1   -0.90    5.10
   5   8  -1   -4.40    6.20
  -5  -8   1    2.10    6.50
  -5  -8   1    8.00    8.50
  -5  -8   1   -1.80    3.40
   4   8  -1   26.60    8.40
  -4  -8   1   44.70    7.70
  -4  -8   1   53.99    6.20
  -4  -8   1   35.00    6.20
  -4  -8   1   25.40    7.60
   3   8  -1    4.20    4.70
   3   8  -1    1.80    4.60
  -3  -8   1    5.90    5.60
  -3  -8   1   -1.80    4.70
  -3  -8   1    9.60    5.50
  -3  -8   1    4.20    3.50
   2   8  -1    2.90    2.30
   2   8  -1    5.30    4.30
   2   8  -1    7.20    2.80
   2   8  -1   10.50    4.50
  -2  -8   1    4.00    3.60
  -2  -8   1    6.00    5.10
  -2  -8   1    6.30    4.00
   1   8  -1    1.90    2.80
   1   8  -1    3.40    4.30
   1   8  -1    9.50    3.30
   1   8  -1    4.90    1.80
  -1  -8   1    4.50    4.40
  -1  -8   1    9.10    3.60
  -1  -8   1   12.20    5.10
  -1  -8   1    6.10    4.30
   0   8  -1   13.70    3.70
   0   8  -1    8.60    4.00
   0   8  -1    6.90    1.40
   0   8  -1    7.50    3.20
   0  -8   1    7.90    3.80
   0  -8   1    6.80    4.40
   0  -8   1   14.60    3.90
  -1   8  -1    1.10    3.40
  -1   8  -1    0.20    0.90
  -1   8  -1   -0.80    1.70
  -1   8  -1    4.70    3.70
  -1   8  -1   -1.50    2.70
   1  -8   1   -1.80    3.00
   1  -8   1    1.10    3.80
   1  -8   1    5.00    4.20
  -2   8  -1   -0.30    5.00
  -2   8  -1   -0.40    2.00
  -2   8  -1    2.20    4.30
  -2   8  -1    0.90    3.30
  -2   8  -1    2.50    2.90
   2  -8   1   -0.20    3.80
   2  -8   1    3.00    3.30
   2  -8   1   -1.30    3.80
  -3   8  -1    1.70    4.00
  -3   8  -1   -8.50    5.00
  -3   8  -1    2.30    2.90
  -3   8  -1   -2.80    2.00
  -3   8  -1   -2.20    3.10
   3  -8   1   -4.70    3.60
   3  -8   1    6.80    4.50
   3  -8   1    2.50    4.80
   3  -8   1    3.40    3.50
  -4   8  -1    2.30    2.90
  -4   8  -1   -0.80    2.50
  -4   8  -1   -5.00    3.10
  -4   8  -1    2.60    4.20
  -4   8  -1    5.70    6.70
   4  -8   1    3.20    3.50
   4  -8   1   -2.70    3.50
   4  -8   1    0.90    4.70
  -5   8  -1    3.70    2.40
  -5   8  -1   -5.40    4.60
  -5   8  -1   28.40    8.80
  -5   8  -1   -1.90    2.90
  -5   8  -1    9.10    3.00
   5  -8   1    3.20    3.60
   5  -8   1   -5.50    5.00
   5  -8   1   -5.60    3.10
   6   7  -1   12.30    6.30
   6   7  -1   -0.40    5.80
  -6  -7   1    9.60    3.10
  -6  -7   1    2.00    6.00
  -6  -7   1    1.20    4.80
   5   7  -1    4.80    5.20
   5   7  -1    6.80    5.10
  -5  -7   1    8.80    4.30
  -5  -7   1    5.70    4.80
  -5  -7   1   -2.40    5.80
  -5  -7   1    0.40    2.60
   4   7  -1    2.80    4.00
   4   7  -1    3.60    4.30
  -4  -7   1    4.20    2.70
  -4  -7   1    5.50    4.40
  -4  -7   1    5.90    3.90
  -4  -7   1    3.20    4.90
   3   7  -1   20.20    2.80
   3   7  -1   37.40    5.40
   3   7  -1   23.40    4.40
  -3  -7   1   20.90    4.80
  -3  -7   1   29.10    5.50
  -3  -7   1   29.70    4.30
  -3  -7   1   27.40    3.90
   2   7  -1   11.20    3.70
   2   7  -1    1.40    3.40
   2   7  -1   -3.00    1.80
  -2  -7   1   -3.20    2.70
  -2  -7   1   -5.00    3.50
  -2  -7   1    1.30    2.70
  -2  -7   1   -1.10    2.70
   1   7  -1    2.40    2.20
   1   7  -1    1.40    2.60
   1   7  -1    1.10    1.40
   1   7  -1    3.60    3.10
  -1  -7   1    2.00    2.60
  -1  -7   1    5.60    2.90
  -1  -7   1   -3.40    3.10
   0   7  -1    1.00    2.00
   0   7  -1    5.00    2.80
   0   7  -1    8.40    2.90
   0   7  -1    5.60    1.20
   0  -7   1    4.10    3.00
   0  -7   1   11.80    3.60
   0  -7   1    2.90    2.80
  -1   7  -1   13.00    1.60
  -1   7  -1    7.80    2.30
  -1   7  -1   11.60    3.50
  -1   7  -1   14.70    3.30
  -1   7  -1   13.40    1.70
   1  -7   1   12.80    3.30
   1  -7   1   16.30    3.70
   1  -7   1    7.60    2.90
  -2   7  -1    1.20    3.30
  -2   7  -1    1.90    2.60
  -2   7  -1    1.70    2.50
  -2   7  -1    4.00    1.60
  -2   7  -1    1.60    0.90
  -2   7  -1    0.00    2.00
   2  -7   1    0.10    2.50
   2  -7   1    2.10    3.10
   2  -7   1    1.40    2.70
  -3   7  -1    0.40    2.00
  -3   7  -1    1.20    1.50
  -3   7  -1   -2.20    3.70
  -3   7  -1   -0.10    2.60
  -3   7  -1   -0.20    2.60
   3  -7   1    3.70    2.50
   3  -7   1    1.40    2.60
   3  -7   1   -2.00    3.30
   3  -7   1    5.90    3.50
  -4   7  -1    3.50    2.60
  -4   7  -1   -1.50    5.00
  -4   7  -1    5.40    2.10
  -4   7  -1    3.40    2.10
  -4   7  -1    5.90    3.50
   4  -7   1    1.10    2.60
   4  -7   1   -2.70    4.20
   4  -7   1    6.60    4.50
   4  -7   1    2.40    2.70
  -5   7  -1   -4.80    3.70
  -5   7  -1    8.50    6.00
  -5   7  -1    8.60    2.30
  -5   7  -1    4.80    2.40
  -5   7  -1    8.40    1.80
   5  -7   1    4.50    1.70
   5  -7   1    8.00    5.70
   5  -7   1   12.00    4.70
   5  -7   1    1.30    2.50
   5  -7   1    0.20    2.70
   5  -7   1   21.90    8.20
  -6   7  -1    5.40    2.80
  -6   7  -1    1.80    4.60
  -6   7  -1    9.70    7.70
   6  -7   1    1.10    2.60
   6  -7   1    1.10    2.90
   6  -7   1   -2.50    2.00
   6  -7   1   -1.50    4.90
   7   6  -1    6.10    5.50
   7   6  -1   -7.20    5.60
  -7  -6   1   -3.60    4.80
  -7  -6   1    2.50    2.20
  -7  -6   1    3.40    4.10
   6   6  -1    7.70    4.60
   6   6  -1   15.20    4.90
  -6  -6   1   16.70    2.60
  -6  -6   1   11.60    3.90
  -6  -6   1   17.60    6.00
  -6  -6   1   16.50    5.40
   5   6  -1   45.10    6.50
   5   6  -1   48.90    6.60
  -5  -6   1   39.70    5.70
  -5  -6   1   35.20    3.80
  -5  -6   1   37.80    5.40
  -5  -6   1   58.89    6.80
   4   6  -1  111.69    7.70
   4   6  -1  111.39    7.40
  -4  -6   1  101.29    7.50
  -4  -6   1   98.79    7.80
  -4  -6   1  112.59    5.80
  -4  -6   1   97.49    6.70
   3   6  -1    2.30    3.20
   3   6  -1    5.30    1.60
   3   6  -1    5.90    3.20
  -3  -6   1    4.60    2.70
  -3  -6   1    2.10    3.20
  -3  -6   1    7.50    2.30
  -3  -6   1    3.40    2.60
   2   6  -1   -0.20    1.40
   2   6  -1    0.90    2.20
   2   6  -1    0.30    2.70
  -2  -6   1    2.00    3.10
  -2  -6   1   -1.60    2.20
  -2  -6   1    2.00    2.40
  -2  -6   1    1.80    2.00
   1   6  -1    5.70    2.50
   1   6  -1    3.30    2.50
   1   6  -1    3.80    2.00
  -1  -6   1    5.00    2.60
  -1  -6   1    1.10    1.90
  -1  -6   1    6.10    2.50
   0   6  -1   13.20    2.70
   0   6  -1   14.20    2.80
   0   6  -1   15.50    2.80
   0   6  -1   12.70    1.70
   0  -6   1   16.30    2.70
   0  -6   1   14.00    3.30
   0  -6   1   14.30    2.90
  -1   6  -1    0.50    1.00
  -1   6  -1    0.70    2.20
  -1   6  -1    1.90    2.00
  -1   6  -1    0.20    1.60
  -1   6  -1    2.30    0.80
   1  -6   1    5.00    2.00
   1  -6   1    0.40    2.10
   1  -6   1    0.50    2.40
  -2   6  -1    0.80    1.90
  -2   6  -1    2.00    1.80
  -2   6  -1    1.00    1.20
  -2   6  -1    1.50    0.90
  -2   6  -1    3.40    2.50
  -2   6  -1    0.30    1.60
   2  -6   1   -2.80    1.70
   2  -6   1   -2.60    1.90
   2  -6   1   -2.70    2.20
  -3   6  -1    4.90    1.70
  -3   6  -1    7.40    1.50
  -3   6  -1    4.20    3.30
  -3   6  -1    6.30    2.60
   3  -6   1    7.60    3.00
   3  -6   1    3.90    2.10
   3  -6   1    4.50    2.00
   3  -6   1    6.90    2.80
  -4   6  -1   19.10    5.00
  -4   6  -1   15.30    3.80
  -4   6  -1   18.70    2.10
  -4   6  -1   14.80    2.00
   4  -6   1   14.40    3.50
   4  -6   1   13.00    2.50
   4  -6   1   27.00    4.50
   4  -6   1   12.70    1.60
   4  -6   1   15.20    2.50
  -5   6  -1    9.20    3.80
  -5   6  -1    5.10    5.00
  -5   6  -1    4.60    1.20
  -5   6  -1    7.70    2.10
  -5   6  -1    3.50    1.50
   5  -6   1    4.20    2.10
   5  -6   1    2.70    1.50
   5  -6   1   -5.20    5.30
   5  -6   1    4.60    1.80
   5  -6   1    7.00    3.40
   5  -6   1    3.40    3.90
  -6   6  -1   -7.90    5.40
  -6   6  -1   -0.40    2.10
   6  -6   1    4.90    4.10
   6  -6   1    0.20    1.90
   6  -6   1    1.40    1.90
   6  -6   1    0.50    1.60
   6  -6   1   -7.80    7.10
   6  -6   1   -1.80    4.50
  -7   6  -1   -4.00    2.70
  -7   6  -1    7.10    8.10
   7  -6   1    1.40    4.90
   7  -6   1    0.20    2.70
   8   5  -1   -3.20    5.30
   8   5  -1    7.90    5.20
  -8  -5   1    2.70    3.80
  -8  -5   1    7.70    5.10
  -8  -5   1  -15.50    7.10
  -8  -5   1    2.10    5.20
   7   5  -1   24.10    5.10
   7   5  -1   18.10    5.10
  -7  -5   1   21.80    6.40
  -7  -5   1   17.40    4.90
  -7  -5   1   11.50    5.30
  -7  -5   1   20.10    3.70
   6   5  -1    3.30    3.20
   6   5  -1   -1.70    3.50
  -6  -5   1   -2.50    4.00
  -6  -5   1   -1.40    1.50
  -6  -5   1   -1.30    3.40
  -6  -5   1    1.50    2.70
   5   5  -1    8.30    3.20
   5   5  -1   11.00    3.40
  -5  -5   1   17.40    4.00
  -5  -5   1    5.40    3.80
  -5  -5   1   10.60    1.90
  -5  -5   1   14.00    3.00
   4   5  -1   10.70    3.40
   4   5  -1   18.10    3.80
  -4  -5   1   14.40    2.80
  -4  -5   1   13.50    3.30
  -4  -5   1    8.70    1.90
  -4  -5   1   10.80    2.90
   3   5  -1   55.99    3.20
   3   5  -1   64.69    5.10
   3   5  -1   58.49    4.80
  -3  -5   1   64.79    5.00
  -3  -5   1   58.39    5.20
  -3  -5   1   65.59    5.10
  -3  -5   1   64.59    3.80
   2   5  -1    6.80    1.40
   2   5  -1    7.70    2.40
  -2  -5   1    9.10    2.70
  -2  -5   1    9.20    1.90
  -2  -5   1    7.60    3.00
  -2  -5   1    3.50    2.20
   1   5  -1    3.00    1.40
   1   5  -1    0.70    2.00
   1   5  -1    0.50    1.50
  -1  -5   1    0.40    1.50
  -1  -5   1    3.00    1.70
  -1  -5   1    1.30    1.90
   0   5  -1   13.90    2.60
   0   5  -1    9.80    2.10
   0   5  -1   11.60    2.10
   0   5  -1   11.30    1.40
   0  -5   1   10.60    2.30
   0  -5   1   12.70    2.40
   0  -5   1   14.80    2.50
  -1   5  -1   29.60    3.00
  -1   5  -1   24.50    3.20
  -1   5  -1   27.10    1.60
  -1   5  -1   27.40    1.70
  -1   5  -1   33.90    2.70
   1  -5   1   31.00    3.10
   1  -5   1   26.10    2.80
   1  -5   1   33.10    3.20
  -2   5  -1    8.60    2.00
  -2   5  -1    4.90    1.00
  -2   5  -1    9.90    2.70
  -2   5  -1    6.40    1.10
  -2   5  -1    8.80    2.00
  -2   5  -1    6.90    1.40
   2  -5   1    4.90    1.60
   2  -5   1    6.00    1.80
   2  -5   1    7.10    2.20
  -3   5  -1   14.80    1.90
  -3   5  -1   14.60    3.20
  -3   5  -1   15.50    1.70
  -3   5  -1   11.60    2.50
  -3   5  -1   17.20    2.30
  -3   5  -1   14.70    1.90
   3  -5   1   15.90    2.90
   3  -5   1   16.10    3.10
   3  -5   1   17.00    1.60
   3  -5   1   17.40    2.40
   3  -5   1   17.60    2.20
  -4   5  -1    3.30    1.40
  -4   5  -1    1.70    2.30
  -4   5  -1    3.10    3.10
  -4   5  -1    3.30    1.40
   4  -5   1    3.40    1.50
   4  -5   1    4.10    1.20
   4  -5   1    5.70    2.70
   4  -5   1    3.80    1.70
  -5   5  -1   29.60    2.90
  -5   5  -1   36.60    5.70
  -5   5  -1   32.00    4.60
   5  -5   1   39.80    4.90
   5  -5   1   34.40    2.90
   5  -5   1   28.50    2.80
   5  -5   1   42.50    6.50
   5  -5   1   31.90    2.60
  -6   5  -1   27.10    4.40
  -6   5  -1   29.60    3.30
  -6   5  -1   23.30    6.40
   6  -5   1   22.50    7.10
   6  -5   1   26.10    4.90
   6  -5   1   31.40    3.70
   6  -5   1   28.90    4.20
   6  -5   1   28.00    2.20
   6  -5   1   25.90    2.00
  -7   5  -1   11.30    2.80
  -7   5  -1   12.80    6.70
   7  -5   1   11.20    4.10
   7  -5   1    5.80    2.80
   8  -5   1   -5.70    3.50
   8  -5   1    1.50    3.70
   8  -5   1   17.10    9.70
   8   4  -1   -0.50    4.50
   8   4  -1    0.80    4.50
  -8  -4   1   -1.20    4.20
  -8  -4   1    8.30    7.00
  -8  -4   1    1.70    3.10
  -8  -4   1    9.10    4.20
   7   4  -1   38.40    5.60
  -7  -4   1   33.00    4.90
  -7  -4   1   23.00    4.70
  -7  -4   1   41.80    6.80
   6   4  -1   12.20    4.30
   6   4  -1    9.40    1.90
   6   4  -1   10.50    3.50
  -6  -4   1   10.30    2.40
  -6  -4   1   13.40    4.20
  -6  -4   1   15.20    3.50
  -6  -4   1   11.80    3.40
   5   4  -1   71.69    3.60
   5   4  -1   81.79    5.70
   5   4  -1   72.49    5.50
  -5  -4   1   81.89    5.90
  -5  -4   1   77.99    3.60
  -5  -4   1   76.79    5.80
  -5  -4   1   77.59    4.60
   4   4  -1   87.99    5.50
   4   4  -1   86.69    5.40
  -4  -4   1   83.49    3.90
  -4  -4   1   89.89    5.60
  -4  -4   1   79.69    5.40
  -4  -4   1   92.59    4.70
   3   4  -1  166.68    7.40
   3   4  -1  150.08    7.40
  -3  -4   1  160.48    6.20
  -3  -4   1  160.08    7.40
  -3  -4   1  154.88    7.50
  -3  -4   1  159.08    6.80
   2   4  -1   67.99    4.40
   2   4  -1   68.19    4.20
  -2  -4   1   67.69    4.00
  -2  -4   1   71.09    4.40
  -2  -4   1   70.59    4.30
  -2  -4   1   69.69    3.60
   1   4  -1  228.58    8.80
   1   4  -1  222.28    8.90
   1   4  -1  221.38    8.10
  -1  -4   1  217.48    8.90
  -1  -4   1  223.38    8.40
  -1  -4   1  231.78    9.00
   0   4  -1   12.60    2.00
   0   4  -1    9.50    1.20
   0   4  -1   10.00    1.90
   0   4  -1    7.60    1.60
   0  -4   1   11.90    1.80
   0  -4   1   12.90    1.90
   0  -4   1   14.30    2.20
  -1   4  -1   28.40    1.50
  -1   4  -1   25.90    1.60
  -1   4  -1   28.70    3.00
  -1   4  -1   30.00    2.20
  -1   4  -1   24.60    2.40
   1  -4   1   27.00    2.40
   1  -4   1   24.50    2.40
  -2   4  -1   16.60    2.10
  -2   4  -1   18.20    1.50
  -2   4  -1   15.00    2.20
  -2   4  -1   18.50    3.00
  -2   4  -1   15.90    1.70
  -2   4  -1   16.70    1.30
   2  -4   1   17.70    2.00
   2  -4   1   19.40    2.50
   2  -4   1   15.50    1.90
   2  -4   1   15.10    1.30
  -3   4  -1    0.00    2.00
  -3   4  -1    0.60    1.50
  -3   4  -1   -1.40    0.90
  -3   4  -1   -0.20    0.80
  -3   4  -1   -0.90    0.90
  -3   4  -1    0.30    0.90
   3  -4   1   -0.50    1.00
   3  -4   1   -2.00    0.90
   3  -4   1    1.60    1.70
   3  -4   1    0.70    0.70
  -4   4  -1    0.60    0.80
  -4   4  -1   -0.20    2.20
  -4   4  -1   -1.70    1.10
  -4   4  -1   -0.40    0.90
   4  -4   1    2.00    2.80
   4  -4   1    0.80    1.00
   4  -4   1    0.90    1.00
   4  -4   1    0.90    1.00
   4  -4   1   -0.10    2.10
  -5   4  -1   -2.10    2.10
  -5   4  -1   -1.40    3.00
  -5   4  -1    2.30    1.50
   5  -4   1   -2.60    2.40
   5  -4   1    1.10    1.40
   5  -4   1   -0.70    1.00
   5  -4   1   -1.80    3.60
  -6   4  -1   21.10    5.20
  -6   4  -1   18.90    2.40
   6  -4   1   18.10    3.50
   6  -4   1   15.90    4.30
   6  -4   1   17.20    2.70
   6  -4   1   14.10    5.20
  -7   4  -1   32.30    6.80
  -7   4  -1   32.40    3.60
   7  -4   1   27.30    3.30
   7  -4   1   23.10    3.60
   7  -4   1   22.20    4.50
   7  -4   1   25.60    7.20
   7  -4   1   26.80    5.80
   8  -4   1   15.80    3.90
   8  -4   1   21.20    4.50
   8  -4   1    7.10    5.60
   9   3  -1   -2.50    4.70
   9   3  -1   -0.30    4.70
   9   3  -1   -5.50    5.40
  -9  -3   1   -8.20    7.40
  -9  -3   1   -2.80    3.20
  -9  -3   1    5.40    4.50
  -9  -3   1    3.60    5.30
   8   3  -1   16.60    4.30
   8   3  -1   10.00    3.50
  -8  -3   1   25.00    7.70
  -8  -3   1   16.70    4.30
  -8  -3   1   18.20    4.40
  -8  -3   1   21.00    4.90
  -8  -3   1   11.30    2.90
   7   3  -1   19.20    4.10
   7   3  -1   13.10    3.30
   7   3  -1   16.90    2.90
  -7  -3   1   19.90    5.20
  -7  -3   1   12.50    3.60
  -7  -3   1   14.00    2.50
  -7  -3   1    9.70    3.50
  -7  -3   1   19.00    3.70
   6   3  -1   -0.30    2.20
   6   3  -1   -0.20    1.80
   6   3  -1    2.50    2.40
  -6  -3   1    1.10    1.80
  -6  -3   1   -1.90    2.40
  -6  -3   1    4.20    2.70
  -6  -3   1    4.80    3.20
   5   3  -1    3.60    2.00
   5   3  -1    2.90    1.50
   5   3  -1    4.00    2.10
  -5  -3   1    5.30    1.50
  -5  -3   1    4.60    2.40
  -5  -3   1    7.30    2.20
   4   3  -1    2.30    1.70
   4   3  -1    4.10    1.80
  -4  -3   1    2.10    1.80
  -4  -3   1    1.00    1.50
  -4  -3   1    3.80    1.30
  -4  -3   1    1.90    0.80
   3   3  -1   19.40    2.60
   3   3  -1   21.00    2.50
  -3  -3   1   19.10    1.60
  -3  -3   1   18.10    2.60
  -3  -3   1   19.00    2.10
  -3  -3   1   19.90    2.60
   2   3  -1   77.99    4.00
   2   3  -1   72.79    4.00
  -2  -3   1   79.29    4.10
  -2  -3   1   77.39    4.10
  -2  -3   1   75.29    3.30
  -2  -3   1   73.59    3.70
   1   3  -1  480.95   16.40
   1   3  -1  498.35   16.20
  -1  -3   1  477.55   15.90
  -1  -3   1  484.45   16.30
  -1  -3   1  468.85   16.10
  -1  -3   1  481.85   16.30
   0   3  -1  554.54   18.50
   0   3  -1  519.15   17.70
   0   3  -1  569.94   18.40
   0   3  -1  576.24   18.40
   0  -3   1  590.24   18.50
   0  -3   1  546.05   18.40
  -1   3  -1  225.58    7.40
  -1   3  -1  213.78    8.50
  -1   3  -1  234.78    7.20
  -1   3  -1  229.48    7.90
   1  -3   1  230.38    8.10
   1  -3   1  216.38    8.00
  -2   3  -1  154.88    5.90
  -2   3  -1  169.78    5.40
  -2   3  -1  160.28    5.70
  -2   3  -1  148.69    5.70
  -2   3  -1  160.58    7.10
  -2   3  -1  155.28    6.40
   2  -3   1  158.98    5.90
   2  -3   1  164.78    5.90
   2  -3   1  160.68    6.40
   2  -3   1  174.98    5.60
  -3   3  -1    0.00    0.60
  -3   3  -1    0.50    1.20
  -3   3  -1    1.20    1.80
  -3   3  -1   -0.80    0.80
   3  -3   1    0.30    0.70
   3  -3   1    1.70    1.40
   3  -3   1    0.00    0.70
   3  -3   1   -0.40    0.70
  -4   3  -1   -0.60    1.40
  -4   3  -1    1.20    0.60
  -4   3  -1   -0.50    0.60
  -4   3  -1   -0.50    2.10
  -4   3  -1   -0.10    1.00
   4  -3   1   -1.60    1.60
   4  -3   1    0.30    0.90
   4  -3   1    1.60    1.50
   4  -3   1   -0.60    0.70
   4  -3   1    0.10    0.70
   4  -3   1    0.50    2.20
  -5   3  -1    9.00    1.70
  -5   3  -1    9.00    3.20
   5  -3   1    9.40    1.90
   5  -3   1    8.80    1.10
   5  -3   1   12.30    1.70
   5  -3   1    5.70    3.20
   5  -3   1    8.60    2.40
   5  -3   1    7.60    2.50
  -6   3  -1    1.40    1.60
  -6   3  -1   -5.20    3.10
   6  -3   1   -1.70    1.50
   6  -3   1   -2.10    2.90
   6  -3   1   -4.20    4.00
   6  -3   1   -1.20    2.60
   6  -3   1    4.50    2.00
  -7   3  -1    7.50    2.30
  -7   3  -1   15.30    5.20
   7  -3   1   10.80    4.30
   7  -3   1   15.80    5.80
   7  -3   1    9.20    2.90
   7  -3   1    9.80    2.10
   7  -3   1   13.40    4.00
   8  -3   1   -0.50   10.70
   8  -3   1    1.30    1.80
   8  -3   1    7.70    4.80
   8  -3   1    1.70    3.70
   9  -3   1    1.70    3.90
   9  -3   1   -1.10    4.70
   9  -3   1    3.40    1.90
   9   2  -1    3.60    3.90
   9   2  -1    1.20    5.00
   9   2  -1    0.10    3.90
  -9  -2   1   -2.40    4.00
  -9  -2   1   -2.00    4.80
  -9  -2   1   -2.40    4.50
  -9  -2   1    2.50    6.90
   8   2  -1   -2.00    3.70
   8   2  -1    3.40    3.10
   8   2  -1    3.70    3.50
  -8  -2   1    4.80    2.50
  -8  -2   1    7.40    5.00
  -8  -2   1    5.30    3.20
  -8  -2   1    2.00    3.00
  -8  -2   1    3.40    3.60
   7   2  -1   15.40    3.40
   7   2  -1   16.40    3.00
   7   2  -1   16.40    3.30
  -7  -2   1   12.10    2.90
  -7  -2   1   16.70    3.20
  -7  -2   1   17.30    2.50
  -7  -2   1   23.00    4.00
  -7  -2   1   25.10    5.00
   6   2  -1   22.30    3.00
   6   2  -1   29.30    3.60
   6   2  -1   23.80    3.10
  -6  -2   1   20.30    4.10
  -6  -2   1   26.00    3.60
  -6  -2   1   27.40    3.30
  -6  -2   1   22.10    2.70
  -6  -2   1   16.90    2.90
   5   2  -1   24.00    2.30
   5   2  -1   23.70    3.10
   5   2  -1   25.50    2.80
   5   2  -1   21.80    2.80
  -5  -2   1   21.80    2.90
  -5  -2   1   18.90    2.70
  -5  -2   1   25.60    2.20
  -5  -2   1   31.80    4.30
   4   2  -1   27.80    2.20
   4   2  -1   31.00    2.70
   4   2  -1   29.40    2.80
   4   2  -1   25.20    2.40
  -4  -2   1   27.50    2.70
  -4  -2   1   33.90    2.20
  -4  -2   1   31.90    2.80
   3   2  -1   -0.70    0.70
   3   2  -1   -0.30    0.90
   3   2  -1   -0.30    0.90
  -3  -2   1    0.50    0.50
  -3  -2   1    0.60    1.00
  -3  -2   1   -0.10    0.90
  -3  -2   1    0.30    0.70
   2   2  -1    3.20    1.10
   2   2  -1    1.60    0.90
  -2  -2   1    2.80    1.10
  -2  -2   1    2.70    0.90
  -2  -2   1    4.20    1.20
   1   2  -1  449.16   14.60
   1   2  -1  436.76   14.70
  -1  -2   1  433.76   14.70
  -1  -2   1  444.56   14.50
  -1  -2   1  438.76   14.20
  -1  -2   1  453.25   14.70
   0   2  -1  159.78    6.00
   0   2  -1  163.48    5.80
   0  -2   1  161.88    5.90
   0  -2   1  162.88    5.90
  -1   2  -1  596.94   18.50
  -1   2  -1  596.44   19.40
  -1   2  -1  580.04   18.80
  -1   2  -1  626.64   18.30
  -1   2  -1  580.14   18.90
   1  -2   1  591.34   18.90
   1  -2   1  601.84   18.90
   1  -2   1  560.54   18.60
  -2   2  -1    5.00    0.90
  -2   2  -1    7.90    0.80
  -2   2  -1    6.40    1.00
  -2   2  -1    7.40    1.30
  -2   2  -1    6.00    0.80
  -2   2  -1    5.80    1.50
   2  -2   1    5.40    0.80
   2  -2   1    5.70    1.20
   2  -2   1    7.20    0.70
   2  -2   1    7.40    0.90
   2  -2   1    4.90    0.70
  -3   2  -1   87.99    4.80
  -3   2  -1   86.89    3.10
  -3   2  -1   85.59    3.10
  -3   2  -1   75.29    3.80
  -3   2  -1   88.99    4.20
   3  -2   1   89.49    3.20
   3  -2   1   87.09    3.20
   3  -2   1   84.79    3.70
   3  -2   1   84.59    4.80
   3  -2   1   87.89    4.20
   3  -2   1   85.39    4.10
   3  -2   1   88.79    4.70
  -4   2  -1  351.46   11.30
  -4   2  -1  370.26   13.10
  -4   2  -1  361.86   12.00
  -4   2  -1  372.46   13.90
   4  -2   1  355.16   11.60
   4  -2   1  359.36   13.60
   4  -2   1  379.16   13.20
   4  -2   1  363.86   13.00
   4  -2   1  357.16   13.90
   4  -2   1  356.86   11.50
   4  -2   1  336.97   12.40
  -5   2  -1   35.20    3.40
  -5   2  -1   35.60    2.50
  -5   2  -1   33.20    4.20
   5  -2   1   37.90    5.00
   5  -2   1   34.60    1.70
   5  -2   1   36.70    3.70
   5  -2   1   34.30    2.00
   5  -2   1   34.10    3.00
   5  -2   1   41.10    3.60
   5  -2   1   34.40    5.20
  -6   2  -1    1.80    1.50
  -6   2  -1   -2.80    2.80
  -6   2  -1   -1.20    2.10
   6  -2   1   -0.80    1.00
   6  -2   1    0.10    0.70
   6  -2   1    0.00    2.30
   6  -2   1    1.50    1.80
   6  -2   1   -1.40    3.20
  -7   2  -1    4.40    2.70
  -7   2  -1   -2.10    3.80
   7  -2   1    1.00    4.90
   7  -2   1    5.60    0.90
   7  -2   1    8.10    1.50
   7  -2   1    3.30    2.70
   7  -2   1    2.10    3.30
   7  -2   1    5.60    1.20
   8  -2   1    2.10    1.20
   8  -2   1    5.50    4.00
   8  -2   1   -7.50    5.80
   8  -2   1   -1.00    3.10
  -9   2  -1    4.50    4.90
   9  -2   1    3.70    4.50
   9   1  -1   -4.00    2.90
   9   1  -1    2.40    4.50
   9   1  -1   -0.50    3.50
   9   1  -1   -7.50    4.90
  -9  -1   1    2.80    3.10
  -9  -1   1   -3.70    5.80
  -9  -1   1    4.20    4.00
  -9  -1   1   -0.20    4.50
   8   1  -1    0.90    3.80
   8   1  -1   -2.40    3.90
   8   1  -1   -2.00    2.40
   8   1  -1   -2.50    1.60
   8   1  -1    1.90    2.80
  -8  -1   1    2.70    2.40
  -8  -1   1    2.00    3.80
  -8  -1   1   -2.40    2.50
  -8  -1   1   -1.00    4.30
   7   1  -1   -4.20    1.90
   7   1  -1   -1.90    3.30
   7   1  -1    0.10    1.30
   7   1  -1   -0.40    1.80
  -7  -1   1   -4.70    3.20
  -7  -1   1   -0.10    1.60
  -7  -1   1    1.90    2.00
  -7  -1   1    2.50    2.50
   6   1  -1   11.00    1.60
   6   1  -1   14.50    2.30
   6   1  -1   13.70    2.20
   6   1  -1   11.90    2.70
  -6  -1   1   14.30    2.00
  -6  -1   1    6.00    2.30
  -6  -1   1   11.20    2.40
  -6  -1   1   11.50    2.80
  -6  -1   1   10.70    3.40
   5   1  -1    2.60    1.00
   5   1  -1    3.20    1.30
   5   1  -1    3.40    0.50
   5   1  -1    1.00    1.60
   5   1  -1    3.20    1.40
  -5  -1   1    3.00    1.40
  -5  -1   1    2.80    1.10
  -5  -1   1    3.20    1.60
  -5  -1   1    1.90    2.10
  -5  -1   1    2.60    1.70
   4   1  -1    7.40    1.70
   4   1  -1    7.80    1.50
   4   1  -1    7.10    0.60
   4   1  -1    9.00    1.50
   4   1  -1    7.50    1.10
  -4  -1   1   10.30    1.70
  -4  -1   1    6.50    1.50
  -4  -1   1    8.50    1.20
  -4  -1   1    6.60    2.10
  -4  -1   1    7.30    1.50
   3   1  -1   91.59    3.60
   3   1  -1   89.49    3.90
   3   1  -1   92.09    4.00
   3   1  -1   90.59    3.00
  -3  -1   1   90.49    3.90
  -3  -1   1   90.99    3.90
  -3  -1   1   92.89    3.60
   2   1  -1   15.70    1.20
   2   1  -1   17.00    1.50
   2   1  -1   13.60    1.30
  -2  -1   1   14.90    1.20
  -2  -1   1   13.80    1.40
  -2  -1   1   19.20    1.40
  -2  -1   1   16.00    0.70
   1   1  -1  573.94   20.70
   1   1  -1  627.84   20.10
   1   1  -1  634.34   20.00
  -1  -1   1  670.73   19.80
  -1  -1   1  645.84   19.90
  -1  -1   1  637.94   20.10
   0   1  -1  221.78    7.30
   0   1  -1  236.08    7.00
   0  -1   1  228.38    7.40
   0  -1   1  217.48    7.30
   0  -1   1  207.28    7.50
  -1   1  -1   15.50    0.90
  -1   1  -1   14.70    0.90
  -1   1  -1   14.20    0.90
  -1   1  -1   16.30    0.60
  -1   1  -1   15.30    1.00
   1  -1   1   15.60    1.10
   1  -1   1   17.50    1.00
   1  -1   1   15.50    0.90
   1  -1   1   16.50    0.60
  -2   1  -1  364.46   11.20
  -2   1  -1  349.47   11.20
  -2   1  -1  350.76   12.10
  -2   1  -1  353.76   11.80
  -2   1  -1  356.16   11.70
  -2   1  -1  334.77   11.50
   2  -1   1  357.66   11.80
   2  -1   1  372.26   11.20
   2  -1   1  355.86   11.70
   2  -1   1  344.27   11.20
   2  -1   1  343.57   11.50
   2  -1   1  341.07   11.20
  -3   1  -1  320.17   10.30
  -3   1  -1  301.77   10.70
  -3   1  -1  326.57   11.30
  -3   1  -1  330.57   11.70
   3  -1   1  329.07   11.30
   3  -1   1  323.57   11.80
   3  -1   1  318.77   10.30
   3  -1   1  317.97   10.40
   3  -1   1  318.57   11.50
   3  -1   1  306.77   10.90
   3  -1   1  332.97   11.20
  -4   1  -1  159.78    5.90
  -4   1  -1  159.58    7.20
  -4   1  -1  156.78    5.30
  -4   1  -1  157.68    5.40
  -4   1  -1  159.38    6.70
   4  -1   1  152.18    5.80
   4  -1   1  156.68    7.40
   4  -1   1  161.48    6.70
   4  -1   1  159.28    5.60
   4  -1   1  159.48    5.50
   4  -1   1  154.58    6.40
   4  -1   1  163.18    7.00
   4  -1   1  158.38    6.60
  -5   1  -1    4.40    1.30
  -5   1  -1    6.00    0.80
  -5   1  -1    7.30    2.30
  -5   1  -1    6.60    2.10
  -5   1  -1    7.50    1.00
   5  -1   1    6.50    1.00
   5  -1   1    6.80    2.00
   5  -1   1    5.80    1.70
   5  -1   1    4.00    2.40
   5  -1   1    5.80    1.00
   5  -1   1    7.80    1.20
   5  -1   1    6.10    2.10
  -6   1  -1   -1.60    2.50
  -6   1  -1    0.10    0.70
  -6   1  -1    1.50    0.70
  -6   1  -1    2.00    2.00
   6  -1   1   -4.40    2.90
   6  -1   1    2.90    1.20
   6  -1   1    2.00    1.10
   6  -1   1    2.30    3.10
   6  -1   1   -0.10    2.10
   6  -1   1    1.20    0.80
   6  -1   1   -1.70    1.60
  -7   1  -1    6.10    2.90
   7  -1   1    3.10    1.60
   7  -1   1    1.10    3.10
   7  -1   1   -0.40    2.60
   7  -1   1    3.20    1.40
   7  -1   1    3.00    1.00
   7  -1   1    1.00    3.90
  -8   1  -1   20.10    4.30
   8  -1   1   17.00    2.10
   8  -1   1    7.80    3.50
   8  -1   1   11.00    4.10
   8  -1   1    8.80    5.60
  -9   1  -1    4.20    4.40
   9  -1   1   -3.60    5.00
   9  -1   1    3.10    2.30
   9  -1   1   -1.70    3.10
   9  -1   1    1.90    4.30
   9   0  -1    2.20    2.00
   9   0  -1    8.10    5.10
   9   0  -1    2.30    2.90
   9   0  -1    1.80    2.50
   9   0  -1    1.90    5.50
  -9   0   1   -2.50    5.90
  -9   0   1   12.20    5.10
   8   0  -1   11.70    1.90
   8   0  -1    5.70    3.70
   8   0  -1    8.10    2.20
   8   0  -1   10.20    2.50
   8   0  -1   13.40    4.70
   8   0  -1   14.60    5.20
   8   0  -1   11.10    1.40
  -8   0   1    7.90    1.90
  -8   0   1    6.60    3.80
  -8   0   1   13.90    5.20
   7   0  -1   28.60    2.00
   7   0  -1   21.10    4.10
   7   0  -1   27.50    4.00
   7   0  -1   30.80    5.00
   7   0  -1   25.10    2.20
   7   0  -1   33.90    3.40
   7   0  -1   24.30    3.00
   7   0  -1   28.30    2.40
  -7   0   1   28.50    2.60
  -7   0   1   27.70    4.10
  -7   0   1   29.20    2.50
  -7   0   1   25.60    4.90
   6   0  -1   12.40    3.20
   6   0  -1   10.70    1.90
   6   0  -1   11.70    1.40
   6   0  -1   10.80    1.50
   6   0  -1   12.90    1.80
  -6   0   1    8.70    2.50
  -6   0   1   11.60    3.40
  -6   0   1   12.90    2.40
  -6   0   1   11.70    1.60
   5   0  -1   -2.30    1.80
   5   0  -1   -0.50    0.90
   5   0  -1    2.30    0.80
   5   0  -1    0.30    1.00
  -5   0   1   -0.10    0.90
  -5   0   1    2.80    1.60
  -5   0   1    0.90    1.00
  -5   0   1   -0.60    1.10
  -5   0   1    0.80    1.90
   4   0  -1   73.59    3.10
   4   0  -1   73.09    3.30
   4   0  -1   73.19    4.30
   4   0  -1   68.69    3.30
  -4   0   1   80.29    3.70
  -4   0   1   76.59    4.00
  -4   0   1   71.29    3.30
  -4   0   1   73.59    4.70
  -4   0   1   77.09    3.20
  -4   0   1   73.69    3.60
   3   0  -1   42.60    2.00
   3   0  -1   40.00    2.70
   3   0  -1   38.70    2.00
   3   0  -1   42.70    2.10
  -3   0   1   41.40    2.10
  -3   0   1   40.10    1.90
  -3   0   1   41.10    2.10
  -3   0   1   42.30    3.10
  -3   0   1   43.90    2.30
  -3   0   1   41.30    2.40
   2   0  -1  453.45   14.20
   2   0  -1  454.95   14.60
   2   0  -1  456.05   14.60
  -2   0   1  490.05   14.90
  -2   0   1  459.45   15.40
  -2   0   1  451.35   14.50
  -2   0   1  463.05   14.60
  -2   0   1  452.35   14.90
  -2   0   1  456.65   14.60
   1   0  -1 2551.04   76.49
   1   0  -1 2676.73   77.69
   1   0  -1 2445.86   75.99
   1   0  -1 2337.87   74.89
   1   0  -1 2420.96   74.99
  -1   0   1 2303.67   75.79
  -1   0   1 2617.84   75.99
  -1   0   1 2311.57   75.19
  -1   0   1 2366.86   75.99
  -1   0   1 2453.95   75.89
  -1   0   1 2339.17   75.69
  -1   0  -1    3.70    0.50
  -1   0  -1    3.60    0.30
  -1   0  -1    3.90    0.50
  -1   0  -1    4.40    0.60
   1   0   1    4.20    0.50
   1   0   1    4.70    0.30
  -2   0  -1  514.95   16.80
  -2   0  -1  496.85   16.60
  -2   0  -1  521.55   16.40
  -2   0  -1  515.35   16.90
  -2   0  -1  526.55   16.30
  -2   0  -1  516.05   16.70
   2   0   1  515.05   15.90
   2   0   1  511.95   16.70
   2   0   1  522.25   16.40
   2   0   1  525.05   16.40
   2   0   1  519.75   17.00
  -3   0  -1  187.48    7.10
  -3   0  -1  194.38    6.60
  -3   0  -1  191.28    7.30
  -3   0  -1  191.58    6.60
  -3   0  -1  187.48    7.50
   3   0   1  186.78    7.10
   3   0   1  191.58    6.10
   3   0   1  191.78    7.60
   3   0   1  195.68    6.70
   3   0   1  196.88    7.20
   3   0   1  190.98    6.60
  -4   0  -1  246.08    9.40
  -4   0  -1  238.98    9.20
  -4   0  -1  245.08    9.80
  -4   0  -1  241.88    8.30
  -4   0  -1  241.38    8.40
   4   0   1  236.28    8.40
   4   0   1  247.78    9.20
   4   0   1  243.38    8.50
   4   0   1  244.38    9.80
   4   0   1  241.78    7.70
   4   0   1  237.88    9.20
  -5   0  -1   82.19    4.90
  -5   0  -1   77.49    3.50
  -5   0  -1   78.49    5.20
  -5   0  -1   80.89    3.50
  -5   0  -1   75.59    4.50
   5   0   1   81.99    4.60
   5   0   1   71.39    4.40
   5   0   1   75.49    5.30
   5   0   1   78.59    3.70
   5   0   1   77.39    3.70
  -6   0  -1    0.60    1.30
  -6   0  -1    1.00    2.30
  -6   0  -1    3.20    2.20
  -6   0  -1    2.00    2.10
   6   0   1    4.60    2.30
   6   0   1    3.20    2.30
   6   0   1    1.70    1.30
   6   0   1    5.70    3.10
   6   0   1    1.50    1.40
   6   0   1    3.40    2.10
  -7   0  -1    4.60    1.50
  -7   0  -1    0.40    2.70
  -7   0  -1   -1.30    1.50
  -7   0  -1   -1.10    2.90
   7   0   1    1.40    1.50
   7   0   1   -1.30    1.60
   7   0   1    0.60    1.60
   7   0   1    2.70    2.80
   7   0   1    0.00    2.50
   7   0   1    0.60    3.90
  -8   0  -1   19.60    2.70
  -8   0  -1   20.80    2.60
  -8   0  -1   24.20    4.70
   8   0   1   23.10    4.60
   8   0   1   17.40    4.10
   8   0   1   17.80    2.60
   8   0   1   18.50    2.70
   8   0   1   21.70    2.90
  -9   0  -1    2.00    2.20
  -9   0  -1    5.60    5.00
  -9   0  -1   -1.10    1.50
   9   0   1    4.00    5.30
   9   0   1    0.10    2.50
   9   0   1    2.30    2.50
   9   0   1    0.10    2.50
   9   0   1    0.60    4.20
   9  -1  -1    3.20    1.90
   9  -1  -1    1.70    2.10
   9  -1  -1    1.70    1.50
   9  -1  -1    0.10    1.80
   9  -1  -1    9.70    6.80
   9  -1  -1   10.20    5.00
   9  -1  -1   -0.20    1.90
  -9   1   1   -1.10    4.60
   8  -1  -1    8.50    1.80
   8  -1  -1    9.00    2.00
   8  -1  -1    5.20    4.60
   8  -1  -1   11.20    3.80
   8  -1  -1    5.60    4.60
   8  -1  -1   11.50    2.00
   8  -1  -1    7.40    1.90
  -8   1   1    9.90    4.00
  -8   1   1    3.40    7.40
   7  -1  -1    6.70    1.50
   7  -1  -1    4.10    3.30
   7  -1  -1    9.30    1.70
   7  -1  -1    5.10    1.70
   7  -1  -1    2.80    2.80
   7  -1  -1   12.20    4.20
  -7   1   1    4.30    2.20
  -7   1   1    2.10    3.70
  -7   1   1   10.00    3.10
   6  -1  -1   71.89    3.40
   6  -1  -1   77.79    3.70
   6  -1  -1   75.69    3.70
   6  -1  -1   81.19    5.60
   6  -1  -1   78.79    6.80
   6  -1  -1   74.49    3.30
   6  -1  -1   74.89    5.20
   6  -1  -1   69.49    5.90
  -6   1   1   75.99    5.10
  -6   1   1   74.39    4.40
  -6   1   1   81.69    6.40
   5  -1  -1   13.40    1.30
   5  -1  -1   15.00    1.70
   5  -1  -1   16.30    3.00
   5  -1  -1   12.70    1.50
   5  -1  -1   15.70    2.80
  -5   1   1   17.00    2.30
  -5   1   1   17.00    2.70
  -5   1   1   16.80    3.20
   4  -1  -1    7.60    1.80
   4  -1  -1    9.40    1.20
   4  -1  -1    6.40    1.90
   4  -1  -1    8.50    0.90
   4  -1  -1    6.90    0.90
   4  -1  -1    4.90    2.10
   4  -1  -1    7.80    1.80
  -4   1   1    6.90    1.40
  -4   1   1    9.20    1.80
  -4   1   1    8.40    2.20
   3  -1  -1   14.90    2.30
   3  -1  -1   11.70    1.50
   3  -1  -1   14.00    2.10
   3  -1  -1   12.00    0.80
   3  -1  -1   10.60    0.80
   3  -1  -1   12.40    1.80
   3  -1  -1   13.20    1.30
  -3   1   1   13.00    2.00
  -3   1   1   16.20    1.70
  -3   1   1   11.60    1.60
   2  -1  -1  543.95   17.20
   2  -1  -1  550.14   17.60
   2  -1  -1  508.45   16.60
   2  -1  -1  544.65   17.40
   2  -1  -1  543.35   17.90
   2  -1  -1  547.85   17.90
   2  -1  -1  526.95   16.50
  -2   1   1  541.35   17.40
  -2   1   1  513.55   17.30
  -2   1   1  545.15   17.90
   1  -1  -1  103.69    4.00
   1  -1  -1  102.19    4.20
   1  -1  -1  105.39    4.10
   1  -1  -1  117.79    4.00
   1  -1  -1   95.39    3.50
   1  -1  -1  107.19    3.50
  -1   1   1  108.89    3.50
  -1   1   1  107.69    3.70
  -1   1   1  112.59    3.70
   0  -1  -1 1484.05   49.40
   0  -1  -1 1361.66   49.50
   0  -1  -1 1740.43   49.70
   0   1   1 1715.73   49.70
   0   1   1 1503.05   49.40
   0   1   1 1615.64   50.19
   0   1   1 1820.52   50.09
   0   1   1 1592.14   50.29
  -1  -1  -1    1.20    0.50
  -1  -1  -1    1.40    0.40
  -1  -1  -1    1.40    0.50
  -1  -1  -1    0.70    0.70
   1   1   1    1.10    0.50
   1   1   1    1.00    0.40
   1   1   1    0.60    0.50
   1   1   1    1.20    0.50
  -2  -1  -1 9978.00  302.97
  -2  -1  -1 9564.84  302.17
  -2  -1  -1 9933.61  304.07
   2   1   1 9728.73  303.57
   2   1   1 9962.70  303.77
   2   1   1 9276.97  302.87
   2   1   1 9999.00  301.77
  -3  -1  -1  298.57    9.30
  -3  -1  -1  288.37   10.50
  -3  -1  -1  296.57   10.10
  -3  -1  -1  254.37   10.30
  -3  -1  -1  299.37   10.00
   3   1   1  305.47   10.20
   3   1   1  280.67   10.30
   3   1   1  304.17   10.20
   3   1   1  302.47    9.60
  -4  -1  -1 1160.48   35.80
  -4  -1  -1 1078.59   34.50
  -4  -1  -1 1138.39   35.50
  -4  -1  -1 1121.99   36.50
   4   1   1 1051.29   35.90
   4   1   1 1108.49   34.90
   4   1   1 1123.59   35.50
   4   1   1 1126.59   35.60
   4   1   1 1143.19   35.60
  -5  -1  -1   26.00    1.50
  -5  -1  -1   23.30    3.50
  -5  -1  -1   26.60    2.90
  -5  -1  -1   29.10    2.50
   5   1   1   27.00    2.70
   5   1   1   28.20    1.90
   5   1   1   31.40    2.70
   5   1   1   25.10    2.60
   5   1   1   23.30    3.00
  -6  -1  -1   22.80    3.90
  -6  -1  -1   20.90    3.20
  -6  -1  -1   16.10    2.90
  -6  -1  -1   21.60    2.60
   6   1   1   10.60    2.70
   6   1   1   15.50    1.90
   6   1   1   22.20    2.80
   6   1   1   21.80    2.70
  -7  -1  -1    2.40    2.90
  -7  -1  -1   -3.60    2.20
  -7  -1  -1   -0.10    3.10
  -7  -1  -1   -2.20    1.80
   7   1   1   -1.10    2.30
   7   1   1   -1.80    1.90
   7   1   1   -0.30    1.30
   7   1   1   -1.00    1.90
  -8  -1  -1    6.20    2.30
  -8  -1  -1    4.10    2.60
  -8  -1  -1   10.00    3.50
  -8  -1  -1   12.40    4.70
   8   1   1    4.30    2.60
   8   1   1    3.00    1.80
   8   1   1    2.80    3.60
   8   1   1    5.50    2.50
  -9  -1  -1    4.80    5.60
  -9  -1  -1    6.60    4.60
  -9  -1  -1    4.80    2.90
   9   1   1    3.70    2.10
   9   1   1   -1.60    3.90
   9   1   1    7.20    3.20
   9   1   1   -1.80    3.10
   9   1   1    3.00    5.50
   9  -2  -1    4.90    4.80
   9  -2  -1    2.20    2.70
   9  -2  -1    2.50    2.00
  -9   2   1   -3.90    4.60
   8  -2  -1    4.80    4.60
   8  -2  -1    3.30    1.70
   8  -2  -1   -0.90    2.30
   8  -2  -1    2.20    3.70
   8  -2  -1   -1.30    5.50
  -8   2   1   -2.80    2.30
   7  -2  -1    2.20    1.90
   7  -2  -1    1.10    4.00
   7  -2  -1    1.90    1.50
   7  -2  -1    4.40    3.50
   7  -2  -1   -2.90    2.70
   7  -2  -1    1.30    4.70
  -7   2   1    1.40    1.90
  -7   2   1   -1.50    2.90
   6  -2  -1   14.90    2.00
   6  -2  -1   11.00    2.70
   6  -2  -1   11.30    4.00
   6  -2  -1   10.80    3.40
   6  -2  -1    9.40    3.00
   6  -2  -1   12.40    2.00
   6  -2  -1   13.70    3.90
  -6   2   1   14.20    2.90
  -6   2   1   11.20    2.10
   5  -2  -1   21.30    3.30
   5  -2  -1   20.00    2.30
   5  -2  -1   25.40    4.20
   5  -2  -1   20.30    2.90
   5  -2  -1   21.30    2.20
   5  -2  -1   27.90    3.50
  -5   2   1   22.70    2.50
  -5   2   1   24.00    4.00
  -5   2   1   24.30    3.10
   4  -2  -1  238.68    9.10
   4  -2  -1  230.18    9.00
   4  -2  -1  223.38    9.80
   4  -2  -1  225.48    8.20
   4  -2  -1  214.88    9.60
   4  -2  -1  228.48    8.20
   4  -2  -1  202.98    8.40
  -4   2   1  221.28    8.80
  -4   2   1  226.98    9.70
  -4   2   1  228.98    8.20
   3  -2  -1   11.20    1.40
   3  -2  -1   11.60    2.30
   3  -2  -1   13.20    1.90
   3  -2  -1   12.80    2.20
   3  -2  -1   14.70    2.00
  -3   2   1   15.00    1.70
  -3   2   1   11.30    1.90
   2  -2  -1    1.60    0.90
   2  -2  -1    2.70    1.20
   2  -2  -1    1.40    1.20
   2  -2  -1    1.60    0.90
   2  -2  -1    1.30    0.40
   2  -2  -1    0.70    0.70
   2  -2  -1    1.50    0.40
  -2   2   1    1.30    1.20
  -2   2   1    0.90    1.00
  -2   2   1    2.50    0.70
   1  -2  -1 5485.15  173.98
   1  -2  -1 5369.36  172.68
   1  -2  -1 5452.85  172.88
   1  -2  -1 5548.15  173.58
  -1   2   1 5600.14  172.68
  -1   2   1 5708.33  176.18
  -1   2   1 5917.91  172.78
  -1   2   1 5543.05  173.88
   0  -2  -1  774.32   24.10
   0  -2  -1  784.52   24.10
   0  -2  -1  775.72   24.10
   0  -2  -1  779.02   24.00
   0   2   1  758.52   24.00
   0   2   1  709.73   25.10
   0   2   1  760.62   24.00
   0   2   1  745.33   23.40
  -1  -2  -1  265.27    8.60
  -1  -2  -1  280.77    9.30
  -1  -2  -1  260.87    8.90
  -1  -2  -1  271.57    9.30
   1   2   1  268.47    8.90
   1   2   1  264.07    9.20
   1   2   1  270.87    9.30
  -2  -2  -1    5.00    1.20
  -2  -2  -1    4.80    1.10
  -2  -2  -1    5.10    0.80
   2   2   1    6.10    1.30
   2   2   1    6.20    1.20
   2   2   1    5.90    0.90
  -3  -2  -1  171.08    6.10
  -3  -2  -1  176.28    6.20
  -3  -2  -1  175.38    6.90
  -3  -2  -1  178.48    6.90
  -3  -2  -1  177.18    7.00
   3   2   1  168.18    6.90
   3   2   1  180.28    6.90
   3   2   1  181.68    6.20
  -4  -2  -1 1178.28   37.50
  -4  -2  -1 1191.38   37.10
  -4  -2  -1 1152.88   35.90
  -4  -2  -1 1160.48   37.00
   4   2   1 1039.70   37.00
   4   2   1 1187.58   37.10
   4   2   1 1162.08   37.10
   4   2   1 1147.89   36.10
  -5  -2  -1   50.69    2.40
  -5  -2  -1   48.20    3.50
  -5  -2  -1   53.19    4.40
  -5  -2  -1   53.49    3.70
   5   2   1   56.99    3.80
   5   2   1   50.99    2.60
   5   2   1   45.00    3.70
   5   2   1   50.79    3.70
  -6  -2  -1   90.39    6.60
  -6  -2  -1   94.39    3.80
  -6  -2  -1   88.69    5.40
  -6  -2  -1   96.99    5.20
  -6  -2  -1   93.09    5.40
   6   2   1   91.89    5.40
   6   2   1   83.59    5.80
   6   2   1  101.79    5.50
   6   2   1   95.59    4.00
  -7  -2  -1    1.40    2.10
  -7  -2  -1    4.40    2.50
  -7  -2  -1    1.00    2.80
  -7  -2  -1    6.60    3.50
  -7  -2  -1    3.60    1.10
   7   2   1    0.00    2.30
   7   2   1    3.90    2.50
   7   2   1    2.20    1.40
   7   2   1    0.80    2.70
  -8  -2  -1    5.90    3.70
  -8  -2  -1    4.10    4.90
  -8  -2  -1    6.80    2.90
  -8  -2  -1    6.50    3.10
   8   2   1    8.20    1.80
   8   2   1    3.90    3.70
   8   2   1    5.00    3.10
   8   2   1    5.20    3.00
  -9  -2  -1    5.10    6.40
  -9  -2  -1    1.50    3.50
  -9  -2  -1   10.50    4.90
  -9  -2  -1    5.70    3.90
   9   2   1    6.00    3.70
   9   2   1    9.40    4.40
   9  -3  -1    0.40    2.40
   9  -3  -1   -8.90    4.90
   9  -3  -1    4.40    3.50
  -9   3   1   -1.40    4.00
   8  -3  -1   -0.70    2.80
   8  -3  -1    3.10    5.40
   8  -3  -1   -4.50    6.40
   8  -3  -1    6.40    3.80
   8  -3  -1    2.90    2.20
  -8   3   1    2.10    2.50
   7  -3  -1   -3.80    3.80
   7  -3  -1   -2.90    2.20
   7  -3  -1    9.30    5.30
   7  -3  -1   -0.60    1.80
   7  -3  -1   -6.20    2.60
   7  -3  -1    7.70    4.30
   7  -3  -1   -0.90    4.60
  -7   3   1    2.00    2.10
   6  -3  -1    7.30    4.40
   6  -3  -1    4.20    3.20
   6  -3  -1    8.60    2.50
   6  -3  -1    6.70    4.00
   6  -3  -1    6.80    2.20
   6  -3  -1    7.80    3.20
   6  -3  -1    7.70    1.90
  -6   3   1    2.10    1.80
   5  -3  -1    0.70    2.20
   5  -3  -1    1.10    3.10
   5  -3  -1    1.70    1.60
   5  -3  -1    2.00    1.60
   5  -3  -1    4.20    3.10
   5  -3  -1    3.20    2.20
   5  -3  -1    2.20    1.60
  -5   3   1    1.30    1.50
   4  -3  -1   -4.30    2.20
   4  -3  -1    4.10    2.00
   4  -3  -1    0.80    2.20
   4  -3  -1    1.30    1.30
   4  -3  -1    2.90    1.80
   4  -3  -1    0.60    1.20
  -4   3   1   -0.80    1.50
  -4   3   1    1.90    1.20
   3  -3  -1   48.10    2.60
   3  -3  -1   48.30    4.10
   3  -3  -1   47.70    2.00
   3  -3  -1   52.09    3.50
   3  -3  -1   48.80    4.00
   3  -3  -1   49.30    2.00
   3  -3  -1   49.60    3.00
   3  -3  -1   49.30    3.40
  -3   3   1   48.30    3.40
  -3   3   1   50.39    4.00
  -3   3   1   51.79    2.70
   2  -3  -1    5.00    1.70
   2  -3  -1    5.00    0.70
   2  -3  -1    6.80    1.70
   2  -3  -1    4.40    1.30
   2  -3  -1    4.90    0.90
   2  -3  -1    5.00    0.90
  -2   3   1    5.10    1.50
  -2   3   1    3.90    1.50
  -2   3   1    5.40    1.00
  -2   3   1    6.50    0.80
   1  -3  -1    5.50    1.00
   1  -3  -1    6.00    1.30
   1  -3  -1    5.30    1.00
   1  -3  -1    5.30    1.40
  -1   3   1    6.80    1.10
  -1   3   1    6.90    1.10
  -1   3   1    8.00    0.90
  -1   3   1    7.70    1.30
  -1   3   1    6.30    1.50
   0  -3  -1    2.00    0.90
   0  -3  -1    1.20    0.80
   0  -3  -1    2.70    0.90
   0  -3  -1    1.10    0.80
   0   3   1    1.30    0.80
   0   3   1    2.70    1.10
   0   3   1    2.50    0.90
   0   3   1    1.30    0.90
   0   3   1    1.40    0.30
  -1  -3  -1  116.69    4.90
  -1  -3  -1  110.89    4.10
  -1  -3  -1  115.99    4.60
  -1  -3  -1  111.99    4.90
   1   3   1  113.49    4.80
   1   3   1  109.79    4.90
   1   3   1  110.89    4.50
  -2  -3  -1    0.90    1.10
  -2  -3  -1   -0.30    0.70
  -2  -3  -1   -0.60    1.00
   2   3   1    0.80    1.10
   2   3   1    1.40    1.10
   2   3   1    0.80    0.80
  -3  -3  -1   11.90    1.40
  -3  -3  -1    9.90    1.80
  -3  -3  -1   11.80    2.00
   3   3   1   14.60    2.30
   3   3   1   11.50    1.50
   3   3   1   12.30    2.00
  -4  -3  -1   18.80    1.70
  -4  -3  -1   16.10    2.30
  -4  -3  -1   18.70    2.70
  -4  -3  -1   22.10    2.80
  -4  -3  -1   17.50    1.80
   4   3   1   20.50    2.80
   4   3   1   17.40    1.80
   4   3   1   19.90    2.80
  -5  -3  -1    0.70    1.70
  -5  -3  -1    1.70    2.00
  -5  -3  -1   -0.40    2.00
  -5  -3  -1    1.10    1.00
  -5  -3  -1    1.20    1.00
   5   3   1   -0.20    1.90
   5   3   1   -1.30    1.60
   5   3   1    1.80    1.90
   5   3   1    1.00    1.00
  -6  -3  -1    9.90    1.50
  -6  -3  -1   11.80    3.40
  -6  -3  -1    6.10    2.50
  -6  -3  -1   11.80    3.00
   6   3   1    9.00    2.60
   6   3   1    8.10    1.50
   6   3   1    9.30    2.70
   6   3   1    5.20    2.50
  -7  -3  -1    5.60    3.60
  -7  -3  -1    2.80    1.40
  -7  -3  -1    3.40    2.90
  -7  -3  -1    1.80    2.60
   7   3   1   -1.80    3.00
   7   3   1    2.70    1.50
   7   3   1   -0.20    2.70
   7   3   1    2.60    2.80
  -8  -3  -1    7.90    3.90
  -8  -3  -1    2.80    3.20
  -8  -3  -1   16.50    5.30
  -8  -3  -1    1.70    3.60
  -8  -3  -1    5.90    1.70
   8   3   1    7.30    1.70
   8   3   1    1.40    3.50
   8   3   1    5.90    3.50
  -9  -3  -1    1.90    6.80
  -9  -3  -1    5.90    4.10
  -9  -3  -1   -2.50    4.90
  -9  -3  -1   -4.70    4.50
   9   3   1   -0.70    4.20
   9   3   1   -9.60    3.90
   9   3   1    0.00    1.60
   9   3   1    1.50    4.70
   8  -4  -1    8.00    4.20
   8  -4  -1    4.20    3.10
   8  -4  -1    2.10    3.60
  -8   4   1    4.00    2.90
   7  -4  -1   -3.20    2.80
   7  -4  -1    0.60    4.10
   7  -4  -1   -2.40    2.70
   7  -4  -1    9.80    5.10
   7  -4  -1   -4.40    5.50
   7  -4  -1    9.50    6.70
   7  -4  -1   -2.90    2.30
  -7   4   1    2.00    2.20
   6  -4  -1   47.20    4.20
   6  -4  -1   46.40    5.60
   6  -4  -1   42.50    4.60
   6  -4  -1   55.49    7.40
   6  -4  -1   45.50    4.30
   6  -4  -1   57.79    8.40
   6  -4  -1   39.10    5.20
  -6   4   1   41.10    3.70
   5  -4  -1   19.00    3.60
   5  -4  -1   15.00    3.40
   5  -4  -1   17.30    2.40
   5  -4  -1   16.10    4.30
   5  -4  -1   23.80    3.20
   5  -4  -1   22.90    4.90
  -5   4   1   21.70    2.70
  -5   4   1   14.60    3.10
   4  -4  -1    1.20    2.90
   4  -4  -1    2.30    2.30
   4  -4  -1    0.50    1.10
   4  -4  -1    1.70    0.70
   4  -4  -1    2.40    2.80
   4  -4  -1    1.30    1.80
   4  -4  -1   -1.80    1.90
  -4   4   1   -0.20    1.20
  -4   4   1   -0.70    1.80
  -4   4   1    0.70    2.40
   3  -4  -1   51.59    4.50
   3  -4  -1   51.09    2.60
   3  -4  -1   50.69    2.50
   3  -4  -1   52.19    3.80
   3  -4  -1   51.19    2.50
   3  -4  -1   66.29    4.90
   3  -4  -1   47.80    3.50
  -3   4   1   58.09    4.70
  -3   4   1   46.80    3.80
  -3   4   1   49.00    2.30
  -3   4   1   51.19    2.70
  -3   4   1   48.80    2.10
   2  -4  -1  410.86   15.10
   2  -4  -1  415.96   12.90
   2  -4  -1  408.16   13.70
   2  -4  -1  409.66   14.40
   2  -4  -1  404.06   13.80
  -2   4   1  403.86   13.50
  -2   4   1  407.86   14.60
  -2   4   1  416.76   15.30
  -2   4   1  400.56   13.60
  -2   4   1  426.26   13.50
   1  -4  -1 1107.49   35.40
   1  -4  -1 1094.09   34.70
   1  -4  -1 1073.29   34.70
   1  -4  -1 1069.29   34.90
  -1   4   1 1100.09   35.60
  -1   4   1 1074.89   34.50
  -1   4   1 1106.69   34.00
   0  -4  -1   -1.30    1.00
   0  -4  -1    0.70    1.00
   0  -4  -1    2.00    1.10
   0  -4  -1   -0.20    1.00
   0   4   1    1.90    1.20
   0   4   1   -1.40    0.90
   0   4   1   -0.20    1.00
  -1  -4  -1    9.00    1.50
  -1  -4  -1   13.30    2.10
  -1  -4  -1   10.50    1.90
   1   4   1   10.50    1.40
   1   4   1   12.80    2.00
   1   4   1    9.80    1.60
   1   4   1    9.20    1.80
  -2  -4  -1   45.10    2.80
  -2  -4  -1   47.70    3.50
  -2  -4  -1   49.20    3.50
   2   4   1   46.40    3.50
   2   4   1   47.30    3.60
   2   4   1   45.20    2.90
  -3  -4  -1    2.30    1.70
  -3  -4  -1    5.10    1.30
  -3  -4  -1    5.20    1.80
   3   4   1    3.50    1.80
   3   4   1    3.90    1.80
   3   4   1    2.90    1.30
  -4  -4  -1    3.20    1.20
  -4  -4  -1    1.70    1.30
  -4  -4  -1    3.20    2.00
   4   4   1    2.70    2.00
   4   4   1    5.10    2.00
   4   4   1    4.10    1.30
  -5  -4  -1    4.20    2.30
  -5  -4  -1    3.30    1.30
  -5  -4  -1    4.00    1.50
  -5  -4  -1    0.50    2.60
  -5  -4  -1   -1.60    2.30
   5   4   1    3.70    1.50
   5   4   1    2.20    2.30
   5   4   1    5.70    2.70
  -6  -4  -1    3.80    1.60
  -6  -4  -1    5.80    2.90
  -6  -4  -1    6.20    3.80
  -6  -4  -1    5.60    1.80
  -6  -4  -1    5.80    2.90
   6   4   1    4.40    2.60
   6   4   1    5.10    1.60
   6   4   1    1.70    2.70
   6   4   1    1.50    2.60
  -7  -4  -1   -4.30    3.00
  -7  -4  -1    0.70    3.80
  -7  -4  -1    2.30    3.40
  -7  -4  -1    0.90    1.60
   7   4   1   -2.70    3.20
   7   4   1   -1.20    2.90
   7   4   1   -1.30    3.10
   7   4   1    1.60    1.70
  -8  -4  -1    4.50    3.70
  -8  -4  -1    2.80    2.10
  -8  -4  -1    3.10    4.40
  -8  -4  -1   -0.10    5.80
   8   4   1    3.70    2.00
   8   4   1    3.30    4.00
   8   4   1   -2.60    4.00
   8   4   1    1.10    4.20
  -9  -4  -1    6.60    4.90
  -9  -4  -1    7.00    2.50
  -9  -4  -1   16.20    6.10
  -9  -4  -1   14.90    8.10
   9   4   1   10.10    5.40
   9   4   1    8.00    5.20
   9   4   1   11.20    5.00
   8  -5  -1   -7.80    3.30
   8  -5  -1   10.00    4.20
   8  -5  -1    2.30    4.30
  -8   5   1    4.00    3.40
   7  -5  -1    2.10    3.40
   7  -5  -1   -1.60    3.00
   7  -5  -1  -10.40    5.10
   7  -5  -1   -4.80    3.60
  -7   5   1   -0.40    2.40
   6  -5  -1   77.59    4.90
   6  -5  -1   70.09    9.00
   6  -5  -1   65.29    5.70
   6  -5  -1   67.29    5.80
   6  -5  -1   67.19    7.20
   6  -5  -1   86.29   10.10
  -6   5   1   69.89    4.70
   5  -5  -1   28.90    2.80
   5  -5  -1   26.50    3.80
   5  -5  -1   25.20    4.40
   5  -5  -1   25.30    5.10
   5  -5  -1   27.80    5.60
  -5   5   1   29.00    3.10
  -5   5   1   26.10    4.50
   4  -5  -1  159.18    9.50
   4  -5  -1  167.48    8.20
   4  -5  -1  158.68    5.90
   4  -5  -1  172.08    9.40
   4  -5  -1  162.08    7.70
   4  -5  -1  164.28    6.10
   4  -5  -1  154.78    6.10
  -4   5   1  152.78    8.20
  -4   5   1  185.78    9.60
  -4   5   1  156.98    6.60
   3  -5  -1   68.99    3.50
   3  -5  -1   72.29    5.80
   3  -5  -1   62.69    4.30
   3  -5  -1   72.99    4.90
   3  -5  -1   65.49    3.60
  -3   5   1   62.99    3.40
  -3   5   1   77.49    5.70
  -3   5   1   66.09    3.00
  -3   5   1   63.59    4.60
  -3   5   1   73.79    4.90
   2  -5  -1   19.70    2.40
   2  -5  -1   17.90    2.40
   2  -5  -1   21.40    3.40
   2  -5  -1   20.90    2.70
  -2   5   1   22.40    2.90
  -2   5   1   24.20    3.40
  -2   5   1   21.20    3.10
  -2   5   1   18.30    2.10
  -2   5   1   18.80    1.80
   1  -5  -1    0.90    1.40
   1  -5  -1   -0.30    1.30
   1  -5  -1    0.20    1.30
   1  -5  -1   -0.10    1.60
  -1   5   1   -0.60    0.80
  -1   5   1    0.80    1.60
  -1   5   1    0.60    1.50
  -1   5   1   -0.10    1.30
   0  -5  -1    8.40    1.90
   0  -5  -1   12.00    2.10
   0  -5  -1    6.50    1.90
   0   5   1   10.20    2.10
   0   5   1    5.90    0.80
   0   5   1    6.90    0.70
   0   5   1    8.20    1.80
   0   5   1    7.60    2.00
  -1  -5  -1   36.60    3.50
  -1  -5  -1   35.70    3.30
  -1  -5  -1   34.50    3.00
   1   5   1   35.20    3.30
   1   5   1   35.90    3.50
   1   5   1   34.50    2.60
  -2  -5  -1    1.50    1.90
  -2  -5  -1    2.90    1.50
  -2  -5  -1    5.00    2.10
   2   5   1    3.40    1.50
   2   5   1    3.00    1.90
   2   5   1    4.70    2.10
  -3  -5  -1   39.90    4.10
  -3  -5  -1   50.09    3.40
  -3  -5  -1   44.10    4.90
   3   5   1   52.79    4.40
   3   5   1   53.99    4.40
   3   5   1   45.80    3.40
  -4  -5  -1   19.70    3.70
  -4  -5  -1   19.30    2.60
  -4  -5  -1   19.70    3.40
  -4  -5  -1   22.20    2.50
   4   5   1   20.60    2.80
   4   5   1   22.80    3.50
  -5  -5  -1   11.30    3.40
  -5  -5  -1   13.90    2.50
  -5  -5  -1   14.70    2.20
  -5  -5  -1   21.20    4.10
   5   5   1   15.30    2.40
   5   5   1   11.60    3.50
   5   5   1   15.10    3.40
  -6  -5  -1   -3.40    3.20
  -6  -5  -1    2.80    3.20
  -6  -5  -1   -2.90    1.60
  -6  -5  -1   -6.30    3.70
  -6  -5  -1   -3.40    1.90
   6   5   1    2.70    3.20
   6   5   1   -0.40    1.90
   6   5   1   -2.90    3.20
   6   5   1    2.00    2.90
  -7  -5  -1    5.70    2.50
  -7  -5  -1    6.40    4.40
  -7  -5  -1    0.60    3.80
  -7  -5  -1    3.10    5.60
   7   5   1   -2.90    7.40
   7   5   1    9.10    4.20
   7   5   1    3.50    2.20
   7   5   1    4.50    3.60
  -8  -5  -1    8.10    6.80
  -8  -5  -1    0.60    2.70
  -8  -5  -1   -7.60    4.60
   8   5   1   -4.90    4.50
   8   5   1   -8.60    4.30
   8   5   1    2.70    4.50
   7  -6  -1    3.20    2.70
   7  -6  -1    2.40    4.10
   7  -6  -1  -10.60    6.30
  -7   6   1    3.30    3.20
   6  -6  -1    1.30    3.60
   6  -6  -1   -3.30    7.30
   6  -6  -1   13.80    5.30
   6  -6  -1    1.60    1.90
   6  -6  -1   -0.10    6.60
  -6   6   1    4.90    2.60
  -6   6   1    2.50    3.70
   5  -6  -1   26.40    5.80
   5  -6  -1    3.70    5.40
   5  -6  -1   15.70    3.80
   5  -6  -1   12.50    1.70
   5  -6  -1   13.20    1.60
   5  -6  -1   14.70    1.80
   5  -6  -1   11.70    4.20
  -5   6   1   13.30    2.70
  -5   6   1   14.00    3.90
   4  -6  -1   18.60    3.50
   4  -6  -1   17.10    1.70
   4  -6  -1   18.70    4.70
   4  -6  -1   19.90    5.00
   4  -6  -1   21.40    2.70
   4  -6  -1   21.00    2.50
   4  -6  -1   17.30    4.00
  -4   6   1   22.80    2.80
  -4   6   1   16.80    1.60
  -4   6   1   19.20    2.10
  -4   6   1   24.30    4.40
   3  -6  -1   36.50    4.30
   3  -6  -1   34.80    3.30
   3  -6  -1   36.30    5.30
   3  -6  -1   32.40    4.90
   3  -6  -1   24.00    3.30
   3  -6  -1   33.10    4.20
  -3   6   1   31.10    2.70
  -3   6   1   29.60    3.20
  -3   6   1   28.00    2.60
  -3   6   1   33.30    4.30
  -3   6   1   41.10    5.70
   2  -6  -1    0.70    1.80
   2  -6  -1   -2.80    1.80
   2  -6  -1   -1.10    2.70
   2  -6  -1    0.00    2.30
  -2   6   1    3.00    2.60
  -2   6   1    1.00    2.10
  -2   6   1   -1.00    2.50
  -2   6   1    4.10    1.20
   1  -6  -1  208.38    8.90
   1  -6  -1  211.48    8.90
   1  -6  -1  211.98    8.80
  -1   6   1  206.18    8.80
  -1   6   1  208.98    9.50
  -1   6   1  204.78    7.50
  -1   6   1  206.08    8.50
   0  -6  -1   10.10    2.20
   0  -6  -1    8.60    2.50
   0  -6  -1    8.90    2.30
   0   6   1    8.10    0.90
   0   6   1   10.20    2.40
   0   6   1   10.60    0.70
   0   6   1   10.90    2.50
   0   6   1   13.90    2.70
  -1  -6  -1    3.50    1.90
  -1  -6  -1   -0.50    1.70
  -1  -6  -1    1.30    2.20
   1   6   1    3.10    2.10
   1   6   1    3.40    2.20
  -2  -6  -1   11.10    2.30
  -2  -6  -1    9.00    2.60
  -2  -6  -1   11.50    2.90
   2   6   1   10.00    2.60
   2   6   1    9.30    2.80
  -3  -6  -1    3.90    2.00
  -3  -6  -1    6.90    2.90
  -3  -6  -1   10.90    3.40
   3   6   1    7.90    2.90
   3   6   1   13.70    3.20
  -4  -6  -1    6.40    2.60
  -4  -6  -1   11.20    3.40
  -4  -6  -1   12.90    3.90
  -4  -6  -1   11.70    2.30
   4   6   1   10.50    3.50
   4   6   1    8.80    2.70
   4   6   1    7.30    3.40
  -5  -6  -1   33.80    4.90
  -5  -6  -1   40.20    3.90
  -5  -6  -1   37.30    4.10
  -5  -6  -1   47.20    6.30
   5   6   1   36.90    4.20
   5   6   1   37.20    4.70
   5   6   1   44.80    5.70
   5   6   1   42.40    6.10
  -6  -6  -1    5.60    4.80
  -6  -6  -1   -1.10    2.10
  -6  -6  -1    4.80    3.90
  -6  -6  -1   -2.80    2.70
  -6  -6  -1    1.60    4.80
   6   6   1    0.80    3.20
   6   6   1   -2.10    3.60
   6   6   1   -1.30    4.00
  -7  -6  -1   16.60    3.00
  -7  -6  -1   18.60    6.90
  -7  -6  -1   10.30    3.60
  -7  -6  -1   14.00    5.30
   7   6   1    8.50    5.10
   7   6   1   10.20    5.00
  -8  -6  -1   22.00    9.60
  -8  -6  -1    5.30    3.60
  -8  -6  -1   12.00    6.20
   8   6   1   14.00    6.50
   8   6   1   11.00    5.10
   8   6   1    4.60    6.30
   6  -7  -1   -0.30    1.70
   6  -7  -1    0.20    4.30
  -6   7   1    6.00    3.10
  -6   7   1   -0.30    4.80
   5  -7  -1   10.90    6.90
   5  -7  -1    7.10    7.20
   5  -7  -1   10.00    2.20
  -5   7   1    9.40    4.00
  -5   7   1   10.80    2.80
   4  -7  -1    4.80    2.40
   4  -7  -1    2.00    3.30
   4  -7  -1   -3.60    5.00
   4  -7  -1    2.50    2.20
   4  -7  -1   -3.00    4.00
  -4   7   1   -0.50    1.90
  -4   7   1    1.30    3.50
  -4   7   1   -1.00    1.40
  -4   7   1    0.10    2.00
   3  -7  -1    0.30    2.40
   3  -7  -1    3.60    3.10
   3  -7  -1    2.30    3.40
   3  -7  -1    6.70    4.90
   3  -7  -1    3.30    2.40
  -3   7   1    3.40    1.70
  -3   7   1    1.60    2.00
  -3   7   1    0.50    1.70
  -3   7   1    4.80    3.10
   2  -7  -1    6.20    2.60
   2  -7  -1   11.10    3.20
   2  -7  -1    9.90    2.90
  -2   7   1   11.90    2.90
  -2   7   1    8.50    2.20
  -2   7   1    9.50    2.80
  -2   7   1    7.70    1.80
  -2   7   1   13.80    3.90
   1  -7  -1   48.00    5.00
   1  -7  -1   43.50    5.00
   1  -7  -1   43.80    4.60
  -1   7   1   42.70    2.90
  -1   7   1   46.00    5.10
  -1   7   1   43.60    4.40
  -1   7   1   44.10    4.80
   0  -7  -1   -0.10    2.70
   0  -7  -1    0.00    2.20
   0  -7  -1   -1.40    2.40
   0   7   1    0.10    1.30
   0   7   1   -1.80    2.30
   0   7   1   -0.80    2.30
  -1  -7  -1   53.39    4.80
  -1  -7  -1   48.70    5.70
  -1  -7  -1   49.60    5.20
   1   7   1   42.00    5.40
   1   7   1   45.00    2.80
   1   7   1   47.80    5.30
  -2  -7  -1    0.10    2.70
  -2  -7  -1    1.70    3.20
  -2  -7  -1    2.80    2.50
   2   7   1    3.40    3.00
   2   7   1    1.20    2.90
   2   7   1    2.50    1.60
  -3  -7  -1    2.40    3.30
  -3  -7  -1    0.10    3.40
   3   7   1    1.10    3.20
   3   7   1   -0.40    1.80
   3   7   1   -3.00    3.50
  -4  -7  -1    5.30    3.30
  -4  -7  -1    9.00    4.40
  -4  -7  -1    6.60    4.10
  -4  -7  -1    9.60    2.90
   4   7   1    5.70    4.30
   4   7   1    8.00    2.60
   4   7   1   11.90    4.40
  -5  -7  -1   -4.80    3.30
  -5  -7  -1   -7.30    4.10
  -5  -7  -1    0.60    4.60
  -5  -7  -1    3.10    2.70
   5   7   1   -3.90    4.40
   5   7   1   -2.10    4.10
   5   7   1   -2.70    2.60
  -6  -7  -1    4.90    3.00
  -6  -7  -1   11.50    5.00
  -6  -7  -1    0.90    3.80
   6   7   1    0.60    4.80
   6   7   1    0.90    4.80
   6   7   1    0.80    3.50
  -7  -7  -1    6.10    4.30
  -7  -7  -1   -0.90    3.20
  -7  -7  -1    6.10    7.80
  -7  -7  -1    3.30    5.70
   7   7   1    2.70    4.50
   7   7   1    1.50    6.20
   7   7   1   -1.40    6.50
   5  -8  -1    2.10    2.90
   5  -8  -1   -3.60    3.00
   5  -8  -1   16.50    5.30
  -5   8   1   11.60    5.50
  -5   8   1   -2.10    3.00
   4  -8  -1    7.40    7.20
   4  -8  -1    1.90    3.10
   4  -8  -1   -3.10    3.10
   4  -8  -1   -0.80    4.10
  -4   8   1    0.80    2.70
  -4   8   1    7.70    4.20
  -4   8   1    1.70    2.10
  -4   8   1    0.50    2.40
   3  -8  -1    2.90    4.20
   3  -8  -1   -5.10    4.60
   3  -8  -1   -3.50    6.00
   3  -8  -1   -1.60    3.20
   3  -8  -1   -5.70    2.90
  -3   8   1    2.20    2.60
  -3   8   1    3.60    3.90
  -3   8   1   -2.20    2.10
   2  -8  -1    0.40    3.00
   2  -8  -1   11.80    3.60
   2  -8  -1    7.00    3.60
  -2   8   1    3.30    3.50
  -2   8   1    0.00    2.40
  -2   8   1    7.00    3.20
  -2   8   1    1.70    2.00
   1  -8  -1    7.50    3.70
   1  -8  -1    4.70    3.10
   1  -8  -1    0.40    3.30
  -1   8   1    3.40    2.80
  -1   8   1   -2.10    1.60
  -1   8   1    3.30    3.20
   0  -8  -1   -0.60    4.40
   0  -8  -1   -1.20    2.80
   0  -8  -1    6.30    3.40
   0   8   1    9.20    3.70
   0   8   1    1.30    1.70
   0   8   1   -2.70    2.80
  -1  -8  -1    3.20    3.10
  -1  -8  -1    6.40    3.70
  -1  -8  -1    2.20    4.20
   1   8   1    2.10    1.00
   1   8   1    4.60    1.30
   1   8   1    2.50    3.60
   1   8   1   -1.40    3.50
  -2  -8  -1   -1.90    3.20
  -2  -8  -1    0.90    4.40
  -2  -8  -1   -5.10    3.70
   2   8   1    0.30    3.90
   2   8   1    0.70    3.80
   2   8   1   -3.40    1.60
  -3  -8  -1   22.50    5.80
  -3  -8  -1   17.00    3.90
  -3  -8  -1   20.50    4.80
   3   8   1   22.50    5.50
   3   8   1   14.00    2.80
   3   8   1   22.50    5.00
  -4  -8  -1   13.60    3.70
  -4  -8  -1   13.40    5.80
  -4  -8  -1   26.10    8.80
  -4  -8  -1   13.60    4.50
   4   8   1   19.20    6.00
   4   8   1   31.60    6.40
   4   8   1   21.40    3.70
  -5  -8  -1    5.90    3.40
  -5  -8  -1   -2.60    4.80
  -5  -8  -1   -8.80    4.80
   5   8   1    0.10    5.60
   5   8   1   -0.20    3.50
   5   8   1    9.10    6.00
  -6  -8  -1   -1.00    5.40
  -6  -8  -1   11.60    5.80
  -6  -8  -1    4.60    3.90
   6   8   1   12.50    6.50
   6   8   1    6.60    4.70
   4  -9  -1    3.00    4.10
   4  -9  -1    3.10    5.40
   4  -9  -1   -4.60    4.00
  -4   9   1   13.10    5.80
  -4   9   1    4.00    4.00
  -4   9   1   -2.00    3.00
  -4   9   1   -5.80    3.20
   3  -9  -1   -5.10    5.40
   3  -9  -1    5.10    4.30
   3  -9  -1   -0.80    8.20
   3  -9  -1   -3.30    4.50
  -3   9   1    3.70    4.80
  -3   9   1   -0.10    3.40
  -3   9   1    4.60    5.00
  -3   9   1    3.90    2.80
   2  -9  -1    4.80    4.90
   2  -9  -1    8.20    4.40
   2  -9  -1   -2.70    4.50
  -2   9   1   -4.60    3.70
  -2   9   1    3.20    3.40
  -2   9   1   -1.90    2.30
  -2   9   1   -3.00    4.10
   1  -9  -1    0.40    8.80
   1  -9  -1    0.60    4.80
   1  -9  -1    2.10    4.20
  -1   9   1    5.50    4.20
  -1   9   1    1.50    3.90
  -1   9   1    2.30    3.20
  -1   9   1    3.60    2.20
   0  -9  -1   -6.80    5.00
   0  -9  -1    3.50    4.30
   0  -9  -1   -1.20    4.30
   0   9   1    7.70    3.80
   0   9   1    3.90    2.20
   0   9   1    7.30    4.60
  -1  -9  -1    1.00    4.20
  -1  -9  -1   10.10    5.80
  -1  -9  -1    4.80    4.40
   1   9   1    9.60    4.90
  -2  -9  -1    3.30    5.00
  -2  -9  -1    2.10    6.60
  -2  -9  -1   -6.10    6.00
   2   9   1    5.10    5.20
   2   9   1   -1.40    1.90
   2   9   1    5.30    1.90
  -3  -9  -1    5.10    6.50
  -3  -9  -1    6.80    5.50
   3   9   1    1.70    2.70
   3   9   1    3.70    6.10
  -4  -9  -1    3.90    6.20
  -4  -9  -1  -10.30    4.90
   4   9   1   15.50    6.80
   4   9   1    1.60    3.20
  -5  -9  -1   10.60    6.80
  -5  -9  -1   -6.30    4.90
   5   9   1    5.20    4.10
   5   9   1   11.90    7.30
   1 -10  -1   11.60    5.70
   1 -10  -1   -2.10    7.20
   1 -10  -1  -11.30    5.80
  -1  10   1    0.10    5.30
  -1  10   1    3.70    5.40
  -1  10   1    5.30    3.10
   0 -10  -1   -0.90    5.80
   0 -10  -1    7.50    7.60
   0 -10  -1    5.50    6.00
   0  10   1    1.50    2.60
   0  10   1    6.40    6.10
  -1 -10  -1   -2.50    5.90
  -1 -10  -1   -0.10    5.30
  -1 -10  -1    6.40    8.00
   1  10   1    3.30    6.30
   1  10   1    2.40    2.70
  -2 -10  -1   15.20    6.70
  -2 -10  -1   -5.80    5.30
  -2 -10  -1  -14.10    8.20
   2  10   1   12.60    7.00
   2  10   1   -2.30    1.80
   2  10   1    4.60    1.90
   3   9  -2    1.20    7.30
   3   9  -2    6.70    4.10
  -3  -9   2    8.90    5.50
  -3  -9   2   12.10    6.60
   2   9  -2    5.60   10.40
   2   9  -2   -2.20    3.10
   2   9  -2    5.40    3.90
  -2  -9   2   -4.20    5.10
  -2  -9   2   12.40    8.20
  -2  -9   2    8.30    5.80
   1   9  -2   10.10    6.20
   1   9  -2   -3.90    2.20
   1   9  -2   -6.40    3.90
  -1  -9   2   -2.50    5.60
  -1  -9   2   -4.30    6.70
  -1  -9   2    0.00    5.00
   0   9  -2    2.70    5.40
   0   9  -2    1.00    1.90
   0   9  -2    1.90    4.40
   0   9  -2    1.40    2.30
   0  -9   2    9.70    5.30
   0  -9   2    6.20    5.30
   0  -9   2   -0.50    6.30
  -1   9  -2    5.50    5.50
  -1   9  -2   -0.20    1.60
  -1   9  -2   10.50    5.30
  -1   9  -2    1.50    2.50
   1  -9   2   -0.10    4.80
   1  -9   2    4.20    5.20
  -2   9  -2   -1.70    6.90
  -2   9  -2    1.10    4.60
  -2   9  -2    8.50    5.10
  -2   9  -2   -1.80    2.50
   2  -9   2   -2.80    5.20
   2  -9   2    2.70    4.80
   2  -9   2    5.20    6.00
  -3   9  -2   -1.20    4.90
   3  -9   2   -5.90    6.00
   3  -9   2   -0.10    4.80
   5   8  -2    3.00    6.60
  -5  -8   2    4.70    6.80
  -5  -8   2   -2.50    3.70
   4   8  -2   -6.20    6.00
  -4  -8   2   -5.30    3.70
  -4  -8   2   -9.00    5.70
   3   8  -2    6.90    5.60
   3   8  -2    6.80    2.80
  -3  -8   2    0.40    5.00
  -3  -8   2   -0.80    3.60
  -3  -8   2   16.40    6.50
  -3  -8   2   13.40    5.60
   2   8  -2    3.50    3.60
   2   8  -2    5.60    5.30
   2   8  -2    3.70    2.90
   2   8  -2    2.60    2.60
  -2  -8   2   -0.90    3.90
  -2  -8   2   11.20    4.70
  -2  -8   2    7.50    5.50
  -2  -8   2   -7.70    4.50
   1   8  -2    3.80    3.50
   1   8  -2    6.60    4.50
   1   8  -2    0.50    2.10
   1   8  -2   -0.20    3.10
  -1  -8   2   -0.10    4.70
  -1  -8   2    3.00    4.40
  -1  -8   2   12.60    5.00
  -1  -8   2    2.40    3.90
   0   8  -2    0.20    3.20
   0   8  -2    8.00    3.70
   0   8  -2   20.30    5.00
   0   8  -2    5.70    1.70
   0  -8   2    7.10    4.00
   0  -8   2    9.30    7.00
   0  -8   2   -0.40    4.60
   0  -8   2    6.40    4.80
  -1   8  -2    2.30    3.90
  -1   8  -2    5.90    3.90
  -1   8  -2    5.80    1.80
  -1   8  -2    4.00    2.80
  -1   8  -2    1.00    1.40
   1  -8   2   -0.50    4.80
   1  -8   2   -0.30    4.70
   1  -8   2    7.30    4.80
  -2   8  -2    3.10    1.90
  -2   8  -2   -1.60    4.50
  -2   8  -2    0.50    3.60
  -2   8  -2   -0.80    2.90
  -2   8  -2    1.00    1.50
   2  -8   2    4.90    4.20
   2  -8   2    2.80    4.40
   2  -8   2    6.20    5.50
   2  -8   2    0.00    4.50
  -3   8  -2    3.60    3.60
  -3   8  -2    5.60    9.00
  -3   8  -2   -1.90    3.60
  -3   8  -2   -3.10    3.00
  -3   8  -2    2.10    2.00
   3  -8   2   -6.10    3.70
   3  -8   2    2.70    4.10
   3  -8   2   -6.00    4.70
   3  -8   2    5.10    5.20
  -4   8  -2   -2.00    3.00
  -4   8  -2    1.00    4.80
  -4   8  -2    5.90    6.70
   4  -8   2    6.40    5.20
   4  -8   2    5.80    4.00
   4  -8   2    1.90    4.10
  -5   8  -2  -19.10    8.10
  -5   8  -2    3.00    3.30
  -5   8  -2    4.50    4.90
   5  -8   2   -4.60    5.70
   5  -8   2    2.70    3.90
   5  -8   2   -1.90    3.80
   6   7  -2   -0.50    5.90
   6   7  -2   10.20    6.50
  -6  -7   2   16.60    5.80
  -6  -7   2   16.10    3.20
   5   7  -2   -0.20    5.30
   5   7  -2   -5.20    5.10
  -5  -7   2    1.00    4.40
  -5  -7   2   -3.40    5.40
  -5  -7   2   -2.60    2.60
   4   7  -2   30.80    6.10
   4   7  -2   31.90    5.80
  -4  -7   2   29.50    4.00
  -4  -7   2   29.90    5.90
  -4  -7   2   24.70    4.90
  -4  -7   2   17.40    4.80
   3   7  -2   13.40    4.90
   3   7  -2    8.30    4.00
   3   7  -2   14.80    2.70
  -3  -7   2    7.00    3.00
  -3  -7   2   13.50    4.80
  -3  -7   2    9.60    4.10
  -3  -7   2   11.00    4.00
   2   7  -2   27.70    5.20
   2   7  -2   13.40    3.30
   2   7  -2   21.30    3.30
  -2  -7   2   35.70    5.40
  -2  -7   2   19.50    3.40
  -2  -7   2   25.00    4.50
  -2  -7   2   20.50    4.40
   1   7  -2   -0.70    1.70
   1   7  -2    0.70    2.70
   1   7  -2   -1.40    2.50
   1   7  -2   -2.70    3.30
  -1  -7   2    1.50    3.20
  -1  -7   2    2.60    3.10
  -1  -7   2   -6.90    2.70
  -1  -7   2    6.50    3.90
   0   7  -2   29.30    4.50
   0   7  -2   34.10    2.70
   0   7  -2   28.70    4.20
   0   7  -2   32.30    4.20
   0  -7   2   36.40    4.90
   0  -7   2   26.00    3.90
   0  -7   2   42.80    5.80
   0  -7   2   29.00    4.60
  -1   7  -2   -1.00    2.70
  -1   7  -2   -1.00    1.10
  -1   7  -2   -0.90    1.20
  -1   7  -2    3.70    2.30
  -1   7  -2   -3.90    2.70
   1  -7   2    1.80    3.10
   1  -7   2    3.20    2.90
   1  -7   2   -2.00    3.20
  -2   7  -2    5.90    3.70
  -2   7  -2    4.70    2.80
  -2   7  -2    4.00    1.60
  -2   7  -2    5.70    2.60
  -2   7  -2    2.90    1.40
  -2   7  -2    3.20    2.30
   2  -7   2    3.10    2.80
   2  -7   2   12.30    3.70
   2  -7   2    4.20    3.10
   2  -7   2    5.20    3.70
  -3   7  -2   -1.20    3.00
  -3   7  -2    2.30    1.50
  -3   7  -2   -2.80    3.80
  -3   7  -2   -0.20    2.20
  -3   7  -2    4.40    2.70
  -3   7  -2   -1.60    1.60
   3  -7   2    3.60    2.80
   3  -7   2   -3.70    3.40
   3  -7   2   -0.60    2.90
   3  -7   2   -5.10    3.70
  -4   7  -2    5.60    3.30
  -4   7  -2    0.40    2.30
  -4   7  -2   12.40    5.60
  -4   7  -2    9.10    3.60
  -4   7  -2    4.90    2.40
   4  -7   2    3.60    2.90
   4  -7   2    1.40    3.00
   4  -7   2    8.90    4.60
   4  -7   2    7.40    4.40
  -5   7  -2   -2.30    1.90
  -5   7  -2   -3.00    3.90
  -5   7  -2    1.50    2.50
  -5   7  -2   -1.40    6.10
  -5   7  -2    3.80    2.30
   5  -7   2   -1.10    5.70
   5  -7   2   -2.00    2.60
   5  -7   2   12.80    4.70
   5  -7   2    7.70    1.90
   5  -7   2    2.20    3.00
  -6   7  -2  -16.20    7.30
  -6   7  -2   -5.10    4.30
   6  -7   2   -1.50    2.70
   6  -7   2    6.80    5.60
   6  -7   2   -0.50    3.10
   6  -7   2   -3.40    2.20
   7   6  -2   12.40    6.70
   7   6  -2   -0.30    5.50
  -7  -6   2    7.50    4.50
  -7  -6   2   23.60    8.00
  -7  -6   2    7.60    5.90
   6   6  -2    0.80    4.80
   6   6  -2    2.80    4.60
  -6  -6   2    1.40    4.00
  -6  -6   2    4.10    4.50
  -6  -6   2    4.40    2.20
   5   6  -2   73.89    7.70
   5   6  -2   60.79    7.20
  -5  -6   2   55.19    8.00
  -5  -6   2   56.39    4.30
  -5  -6   2   57.89    7.50
  -5  -6   2   65.29    6.40
   4   6  -2   51.49    3.30
   4   6  -2   53.29    6.40
   4   6  -2   57.49    6.80
  -4  -6   2   68.59    6.70
  -4  -6   2   57.19    4.40
  -4  -6   2   64.19    7.10
  -4  -6   2   63.99    5.90
   3   6  -2   24.20    2.70
   3   6  -2   23.00    3.90
   3   6  -2   25.10    4.40
  -3  -6   2   21.00    3.90
  -3  -6   2   26.00    3.30
  -3  -6   2   15.10    3.90
  -3  -6   2   28.00    4.00
   2   6  -2   10.80    3.50
   2   6  -2   21.50    2.70
   2   6  -2   11.80    3.00
  -2  -6   2   14.00    2.70
  -2  -6   2   14.80    3.60
  -2  -6   2   12.90    3.30
  -2  -6   2   17.00    3.40
   1   6  -2   44.90    3.90
   1   6  -2   42.70    3.20
   1   6  -2   42.30    4.20
   1   6  -2   45.30    5.00
  -1  -6   2   59.09    5.10
  -1  -6   2   56.09    5.00
  -1  -6   2   47.60    4.20
  -1  -6   2   49.00    5.60
   0   6  -2   50.29    4.50
   0   6  -2   60.99    5.00
   0   6  -2   50.79    3.00
   0   6  -2   51.79    4.10
   0  -6   2   45.60    4.60
   0  -6   2   57.49    4.40
   0  -6   2   51.59    5.00
   0  -6   2   53.09    5.20
  -1   6  -2    4.20    1.90
  -1   6  -2   -2.80    2.20
  -1   6  -2    2.10    1.10
  -1   6  -2    8.50    2.40
  -1   6  -2    3.60    1.10
   1  -6   2    4.00    2.20
   1  -6   2    4.30    2.50
   1  -6   2   -0.90    2.20
  -2   6  -2   -3.30    2.50
  -2   6  -2    1.70    2.10
  -2   6  -2   -0.20    1.10
  -2   6  -2   -0.20    1.10
  -2   6  -2   -0.10    1.60
   2  -6   2   -0.40    2.50
   2  -6   2   -1.80    2.20
   2  -6   2   -5.40    2.10
  -3   6  -2   -1.60    3.40
  -3   6  -2    3.20    2.50
  -3   6  -2    5.90    2.40
  -3   6  -2    1.50    1.40
  -3   6  -2    2.40    1.80
   3  -6   2    3.50    2.80
   3  -6   2    1.00    2.10
   3  -6   2    5.10    3.00
   3  -6   2    1.50    2.20
  -4   6  -2    1.30    3.90
  -4   6  -2   -0.40    1.50
  -4   6  -2    0.20    1.70
  -4   6  -2    3.70    2.10
  -4   6  -2    1.40    2.70
   4  -6   2   -0.10    3.10
   4  -6   2    0.50    3.20
   4  -6   2   -4.50    2.00
   4  -6   2   -3.30    2.10
   4  -6   2    1.00    1.30
  -5   6  -2   -0.80    1.80
  -5   6  -2    0.00    1.70
  -5   6  -2   -1.30    5.10
  -5   6  -2    4.10    1.70
  -5   6  -2   -3.00    3.10
   5  -6   2   -2.00    2.10
   5  -6   2    9.20    6.20
   5  -6   2    3.00    4.00
   5  -6   2    1.50    3.80
   5  -6   2   -0.90    1.90
   5  -6   2    1.20    1.70
  -6   6  -2    4.30    4.10
  -6   6  -2   -2.60    6.10
  -6   6  -2    1.10    2.10
   6  -6   2    5.60    2.40
   6  -6   2    0.90    2.60
   6  -6   2    2.30    2.20
   6  -6   2    5.40    5.40
   6  -6   2   12.60    4.90
  -7   6  -2    4.00    8.70
   7  -6   2    5.00    5.30
   7  -6   2   -1.20    2.80
   8   5  -2   11.30    6.50
   8   5  -2   -4.60    5.70
  -8  -5   2    3.20    4.60
  -8  -5   2   -8.40    5.40
  -8  -5   2    4.40    8.40
  -8  -5   2    2.80    8.20
   7   5  -2    8.40    4.90
   7   5  -2    6.40    4.90
  -7  -5   2   -0.10    4.70
  -7  -5   2    2.40   10.00
  -7  -5   2   -1.10    3.40
   6   5  -2   -6.20    3.70
   6   5  -2    1.60    1.60
   6   5  -2   -2.70    3.60
  -6  -5   2    3.60    3.60
  -6  -5   2   -2.10    1.30
  -6  -5   2    2.30    4.30
  -6  -5   2   -3.80    2.90
   5   5  -2   16.40    4.10
   5   5  -2    7.40    3.40
  -5  -5   2   12.80    1.90
  -5  -5   2   12.50    3.00
  -5  -5   2   10.30    3.80
  -5  -5   2   14.60    4.10
   4   5  -2   81.59    6.50
   4   5  -2   73.89    6.10
  -4  -5   2   80.99    6.60
  -4  -5   2   85.39    5.60
  -4  -5   2   84.89    4.40
  -4  -5   2   87.69    6.40
   3   5  -2   30.50    4.10
   3   5  -2   27.70    4.00
  -3  -5   2   18.80    3.50
  -3  -5   2   21.90    2.80
  -3  -5   2   27.50    3.80
  -3  -5   2   24.00    3.60
   2   5  -2   18.50    3.10
   2   5  -2   20.10    3.00
  -2  -5   2   20.60    2.70
  -2  -5   2   20.40    3.00
  -2  -5   2   19.20    3.30
   1   5  -2   26.70    3.40
   1   5  -2   24.60    3.00
   1   5  -2   20.60    2.50
  -1  -5   2   28.70    3.50
  -1  -5   2   19.50    2.60
  -1  -5   2   23.20    3.20
  -1  -5   2   23.40    3.40
   0   5  -2   49.20    2.70
   0   5  -2   40.20    3.70
   0   5  -2   46.50    3.60
   0   5  -2   46.80    3.60
   0  -5   2   45.10    3.90
   0  -5   2   43.80    4.00
   0  -5   2   46.10    3.80
   0  -5   2   48.80    3.70
  -1   5  -2   22.60    2.90
  -1   5  -2   20.20    1.50
  -1   5  -2   22.80    1.80
  -1   5  -2   14.30    2.40
  -1   5  -2   21.50    3.20
   1  -5   2   26.00    3.10
   1  -5   2   22.30    2.90
  -2   5  -2    8.40    1.30
  -2   5  -2    9.50    1.10
  -2   5  -2    5.90    2.30
  -2   5  -2    9.10    2.00
   2  -5   2    5.70    2.10
   2  -5   2   10.20    2.00
   2  -5   2    6.20    1.80
  -3   5  -2    9.30    1.60
  -3   5  -2   11.90    3.20
  -3   5  -2    9.40    2.30
  -3   5  -2   11.20    1.30
   3  -5   2    9.10    1.40
   3  -5   2    8.70    2.00
   3  -5   2    9.40    2.00
   3  -5   2   12.90    2.90
  -4   5  -2   23.00    3.40
  -4   5  -2   21.00    2.80
  -4   5  -2   22.10    2.80
  -4   5  -2   20.20    2.50
  -4   5  -2   20.60    2.20
  -4   5  -2   23.30    4.40
   4  -5   2   27.60    2.40
   4  -5   2   28.20    4.00
   4  -5   2   21.60    2.80
   4  -5   2   24.00    2.90
  -5   5  -2   16.30    1.90
  -5   5  -2   19.60    4.60
  -5   5  -2   11.70    3.30
  -5   5  -2   14.50    1.90
  -5   5  -2   13.30    1.70
   5  -5   2   17.40    5.40
   5  -5   2   12.90    2.20
   5  -5   2   16.00    2.10
   5  -5   2   13.20    3.90
   5  -5   2   13.10    2.10
  -6   5  -2    7.10    1.90
  -6   5  -2    8.90    3.30
  -6   5  -2    2.30    5.00
   6  -5   2    2.90    2.10
   6  -5   2    7.20    1.90
   6  -5   2   14.50    6.50
   6  -5   2    5.30    4.00
  -7   5  -2    4.80    6.10
   7  -5   2    3.30    2.70
  -8   5  -2   33.70    9.00
   8  -5   2   18.50    5.30
   8  -5   2   20.00    4.00
   8  -5   2   15.80    3.90
   8   4  -2    5.70    4.80
   8   4  -2   -4.20    4.60
   8   4  -2   -2.70    3.20
  -8  -4   2   12.50    3.90
  -8  -4   2   11.20    5.00
  -8  -4   2   -3.10    4.20
  -8  -4   2   -1.20    6.90
   7   4  -2    3.90    2.60
   7   4  -2   13.70    7.00
   7   4  -2    7.10    4.10
  -7  -4   2    7.10    3.00
  -7  -4   2    3.50    5.20
  -7  -4   2    1.60    3.80
  -7  -4   2    5.80    4.40
  -7  -4   2    4.40    3.40
   6   4  -2   14.80    2.70
   6   4  -2   17.70    4.00
  -6  -4   2   18.80    3.70
  -6  -4   2   19.10    4.10
  -6  -4   2   17.00    3.10
   5   4  -2  207.38    9.80
   5   4  -2  202.68    9.50
  -5  -4   2  216.48    9.90
  -5  -4   2  200.98    9.60
  -5  -4   2  195.88    8.60
  -5  -4   2  199.78    7.20
   4   4  -2    1.30    2.10
   4   4  -2   -0.70    2.10
  -4  -4   2   -1.00    2.00
  -4  -4   2    1.20    1.80
  -4  -4   2   -0.90    1.10
  -4  -4   2   -2.50    2.20
   3   4  -2  123.79    6.20
   3   4  -2  112.89    6.20
  -3  -4   2  116.39    5.60
  -3  -4   2   93.99    8.50
  -3  -4   2  120.89    5.00
  -3  -4   2  116.19    6.30
   2   4  -2    2.70    1.60
   2   4  -2    2.80    1.60
  -2  -4   2    2.40    1.60
  -2  -4   2    1.70    1.80
  -2  -4   2    0.90    1.30
  -2  -4   2    3.10    1.60
   1   4  -2  762.02   25.70
   1   4  -2  792.72   25.40
  -1  -4   2  801.22   25.50
  -1  -4   2  753.92   25.50
  -1  -4   2  743.03   25.00
  -1  -4   2  734.23   25.50
   0   4  -2   55.89    3.70
   0   4  -2   58.09    3.50
   0   4  -2   55.79    2.80
   0  -4   2   56.29    3.60
   0  -4   2   59.39    3.80
   0  -4   2   59.19    3.70
  -1   4  -2   36.00    2.90
  -1   4  -2   39.00    2.60
  -1   4  -2   33.30    3.20
  -1   4  -2   42.50    2.10
   1  -4   2   35.00    2.80
   1  -4   2   35.90    2.80
  -2   4  -2   12.90    1.70
  -2   4  -2   15.90    2.80
  -2   4  -2   10.20    1.00
  -2   4  -2   10.40    1.30
  -2   4  -2   11.30    2.00
  -2   4  -2   11.70    1.80
   2  -4   2   14.70    2.00
   2  -4   2    9.70    1.30
   2  -4   2   11.80    1.90
   2  -4   2   15.80    2.30
  -3   4  -2   24.40    1.60
  -3   4  -2   21.40    2.20
  -3   4  -2   22.20    2.10
  -3   4  -2   24.00    3.70
  -3   4  -2   21.20    2.70
   3  -4   2   24.50    2.30
   3  -4   2   28.70    2.00
   3  -4   2   24.80    3.10
   3  -4   2   24.50    2.30
  -4   4  -2    1.10    1.10
  -4   4  -2    0.90    1.80
  -4   4  -2   -1.80    1.30
  -4   4  -2    0.90    1.00
  -4   4  -2   -1.90    2.40
   4  -4   2    1.70    2.20
   4  -4   2   -0.40    1.10
   4  -4   2   -1.00    1.10
   4  -4   2    1.30    1.00
  -5   4  -2   19.20    3.10
  -5   4  -2   16.10    1.70
  -5   4  -2   19.60    2.10
  -5   4  -2   14.70    1.80
  -5   4  -2   23.70    4.70
   5  -4   2   20.20    2.20
   5  -4   2   17.90    2.20
   5  -4   2   15.10    2.20
   5  -4   2   23.60    4.00
   5  -4   2   18.20    4.40
  -6   4  -2    2.70    1.70
  -6   4  -2    3.20    4.40
   6  -4   2    1.60    1.30
   6  -4   2    1.90    3.50
   6  -4   2    0.90    4.90
   6  -4   2    2.80    2.00
  -7   4  -2   27.70    7.50
   7  -4   2   18.00    3.20
   7  -4   2   21.60    7.10
   7  -4   2   17.40    5.00
  -8   4  -2    8.40    7.40
   8  -4   2    1.80    2.70
   8  -4   2    9.90    3.90
   8  -4   2    2.50    5.20
   9   3  -2   -0.80    4.80
   9   3  -2    2.40    5.90
   9   3  -2    0.10    4.90
   9   3  -2    2.20    5.20
  -9  -3   2   -6.10    4.10
  -9  -3   2    1.20    7.60
  -9  -3   2   10.50    5.70
  -9  -3   2   -2.80    5.00
   8   3  -2    3.70    4.00
   8   3  -2    6.50    4.20
   8   3  -2    5.00    3.70
  -8  -3   2    5.80    5.80
  -8  -3   2    2.80    4.40
  -8  -3   2    2.50    3.80
  -8  -3   2    5.00    4.10
  -8  -3   2    5.70    3.30
   7   3  -2    1.90    3.00
   7   3  -2    3.70    2.90
   7   3  -2    4.10    3.10
  -7  -3   2    7.70    3.60
  -7  -3   2    1.70    3.30
  -7  -3   2    7.00    3.50
  -7  -3   2    9.60    4.90
   6   3  -2   12.30    3.20
   6   3  -2   10.50    3.20
   6   3  -2   15.60    2.80
  -6  -3   2    9.30    3.90
  -6  -3   2    9.20    2.60
  -6  -3   2    8.50    3.00
  -6  -3   2    8.00    2.30
  -6  -3   2   16.20    3.30
   5   3  -2  137.99    7.30
   5   3  -2  129.09    6.30
   5   3  -2  146.99    7.10
  -5  -3   2  145.19    7.30
  -5  -3   2  156.48    7.30
  -5  -3   2  139.89    6.30
   4   3  -2    0.80    1.60
   4   3  -2   -0.40    1.50
  -4  -3   2    0.70    0.80
  -4  -3   2    0.50    1.60
  -4  -3   2   -0.60    1.90
  -4  -3   2   -0.20    1.30
   3   3  -2    1.10    1.40
   3   3  -2    1.40    1.40
  -3  -3   2    1.50    1.60
  -3  -3   2    1.70    0.90
  -3  -3   2    1.60    1.60
  -3  -3   2    2.60    1.30
   2   3  -2    7.30    1.80
   2   3  -2   11.10    1.80
  -2  -3   2   12.30    1.50
  -2  -3   2   11.20    1.90
  -2  -3   2   12.10    1.80
  -2  -3   2    9.70    1.80
   1   3  -2   17.90    2.00
   1   3  -2   14.90    2.00
  -1  -3   2   15.00    2.00
  -1  -3   2   15.40    2.00
  -1  -3   2   16.20    2.10
   0   3  -2  132.79    5.50
   0   3  -2  134.19    5.00
   0   3  -2  136.89    5.70
   0  -3   2  139.09    5.70
   0  -3   2  132.29    5.60
   0  -3   2  139.69    5.70
  -1   3  -2  448.06   15.20
  -1   3  -2  458.65   14.50
  -1   3  -2  463.85   15.00
   1  -3   2  444.56   15.10
   1  -3   2  440.96   15.20
  -2   3  -2   31.10    1.90
  -2   3  -2   28.50    2.80
  -2   3  -2   30.00    2.20
  -2   3  -2   32.50    1.30
  -2   3  -2   29.20    2.00
   2  -3   2   32.90    2.20
   2  -3   2   33.50    1.90
   2  -3   2   27.90    2.40
   2  -3   2   27.30    2.20
  -3   3  -2  223.88    7.90
  -3   3  -2  213.08    8.20
  -3   3  -2  236.08    7.50
  -3   3  -2  232.98    8.80
  -3   3  -2  221.18    8.10
  -3   3  -2  231.98    9.80
   3  -3   2  230.08    8.10
   3  -3   2  244.38    8.10
   3  -3   2  229.78    8.10
   3  -3   2  225.88    8.90
  -4   3  -2    2.80    2.20
  -4   3  -2    3.10    0.90
  -4   3  -2    1.20    1.30
  -4   3  -2    2.90    1.70
  -4   3  -2    4.30    1.00
   4  -3   2    4.50    1.90
   4  -3   2    3.00    1.10
   4  -3   2    2.80    1.10
   4  -3   2    2.20    1.00
  -5   3  -2    5.60    1.00
  -5   3  -2    3.80    2.50
  -5   3  -2    7.80    1.50
  -5   3  -2    6.30    1.00
  -5   3  -2    4.00    2.00
   5  -3   2    3.70    3.10
   5  -3   2    4.00    1.60
   5  -3   2    4.90    1.30
   5  -3   2    4.40    1.00
   5  -3   2    2.70    2.40
  -6   3  -2    5.20    3.50
  -6   3  -2    4.90    2.60
   6  -3   2    6.00    1.20
   6  -3   2    3.50    1.90
   6  -3   2    2.00    3.90
   6  -3   2    9.40    3.30
   6  -3   2    5.40    2.20
   6  -3   2    2.00    2.40
  -7   3  -2    9.80    3.30
  -7   3  -2    0.80    4.40
   7  -3   2   10.50    5.40
   7  -3   2    8.20    1.90
   7  -3   2    8.70    1.30
   7  -3   2    8.00    1.50
   7  -3   2    5.00    3.50
   7  -3   2    7.60    2.80
  -8   3  -2   -1.40    3.90
  -8   3  -2   -1.40    6.40
   8  -3   2    0.90    4.50
   8  -3   2   10.10    9.40
   8  -3   2    3.80    3.40
   8  -3   2    2.90    1.80
   9  -3   2    8.70    2.20
   9  -3   2   24.20    5.30
   9  -3   2   13.10    1.80
   9   2  -2    4.10    4.30
   9   2  -2    8.90    5.30
   9   2  -2    2.10    4.50
   9   2  -2    6.20    5.50
  -9  -2   2   15.80    4.60
  -9  -2   2   21.00    5.00
  -9  -2   2   14.70    5.30
  -9  -2   2   21.30    7.60
   8   2  -2    1.00    3.20
   8   2  -2    4.80    4.10
   8   2  -2    0.90    3.40
  -8  -2   2   -6.00    3.30
  -8  -2   2    7.10    6.10
  -8  -2   2    2.40    3.00
  -8  -2   2    1.70    3.70
  -8  -2   2   -1.70    3.20
   7   2  -2    4.70    2.70
   7   2  -2    6.60    2.70
   7   2  -2    5.20    2.10
   7   2  -2    4.60    3.30
  -7  -2   2    7.40    2.40
  -7  -2   2   11.90    4.40
  -7  -2   2    4.00    3.10
  -7  -2   2    8.60    3.00
  -7  -2   2    2.60    2.60
   6   2  -2  119.89    6.70
   6   2  -2  128.09    6.50
   6   2  -2  129.29    6.00
   6   2  -2  125.39    6.70
  -6  -2   2  125.69    6.50
  -6  -2   2  126.69    8.60
  -6  -2   2  124.19    6.70
  -6  -2   2  130.49    6.00
  -6  -2   2  127.79    6.70
   5   2  -2  149.59    6.60
   5   2  -2  161.48    7.30
   5   2  -2  155.98    7.10
   5   2  -2  156.08    7.00
  -5  -2   2  160.58    8.50
  -5  -2   2  159.88    7.00
  -5  -2   2  162.88    7.10
  -5  -2   2  158.18    7.20
  -5  -2   2  161.38    6.50
   4   2  -2   11.60    1.70
   4   2  -2   11.90    2.10
   4   2  -2   13.70    2.20
  -4  -2   2    9.70    1.50
  -4  -2   2   10.30    1.80
  -4  -2   2   14.30    2.20
   3   2  -2  164.88    6.70
   3   2  -2  166.68    6.50
   3   2  -2  160.58    6.80
  -3  -2   2  167.98    6.70
  -3  -2   2  170.18    6.90
  -3  -2   2  164.28    6.30
   2   2  -2  196.08    7.60
   2   2  -2  200.08    7.50
   2   2  -2  190.68    7.30
  -2  -2   2  205.98    7.60
  -2  -2   2  198.68    7.60
  -2  -2   2  201.58    7.20
  -2  -2   2  195.58    7.20
   1   2  -2  301.67   10.70
   1   2  -2  308.87   10.90
   1   2  -2  305.37   10.70
  -1  -2   2  325.67   10.90
  -1  -2   2  313.17   10.90
  -1  -2   2  315.87   10.70
   0   2  -2   18.60    1.30
   0   2  -2   18.40    1.20
   0   2  -2   19.60    1.50
   0   2  -2   21.80    1.70
   0  -2   2   18.50    1.60
   0  -2   2   20.40    1.70
   0  -2   2   18.50    1.60
  -1   2  -2  108.59    3.80
  -1   2  -2   93.69    4.40
  -1   2  -2   99.79    4.00
   1  -2   2  101.99    4.00
   1  -2   2  102.19    3.80
   1  -2   2   99.69    4.10
   1  -2   2  101.69    4.10
   1  -2   2  102.79    4.20
  -2   2  -2  191.28    6.70
  -2   2  -2  184.68    6.80
  -2   2  -2  200.38    7.70
  -2   2  -2  170.38    7.10
  -2   2  -2  187.98    7.00
  -2   2  -2  204.68    6.20
   2  -2   2  192.18    6.80
   2  -2   2  205.58    6.80
   2  -2   2  196.78    7.20
   2  -2   2  207.68    6.10
   2  -2   2  191.98    6.80
  -3   2  -2   78.39    3.90
  -3   2  -2   79.39    3.20
  -3   2  -2   82.79    4.00
  -3   2  -2   85.99    3.00
  -3   2  -2   72.49    3.60
  -3   2  -2   76.69    4.40
  -3   2  -2   77.79    3.20
   3  -2   2   81.99    3.80
   3  -2   2   79.69    3.30
   3  -2   2   80.49    3.30
   3  -2   2   77.49    4.00
   3  -2   2   79.69    3.50
  -4   2  -2   10.50    1.30
  -4   2  -2   11.20    1.40
  -4   2  -2   10.40    1.80
  -4   2  -2    9.30    1.90
  -4   2  -2    6.70    2.20
  -4   2  -2   11.10    2.10
   4  -2   2   11.00    1.30
   4  -2   2   12.70    2.00
   4  -2   2    9.80    2.50
   4  -2   2    9.80    2.10
   4  -2   2   10.30    1.60
   4  -2   2    8.90    1.10
  -5   2  -2   19.80    2.70
  -5   2  -2   19.50    1.60
  -5   2  -2   21.30    3.60
  -5   2  -2   18.90    1.40
   5  -2   2   20.20    2.60
   5  -2   2   27.90    4.40
   5  -2   2   23.60    1.70
   5  -2   2   23.80    3.30
   5  -2   2   19.60    1.90
   5  -2   2   24.70    3.10
  -6   2  -2    3.70    2.20
  -6   2  -2    6.30    3.40
   6  -2   2    6.50    3.60
   6  -2   2    5.40    1.10
   6  -2   2    3.60    2.50
   6  -2   2    4.60    1.40
   6  -2   2    1.80    1.90
   6  -2   2    5.90    1.30
  -7   2  -2    2.50    3.80
  -7   2  -2   -2.80    2.40
   7  -2   2    2.00    3.20
   7  -2   2    0.80    1.10
   7  -2   2    1.70    4.20
   7  -2   2   -1.20    2.10
   7  -2   2   -1.40    1.10
  -8   2  -2    1.70    5.30
  -8   2  -2   -4.60    4.80
   8  -2   2    3.70    1.80
   8  -2   2    7.00    6.20
   8  -2   2    2.20    3.20
   8  -2   2    2.30    1.70
   8  -2   2    0.70    1.20
   8  -2   2    1.10    4.10
  -9   2  -2   -1.20    4.60
   9  -2   2    4.20    5.90
   9  -2   2    8.80    4.50
   9   1  -2    3.40    5.80
   9   1  -2    3.70    3.30
   9   1  -2    2.90    4.20
   9   1  -2    8.20    5.50
  -9  -1   2    2.50    3.20
  -9  -1   2    0.10    4.00
  -9  -1   2   -1.00    4.60
  -9  -1   2   -2.40    6.20
   8   1  -2   -1.80    2.40
   8   1  -2    2.50    2.10
   8   1  -2    0.50    3.00
   8   1  -2    1.80    4.30
  -8  -1   2    2.10    2.50
  -8  -1   2   -2.30    7.80
  -8  -1   2    0.70    2.70
  -8  -1   2    2.00    3.90
   7   1  -2   16.70    3.00
   7   1  -2   16.90    2.80
   7   1  -2   13.80    3.90
   7   1  -2   13.60    2.30
  -7  -1   2   15.20    3.50
  -7  -1   2   12.60    2.70
  -7  -1   2   15.50    3.50
  -7  -1   2   17.10    5.10
  -7  -1   2   15.70    2.70
   6   1  -2   31.40    3.40
   6   1  -2   37.40    3.40
   6   1  -2   30.10    4.30
   6   1  -2   32.70    2.90
  -6  -1   2   34.30    3.40
  -6  -1   2   33.80    3.30
  -6  -1   2   41.80    5.70
  -6  -1   2   35.80    3.50
  -6  -1   2   43.30    4.00
   5   1  -2   29.60    2.40
   5   1  -2   29.00    2.90
   5   1  -2   25.10    3.40
   5   1  -2   30.10    2.70
  -5  -1   2   25.40    2.70
  -5  -1   2   30.70    2.70
  -5  -1   2   27.20    2.50
  -5  -1   2   25.20    3.20
  -5  -1   2   30.10    4.30
  -5  -1   2   27.10    2.90
   4   1  -2    7.60    1.30
   4   1  -2    6.00    1.40
   4   1  -2    6.90    1.50
  -4  -1   2    5.30    2.00
  -4  -1   2    5.90    1.50
  -4  -1   2    6.40    1.50
  -4  -1   2    3.70    1.20
  -4  -1   2    9.60    1.60
  -4  -1   2    6.30    1.40
   3   1  -2   21.30    1.70
   3   1  -2   19.70    1.80
   3   1  -2   20.60    1.90
  -3  -1   2   21.00    1.80
  -3  -1   2   21.70    1.70
  -3  -1   2   21.00    2.00
  -3  -1   2   19.50    1.90
  -3  -1   2   19.40    1.80
   2   1  -2   64.79    2.90
   2   1  -2   65.69    3.10
   2   1  -2   65.49    3.00
  -2  -1   2   65.39    2.90
  -2  -1   2   65.39    2.90
  -2  -1   2   68.39    3.10
   1   1  -2   15.80    1.30
   1   1  -2   16.00    1.30
   1   1  -2   18.80    1.40
  -1  -1   2   18.80    1.30
  -1  -1   2   17.30    1.40
  -1  -1   2   18.80    1.20
  -1  -1   2   15.20    1.40
   0   1  -2   30.30    1.70
   0   1  -2   29.40    1.70
   0   1  -2   25.30    1.40
   0   1  -2   32.20    1.30
   0   1  -2   28.50    1.60
   0  -1   2   28.70    1.60
   0  -1   2   29.00    1.60
   0  -1   2   31.60    1.30
   0  -1   2   30.00    1.60
  -1   1  -2  458.25   14.80
  -1   1  -2  464.95   15.00
  -1   1  -2  463.55   14.80
   1  -1   2  460.95   14.90
   1  -1   2  459.15   14.80
   1  -1   2  489.65   14.80
   1  -1   2  465.05   14.90
   1  -1   2  454.65   14.90
  -2   1  -2   70.29    2.80
  -2   1  -2   69.19    3.10
  -2   1  -2   65.99    3.00
  -2   1  -2   67.69    3.00
  -2   1  -2   68.79    2.80
   2  -1   2   70.09    2.90
   2  -1   2   72.89    2.90
   2  -1   2   73.49    2.50
   2  -1   2   72.69    3.20
   2  -1   2   66.79    2.80
   2  -1   2   72.39    3.00
   2  -1   2   71.79    2.80
  -3   1  -2   24.80    2.10
  -3   1  -2   23.90    2.40
  -3   1  -2   26.00    1.50
  -3   1  -2   25.00    2.10
  -3   1  -2   26.50    1.60
   3  -1   2   25.30    1.90
   3  -1   2   24.40    1.90
   3  -1   2   25.20    2.00
   3  -1   2   25.00    1.60
  -4   1  -2   23.40    2.40
  -4   1  -2   23.20    2.30
  -4   1  -2   21.10    2.80
  -4   1  -2   21.70    1.80
   4  -1   2   24.40    1.80
   4  -1   2   20.70    2.10
   4  -1   2   22.70    2.30
   4  -1   2   22.40    1.60
   4  -1   2   19.80    2.90
  -5   1  -2   65.19    4.80
  -5   1  -2   58.29    3.00
  -5   1  -2   55.49    3.90
   5  -1   2   64.99    3.00
   5  -1   2   61.29    3.90
   5  -1   2   67.39    5.30
   5  -1   2   64.79    3.20
   5  -1   2   61.49    4.00
  -6   1  -2   18.80    1.70
  -6   1  -2   19.40    2.00
  -6   1  -2   23.70    3.50
  -6   1  -2   27.10    4.40
   6  -1   2   20.50    2.90
   6  -1   2   20.40    3.90
   6  -1   2   17.90    2.40
   6  -1   2   16.30    2.00
  -7   1  -2    2.80    1.20
  -7   1  -2    2.00    2.80
  -7   1  -2    1.20    3.40
  -7   1  -2    1.50    1.10
   7  -1   2    1.10    3.90
   7  -1   2    3.40    1.40
   7  -1   2    6.10    1.80
   7  -1   2    2.00    2.60
   7  -1   2   -0.50    2.40
  -8   1  -2    1.70    3.50
  -8   1  -2    3.20    4.50
   8  -1   2    4.90    5.10
   8  -1   2    1.60    3.30
   8  -1   2    5.80    3.90
   8  -1   2    4.00    2.10
   8  -1   2    3.40    1.70
  -9   1  -2    9.30    4.40
   9  -1   2   10.00    4.40
   9  -1   2   -0.50    5.00
   9  -1   2    6.40    3.50
   9   0  -2    4.20    5.20
   9   0  -2    3.60    2.50
   9   0  -2   -0.90    3.00
   9   0  -2   -5.70    6.10
   9   0  -2   -0.60    2.40
  -9   0   2    6.90    4.80
  -9   0   2   17.50    6.70
   8   0  -2    0.00    1.90
   8   0  -2   -0.30    4.80
   8   0  -2    1.90    4.30
   8   0  -2    1.50    2.50
   8   0  -2    2.80    1.90
   8   0  -2    1.80    4.80
  -8   0   2    5.00    7.90
  -8   0   2    2.00    3.80
  -8   0   2    1.70    1.80
  -8   0   2    0.10    1.70
   7   0  -2    9.60    1.80
   7   0  -2    7.70    2.30
   7   0  -2    4.30    3.70
   7   0  -2    4.20    1.80
  -7   0   2   10.50    4.20
  -7   0   2    6.40    3.10
  -7   0   2    8.40    1.90
  -7   0   2    7.60    2.50
   6   0  -2   18.30    2.30
   6   0  -2   24.30    4.50
   6   0  -2   20.70    2.40
   6   0  -2   18.50    2.70
  -6   0   2   18.40    2.20
  -6   0   2   18.60    4.00
  -6   0   2   22.20    3.50
  -6   0   2   14.30    2.30
  -6   0   2   15.60    2.80
   5   0  -2    3.40    1.10
   5   0  -2    3.70    2.20
   5   0  -2    1.70    1.00
   5   0  -2    0.70    1.10
  -5   0   2    0.90    1.40
  -5   0   2    2.10    1.10
  -5   0   2    1.70    1.80
  -5   0   2    0.20    1.30
  -5   0   2   -0.40    1.80
  -5   0   2    3.00    1.20
   4   0  -2    1.60    0.90
   4   0  -2    1.90    0.80
   4   0  -2    0.60    1.60
   4   0  -2    2.40    0.90
  -4   0   2    1.90    0.80
  -4   0   2    1.10    0.90
  -4   0   2    3.30    1.90
  -4   0   2    0.50    1.20
  -4   0   2    2.90    1.10
  -4   0   2    1.10    1.20
   3   0  -2  131.79    5.10
   3   0  -2  131.99    5.00
   3   0  -2  135.09    5.10
  -3   0   2  134.19    5.40
  -3   0   2  134.79    4.90
  -3   0   2  137.29    5.30
  -3   0   2  134.19    5.20
  -3   0   2  134.79    6.20
  -3   0   2  133.09    5.00
   2   0  -2    0.30    0.50
   2   0  -2    0.20    0.40
   2   0  -2    0.90    0.60
   2   0  -2    0.60    0.20
   2   0  -2    1.20    0.60
  -2   0   2    0.30    0.60
  -2   0   2   -0.10    0.50
  -2   0   2    0.30    0.20
  -2   0   2    0.00    0.50
  -2   0   2    0.40    0.70
  -2   0   2   -0.60    0.60
   1   0  -2   70.99    2.60
   1   0  -2   68.19    2.80
   1   0  -2   71.99    2.80
   1   0  -2   74.49    2.80
  -1   0   2   71.39    2.90
  -1   0   2   72.49    2.80
  -1   0   2   69.39    2.80
  -1   0   2   72.09    2.60
  -1   0   2   71.89    2.50
  -1   0   2   75.49    2.80
   0   0  -2 2726.93   85.19
   0   0  -2 2736.83   83.29
   0   0  -2 2653.43   84.79
   0   0   2 2687.03   84.59
   0   0   2 2577.74   83.79
   0   0   2 2835.32   83.89
   0   0   2 2718.03   84.69
  -1   0  -2  908.91   27.90
  -1   0  -2  889.61   27.90
  -1   0  -2  881.71   27.70
   1   0   2  850.71   28.00
   1   0   2  898.21   27.60
   1   0   2  918.21   27.90
   1   0   2  903.01   28.20
  -2   0  -2 1919.31   63.19
  -2   0  -2 1941.91   63.09
  -2   0  -2 1987.40   63.09
   2   0   2 2180.38   63.29
   2   0   2 1972.40   63.19
   2   0   2 2150.58   64.69
   2   0   2 2001.40   63.09
   2   0   2 2177.68   63.69
  -3   0  -2  549.25   17.40
  -3   0  -2  537.55   17.20
  -3   0  -2  518.55   17.70
  -3   0  -2  551.04   17.80
   3   0   2  543.15   17.30
   3   0   2  539.95   18.10
   3   0   2  511.75   17.60
   3   0   2  543.25   17.40
  -4   0  -2  425.26   15.20
  -4   0  -2  424.46   14.20
  -4   0  -2  440.76   14.30
  -4   0  -2  427.66   15.00
   4   0   2  418.46   14.90
   4   0   2  436.06   14.30
   4   0   2  438.46   14.40
   4   0   2  438.56   15.50
  -5   0  -2    0.50    1.10
  -5   0  -2   -2.10    1.30
  -5   0  -2    0.70    1.00
  -5   0  -2   -1.30    1.60
   5   0   2    0.40    1.50
   5   0   2    0.40    1.00
   5   0   2    0.30    1.10
   5   0   2   -0.90    1.30
   5   0   2    0.10    1.90
  -6   0  -2   15.30    3.10
  -6   0  -2   19.40    2.30
  -6   0  -2   13.00    1.90
  -6   0  -2   17.90    3.10
   6   0   2   18.50    3.60
   6   0   2   16.10    2.10
   6   0   2   19.70    2.90
   6   0   2   16.90    2.30
   6   0   2   16.20    2.90
  -7   0  -2   -1.90    2.80
  -7   0  -2    2.90    2.60
  -7   0  -2    1.50    1.80
   7   0   2    5.40    2.00
   7   0   2   -2.40    3.60
   7   0   2    4.00    2.80
   7   0   2    3.40    1.60
   7   0   2    6.50    2.50
   7   0   2    2.10    1.80
  -8   0  -2   -1.50    3.00
  -8   0  -2    0.40    1.60
  -8   0  -2   -0.30    1.90
   8   0   2    0.00    2.10
   8   0   2   -1.90    5.10
   8   0   2    1.10    2.00
   8   0   2   -5.20    3.40
   8   0   2   -2.50    2.30
   8   0   2   -0.70    3.10
  -9   0  -2   -3.70    3.90
  -9   0  -2   -0.80    1.80
  -9   0  -2   -0.20    2.00
   9   0   2   -2.10    2.80
   9   0   2   -9.30    5.10
   9   0   2    6.40    2.60
   9   0   2    1.80    2.90
   9   0   2   -3.00    4.00
   9  -1  -2    0.00    1.50
   9  -1  -2  -10.00    6.50
   9  -1  -2  -12.20    4.90
   9  -1  -2    3.40    2.30
   9  -1  -2    0.60    2.00
  -9   1   2   -4.50    4.40
   8  -1  -2    5.40    5.00
   8  -1  -2   11.00    4.10
   8  -1  -2    7.80    2.30
   8  -1  -2    9.60    2.10
   8  -1  -2    7.40    1.50
   8  -1  -2   11.40    2.30
   8  -1  -2    0.50    5.20
  -8   1   2    9.80    3.70
  -8   1   2    8.80    3.00
  -8   1   2    5.00    5.10
   7  -1  -2   59.79    3.10
   7  -1  -2   65.29    7.20
   7  -1  -2   64.79    3.60
   7  -1  -2   66.79    6.60
   7  -1  -2   59.39    3.80
   7  -1  -2   61.09    3.60
  -7   1   2   73.09    5.80
  -7   1   2   57.49    7.50
  -7   1   2   63.89    4.60
   6  -1  -2   19.50    2.30
   6  -1  -2   18.70    3.50
   6  -1  -2   18.80    1.90
   6  -1  -2   17.30    3.90
   6  -1  -2   20.00    2.40
   6  -1  -2   21.90    1.90
  -6   1   2   29.00    3.70
  -6   1   2   22.40    2.80
  -6   1   2   24.70    4.70
   5  -1  -2   45.90    2.50
   5  -1  -2   48.20    2.40
   5  -1  -2   46.30    2.90
   5  -1  -2   49.80    4.20
   5  -1  -2   48.60    2.30
   5  -1  -2   45.70    4.60
  -5   1   2   42.00    3.10
  -5   1   2   45.80    2.10
  -5   1   2   45.60    2.00
  -5   1   2   44.10    4.80
  -5   1   2   48.00    3.70
   4  -1  -2    7.40    1.30
   4  -1  -2    5.90    2.10
   4  -1  -2    7.90    1.00
   4  -1  -2    8.20    1.00
   4  -1  -2    7.40    2.00
   4  -1  -2    8.30    1.90
   4  -1  -2    7.60    1.00
  -4   1   2    7.80    1.60
  -4   1   2    8.00    2.10
  -4   1   2    7.00    1.70
  -4   1   2    7.00    0.90
  -4   1   2    7.10    1.00
   3  -1  -2  119.29    5.40
   3  -1  -2  116.99    4.70
   3  -1  -2  128.09    5.20
   3  -1  -2  122.89    5.70
   3  -1  -2  118.49    4.20
   3  -1  -2  116.79    5.80
   3  -1  -2  119.89    4.30
  -3   1   2  122.59    5.00
  -3   1   2  121.69    4.90
  -3   1   2  121.29    4.20
  -3   1   2  120.19    4.10
  -3   1   2  117.89    4.80
  -3   1   2  114.69    5.70
   2  -1  -2  130.19    5.30
   2  -1  -2  126.59    4.90
   2  -1  -2  134.49    4.50
   2  -1  -2  131.19    4.50
   2  -1  -2  125.19    5.50
   2  -1  -2  134.19    5.00
  -2   1   2  134.29    4.60
  -2   1   2  136.99    4.90
  -2   1   2  134.49    4.40
  -2   1   2  123.19    5.50
  -2   1   2  134.29    5.00
   1  -1  -2    5.70    0.80
   1  -1  -2    6.30    0.70
   1  -1  -2    7.50    1.10
   1  -1  -2    5.20    0.70
   1  -1  -2    6.20    0.70
  -1   1   2    8.10    0.90
  -1   1   2    6.50    1.00
  -1   1   2    8.10    1.20
  -1   1   2    6.60    0.70
  -1   1   2    9.40    0.80
  -1   1   2    7.60    1.00
  -1   1   2    6.10    0.60
   0  -1  -2  184.38    6.40
   0  -1  -2  197.68    6.20
   0  -1  -2  189.98    6.20
   0   1   2  189.38    6.50
   0   1   2  181.18    6.30
   0   1   2  200.08    6.20
   0   1   2  192.08    6.30
   0   1   2  185.78    6.40
   0   1   2  190.28    6.40
  -1  -1  -2  156.58    5.50
  -1  -1  -2  157.58    5.60
  -1  -1  -2  161.28    5.50
   1   1   2  164.98    5.70
   1   1   2  164.88    5.50
   1   1   2  152.98    5.90
  -2  -1  -2  813.72   25.40
  -2  -1  -2  832.82   25.70
  -2  -1  -2  782.02   25.60
   2   1   2  777.82   25.60
   2   1   2  813.72   25.40
   2   1   2  800.52   25.50
   2   1   2  827.12   25.70
   2   1   2  808.72   25.60
  -3  -1  -2  113.09    4.70
  -3  -1  -2   95.49    4.50
  -3  -1  -2  107.59    4.40
  -3  -1  -2  111.99    4.50
   3   1   2  108.19    4.50
   3   1   2  109.69    4.10
   3   1   2  101.09    4.50
   3   1   2  110.09    4.50
   3   1   2  106.89    4.70
  -4  -1  -2  404.16   13.90
  -4  -1  -2  387.36   14.30
  -4  -1  -2  403.96   14.00
  -4  -1  -2  404.96   14.50
   4   1   2  411.96   13.90
   4   1   2  416.36   14.50
   4   1   2  415.36   14.00
   4   1   2  413.06   13.40
   4   1   2  397.06   14.20
  -5  -1  -2   10.30    1.90
  -5  -1  -2   10.90    2.00
  -5  -1  -2   12.20    1.90
  -5  -1  -2   11.70    2.20
  -5  -1  -2   13.60    2.60
   5   1   2   10.10    2.00
   5   1   2    8.90    1.50
   5   1   2    8.70    1.70
   5   1   2   10.80    2.50
   5   1   2   11.90    2.00
  -6  -1  -2    7.70    2.20
  -6  -1  -2    2.40    2.40
  -6  -1  -2    8.40    2.00
  -6  -1  -2    7.00    2.30
   6   1   2    4.70    2.30
   6   1   2    8.00    1.90
   6   1   2    5.80    1.40
   6   1   2    5.50    1.80
  -7  -1  -2   39.00    5.30
  -7  -1  -2   39.10    3.80
  -7  -1  -2   38.20    4.60
   7   1   2   37.50    4.00
   7   1   2   33.10    3.70
   7   1   2   37.00    3.10
   7   1   2   39.80    4.80
  -8  -1  -2   16.30    4.30
  -8  -1  -2   15.20    3.00
  -8  -1  -2   16.60    5.30
   8   1   2   13.60    3.90
   8   1   2   12.10    2.90
   8   1   2   14.40    3.30
   8   1   2   12.20    2.30
  -9  -1  -2    1.50    4.60
  -9  -1  -2    3.20    2.80
  -9  -1  -2    1.80    3.00
   9   1   2    4.90    4.80
   9   1   2   -1.60    2.50
   9   1   2    0.10    3.30
   9   1   2    3.00    2.90
   9   1   2    7.30    4.40
   9  -2  -2    4.90    2.50
   9  -2  -2    2.00    2.20
   9  -2  -2   -0.30    5.20
  -9   2   2   -0.80    3.20
   8  -2  -2    4.10    2.00
   8  -2  -2    3.80    4.00
   8  -2  -2    0.60    5.40
   8  -2  -2    4.00    2.10
   8  -2  -2    2.70    4.90
  -8   2   2    2.40    2.50
   7  -2  -2    7.10    2.00
   7  -2  -2    7.20    1.90
   7  -2  -2    3.80    4.40
   7  -2  -2   11.60    4.20
   7  -2  -2    1.10    2.80
  -7   2   2    6.80    2.30
  -7   2   2    3.20    3.00
  -7   2   2    7.30    4.00
   6  -2  -2   33.90    4.70
   6  -2  -2   36.00    5.50
   6  -2  -2   30.50    2.70
   6  -2  -2   36.00    5.10
   6  -2  -2   34.70    4.50
   6  -2  -2   27.50    2.90
  -6   2   2   28.30    4.60
  -6   2   2   34.20    4.10
  -6   2   2   32.10    3.20
   5  -2  -2   71.39    5.80
   5  -2  -2   62.09    4.60
   5  -2  -2   61.09    3.60
   5  -2  -2   60.39    5.70
   5  -2  -2   68.79    4.90
   5  -2  -2   66.09    3.40
  -5   2   2   65.49    3.90
  -5   2   2   70.19    5.50
  -5   2   2   65.09    4.40
   4  -2  -2  310.07   12.40
   4  -2  -2  305.97   11.40
   4  -2  -2  305.27   11.70
   4  -2  -2  311.57   12.30
   4  -2  -2  301.07   10.50
   4  -2  -2  301.77   10.80
  -4   2   2  296.67   12.30
  -4   2   2  298.17   10.80
   3  -2  -2   86.79    2.90
   3  -2  -2   89.99    4.50
   3  -2  -2   83.89    4.00
   3  -2  -2   87.79    4.30
   3  -2  -2   84.09    3.00
   3  -2  -2   89.69    3.70
   3  -2  -2   84.89    4.90
   3  -2  -2   89.39    5.00
  -3   2   2   84.39    4.90
  -3   2   2   83.79    3.80
   2  -2  -2  589.04   18.40
   2  -2  -2  583.14   18.50
   2  -2  -2  569.14   19.20
   2  -2  -2  606.74   19.50
   2  -2  -2  592.04   20.00
   2  -2  -2  591.34   18.90
   2  -2  -2  580.14   19.80
   2  -2  -2  601.34   19.30
  -2   2   2  602.14   19.60
  -2   2   2  587.94   18.40
  -2   2   2  576.34   19.80
  -2   2   2  579.74   18.30
  -2   2   2  605.64   18.90
   1  -2  -2 2260.57   71.49
   1  -2  -2 2273.27   71.49
   1  -2  -2 2367.56   71.69
   1  -2  -2 2359.96   71.89
   1  -2  -2 2295.97   71.99
  -1   2   2 2311.47   71.69
  -1   2   2 2373.66   71.49
  -1   2   2 2397.06   72.09
  -1   2   2 2293.07   71.49
  -1   2   2 2346.87   71.99
  -1   2   2 2225.58   71.99
   0  -2  -2 2428.56   77.19
   0  -2  -2 2473.35   77.69
   0  -2  -2 2448.85   77.19
   0  -2  -2 2735.23   77.59
   0  -2  -2 2439.56   77.19
   0   2   2 2560.14   77.59
   0   2   2 2650.83   77.59
   0   2   2 2421.26   77.79
   0   2   2 2455.05   77.19
   0   2   2 2378.16   77.19
  -1  -2  -2  791.52   24.90
  -1  -2  -2  767.22   24.50
  -1  -2  -2  716.83   24.30
  -1  -2  -2  799.52   24.90
   1   2   2  779.42   24.60
   1   2   2  796.22   24.90
   1   2   2  790.02   24.90
  -2  -2  -2  304.17   10.00
  -2  -2  -2  299.97   10.00
  -2  -2  -2  305.57   10.50
  -2  -2  -2  303.87   10.50
   2   2   2  282.67   10.10
   2   2   2  298.57   10.50
   2   2   2  298.87   10.00
   2   2   2  301.77   10.50
  -3  -2  -2  913.81   29.10
  -3  -2  -2  943.81   29.80
  -3  -2  -2  925.71   29.60
  -3  -2  -2  948.51   29.20
  -3  -2  -2  933.61   29.80
   3   2   2  905.21   29.80
   3   2   2  865.71   29.60
   3   2   2  919.11   29.10
   3   2   2  945.41   29.80
  -4  -2  -2  205.48    7.60
  -4  -2  -2  207.88    8.40
  -4  -2  -2  203.88    8.10
  -4  -2  -2  212.58    6.90
  -4  -2  -2  214.58    8.30
   4   2   2  210.78    7.50
   4   2   2  214.38    8.30
   4   2   2  201.58    8.30
   4   2   2  211.28    8.30
  -5  -2  -2   62.49    4.10
  -5  -2  -2   64.09    4.60
  -5  -2  -2   64.99    3.60
  -5  -2  -2   62.79    2.50
  -5  -2  -2   63.29    3.90
   5   2   2   63.49    4.00
   5   2   2   71.29    4.20
   5   2   2   60.69    3.10
   5   2   2   56.89    4.20
  -6  -2  -2  177.28    7.70
  -6  -2  -2  184.78    9.10
  -6  -2  -2  186.88    8.00
   6   2   2  176.08    8.50
   6   2   2  174.28    7.90
   6   2   2  178.78    6.90
   6   2   2  174.78    8.00
  -7  -2  -2   52.79    4.40
  -7  -2  -2   41.00    4.70
  -7  -2  -2   42.00    4.50
  -7  -2  -2   48.40    6.30
   7   2   2   41.20    4.50
   7   2   2   47.70    5.10
   7   2   2   37.40    3.10
   7   2   2   45.20    4.40
  -8  -2  -2   26.30    5.80
  -8  -2  -2   12.60    2.90
  -8  -2  -2   12.00    3.40
  -8  -2  -2   20.10    4.50
   8   2   2   14.20    3.90
   8   2   2   11.00    2.30
   8   2   2   15.30    3.70
   8   2   2   22.20    3.80
  -9  -2  -2   16.50    3.80
  -9  -2  -2    8.30   12.40
  -9  -2  -2    8.20    4.00
  -9  -2  -2   20.10    5.20
   9   2   2   10.30    4.80
   9   2   2   16.90    6.10
   9   2   2    9.60    4.10
   9   2   2   12.20    2.70
   8  -3  -2    0.60    4.00
   8  -3  -2   -2.00    6.20
   8  -3  -2    6.00    2.70
   8  -3  -2    7.40    2.70
  -8   3   2    7.60    2.90
   7  -3  -2    7.30    4.50
   7  -3  -2    5.70    2.40
   7  -3  -2    7.00    5.50
   7  -3  -2    0.10    2.90
   7  -3  -2   -3.30    5.30
   7  -3  -2   -4.90    3.70
   7  -3  -2    1.10    2.00
  -7   3   2    2.30    2.10
   6  -3  -2   -1.30    3.10
   6  -3  -2   -5.00    3.80
   6  -3  -2    2.40    2.30
   6  -3  -2    1.00    1.90
   6  -3  -2    1.70    1.90
   6  -3  -2    1.20    3.10
   6  -3  -2   -0.50    3.90
  -6   3   2   -1.20    1.90
   5  -3  -2    0.80    3.30
   5  -3  -2    0.10    3.20
   5  -3  -2    0.60    1.40
   5  -3  -2    0.80    1.80
   5  -3  -2    1.00    1.50
   5  -3  -2    1.00    2.50
   5  -3  -2    0.30    2.10
  -5   3   2    2.70    1.60
   4  -3  -2    8.20    2.90
   4  -3  -2    4.90    2.90
   4  -3  -2    4.70    2.00
   4  -3  -2    6.00    1.60
   4  -3  -2    4.90    1.50
   4  -3  -2    3.70    2.30
  -4   3   2    7.40    1.80
   3  -3  -2   -1.80    1.80
   3  -3  -2    1.50    1.90
   3  -3  -2    0.60    0.50
   3  -3  -2    0.40    0.50
   3  -3  -2    1.90    1.10
   3  -3  -2   -0.60    1.40
   3  -3  -2    1.60    1.50
  -3   3   2   -2.00    1.00
  -3   3   2    0.20    1.40
   2  -3  -2  394.06   12.80
   2  -3  -2  401.56   13.70
   2  -3  -2  401.16   14.10
   2  -3  -2  404.36   14.40
   2  -3  -2  386.86   12.70
  -2   3   2  416.06   13.00
  -2   3   2  404.26   13.90
  -2   3   2  401.46   12.60
  -2   3   2  334.97   12.90
   1  -3  -2    2.40    1.30
   1  -3  -2    0.70    0.80
   1  -3  -2    0.70    0.90
   1  -3  -2    0.00    0.70
   1  -3  -2    1.00    1.00
   1  -3  -2    0.90    0.30
  -1   3   2    0.50    0.70
  -1   3   2    1.40    0.80
  -1   3   2    2.00    0.90
  -1   3   2    0.60    0.90
  -1   3   2    1.30    0.80
   0  -3  -2  326.47   11.20
   0  -3  -2  329.17   11.20
   0  -3  -2  324.17   11.10
   0  -3  -2  334.77   11.30
   0   3   2  295.47   11.50
   0   3   2  323.37   11.10
   0   3   2  335.57   10.10
   0   3   2  329.57   11.10
  -1  -3  -2  477.25   15.80
  -1  -3  -2  473.05   15.50
  -1  -3  -2  479.95   16.10
  -1  -3  -2  475.65   16.10
   1   3   2  482.35   16.10
   1   3   2  481.05   15.80
   1   3   2  487.45   16.10
  -2  -3  -2   23.30    2.30
  -2  -3  -2   23.70    1.70
  -2  -3  -2   20.70    2.10
   2   3   2   23.80    1.80
   2   3   2   19.40    2.20
   2   3   2   19.50    1.70
   2   3   2   23.60    2.30
  -3  -3  -2   27.70    2.60
  -3  -3  -2   29.50    2.10
  -3  -3  -2   24.70    2.60
   3   3   2   25.30    2.60
   3   3   2   27.00    2.70
   3   3   2   27.60    2.00
   3   3   2   23.80    2.30
  -4  -3  -2    6.20    1.70
  -4  -3  -2    6.30    1.20
  -4  -3  -2    9.50    2.10
  -4  -3  -2    5.60    1.80
  -4  -3  -2    6.50    1.10
   4   3   2    6.70    2.00
   4   3   2    5.10    1.70
   4   3   2    7.40    1.40
   4   3   2    5.90    2.00
  -5  -3  -2    0.30    2.20
  -5  -3  -2   -1.30    1.60
  -5  -3  -2    0.30    1.90
  -5  -3  -2   -0.50    0.80
  -5  -3  -2   -0.60    1.00
   5   3   2    1.80    1.70
   5   3   2    0.70    1.90
   5   3   2    2.30    1.90
   5   3   2    0.90    1.10
  -6  -3  -2   92.79    5.70
  -6  -3  -2   98.39    3.90
  -6  -3  -2  100.99    6.70
  -6  -3  -2   91.99    5.90
   6   3   2   90.39    4.50
   6   3   2   98.39    6.00
   6   3   2   84.49    5.80
   6   3   2   92.29    5.90
  -7  -3  -2    9.40    3.70
  -7  -3  -2    4.00    2.70
  -7  -3  -2    0.40    3.00
  -7  -3  -2    1.00    1.00
   7   3   2    2.80    2.60
   7   3   2   -5.30    2.70
   7   3   2    0.40    2.70
   7   3   2    0.40    1.60
  -8  -3  -2    4.00    3.60
  -8  -3  -2   -2.10    4.90
  -8  -3  -2   -0.90    3.10
  -8  -3  -2   -0.30    3.50
   8   3   2    0.20    3.20
   8   3   2   -0.70    3.40
   8   3   2    1.40    2.10
   8   3   2    2.60    6.20
  -9  -3  -2   -5.20    4.50
  -9  -3  -2    6.70    4.70
  -9  -3  -2   -4.00    3.70
  -9  -3  -2    1.10    8.00
   9   3   2    1.00    4.40
   9   3   2   -4.60    4.00
   9   3   2    0.40    4.00
   9   3   2    1.70    2.30
   8  -4  -2    3.00    3.30
   8  -4  -2    5.70    3.20
   8  -4  -2   -3.70    4.20
  -8   4   2   -0.70    2.80
   7  -4  -2    2.00    2.80
   7  -4  -2    5.90    4.80
   7  -4  -2    2.00    2.60
   7  -4  -2   -3.50    4.50
   7  -4  -2    7.70    6.20
   7  -4  -2    5.90    3.10
   7  -4  -2    2.90    5.90
  -7   4   2    1.20    2.40
   6  -4  -2   12.00    5.50
   6  -4  -2    4.60    4.70
   6  -4  -2    8.80    2.60
   6  -4  -2    4.50    2.30
   6  -4  -2    4.40    3.50
   6  -4  -2    3.50    2.40
   6  -4  -2    2.80    3.50
  -6   4   2    3.50    2.00
   5  -4  -2   -0.90    2.70
   5  -4  -2    0.90    3.60
   5  -4  -2    5.20    1.90
   5  -4  -2   -0.30    1.80
   5  -4  -2    0.40    3.70
   5  -4  -2    2.20    2.10
   5  -4  -2    1.40    2.70
  -5   4   2    1.10    1.70
   4  -4  -2   16.10    3.10
   4  -4  -2   16.00    3.00
   4  -4  -2   13.60    1.90
   4  -4  -2   10.50    3.40
   4  -4  -2   14.00    2.20
   4  -4  -2   14.30    3.60
  -4   4   2   14.60    2.80
  -4   4   2   16.30    2.30
   3  -4  -2    1.90    2.30
   3  -4  -2   -0.10    0.80
   3  -4  -2    0.20    1.70
   3  -4  -2   -0.20    2.10
   3  -4  -2   -0.20    0.70
   3  -4  -2    0.40    0.80
   3  -4  -2   -0.60    1.40
  -3   4   2   -0.30    0.50
  -3   4   2   -0.70    0.90
  -3   4   2   -2.40    1.50
  -3   4   2    0.70    0.50
   2  -4  -2  690.23   22.50
   2  -4  -2  712.73   23.10
   2  -4  -2  662.83   21.70
   2  -4  -2  704.53   22.50
   2  -4  -2  716.63   24.10
   2  -4  -2  709.53   23.80
  -2   4   2  707.73   22.40
  -2   4   2  653.43   22.70
  -2   4   2  720.23   22.30
  -2   4   2  711.33   23.60
   1  -4  -2  941.61   30.40
   1  -4  -2  942.41   31.20
   1  -4  -2  953.40   30.70
   1  -4  -2  975.70   30.40
  -1   4   2  941.71   30.40
  -1   4   2  938.01   30.70
  -1   4   2  923.81   30.80
  -1   4   2  965.20   30.30
  -1   4   2  953.80   29.90
   0  -4  -2   26.50    2.40
   0  -4  -2   28.00    2.30
   0  -4  -2   28.60    2.40
   0  -4  -2   29.90    2.50
   0   4   2   29.80    2.60
   0   4   2   26.30    2.40
   0   4   2   26.20    2.30
  -1  -4  -2    6.50    1.30
  -1  -4  -2    7.50    1.80
  -1  -4  -2    7.80    1.50
  -1  -4  -2    4.50    1.40
   1   4   2    7.40    1.00
   1   4   2    9.30    1.90
   1   4   2    5.20    1.60
   1   4   2    5.90    1.50
  -2  -4  -2   41.80    3.30
  -2  -4  -2   42.60    3.40
  -2  -4  -2   45.20    2.80
  -2  -4  -2   43.70    2.00
   2   4   2   39.80    2.50
   2   4   2   45.00    2.90
   2   4   2   41.20    3.40
   2   4   2   48.00    3.40
  -3  -4  -2  223.78    9.10
  -3  -4  -2  227.18    8.20
  -3  -4  -2  217.88    9.10
   3   4   2  209.18    8.40
   3   4   2  229.78    9.20
   3   4   2  223.98    8.30
   3   4   2  224.18    9.20
  -4  -4  -2   23.90    3.50
  -4  -4  -2   27.80    2.40
  -4  -4  -2   31.30    3.50
   4   4   2   29.20    3.60
   4   4   2   23.10    2.50
   4   4   2   28.70    3.50
   4   4   2   20.50    2.90
  -5  -4  -2    6.10    2.60
  -5  -4  -2   -0.50    2.30
  -5  -4  -2    3.50    1.40
  -5  -4  -2    3.30    1.40
  -5  -4  -2   -0.90    1.90
   5   4   2   -1.20    2.10
   5   4   2    4.20    1.60
   5   4   2    0.30    2.20
   5   4   2    2.00    2.00
  -6  -4  -2    1.90    1.60
  -6  -4  -2    1.70    1.40
  -6  -4  -2    2.30    2.70
  -6  -4  -2    1.50    2.70
  -6  -4  -2   -1.10    3.10
   6   4   2    2.70    2.70
   6   4   2   -0.10    2.20
   6   4   2    2.90    1.70
   6   4   2    1.50    2.50
  -7  -4  -2   18.50    4.70
  -7  -4  -2   15.30    4.10
  -7  -4  -2   14.50    1.90
  -7  -4  -2   18.40    4.00
   7   4   2   14.30    4.00
   7   4   2    8.70    3.40
   7   4   2   10.30    3.70
   7   4   2   13.50    2.40
  -8  -4  -2    7.60    1.80
  -8  -4  -2    3.70    3.60
  -8  -4  -2    7.10    4.10
  -8  -4  -2    4.60    5.40
   8   4   2   -0.80    2.20
   8   4   2    0.50    3.60
   8   4   2   -1.70    4.70
   8   4   2   10.50    4.60
  -9  -4  -2   -6.50    4.30
  -9  -4  -2   -3.90    5.10
   9   4   2    8.30    5.30
   9   4   2    7.10    4.80
   9   4   2    1.40    4.50
   9   4   2   -3.80    2.60
   8  -5  -2    9.40    3.80
   8  -5  -2  -10.70    3.90
   8  -5  -2    0.20    4.30
  -8   5   2    0.20    3.10
   7  -5  -2   -2.40    3.50
   7  -5  -2    0.40    3.10
   7  -5  -2    0.70    3.10
  -7   5   2    6.50    2.90
   6  -5  -2   10.70    2.70
   6  -5  -2    5.70    4.20
   6  -5  -2    2.70    2.80
   6  -5  -2   12.70    6.20
   6  -5  -2    9.10    5.80
   6  -5  -2    3.50    4.40
   6  -5  -2    9.80    3.00
  -6   5   2   10.00    2.70
   5  -5  -2    1.90    3.00
   5  -5  -2    2.50    4.60
   5  -5  -2    0.50    2.30
   5  -5  -2    4.60    1.70
   5  -5  -2   -0.70    4.50
  -5   5   2   -3.20    2.60
  -5   5   2   -2.00    1.70
   4  -5  -2   27.00    4.90
   4  -5  -2   35.50    3.80
   4  -5  -2   32.00    2.40
   4  -5  -2   29.80    2.10
   4  -5  -2   34.80    4.50
   4  -5  -2   37.60    5.40
  -4   5   2   23.90    2.90
  -4   5   2   31.70    4.50
   3  -5  -2   -0.60    2.90
   3  -5  -2    3.70    2.00
   3  -5  -2    3.80    1.30
   3  -5  -2    3.10    1.40
   3  -5  -2    3.30    2.20
   3  -5  -2    0.90    3.00
  -3   5   2    2.20    2.10
  -3   5   2    1.90    0.90
  -3   5   2    1.80    1.30
  -3   5   2    3.20    1.10
   2  -5  -2    4.70    2.50
   2  -5  -2    3.10    1.40
   2  -5  -2   -0.10    2.40
   2  -5  -2    5.40    1.50
   2  -5  -2    3.50    1.80
  -2   5   2    1.30    1.10
  -2   5   2    3.50    1.30
  -2   5   2    0.20    1.70
  -2   5   2    6.50    1.50
   1  -5  -2   76.19    4.40
   1  -5  -2   69.19    4.70
   1  -5  -2   77.29    4.20
   1  -5  -2   71.79    4.20
  -1   5   2   77.99    3.40
  -1   5   2   75.59    4.20
  -1   5   2   83.49    4.50
  -1   5   2   75.89    4.00
   0  -5  -2    4.50    1.60
   0  -5  -2    4.60    1.70
   0  -5  -2    6.10    1.80
   0  -5  -2    2.30    1.60
   0   5   2    5.60    1.60
   0   5   2    4.30    1.60
   0   5   2    3.50    1.60
  -1  -5  -2   27.60    3.20
  -1  -5  -2   26.60    3.10
  -1  -5  -2   28.40    2.50
  -1  -5  -2   26.90    2.30
   1   5   2   25.10    3.10
   1   5   2   24.60    2.60
   1   5   2   29.00    3.10
   1   5   2   22.00    1.60
  -2  -5  -2    1.90    1.40
  -2  -5  -2    3.10    1.80
  -2  -5  -2    2.50    1.70
   2   5   2    6.80    2.30
   2   5   2    2.50    2.00
   2   5   2    2.70    1.20
   2   5   2    2.20    1.60
  -3  -5  -2    1.10    2.10
  -3  -5  -2   -0.60    1.70
  -3  -5  -2    1.80    1.40
   3   5   2   -1.00    1.30
   3   5   2    0.70    2.00
   3   5   2   -0.60    1.90
   3   5   2    0.80    1.50
  -4  -5  -2    0.90    2.30
  -4  -5  -2   -0.10    1.40
  -4  -5  -2    1.30    2.40
   4   5   2    1.90    1.70
   4   5   2    2.20    1.80
   4   5   2    2.90    2.40
  -5  -5  -2   21.80    3.90
  -5  -5  -2   17.60    2.40
  -5  -5  -2   20.80    2.80
  -5  -5  -2   20.10    3.70
  -5  -5  -2   19.60    3.70
   5   5   2   17.80    3.20
   5   5   2   20.70    2.70
   5   5   2   20.20    3.70
   5   5   2   20.50    4.10
  -6  -5  -2   -0.90    3.60
  -6  -5  -2    5.40    2.00
  -6  -5  -2   -0.70    3.30
  -6  -5  -2    0.80    1.90
  -6  -5  -2   -1.20    3.00
   6   5   2    2.40    2.10
   6   5   2    0.30    2.50
   6   5   2   -2.60    3.20
   6   5   2    6.80    3.50
  -7  -5  -2   25.70    3.60
  -7  -5  -2   36.40    6.50
  -7  -5  -2   27.00    5.40
  -7  -5  -2   30.00    5.40
   7   5   2   23.10    3.10
   7   5   2   30.10    5.40
   7   5   2   18.90    4.30
   7   5   2   22.90    5.10
  -8  -5  -2   -1.50    4.30
  -8  -5  -2    4.30    6.30
  -8  -5  -2    2.50    2.30
   8   5   2    4.80    4.70
   8   5   2   -2.60    4.90
   8   5   2   -0.70    4.10
   8   5   2   -3.60    2.60
  -9  -5  -2   19.60   10.10
  -9  -5  -2    6.70    5.70
  -9  -5  -2    7.20    2.80
   9   5   2    3.20    5.20
   9   5   2    3.70    6.00
   9   5   2    3.40    3.10
   9   5   2    2.10    5.60
   7  -6  -2   -2.50    4.20
   7  -6  -2   -1.20    4.10
   7  -6  -2   -1.80    2.90
  -7   6   2    0.80    3.20
   6  -6  -2    6.70    3.80
   6  -6  -2   -3.60    3.50
   6  -6  -2    8.00    8.40
   6  -6  -2    1.60    6.90
   6  -6  -2    3.40    2.10
  -6   6   2    3.40    2.60
   5  -6  -2    2.50    3.20
   5  -6  -2    0.20    4.00
   5  -6  -2    2.90    5.50
   5  -6  -2    5.70    5.40
   5  -6  -2    1.80    1.50
  -5   6   2    2.40    2.10
  -5   6   2    2.80    3.40
   4  -6  -2   75.99    3.90
   4  -6  -2   78.09    5.60
   4  -6  -2   76.59    4.00
   4  -6  -2   82.79    7.90
   4  -6  -2   78.39    8.20
   4  -6  -2   70.09    6.30
  -4   6   2   67.79    4.30
  -4   6   2   71.69    6.00
   3  -6  -2  160.18    8.40
   3  -6  -2  161.08    6.90
   3  -6  -2  173.28    9.70
   3  -6  -2  163.18    7.00
   3  -6  -2  187.88    9.90
   3  -6  -2  168.78    8.00
  -3   6   2  154.18    6.60
  -3   6   2  168.68    8.50
  -3   6   2  160.58    6.30
   2  -6  -2  675.23   24.20
   2  -6  -2  729.33   25.30
   2  -6  -2  724.03   23.80
   2  -6  -2  722.73   23.70
  -2   6   2  726.93   24.80
  -2   6   2  703.93   23.00
  -2   6   2  717.53   25.20
  -2   6   2  658.93   23.70
   1  -6  -2   39.40    3.90
   1  -6  -2   30.70    4.40
   1  -6  -2   45.40    3.80
   1  -6  -2   42.50    3.90
  -1   6   2   37.00    3.60
  -1   6   2   39.60    3.70
  -1   6   2   43.40    3.70
  -1   6   2   42.90    2.60
   0  -6  -2   75.79    4.90
   0  -6  -2   76.99    4.80
   0  -6  -2   80.29    5.10
   0  -6  -2   66.49    4.70
   0   6   2   75.59    4.80
   0   6   2   66.29    4.70
   0   6   2   69.79    3.40
  -1  -6  -2   11.90    3.00
  -1  -6  -2    7.90    2.30
  -1  -6  -2   10.70    2.30
   1   6   2    8.00    2.40
   1   6   2    9.60    1.40
   1   6   2   17.50    3.10
   1   6   2   10.90    2.50
  -2  -6  -2   21.70    3.10
  -2  -6  -2   23.20    3.50
  -2  -6  -2   23.50    3.60
   2   6   2   26.50    3.70
   2   6   2   15.50    2.20
   2   6   2   21.90    3.10
   2   6   2   17.30    3.10
  -3  -6  -2   18.20    2.80
  -3  -6  -2   21.00    3.60
  -3  -6  -2   20.50    3.70
   3   6   2   19.00    2.60
   3   6   2   23.80    4.00
   3   6   2   14.80    2.80
   3   6   2   16.00    3.40
  -4  -6  -2    4.40    2.00
  -4  -6  -2    1.50    3.30
  -4  -6  -2    3.50    3.00
   4   6   2   -1.00    2.80
   4   6   2    2.60    2.50
   4   6   2    1.00    2.90
   4   6   2    3.80    2.10
  -5  -6  -2    0.30    3.80
  -5  -6  -2    0.40    2.00
  -5  -6  -2    1.70    2.60
  -5  -6  -2    6.40    3.30
   5   6   2    3.20    2.50
   5   6   2   -0.70    2.50
   5   6   2   -1.40    3.30
   5   6   2    2.50    3.40
  -6  -6  -2    0.40    3.50
  -6  -6  -2    4.40    2.30
  -6  -6  -2   -2.50    4.20
  -6  -6  -2    5.60    4.10
  -6  -6  -2    4.80    2.70
   6   6   2   -1.90    2.90
   6   6   2   -1.00    4.10
   6   6   2    1.10    2.50
   6   6   2    3.00    3.90
  -7  -6  -2   20.20    5.30
  -7  -6  -2   20.70    6.90
  -7  -6  -2   22.90    3.40
  -7  -6  -2   24.10    8.50
  -7  -6  -2   13.30    3.30
   7   6   2   16.70    5.50
   7   6   2   14.20    3.80
   7   6   2   14.30    5.60
   7   6   2   13.20    4.60
  -8  -6  -2    3.20    5.50
  -8  -6  -2   12.40    8.40
  -8  -6  -2    3.30    3.20
   8   6   2    0.70    4.60
   8   6   2  -12.10    5.40
   8   6   2    7.60    6.00
   6  -7  -2    1.10    4.40
   6  -7  -2   -1.00    1.70
  -6   7   2   -7.10    4.90
  -6   7   2   -3.20    2.70
   5  -7  -2   -0.90    1.60
   5  -7  -2   -4.90    7.20
   5  -7  -2    1.60    4.10
   5  -7  -2   -4.60    6.40
   5  -7  -2    0.00    1.60
  -5   7   2    5.90    2.60
  -5   7   2   -1.80    3.80
   4  -7  -2    0.30    3.40
   4  -7  -2   -5.40    5.20
   4  -7  -2    1.80    2.10
   4  -7  -2    8.00    2.20
   4  -7  -2   -3.30    5.00
   4  -7  -2    9.40    4.40
  -4   7   2    6.70    2.30
  -4   7   2    3.50    1.60
  -4   7   2   -2.00    3.30
  -4   7   2    3.20    1.30
   3  -7  -2    5.30    2.40
   3  -7  -2   10.60    4.00
   3  -7  -2   16.20    3.70
   3  -7  -2   11.10    4.80
   3  -7  -2    0.00    4.10
   3  -7  -2    5.80    2.30
  -3   7   2    4.30    1.80
  -3   7   2    9.70    3.70
  -3   7   2    7.20    2.00
  -3   7   2    5.80    2.40
   2  -7  -2    2.40    2.20
   2  -7  -2    7.80    3.90
   2  -7  -2    1.90    2.90
   2  -7  -2    2.20    2.50
  -2   7   2    5.80    2.40
  -2   7   2    2.40    2.00
  -2   7   2    2.90    2.80
  -2   7   2    2.60    1.60
   1  -7  -2   94.09    6.10
   1  -7  -2   93.49    6.30
   1  -7  -2  104.29    6.30
   1  -7  -2   96.79    6.80
  -1   7   2  100.69    5.90
  -1   7   2   97.59    6.10
  -1   7   2   98.89    6.10
  -1   7   2   96.89    4.60
   0  -7  -2   59.79    5.20
   0  -7  -2   61.89    5.60
   0  -7  -2   59.19    5.30
   0   7   2   60.39    3.50
   0   7   2   68.69    5.40
   0   7   2   66.29    5.40
  -1  -7  -2   91.59    6.40
  -1  -7  -2   95.29    5.90
  -1  -7  -2  101.99    6.90
   1   7   2   93.29    6.60
   1   7   2   88.89    4.60
   1   7   2   83.39    6.20
  -2  -7  -2    6.00    3.60
  -2  -7  -2    4.10    2.60
  -2  -7  -2    9.30    3.00
   2   7   2    4.30    1.40
   2   7   2    1.60    3.10
   2   7   2    8.50    3.10
  -3  -7  -2   22.20    3.30
  -3  -7  -2   24.20    4.60
  -3  -7  -2   27.50    4.60
   3   7   2   28.40    4.80
   3   7   2   31.50    4.80
   3   7   2   18.90    3.40
   3   7   2   22.20    2.70
  -4  -7  -2    7.20    3.90
  -4  -7  -2    3.30    4.00
  -4  -7  -2    5.40    2.60
   4   7   2    3.50    2.70
   4   7   2    6.60    2.50
   4   7   2    6.50    4.00
   4   7   2    1.20    3.90
  -5  -7  -2    8.50    2.80
  -5  -7  -2    5.10    4.60
  -5  -7  -2    8.00    3.50
  -5  -7  -2   -0.70    3.70
   5   7   2    2.00    4.10
   5   7   2   -3.10    4.20
   5   7   2    5.70    3.10
   5   7   2    5.10    2.80
  -6  -7  -2    5.50    3.60
  -6  -7  -2   -4.50    2.70
  -6  -7  -2   -2.80    4.60
  -6  -7  -2  -12.30    5.10
  -6  -7  -2    1.60    5.50
   6   7   2    0.50    4.90
   6   7   2    6.30    3.60
   6   7   2    1.90    3.40
   6   7   2   -2.90    4.90
  -7  -7  -2   -0.70    3.20
  -7  -7  -2   -4.40    7.30
  -7  -7  -2    0.40    5.50
  -7  -7  -2    6.70    4.10
   7   7   2   10.40    4.70
   7   7   2   -5.20    5.80
   7   7   2    0.20    5.90
   5  -8  -2   -1.50    2.40
   5  -8  -2    3.50    5.00
  -5   8   2   -0.40    3.00
  -5   8   2    0.60    5.30
   4  -8  -2    2.00    4.20
   4  -8  -2    2.10    2.90
   4  -8  -2    1.10    2.80
   4  -8  -2    5.80    7.50
  -4   8   2    1.00    1.90
  -4   8   2   -0.50    2.30
  -4   8   2    1.50    2.30
  -4   8   2   -5.90    4.00
   3  -8  -2   47.10    7.80
   3  -8  -2   43.00    7.40
   3  -8  -2   49.60    5.50
   3  -8  -2   50.39    5.50
   3  -8  -2   39.70    6.20
  -3   8   2   46.70    4.50
  -3   8   2   48.90    6.40
  -3   8   2   62.69    4.30
  -3   8   2   52.39    5.30
   2  -8  -2   18.00    3.90
   2  -8  -2    9.50    3.40
   2  -8  -2   10.50    3.90
  -2   8   2   12.30    2.40
  -2   8   2   11.30    2.80
  -2   8   2   14.80    3.60
  -2   8   2   12.90    4.00
   1  -8  -2    2.40    3.00
   1  -8  -2   -1.10    3.20
   1  -8  -2    6.90    3.50
  -1   8   2    6.20    3.00
  -1   8   2    0.50    3.00
  -1   8   2    4.70    3.10
  -1   8   2    3.80    1.70
   0  -8  -2   -4.40    3.30
   0  -8  -2    3.10    3.10
   0  -8  -2    4.10    3.20
   0   8   2    4.40    3.30
   0   8   2    3.40    3.30
   0   8   2    0.20    1.50
  -1  -8  -2   -0.20    3.20
  -1  -8  -2    4.20    3.40
  -1  -8  -2   -3.30    3.70
   1   8   2    2.30    3.50
   1   8   2   10.10    3.80
  -2  -8  -2    4.50    3.30
  -2  -8  -2   -0.60    4.20
  -2  -8  -2    2.80    3.90
   2   8   2    2.10    3.80
   2   8   2    0.90    1.40
   2   8   2    1.10    3.70
  -3  -8  -2   10.30    4.90
  -3  -8  -2   17.10    4.80
  -3  -8  -2    6.90    3.40
   3   8   2    7.70    4.60
   3   8   2   12.00    2.40
   3   8   2    9.40    4.40
  -4  -8  -2    7.40    5.20
  -4  -8  -2    0.80    4.30
  -4  -8  -2    3.70    3.20
   4   8   2    4.70    4.90
   4   8   2   -1.20    2.50
   4   8   2   -2.40    5.00
  -5  -8  -2    6.60    5.70
  -5  -8  -2    7.80    4.80
  -5  -8  -2    4.50    3.50
  -5  -8  -2    2.80    8.40
   5   8   2    0.40    3.20
   5   8   2    0.80    5.60
   5   8   2   12.50    5.70
  -6  -8  -2   -6.00    3.50
  -6  -8  -2    8.20    5.80
  -6  -8  -2    4.80    5.10
   6   8   2   -0.20    4.20
   6   8   2   -1.10    6.20
   4  -9  -2   -9.50    5.60
   4  -9  -2    4.30    4.50
   4  -9  -2    6.40    4.10
  -4   9   2    7.20    3.60
  -4   9   2    4.90    2.70
  -4   9   2    2.20    3.30
  -4   9   2   -7.90    5.70
   3  -9  -2    5.30    7.80
   3  -9  -2   -4.70    4.00
   3  -9  -2    5.00    4.30
   3  -9  -2    3.30    5.00
  -3   9   2   10.20    4.90
  -3   9   2    8.90    3.40
  -3   9   2    5.70    2.80
   2  -9  -2    3.00    3.90
   2  -9  -2    4.10    4.60
   2  -9  -2    4.60    4.40
  -2   9   2    1.20    4.50
  -2   9   2    0.00    3.30
  -2   9   2   12.10    4.80
  -2   9   2   -0.80    2.40
   1  -9  -2    7.30    4.90
   1  -9  -2   -0.90    4.10
   1  -9  -2   -0.60    4.00
  -1   9   2    0.40    3.60
  -1   9   2    1.90    2.20
  -1   9   2   -3.50    3.70
  -1   9   2   -4.60    3.70
   0  -9  -2   12.50    5.20
   0  -9  -2   -6.20    4.10
   0  -9  -2    3.00    4.00
   0   9   2    0.90    1.90
   0   9   2   -3.20    4.20
   0   9   2   -2.20    3.70
  -1  -9  -2   -1.20    3.90
  -1  -9  -2   -6.50    5.30
  -1  -9  -2    8.30    4.60
   1   9   2    1.20    4.50
   1   9   2    6.70    4.70
   1   9   2    1.60    2.10
  -2  -9  -2   -0.90    6.00
  -2  -9  -2   -2.90    4.30
  -2  -9  -2   -7.00    6.50
   2   9   2   11.40    5.20
   2   9   2    3.30    1.50
  -3  -9  -2   -1.60    6.10
  -3  -9  -2   10.90    5.10
   3   9   2   10.30    5.90
   3   9   2    8.40    2.50
  -4  -9  -2    5.30    5.50
   4   9   2    5.00    6.00
   4   9   2    2.10    2.90
  -5  -9  -2   -5.90    6.00
   5   9   2   13.40    7.10
   5   9   2   -1.00    3.50
   1 -10  -2   14.30    6.40
   1 -10  -2    0.20    5.30
   1 -10  -2    3.00    6.80
  -1  10   2    8.00    5.80
  -1  10   2    9.20    5.70
  -1  10   2    6.20    3.10
   0 -10  -2    3.00    5.60
   0 -10  -2  -10.40    6.80
   0 -10  -2    8.70    5.60
   0  10   2   -2.10    2.60
   0  10   2   -1.50    5.30
  -1 -10  -2    5.70    5.90
  -1 -10  -2   12.00    5.70
  -1 -10  -2    3.80    7.50
   1  10   2   -0.80    6.00
   1  10   2   -0.10    2.50
  -2 -10  -2    1.20    5.80
  -2 -10  -2   12.00    6.10
  -2 -10  -2   -3.80    8.40
   2  10   2   -6.30    6.50
   2   9  -3   -2.80    4.40
   2   9  -3  -13.80    6.90
   2   9  -3   -0.90    3.80
  -2  -9   3    5.40    6.00
  -2  -9   3   -4.50    5.50
   1   9  -3    5.50    7.10
   1   9  -3    5.90    3.00
   1   9  -3    0.00    4.60
  -1  -9   3    4.50    8.60
  -1  -9   3    7.60    5.60
  -1  -9   3   -3.70    5.80
   0   9  -3    1.70    2.30
   0   9  -3   -4.00    2.40
   0   9  -3   -0.60    5.10
   0   9  -3    1.20    6.10
   0  -9   3    6.60    7.70
   0  -9   3   -7.70    5.80
   0  -9   3   -0.90    5.50
  -1   9  -3   -1.90    5.60
  -1   9  -3    4.60    2.60
  -1   9  -3   -0.70    5.70
  -1   9  -3   -0.60    2.20
   1  -9   3    1.00    6.00
   1  -9   3   10.60    5.60
   1  -9   3   -2.10    5.80
   1  -9   3   -1.10    6.90
  -2   9  -3    1.40    4.60
  -2   9  -3    4.40    5.60
  -2   9  -3    2.90    2.60
  -2   9  -3   -9.20    6.80
   2  -9   3  -10.10    6.40
   2  -9   3    4.90    6.30
   2  -9   3   -7.80    5.20
   4   8  -3   -0.90    2.70
   4   8  -3    2.60    6.50
  -4  -8   3   11.20    6.30
   3   8  -3    2.90    6.10
   3   8  -3   -0.40    3.00
  -3  -8   3   -9.00    4.00
  -3  -8   3    8.20    5.30
   2   8  -3   -6.60    5.10
   2   8  -3    3.50    3.10
   2   8  -3    1.60    3.10
  -2  -8   3    2.00    6.30
  -2  -8   3   -1.30    4.00
  -2  -8   3    5.30    5.50
   1   8  -3    2.50    2.80
   1   8  -3    2.70    5.00
   1   8  -3    5.40    3.70
  -1  -8   3    9.70    4.30
  -1  -8   3    1.30    5.60
  -1  -8   3    3.10    4.70
   0   8  -3   -0.30    2.00
   0   8  -3    7.40    4.80
   0   8  -3    4.10    3.70
   0   8  -3    4.30    3.90
   0  -8   3    0.10    4.10
   0  -8   3    4.20    5.00
  -1   8  -3   -1.20    1.80
  -1   8  -3    5.40    4.50
  -1   8  -3    0.70    1.80
  -1   8  -3   -3.60    4.00
  -1   8  -3   -2.70    3.30
   1  -8   3    3.30    5.00
   1  -8   3   -3.50    4.40
   1  -8   3    7.00    4.10
  -2   8  -3   -3.30    3.20
  -2   8  -3   -0.70    1.90
  -2   8  -3    0.00    3.60
  -2   8  -3    2.10    5.10
  -2   8  -3   -2.60    3.90
   2  -8   3   -1.50    4.50
   2  -8   3    2.10    4.90
   2  -8   3   -1.60    3.90
   2  -8   3    5.70    5.10
  -3   8  -3    4.80    6.00
  -3   8  -3    7.50    3.50
  -3   8  -3    9.60    4.10
  -3   8  -3    3.00    4.10
  -3   8  -3    6.20    2.20
   3  -8   3    3.40    5.20
   3  -8   3   -7.00    5.10
   3  -8   3    7.60    4.70
   3  -8   3    6.90    4.30
  -4   8  -3    1.30    4.90
  -4   8  -3    6.60    3.80
  -4   8  -3    0.30    7.70
  -4   8  -3    3.70    3.80
   4  -8   3    3.90    4.10
   4  -8   3    7.10    4.60
   4  -8   3   10.10    5.80
   6   7  -3    2.40    7.00
  -6  -7   3    4.80    6.80
  -6  -7   3    6.00    3.00
   5   7  -3   13.60    5.40
   5   7  -3    8.80    6.10
  -5  -7   3    0.00    4.90
   4   7  -3    0.60    5.60
   4   7  -3   -2.20    4.50
   4   7  -3    0.90    2.20
  -4  -7   3   -7.20    5.20
  -4  -7   3   -5.30    2.90
  -4  -7   3    6.70    4.80
  -4  -7   3    4.10    4.70
   3   7  -3    4.50    4.60
   3   7  -3   -0.20    3.60
   3   7  -3   -0.50    2.30
  -3  -7   3   -0.60    4.20
  -3  -7   3   -6.60    4.60
  -3  -7   3   -2.00    2.90
  -3  -7   3    4.30    4.30
   2   7  -3   -1.10    2.50
   2   7  -3    0.70    2.40
   2   7  -3    2.20    2.90
   2   7  -3    4.60    4.00
  -2  -7   3    1.70    4.50
  -2  -7   3    0.30    2.90
  -2  -7   3    2.30    3.80
  -2  -7   3   -7.10    3.40
   1   7  -3    3.00    2.60
   1   7  -3    0.40    2.70
   1   7  -3    0.30    3.60
   1   7  -3   -3.10    1.90
  -1  -7   3    3.50    3.40
  -1  -7   3   -1.20    3.90
  -1  -7   3    1.10    3.80
  -1  -7   3   -4.30    2.90
   0   7  -3    6.50    3.60
   0   7  -3    5.00    2.70
   0   7  -3    6.20    3.20
   0   7  -3    4.50    1.80
   0  -7   3    2.50    3.60
   0  -7   3   -0.30    3.10
   0  -7   3    1.90    4.00
   0  -7   3    1.40    3.40
  -1   7  -3   15.70    4.00
  -1   7  -3    7.10    2.90
  -1   7  -3   13.30    1.60
  -1   7  -3   10.10    1.80
  -1   7  -3   14.10    4.00
   1  -7   3    9.00    3.60
   1  -7   3   10.40    4.20
   1  -7   3   10.70    3.60
  -2   7  -3    3.50    3.00
  -2   7  -3    4.90    2.80
  -2   7  -3   -0.60    3.80
  -2   7  -3    3.80    1.70
  -2   7  -3    3.80    1.60
   2  -7   3   -4.90    3.20
   2  -7   3    0.70    3.30
   2  -7   3   -0.40    3.10
   2  -7   3    4.30    4.20
   2  -7   3    4.60    3.60
  -3   7  -3    4.60    1.90
  -3   7  -3    6.00    3.10
  -3   7  -3   -1.90    4.40
  -3   7  -3    1.30    2.50
  -3   7  -3    1.10    3.10
   3  -7   3   -2.00    3.00
   3  -7   3    1.60    4.00
   3  -7   3    5.10    4.10
   3  -7   3    4.00    3.40
  -4   7  -3   -1.20    3.10
  -4   7  -3    1.60    3.70
  -4   7  -3    5.10    2.40
  -4   7  -3   15.60    7.60
  -4   7  -3    3.80    2.70
   4  -7   3    1.40    4.60
   4  -7   3    3.30    4.10
   4  -7   3    9.00    3.50
   4  -7   3    0.40    3.20
   4  -7   3   -2.50    4.60
  -5   7  -3   11.20    4.00
  -5   7  -3   -0.30    6.60
  -5   7  -3    5.80    2.90
  -5   7  -3    8.50    4.50
   5  -7   3    9.40    5.10
   5  -7   3   12.50    3.70
   5  -7   3   11.20    3.40
   5  -7   3    6.60    6.50
   5  -7   3    1.40    5.20
  -6   7  -3   17.20    8.50
  -6   7  -3    6.80    2.70
  -6   7  -3   -0.90    4.70
  -6   7  -3    4.70    2.40
   6  -7   3  -10.10    5.60
   6  -7   3    5.70    3.60
   6  -7   3    6.20    2.70
   6  -7   3    2.30    3.30
   6  -7   3   13.10    6.20
   7   6  -3    0.00    6.90
   7   6  -3   -6.60    5.90
  -7  -6   3    4.30    6.00
  -7  -6   3    9.70    5.50
   6   6  -3   11.10    2.10
   6   6  -3   25.40    6.10
   6   6  -3   21.90    5.90
  -6  -6   3   18.40    2.60
  -6  -6   3   11.90    5.40
  -6  -6   3   16.80    5.20
   5   6  -3   -1.70    4.90
   5   6  -3   10.70    4.00
  -5  -6   3   10.30    4.90
  -5  -6   3    0.70    5.10
  -5  -6   3    4.20    2.20
  -5  -6   3    1.20    3.80
   4   6  -3    0.80    3.80
   4   6  -3   -1.40    3.00
  -4  -6   3   -3.80    2.20
  -4  -6   3   -1.90    4.00
  -4  -6   3    1.60    3.90
   3   6  -3   -0.10    2.60
   3   6  -3   -0.10    3.50
  -3  -6   3   -6.80    3.20
  -3  -6   3   -2.80    3.50
  -3  -6   3    1.20    2.30
  -3  -6   3    2.20    3.20
   2   6  -3    1.30    2.60
   2   6  -3   -1.90    2.80
  -2  -6   3   -1.40    2.70
  -2  -6   3    3.40    2.90
  -2  -6   3    1.00    2.30
  -2  -6   3    2.90    3.70
   1   6  -3   29.40    4.10
   1   6  -3   24.90    3.50
   1   6  -3   27.50    3.90
   1   6  -3   20.90    3.00
  -1  -6   3   25.90    4.00
  -1  -6   3   26.30    3.50
  -1  -6   3   25.70    4.20
  -1  -6   3   27.60    4.20
   0   6  -3    0.00    2.30
   0   6  -3    1.10    1.90
   0   6  -3   -0.50    1.30
   0   6  -3    1.60    2.60
   0  -6   3   -3.50    2.20
   0  -6   3    1.10    2.80
   0  -6   3    4.90    4.60
   0  -6   3   -1.90    2.30
  -1   6  -3    7.70    2.70
  -1   6  -3    8.10    1.20
  -1   6  -3    7.30    1.50
  -1   6  -3    8.00    2.90
  -1   6  -3   13.00    2.80
   1  -6   3    8.70    3.10
   1  -6   3    5.10    2.80
   1  -6   3    9.10    3.00
   1  -6   3    9.40    2.50
  -2   6  -3    4.30    1.40
  -2   6  -3    3.40    2.10
  -2   6  -3    2.50    2.40
  -2   6  -3    6.60    3.20
  -2   6  -3    4.20    1.10
   2  -6   3    2.70    3.00
   2  -6   3    2.20    2.40
   2  -6   3    5.00    2.60
   2  -6   3    2.80    2.70
  -3   6  -3   19.90    3.20
  -3   6  -3   22.40    2.90
  -3   6  -3   27.10    5.20
  -3   6  -3   21.90    3.40
  -3   6  -3   17.70    2.70
   3  -6   3   21.50    3.10
   3  -6   3   20.30    3.90
   3  -6   3   26.00    3.60
  -4   6  -3   15.20    5.10
  -4   6  -3   14.60    2.50
  -4   6  -3   12.30    2.30
  -4   6  -3   11.50    3.50
  -4   6  -3    8.30    3.50
   4  -6   3   15.30    3.00
   4  -6   3   12.40    2.00
   4  -6   3   13.50    3.90
   4  -6   3   13.70    3.00
  -5   6  -3    1.00    2.20
  -5   6  -3    5.00    3.20
   5  -6   3    1.30    2.30
   5  -6   3    1.10    1.90
   5  -6   3    4.20    2.60
   5  -6   3    4.60    4.50
  -6   6  -3    2.90    1.90
  -6   6  -3    3.00    2.00
  -6   6  -3   -9.90    5.90
  -6   6  -3    2.40    3.80
   6  -6   3    4.20    2.80
   6  -6   3   -9.00    5.50
   6  -6   3    1.30    2.20
   6  -6   3    3.40    2.40
  -7   6  -3  -18.50    8.10
   7  -6   3    3.70    3.00
   7  -6   3   -2.50    4.70
   7  -6   3   -4.30    2.70
   7   5  -3   13.20    3.20
   7   5  -3   10.70    5.30
   7   5  -3   12.50    5.60
  -7  -5   3   16.20    7.20
  -7  -5   3    5.90    4.10
  -7  -5   3   15.30    5.00
  -7  -5   3    7.50    4.50
   6   5  -3    8.00    4.50
   6   5  -3    5.00    4.30
   6   5  -3    2.90    2.70
  -6  -5   3    8.90    3.30
  -6  -5   3    6.50    1.90
  -6  -5   3    6.60    4.90
  -6  -5   3   11.80    4.60
   5   5  -3   31.70    5.30
   5   5  -3   19.80    4.00
  -5  -5   3   20.60    2.70
  -5  -5   3   33.10    5.40
  -5  -5   3   26.70    5.20
  -5  -5   3   25.00    3.90
   4   5  -3   44.70    5.10
   4   5  -3   36.30    5.00
  -4  -5   3   56.69    6.10
  -4  -5   3   56.59    5.20
  -4  -5   3   44.10    5.70
  -4  -5   3   45.20    3.50
   3   5  -3   31.00    4.60
   3   5  -3   25.60    3.70
  -3  -5   3   32.70    4.80
  -3  -5   3   27.40    3.60
  -3  -5   3   37.00    4.80
  -3  -5   3   25.10    3.00
   2   5  -3    8.20    2.60
   2   5  -3    9.50    3.00
  -2  -5   3    8.50    2.70
  -2  -5   3   11.60    2.70
  -2  -5   3   15.70    2.60
  -2  -5   3   13.00    2.90
   1   5  -3   81.89    5.20
   1   5  -3   87.09    5.70
   1   5  -3   74.69    4.30
  -1  -5   3   97.29    5.70
  -1  -5   3   90.09    4.90
  -1  -5   3   86.19    5.80
  -1  -5   3   96.29    5.60
   0   5  -3   44.30    3.70
   0   5  -3   45.40    4.20
   0   5  -3   48.60    3.00
   0  -5   3   47.90    4.10
   0  -5   3   43.40    4.30
   0  -5   3   41.90    4.30
  -1   5  -3    5.60    1.30
  -1   5  -3    2.20    1.90
  -1   5  -3    4.20    2.10
  -1   5  -3    5.00    1.70
   1  -5   3    5.80    2.20
   1  -5   3    0.20    2.10
   1  -5   3    6.70    2.10
  -2   5  -3    9.30    2.00
  -2   5  -3   11.80    1.10
  -2   5  -3   11.30    1.70
  -2   5  -3   14.30    3.00
  -2   5  -3    6.90    2.20
   2  -5   3    7.10    2.10
   2  -5   3    7.80    2.50
   2  -5   3    8.30    2.30
   2  -5   3   13.10    2.40
  -3   5  -3    0.20    1.70
  -3   5  -3    3.50    2.90
  -3   5  -3   -0.80    1.20
  -3   5  -3   -2.00    1.40
  -3   5  -3    3.00    1.90
   3  -5   3    0.30    1.80
   3  -5   3    1.40    2.20
   3  -5   3    1.10    1.20
   3  -5   3    0.10    1.90
  -4   5  -3   59.29    6.10
  -4   5  -3   51.19    4.00
  -4   5  -3   57.69    4.70
  -4   5  -3   50.79    3.50
  -4   5  -3   46.50    3.80
   4  -5   3   50.19    4.00
   4  -5   3   54.09    4.00
   4  -5   3   48.60    5.10
   4  -5   3   54.79    3.40
  -5   5  -3   10.10    2.10
  -5   5  -3   15.10    5.00
  -5   5  -3    8.30    2.50
  -5   5  -3   10.40    3.30
   5  -5   3   10.40    2.10
   5  -5   3    8.90    3.50
   5  -5   3   14.80    2.30
   5  -5   3   12.90    2.50
  -6   5  -3    4.40    3.10
  -6   5  -3    2.50    1.60
   6  -5   3    2.00    2.00
   6  -5   3   -1.50    6.50
   6  -5   3    2.60    2.20
   6  -5   3    5.20    2.20
   6  -5   3    9.10    4.50
  -7   5  -3    3.60    6.70
   7  -5   3    9.20    3.10
   7  -5   3    5.20    2.20
   7  -5   3    7.30    3.80
  -8   5  -3   10.70    8.60
   8  -5   3    1.60    3.60
   8  -5   3    5.80    4.20
   8   4  -3    3.00    4.30
   8   4  -3    4.20    5.50
   8   4  -3    3.50    5.20
  -8  -4   3   -3.50    7.80
  -8  -4   3    0.30    4.70
  -8  -4   3   -2.60    5.30
  -8  -4   3    7.40    4.60
   7   4  -3    6.60    4.20
   7   4  -3    8.10    4.50
   7   4  -3    7.30    3.40
  -7  -4   3    1.80    3.50
  -7  -4   3    3.60    4.10
  -7  -4   3   -2.20    6.00
  -7  -4   3   -0.40    3.50
  -7  -4   3    5.90    4.60
   6   4  -3    7.90    3.40
   6   4  -3    3.40    2.70
   6   4  -3    6.60    3.70
  -6  -4   3    3.10    3.40
  -6  -4   3    7.20    4.00
  -6  -4   3    4.50    2.90
   5   4  -3  113.89    7.40
   5   4  -3  105.49    6.80
  -5  -4   3  117.59    7.40
  -5  -4   3  114.99    7.30
  -5  -4   3  106.89    4.30
  -5  -4   3  113.39    6.30
   4   4  -3   -0.80    2.10
  -4  -4   3    0.20    2.50
  -4  -4   3    0.00    1.20
  -4  -4   3   -2.00    2.30
  -4  -4   3    2.20    2.10
   3   4  -3   16.80    3.30
   3   4  -3   14.30    2.60
  -3  -4   3   17.30    2.70
  -3  -4   3   17.20    3.00
  -3  -4   3   19.30    2.20
  -3  -4   3   12.60    2.70
   2   4  -3   46.00    4.10
   2   4  -3   47.50    3.80
  -2  -4   3   48.20    4.30
  -2  -4   3   46.20    3.20
  -2  -4   3   50.19    4.30
  -2  -4   3   47.20    4.10
   1   4  -3   13.10    2.30
   1   4  -3   16.50    2.60
  -1  -4   3   18.40    2.50
  -1  -4   3   20.40    2.90
  -1  -4   3   11.20    2.20
   0   4  -3   21.10    2.70
   0   4  -3   25.10    2.10
   0   4  -3   24.70    2.60
   0  -4   3   24.80    2.90
   0  -4   3   20.10    2.80
   0  -4   3   21.60    3.00
  -1   4  -3   32.30    3.00
  -1   4  -3   37.50    1.90
  -1   4  -3   40.80    2.30
  -1   4  -3   38.40    2.90
   1  -4   3   34.80    3.10
   1  -4   3   33.40    3.00
   1  -4   3   36.80    3.30
  -2   4  -3    1.00    1.10
  -2   4  -3   -0.40    1.10
  -2   4  -3    2.20    1.00
  -2   4  -3    1.30    1.80
   2  -4   3    1.40    1.40
   2  -4   3    2.20    1.70
   2  -4   3    0.60    1.40
   2  -4   3    0.70    1.30
   2  -4   3    0.30    0.80
  -3   4  -3   20.40    3.50
  -3   4  -3   14.10    2.30
  -3   4  -3   15.00    2.00
  -3   4  -3   17.50    2.20
  -3   4  -3   17.20    2.40
   3  -4   3   20.90    2.90
   3  -4   3   20.00    2.00
   3  -4   3   17.30    2.20
   3  -4   3   16.00    2.20
  -4   4  -3   -1.40    1.40
  -4   4  -3   -1.40    1.50
  -4   4  -3    0.70    1.90
  -4   4  -3    0.70    2.70
   4  -4   3    0.10    1.10
   4  -4   3   -1.20    1.30
   4  -4   3   -0.70    1.30
   4  -4   3    0.60    2.20
  -5   4  -3    3.70    3.30
  -5   4  -3    9.30    2.60
  -5   4  -3    7.30    2.20
  -5   4  -3    9.80    1.80
   5  -4   3    6.90    1.70
   5  -4   3    7.80    3.20
   5  -4   3    4.90    1.60
   5  -4   3    5.40    1.70
  -6   4  -3    6.30    4.40
  -6   4  -3    2.90    1.40
  -6   4  -3    1.20    1.20
   6  -4   3    0.70    1.60
   6  -4   3   -1.20    3.60
   6  -4   3   -4.30    4.60
   6  -4   3    0.70    1.60
   6  -4   3    1.40    1.90
  -7   4  -3    2.80    7.50
   7  -4   3   -8.80    6.80
   7  -4   3   10.80    1.90
   7  -4   3    6.70    4.40
   7  -4   3    6.40    2.70
  -8   4  -3    3.50    7.20
   8  -4   3    3.50    2.60
   8  -4   3   -3.60    2.70
   8  -4   3   11.00    3.70
   8   3  -3    7.40    4.40
   8   3  -3   -0.10    4.40
   8   3  -3    0.30    4.30
  -8  -3   3   -0.20    4.50
  -8  -3   3   -4.60    4.90
  -8  -3   3    0.40    4.10
  -8  -3   3    0.20    6.00
  -8  -3   3    3.60    3.80
   7   3  -3    2.30    3.40
   7   3  -3    0.20    3.40
   7   3  -3   -2.90    3.40
  -7  -3   3    1.50    2.90
  -7  -3   3   -1.40    4.50
  -7  -3   3    2.20    3.30
  -7  -3   3    3.60    3.80
  -7  -3   3    0.00    3.10
   6   3  -3    4.40    2.80
   6   3  -3    7.70    3.00
   6   3  -3    9.70    3.10
  -6  -3   3    4.00    2.50
  -6  -3   3    7.40    4.10
  -6  -3   3    5.50    2.60
  -6  -3   3    4.20    3.00
  -6  -3   3    6.80    3.30
   5   3  -3   34.80    3.70
   5   3  -3   27.80    3.70
   5   3  -3   34.10    4.00
  -5  -3   3   35.00    4.50
  -5  -3   3   33.10    4.40
   4   3  -3    6.30    1.90
   4   3  -3    8.80    2.30
   4   3  -3    6.40    2.30
  -4  -3   3   10.00    2.60
  -4  -3   3    4.30    2.30
  -4  -3   3    6.30    1.80
   3   3  -3   19.70    2.70
   3   3  -3   26.70    2.90
   3   3  -3   26.20    3.20
  -3  -3   3   25.80    3.10
  -3  -3   3   20.80    3.10
  -3  -3   3   25.60    1.80
  -3  -3   3   24.90    2.80
   2   3  -3   56.69    3.70
   2   3  -3   61.39    3.90
  -2  -3   3   59.79    3.00
  -2  -3   3   62.59    3.90
  -2  -3   3   59.49    3.90
  -2  -3   3   57.59    3.50
   1   3  -3  308.87   11.40
   1   3  -3  315.47   11.70
  -1  -3   3  324.97   11.40
  -1  -3   3  324.87   11.60
  -1  -3   3  315.27   11.70
   0   3  -3   15.10    1.60
   0   3  -3   16.40    1.90
   0   3  -3   13.30    2.00
   0  -3   3   18.30    2.10
   0  -3   3   15.70    2.10
   0  -3   3   16.30    2.20
  -1   3  -3  528.75   17.70
  -1   3  -3  539.95   18.00
  -1   3  -3  549.85   17.40
  -1   3  -3  545.15   16.60
   1  -3   3  537.35   17.90
   1  -3   3  523.75   17.50
   1  -3   3  516.75   17.90
   1  -3   3  540.45   18.00
  -2   3  -3   -0.60    0.80
  -2   3  -3    0.00    0.80
  -2   3  -3   -0.80    1.00
   2  -3   3    1.30    1.10
   2  -3   3   -1.00    1.00
   2  -3   3   -0.10    0.70
   2  -3   3    2.40    1.20
  -3   3  -3   41.80    3.90
  -3   3  -3   44.10    3.10
  -3   3  -3   49.10    2.70
  -3   3  -3   46.60    2.90
   3  -3   3   45.00    2.90
   3  -3   3   48.40    3.40
   3  -3   3   44.60    2.80
   3  -3   3   50.89    2.70
  -4   3  -3  164.58    6.50
  -4   3  -3  158.08    7.00
  -4   3  -3  170.88    7.30
  -4   3  -3  168.48    6.40
   4  -3   3  181.28    6.80
   4  -3   3  168.98    6.50
   4  -3   3  165.88    6.50
   4  -3   3  181.08    7.80
  -5   3  -3    8.10    2.30
  -5   3  -3   12.20    2.70
  -5   3  -3   10.10    1.60
  -5   3  -3   11.60    2.50
  -5   3  -3   13.70    3.30
   5  -3   3   10.90    1.70
   5  -3   3   15.50    3.10
   5  -3   3   12.60    1.80
   5  -3   3   10.20    2.00
   5  -3   3    9.90    3.70
  -6   3  -3    5.20    3.70
  -6   3  -3    1.60    1.10
  -6   3  -3    2.20    1.30
  -6   3  -3   -1.70    2.30
   6  -3   3    1.10    1.50
   6  -3   3    3.50    2.60
   6  -3   3   -3.20    4.10
   6  -3   3   -1.00    1.90
   6  -3   3    2.10    1.20
   6  -3   3    0.60    3.00
  -7   3  -3    6.70    4.90
  -7   3  -3   -0.20    2.90
   7  -3   3    2.60    2.50
   7  -3   3    1.60    1.40
   7  -3   3   -0.10    3.00
   7  -3   3    6.30    5.40
   7  -3   3    1.10    1.90
   7  -3   3   -2.60    1.80
  -8   3  -3    3.90    4.00
  -8   3  -3    7.10    6.60
   8  -3   3    6.20    1.90
   8  -3   3    8.50    1.70
   8  -3   3    5.30    4.30
   8  -3   3    3.80    2.10
   8  -3   3    5.10    2.00
   8  -3   3    9.30    3.60
  -9   3  -3    5.70    8.10
   9  -3   3   19.20    5.00
   8   2  -3   10.10    5.00
   8   2  -3   11.00    3.70
   8   2  -3   23.50    3.60
  -8  -2   3   30.80    5.30
  -8  -2   3   22.10    6.60
  -8  -2   3   27.70    4.30
  -8  -2   3   19.60    4.20
  -8  -2   3   22.50    4.20
   7   2  -3    2.40    2.40
   7   2  -3    1.80    4.20
   7   2  -3    4.70    3.00
   7   2  -3   -1.50    2.60
  -7  -2   3    1.10    2.70
  -7  -2   3    0.40    3.00
  -7  -2   3    5.20    3.10
  -7  -2   3    3.20    4.80
  -7  -2   3    9.20    3.20
   6   2  -3  183.28    8.60
   6   2  -3  169.88    7.90
   6   2  -3  166.68    8.60
   6   2  -3  164.98    7.70
  -6  -2   3  171.58   10.40
  -6  -2   3  171.18    7.80
  -6  -2   3  180.08    8.40
  -6  -2   3  170.18    8.10
  -6  -2   3  174.68    8.10
   5   2  -3   -0.20    1.70
   5   2  -3    0.90    1.70
   5   2  -3   -0.20    1.50
  -5  -2   3    1.20    1.60
  -5  -2   3    1.70    1.90
  -5  -2   3    2.90    1.80
  -5  -2   3    1.50    1.70
  -5  -2   3   -0.40    1.90
   4   2  -3   -2.10    1.40
   4   2  -3    1.30    1.20
   4   2  -3    0.00    1.30
  -4  -2   3    2.50    1.70
  -4  -2   3    0.10    1.70
  -4  -2   3   -1.70    1.40
  -4  -2   3   -0.60    1.10
  -4  -2   3   -2.60    1.10
   3   2  -3   35.30    2.80
   3   2  -3   39.80    3.10
   3   2  -3   38.80    2.90
  -3  -2   3   38.30    2.70
  -3  -2   3   47.50    3.20
  -3  -2   3   40.50    2.70
  -3  -2   3   42.70    3.10
  -3  -2   3   38.50    1.90
   2   2  -3   36.30    2.60
   2   2  -3   31.10    2.60
   2   2  -3   31.90    2.50
  -2  -2   3   32.80    2.40
  -2  -2   3   35.80    2.30
  -2  -2   3   36.30    2.70
   1   2  -3  210.38    8.10
   1   2  -3  223.88    8.10
   1   2  -3  203.48    8.10
  -1  -2   3  224.88    8.20
  -1  -2   3  217.78    8.00
  -1  -2   3  225.98    7.50
  -1  -2   3  225.58    8.30
   0   2  -3    0.80    0.60
   0   2  -3    2.50    0.90
   0   2  -3    2.30    1.00
   0   2  -3    1.80    0.90
   0  -2   3    0.60    0.80
   0  -2   3    1.80    0.90
   0  -2   3    1.60    1.00
  -1   2  -3    4.70    0.80
  -1   2  -3    3.20    0.90
  -1   2  -3    3.50    1.00
   1  -2   3    4.70    1.10
   1  -2   3    3.30    0.80
   1  -2   3    4.20    1.00
   1  -2   3    4.00    0.90
   1  -2   3    4.50    0.90
  -2   2  -3   34.50    2.10
  -2   2  -3   36.00    2.20
  -2   2  -3   36.80    2.20
  -2   2  -3   35.30    2.30
   2  -2   3   37.60    2.30
   2  -2   3   37.90    2.40
   2  -2   3   36.50    2.30
   2  -2   3   38.60    2.20
   2  -2   3   40.20    2.20
  -3   2  -3   97.29    4.60
  -3   2  -3   93.89    4.40
  -3   2  -3   98.69    4.40
  -3   2  -3  100.29    4.10
  -3   2  -3   97.59    5.20
  -3   2  -3   97.39    4.20
   3  -2   3   98.69    4.20
   3  -2   3   99.39    4.20
   3  -2   3   99.09    4.60
   3  -2   3  104.29    4.30
   3  -2   3   97.29    4.10
   3  -2   3  103.79    3.40
  -4   2  -3    6.80    2.30
  -4   2  -3    2.80    1.60
  -4   2  -3    2.40    1.00
  -4   2  -3    2.60    1.10
  -4   2  -3    3.50    1.50
  -4   2  -3    4.40    1.50
   4  -2   3    4.90    1.50
   4  -2   3    3.80    1.10
   4  -2   3    3.60    1.30
   4  -2   3    3.40    1.10
   4  -2   3    4.40    1.80
   4  -2   3    3.30    1.00
  -5   2  -3   25.60    2.30
  -5   2  -3   22.90    2.90
  -5   2  -3   29.60    3.20
  -5   2  -3   33.30    4.40
   5  -2   3   26.00    2.40
   5  -2   3   25.30    2.00
   5  -2   3   25.70    3.40
   5  -2   3   29.40    4.20
   5  -2   3   26.90    3.00
   5  -2   3   25.50    2.80
   5  -2   3   24.00    2.10
  -6   2  -3   27.00    4.80
  -6   2  -3   19.50    2.30
  -6   2  -3   23.50    3.50
  -6   2  -3   19.40    1.90
   6  -2   3   27.30    3.30
   6  -2   3   17.70    3.80
   6  -2   3   18.40    2.10
   6  -2   3   19.50    2.10
   6  -2   3   18.60    2.60
   6  -2   3   26.20    5.00
  -7   2  -3   12.30    1.70
  -7   2  -3   14.90    3.50
  -7   2  -3   13.40    1.90
  -7   2  -3   13.10    4.60
   7  -2   3   11.80    1.50
   7  -2   3   16.20    3.60
   7  -2   3   16.30    5.20
   7  -2   3   11.10    1.50
   7  -2   3   15.40    2.40
   7  -2   3   12.50    2.70
   7  -2   3   11.80    1.80
  -8   2  -3    5.00    4.30
  -8   2  -3   10.00    5.90
   8  -2   3    3.90    6.60
   8  -2   3    4.40    2.60
   8  -2   3    4.50    3.20
   8  -2   3    3.70    1.70
   8  -2   3    9.90    4.00
  -9   2  -3   11.70    5.00
  -9   2  -3   -5.00    6.60
   9  -2   3    2.40    1.80
   9  -2   3   -4.40    5.70
   9  -2   3    1.00    4.10
   9  -2   3    7.60    2.50
   9   1  -3   12.90    4.50
   9   1  -3    6.70    6.40
   9   1  -3    5.90    3.20
   9   1  -3    7.40    3.60
  -9  -1   3   10.30    5.00
  -9  -1   3   12.90    3.70
  -9  -1   3    8.10    7.20
   8   1  -3    4.40    2.50
   8   1  -3    7.40    3.30
   8   1  -3    0.20    2.70
   8   1  -3    2.00    4.90
  -8  -1   3    6.40    3.80
  -8  -1   3    5.30    3.40
  -8  -1   3   -0.60    2.80
  -8  -1   3    6.40    5.60
  -8  -1   3    3.20    3.30
   7   1  -3   13.50    2.70
   7   1  -3    6.60    4.00
   7   1  -3   15.10    2.60
   7   1  -3   16.00    3.10
  -7  -1   3   11.80    2.80
  -7  -1   3   10.10    4.90
  -7  -1   3   15.30    3.40
  -7  -1   3   18.40    3.30
  -7  -1   3   12.60    3.50
   6   1  -3    9.60    2.20
   6   1  -3    9.90    2.20
   6   1  -3    7.50    2.40
   6   1  -3    9.60    3.40
  -6  -1   3   12.20    2.40
  -6  -1   3   10.30    2.60
  -6  -1   3   12.40    2.70
  -6  -1   3   12.40    2.90
  -6  -1   3    9.20    2.40
  -6  -1   3   20.90    4.30
   5   1  -3   82.09    4.60
   5   1  -3   85.49    4.30
   5   1  -3   81.69    4.40
  -5  -1   3   77.49    4.80
  -5  -1   3   79.59    4.60
  -5  -1   3   74.29    4.40
  -5  -1   3   82.79    4.50
  -5  -1   3   83.29    4.70
  -5  -1   3   81.39    6.30
   4   1  -3    0.90    1.10
   4   1  -3    1.80    1.00
   4   1  -3    1.80    1.30
  -4  -1   3    2.40    1.50
  -4  -1   3    2.80    1.30
  -4  -1   3    0.50    1.20
  -4  -1   3   -0.60    1.10
  -4  -1   3    1.40    1.30
   3   1  -3   64.59    3.30
   3   1  -3   63.69    3.50
   3   1  -3   68.59    3.40
  -3  -1   3   63.39    3.60
  -3  -1   3   67.59    3.50
  -3  -1   3   68.69    3.40
  -3  -1   3   69.39    3.40
  -3  -1   3   67.39    3.20
   2   1  -3  263.87    9.00
   2   1  -3  250.17    8.90
   2   1  -3  254.57    9.10
  -2  -1   3  264.47    8.90
  -2  -1   3  250.87    9.00
  -2  -1   3  252.57    9.10
  -2  -1   3  233.78    8.70
  -2  -1   3  255.77    8.90
   1   1  -3  506.55   16.40
   1   1  -3  484.05   16.50
   1   1  -3  487.75   16.40
  -1  -1   3  526.45   16.10
  -1  -1   3  501.75   16.50
  -1  -1   3  505.05   16.40
  -1  -1   3  503.35   16.50
   0   1  -3  207.28    7.50
   0   1  -3  208.18    7.40
   0   1  -3  246.48    7.70
   0   1  -3  208.58    7.50
   0   1  -3  215.68    7.70
   0  -1   3  216.78    7.50
   0  -1   3  208.78    6.80
   0  -1   3  211.38    7.60
   0  -1   3  225.68    7.10
   0  -1   3  213.28    7.60
  -1   1  -3    1.60    0.70
  -1   1  -3    1.50    0.70
  -1   1  -3    2.90    0.70
  -1   1  -3    2.40    0.70
   1  -1   3    2.70    0.60
   1  -1   3    2.10    0.80
   1  -1   3    2.10    0.60
   1  -1   3    2.40    0.70
   1  -1   3    1.40    0.60
   1  -1   3    2.90    0.40
  -2   1  -3  332.57   11.00
  -2   1  -3  328.77   11.10
  -2   1  -3  305.67   11.00
  -2   1  -3  332.97   11.00
   2  -1   3  339.77   10.90
   2  -1   3  329.47   10.70
   2  -1   3  317.17   11.00
   2  -1   3  331.67   11.00
   2  -1   3  323.77   10.90
  -3   1  -3  499.55   16.90
  -3   1  -3  498.45   16.40
  -3   1  -3  517.15   16.50
  -3   1  -3  489.45   16.40
  -3   1  -3  463.85   16.70
   3  -1   3  509.95   16.50
   3  -1   3  506.65   16.10
   3  -1   3  506.35   16.40
   3  -1   3  517.15   16.40
   3  -1   3  515.75   16.60
  -4   1  -3    1.40    1.30
  -4   1  -3    0.50    0.70
  -4   1  -3   -0.10    0.90
  -4   1  -3    1.60    1.30
  -4   1  -3    0.50    1.50
   4  -1   3    0.20    1.50
   4  -1   3   -0.10    1.00
   4  -1   3    0.70    0.90
   4  -1   3    2.00    0.60
   4  -1   3    2.00    1.00
  -5   1  -3   24.40    3.60
  -5   1  -3   21.20    2.90
  -5   1  -3   23.90    2.90
  -5   1  -3   22.70    2.00
  -5   1  -3   23.50    2.30
   5  -1   3   24.80    2.30
   5  -1   3   22.60    1.40
   5  -1   3   21.40    2.80
   5  -1   3   29.40    4.20
   5  -1   3   24.40    2.80
  -6   1  -3    2.50    2.70
  -6   1  -3    0.50    1.40
  -6   1  -3    3.00    2.20
   6  -1   3   -2.50    1.70
   6  -1   3   -1.60    3.00
   6  -1   3   -1.80    1.90
   6  -1   3    2.20    1.60
  -7   1  -3    7.80    3.00
  -7   1  -3    7.20    3.50
  -7   1  -3    3.00    1.70
  -7   1  -3    6.40    1.50
   7  -1   3   11.80    4.50
   7  -1   3    2.90    2.00
   7  -1   3    5.20    2.90
   7  -1   3    8.10    2.60
  -8   1  -3   -1.70    1.30
  -8   1  -3    3.20    3.40
  -8   1  -3    5.10    4.80
   8  -1   3   -2.20    3.00
   8  -1   3    0.00    2.30
   8  -1   3    3.10    5.40
   8  -1   3   -6.20    3.30
  -9   1  -3  -13.00    5.40
  -9   1  -3   -1.60    4.10
   9  -1   3   -0.80    5.20
   9  -1   3   -1.20    3.60
   9  -1   3   -0.30    2.80
   9  -1   3    4.40    4.10
   9   0  -3   -1.80    6.80
   9   0  -3   -0.40    3.40
   9   0  -3   12.80    5.60
   9   0  -3    0.50    2.70
   9   0  -3    1.90    2.80
  -9   0   3    6.10    6.40
  -9   0   3    0.00    4.90
   8   0  -3    6.60    9.30
   8   0  -3   11.30    3.00
   8   0  -3   15.50    2.80
   8   0  -3   10.90    2.50
   8   0  -3   12.10    5.80
  -8   0   3   12.60    2.40
  -8   0   3   13.00    2.30
  -8   0   3   18.40    4.70
  -8   0   3   12.70    3.60
  -8   0   3   10.00    5.40
   7   0  -3   58.99    6.80
   7   0  -3   50.69    3.90
   7   0  -3   50.59    4.40
   7   0  -3   47.90    3.70
  -7   0   3   49.99    4.60
  -7   0   3   58.39    5.40
  -7   0   3   58.09    7.60
  -7   0   3   53.39    5.80
  -7   0   3   49.10    3.60
   6   0  -3   79.99    4.40
   6   0  -3   77.49    4.10
   6   0  -3   77.39    6.50
   6   0  -3   82.99    4.60
  -6   0   3   80.79    4.10
  -6   0   3   84.99    5.30
  -6   0   3   72.79    6.90
  -6   0   3   82.49    4.90
  -6   0   3   72.69    4.40
  -6   0   3   80.29    5.10
   5   0  -3   13.00    1.90
   5   0  -3   14.90    2.10
   5   0  -3   16.10    3.30
   5   0  -3   15.10    2.00
  -5   0   3   14.40    3.20
  -5   0   3   16.50    2.40
  -5   0   3   16.10    2.60
  -5   0   3   17.00    2.20
  -5   0   3   11.30    2.20
  -5   0   3   15.60    2.10
   4   0  -3    9.20    1.50
   4   0  -3    7.20    1.30
   4   0  -3    8.40    1.50
  -4   0   3    6.50    1.60
  -4   0   3    8.30    1.80
  -4   0   3    8.20    1.70
  -4   0   3    8.80    1.40
  -4   0   3    7.40    1.40
  -4   0   3    3.60    2.20
   3   0  -3   60.89    3.10
   3   0  -3   59.99    2.90
   3   0  -3   60.69    3.00
  -3   0   3   66.09    4.10
  -3   0   3   60.19    2.90
  -3   0   3   60.89    3.10
  -3   0   3   63.29    3.60
  -3   0   3   55.69    3.10
  -3   0   3   63.49    3.20
   2   0  -3  293.17   10.10
   2   0  -3  287.07   10.10
   2   0  -3  294.07    9.90
   2   0  -3  292.27   10.00
  -2   0   3  297.77    9.50
  -2   0   3  298.37   10.00
  -2   0   3  301.77   10.20
  -2   0   3  301.47    9.90
  -2   0   3  311.37   10.20
  -2   0   3  303.97   10.30
   1   0  -3  190.78    6.20
   1   0  -3  192.88    6.70
   1   0  -3  188.88    6.70
   1   0  -3  185.48    6.70
  -1   0   3  189.38    6.80
  -1   0   3  192.68    6.70
  -1   0   3  186.18    6.30
  -1   0   3  199.58    6.60
   0   0  -3   37.90    1.90
   0   0  -3   39.30    1.80
   0   0  -3   37.80    2.00
   0   0  -3   38.50    1.90
   0   0   3   37.90    1.90
   0   0   3   40.60    1.70
   0   0   3   38.50    2.00
   0   0   3   30.90    1.80
   0   0   3   38.80    1.90
  -1   0  -3  222.18    7.80
  -1   0  -3  220.38    7.60
  -1   0  -3  231.48    7.70
   1   0   3  234.98    7.70
   1   0   3  227.38    7.90
   1   0   3  240.88    7.30
   1   0   3  228.48    7.80
   1   0   3  225.18    7.60
  -2   0  -3  162.08    6.10
  -2   0  -3  150.98    6.30
  -2   0  -3  164.38    6.10
  -2   0  -3  168.08    5.60
   2   0   3  167.68    6.10
   2   0   3  170.58    6.00
   2   0   3  166.48    6.00
   2   0   3  175.18    5.60
   2   0   3  171.78    5.60
  -3   0  -3    1.70    1.10
  -3   0  -3    3.50    1.00
  -3   0  -3    1.60    0.90
   3   0   3    4.10    1.40
   3   0   3    1.70    0.90
   3   0   3    2.90    0.90
   3   0   3    3.30    1.00
   3   0   3    2.70    0.90
   3   0   3    3.40    0.50
  -4   0  -3   21.00    2.20
  -4   0  -3   22.40    2.60
  -4   0  -3   24.20    2.10
  -4   0  -3   20.40    2.60
  -4   0  -3   22.60    2.40
   4   0   3   22.30    2.00
   4   0   3   25.60    2.10
   4   0   3   24.50    2.20
   4   0   3   25.70    2.10
   4   0   3   25.10    2.90
  -5   0  -3    3.00    1.40
  -5   0  -3    3.20    1.90
  -5   0  -3    4.00    1.30
  -5   0  -3    1.80    1.50
   5   0   3    6.30    1.50
   5   0   3    5.50    1.30
   5   0   3    3.60    1.60
   5   0   3    7.80    2.50
   5   0   3    5.10    1.60
  -6   0  -3   14.20    2.10
  -6   0  -3   12.10    2.10
  -6   0  -3   17.30    3.20
  -6   0  -3   12.30    2.90
   6   0   3   11.60    3.50
   6   0   3   11.80    2.40
   6   0   3   11.10    1.80
   6   0   3   14.90    2.70
   6   0   3   13.10    2.20
  -7   0  -3   25.40    3.30
  -7   0  -3   41.30    5.30
  -7   0  -3   33.70    2.80
  -7   0  -3   29.10    4.20
   7   0   3   26.40    3.40
   7   0   3   30.90    3.20
   7   0   3   33.40    4.40
   7   0   3   33.50    4.30
   7   0   3   27.50    3.60
   7   0   3   26.60    4.80
  -8   0  -3    1.80    3.50
  -8   0  -3    5.80    4.30
  -8   0  -3    1.80    2.20
   8   0   3   -0.80    5.00
   8   0   3    0.40    2.00
   8   0   3    3.80    3.50
   8   0   3    2.10    2.50
   8   0   3   -0.40    2.90
   8   0   3    0.90    2.50
  -9   0  -3   11.50    2.30
  -9   0  -3   10.80    2.70
  -9   0  -3   15.70    4.80
   9   0   3   13.10    3.10
   9   0   3    9.10    3.40
   9   0   3    8.80    4.20
   9   0   3    9.70    5.20
   9   0   3    4.70    6.80
   9   0   3   10.20    3.40
   9  -1  -3    0.50    1.80
   9  -1  -3    1.10    5.10
   9  -1  -3    2.60    8.00
   9  -1  -3   -0.40    2.40
   9  -1  -3    4.10    2.80
  -9   1   3    2.50    6.00
  -9   1   3    2.90    3.50
  -9   1   3   -2.50    5.10
   8  -1  -3   -2.90    2.00
   8  -1  -3   -2.20    5.40
   8  -1  -3    0.20    2.30
  -8   1   3    5.00    3.90
  -8   1   3   -3.40    3.90
  -8   1   3    1.30    5.00
   7  -1  -3   -2.80    4.30
   7  -1  -3   -1.40    3.60
   7  -1  -3    0.10    1.40
   7  -1  -3    2.80    1.80
   7  -1  -3    0.50    1.80
  -7   1   3    2.30    2.40
  -7   1   3    1.40    3.00
  -7   1   3    0.60    3.90
   6  -1  -3    9.50    2.00
   6  -1  -3   14.70    4.20
   6  -1  -3   10.40    3.50
   6  -1  -3   11.90    1.60
   6  -1  -3   15.90    2.10
  -6   1   3   13.90    1.70
  -6   1   3   10.30    4.00
  -6   1   3   12.80    2.60
  -6   1   3   12.50    1.50
  -6   1   3   15.20    3.20
   5  -1  -3   51.79    4.60
   5  -1  -3   52.29    5.70
   5  -1  -3   47.10    2.50
   5  -1  -3   46.60    3.20
   5  -1  -3   47.10    2.80
  -5   1   3   44.40    2.30
  -5   1   3   48.10    2.50
  -5   1   3   51.79    3.80
  -5   1   3   49.10    3.50
  -5   1   3   48.20    4.90
   4  -1  -3   -2.20    1.80
   4  -1  -3    1.90    1.40
   4  -1  -3    1.20    1.70
   4  -1  -3    1.10    0.80
   4  -1  -3    1.00    0.70
   4  -1  -3    0.10    1.00
  -4   1   3   -0.30    1.30
  -4   1   3   -0.80    1.20
  -4   1   3    0.80    0.70
  -4   1   3    0.30    1.20
  -4   1   3   -1.30    1.10
  -4   1   3   -1.30    1.60
   3  -1  -3   10.20    1.10
   3  -1  -3    9.30    1.80
   3  -1  -3   12.30    1.60
   3  -1  -3   11.50    1.70
   3  -1  -3   13.40    1.30
  -3   1   3   11.00    1.20
  -3   1   3   12.80    1.70
  -3   1   3   14.50    2.40
  -3   1   3   12.80    1.60
  -3   1   3    9.50    1.50
   2  -1  -3    1.20    0.50
   2  -1  -3    1.10    0.70
   2  -1  -3    0.50    0.90
   2  -1  -3    0.50    0.50
   2  -1  -3   -0.40    0.70
  -2   1   3    0.60    0.80
  -2   1   3    0.40    0.50
  -2   1   3    0.90    0.50
  -2   1   3    0.00    1.10
  -2   1   3    1.10    0.60
  -2   1   3   -0.40    0.70
   1  -1  -3  376.96   12.30
   1  -1  -3  376.26   12.20
   1  -1  -3  377.86   12.60
   1  -1  -3  374.96   12.60
  -1   1   3  368.46   12.30
  -1   1   3  385.66   12.70
  -1   1   3  394.16   12.30
  -1   1   3  375.66   12.30
  -1   1   3  380.16   12.20
   0  -1  -3  541.15   17.30
   0  -1  -3  537.15   17.20
   0  -1  -3  534.55   17.00
   0  -1  -3  539.75   17.30
   0  -1  -3  524.95   17.10
   0  -1  -3  533.15   17.00
   0   1   3  536.05   17.30
   0   1   3  541.95   17.10
   0   1   3  543.15   17.30
   0   1   3  550.04   17.00
   0   1   3  538.55   17.10
  -1  -1  -3   63.39    2.90
  -1  -1  -3   62.89    2.80
  -1  -1  -3   58.29    2.60
  -1  -1  -3   63.09    2.60
  -1  -1  -3   58.69    2.70
   1   1   3   69.09    2.60
   1   1   3   66.59    2.90
   1   1   3   63.09    2.60
   1   1   3   62.69    2.80
   1   1   3   60.89    2.70
  -2  -1  -3   80.39    3.60
  -2  -1  -3   87.09    3.70
  -2  -1  -3   84.49    3.70
  -2  -1  -3   86.29    3.10
   2   1   3   84.99    3.50
   2   1   3   84.79    3.70
   2   1   3   87.69    3.70
   2   1   3   83.09    3.50
  -3  -1  -3   26.50    2.30
  -3  -1  -3   27.40    2.20
  -3  -1  -3   26.50    1.10
  -3  -1  -3   24.10    2.10
   3   1   3   28.30    1.90
   3   1   3   29.40    2.10
   3   1   3   30.20    2.20
   3   1   3   28.40    2.20
   3   1   3   31.00    2.30
  -4  -1  -3  915.91   30.10
  -4  -1  -3  871.01   30.20
  -4  -1  -3  947.11   29.90
  -4  -1  -3  948.11   30.10
   4   1   3  938.31   30.50
   4   1   3  912.11   30.20
   4   1   3  954.90   30.10
   4   1   3  940.61   30.00
   4   1   3  938.31   29.70
  -5  -1  -3   70.49    4.10
  -5  -1  -3   72.49    3.90
  -5  -1  -3   66.29    4.20
  -5  -1  -3   70.69    4.30
   5   1   3   66.29    4.70
   5   1   3   69.79    4.10
   5   1   3   72.39    3.60
   5   1   3   69.69    3.90
   5   1   3   67.09    4.20
  -6  -1  -3  106.59    5.90
  -6  -1  -3  106.99    5.20
  -6  -1  -3  101.99    5.80
   6   1   3  105.09    5.30
   6   1   3  106.19    4.90
   6   1   3  103.29    6.60
   6   1   3  106.29    6.00
   6   1   3   98.19    5.40
  -7  -1  -3    1.00    2.80
  -7  -1  -3    2.60    2.00
  -7  -1  -3    2.00    2.60
  -7  -1  -3    0.70    2.20
   7   1   3    2.00    1.90
   7   1   3   -0.30    2.00
   7   1   3    3.70    1.90
   7   1   3    4.50    2.60
   7   1   3    4.00    3.60
  -8  -1  -3    0.50    3.60
  -8  -1  -3   -5.10    3.20
  -8  -1  -3   -0.90    2.70
   8   1   3    3.80    2.40
   8   1   3    0.30    2.30
   8   1   3   -1.00    3.30
   8   1   3   -1.90    2.90
   8   1   3    0.90    3.10
  -9  -1  -3    1.80    3.30
  -9  -1  -3   -0.40    4.20
  -9  -1  -3    0.20    2.60
   9   1   3   -6.60    4.50
   9   1   3    4.20    3.20
   9   1   3   -1.20    3.40
   9   1   3    9.10    3.30
   9   1   3    1.60    3.70
 -10  -1  -3   -1.80    5.50
 -10  -1  -3   -0.10    4.00
  10   1   3   -4.30    5.10
  10   1   3   -0.10    4.40
  10   1   3   -1.00    3.70
   9  -2  -3   10.60    3.00
   9  -2  -3   11.30    5.90
  -9   2   3    0.70    3.70
   8  -2  -3    2.90    2.50
   8  -2  -3   11.60    6.70
   8  -2  -3    6.80    1.80
   8  -2  -3   11.70    4.40
  -8   2   3    4.70    5.10
   7  -2  -3   21.40    5.60
   7  -2  -3   21.50    4.70
   7  -2  -3   20.80    2.90
   7  -2  -3   20.10    2.60
  -7   2   3   26.30    5.80
  -7   2   3   23.60    3.60
   6  -2  -3   48.70    3.70
   6  -2  -3   44.90    2.30
   6  -2  -3   56.99    5.60
   6  -2  -3   46.10    5.00
   6  -2  -3   44.70    2.90
   6  -2  -3   42.50    6.00
  -6   2   3   42.10    3.80
  -6   2   3   46.30    6.20
   5  -2  -3   26.00    3.90
   5  -2  -3   20.90    4.20
   5  -2  -3   21.80    2.10
   5  -2  -3   20.90    3.20
   5  -2  -3   19.60    2.60
   5  -2  -3   18.70    1.60
  -5   2   3   24.00    2.90
  -5   2   3   23.00    3.90
   4  -2  -3  130.39    7.30
   4  -2  -3  130.89    4.60
   4  -2  -3  130.39    5.70
   4  -2  -3  129.09    7.20
   4  -2  -3  133.59    4.70
   4  -2  -3  139.69    6.30
   4  -2  -3  133.39    6.50
   4  -2  -3  130.69    5.10
  -4   2   3  131.39    5.70
  -4   2   3  122.39    7.00
   3  -2  -3   84.89    5.10
   3  -2  -3   84.79    3.30
   3  -2  -3   88.39    4.20
   3  -2  -3   84.29    3.60
   3  -2  -3   88.69    4.30
   3  -2  -3   83.69    3.20
   3  -2  -3   87.19    5.20
   3  -2  -3   82.59    4.50
  -3   2   3   86.09    3.10
  -3   2   3   87.59    5.10
  -3   2   3   85.79    4.00
  -3   2   3   86.89    3.10
   2  -2  -3   49.10    2.80
   2  -2  -3   46.60    3.30
   2  -2  -3   49.60    2.20
   2  -2  -3   47.50    2.20
   2  -2  -3   48.80    2.90
   2  -2  -3   47.80    2.40
   2  -2  -3   51.49    3.10
  -2   2   3   48.80    2.50
  -2   2   3   44.10    3.20
  -2   2   3   46.10    3.00
  -2   2   3   46.30    2.40
  -2   2   3   46.90    2.20
   1  -2  -3   10.80    1.40
   1  -2  -3    8.40    1.10
   1  -2  -3    9.60    1.20
   1  -2  -3    9.90    1.10
   1  -2  -3    9.30    1.50
   1  -2  -3    9.10    1.30
  -1   2   3    7.70    1.10
  -1   2   3    9.80    1.40
  -1   2   3   10.00    1.20
  -1   2   3    8.00    1.30
  -1   2   3   10.00    1.10
  -1   2   3    9.40    1.10
   0  -2  -3   92.79    3.70
   0  -2  -3   94.39    3.90
   0  -2  -3  101.69    3.40
   0  -2  -3   95.19    3.90
   0  -2  -3   93.69    3.80
   0   2   3   93.79    3.50
   0   2   3   86.99    3.70
   0   2   3   91.69    3.70
   0   2   3   98.19    3.90
   0   2   3   95.29    3.80
  -1  -2  -3   62.69    3.00
  -1  -2  -3   60.69    2.80
  -1  -2  -3   62.79    2.60
  -1  -2  -3   61.69    3.10
   1   2   3   58.89    3.00
   1   2   3   64.79    2.60
   1   2   3   60.49    2.80
   1   2   3   64.09    3.10
  -2  -2  -3   52.89    2.90
  -2  -2  -3   59.29    3.10
  -2  -2  -3   53.49    2.60
  -2  -2  -3   49.50    2.70
   2   2   3   53.99    2.60
   2   2   3   53.59    2.60
   2   2   3   52.29    3.00
   2   2   3   52.69    2.90
  -3  -2  -3  187.98    6.80
  -3  -2  -3  162.68    6.90
  -3  -2  -3  176.98    7.10
  -3  -2  -3  182.28    6.80
  -3  -2  -3  191.08    7.30
   3   2   3  183.38    7.00
   3   2   3  183.58    7.20
   3   2   3  190.58    7.30
   3   2   3  185.68    6.70
  -4  -2  -3  468.65   16.00
  -4  -2  -3  470.35   16.10
  -4  -2  -3  459.65   15.50
  -4  -2  -3  454.75   16.00
   4   2   3  473.85   15.50
   4   2   3  455.85   16.10
   4   2   3  472.05   16.20
   4   2   3  460.25   16.10
  -5  -2  -3   39.40    3.40
  -5  -2  -3   34.60    3.20
  -5  -2  -3   39.30    3.70
  -5  -2  -3   35.50    3.00
   5   2   3   38.50    2.60
   5   2   3   36.90    3.40
   5   2   3   34.40    3.20
   5   2   3   38.30    3.50
  -6  -2  -3  174.78    7.90
  -6  -2  -3  170.28    7.60
  -6  -2  -3  162.78    7.50
  -6  -2  -3  173.58    8.60
   6   2   3  173.78    6.90
   6   2   3  171.18    7.90
   6   2   3  181.48    7.80
   6   2   3  177.48    8.30
  -7  -2  -3   25.70    4.70
  -7  -2  -3   20.60    3.80
  -7  -2  -3   19.30    3.50
  -7  -2  -3   16.50    3.40
  -7  -2  -3   21.40    3.30
   7   2   3   13.20    3.20
   7   2   3   20.30    3.40
   7   2   3   18.30    3.10
   7   2   3   22.30    3.00
  -8  -2  -3   14.40    4.00
  -8  -2  -3   11.50    3.00
  -8  -2  -3    8.90    3.50
   8   2   3    5.50    3.00
   8   2   3    7.10    3.40
   8   2   3    6.20    2.40
   8   2   3   13.70    3.70
  -9  -2  -3   14.90    5.50
  -9  -2  -3   18.50    3.70
  -9  -2  -3   15.40    4.30
   9   2   3   25.10    4.90
   9   2   3   20.80    4.80
   9   2   3   21.30    3.40
   8  -3  -3    7.80    4.60
   8  -3  -3    3.80    2.80
   8  -3  -3    2.00    2.50
   7  -3  -3    7.60    4.20
   7  -3  -3   -4.80    5.30
   7  -3  -3    2.20    3.10
   7  -3  -3   -0.90    2.30
   7  -3  -3   -0.90    4.40
   7  -3  -3    2.80    2.10
  -7   3   3    2.70    2.20
   6  -3  -3    8.50    3.50
   6  -3  -3    4.00    4.70
   6  -3  -3    9.10    2.10
   6  -3  -3    4.70    4.10
   6  -3  -3    5.80    2.10
   6  -3  -3    3.00    3.40
  -6   3   3    8.60    4.10
  -6   3   3    7.40    2.20
   5  -3  -3    0.50    1.50
   5  -3  -3    2.80    2.60
   5  -3  -3    2.40    1.60
   5  -3  -3    1.50    3.50
   5  -3  -3    5.80    2.70
   5  -3  -3    1.90    3.10
  -5   3   3    4.40    2.70
  -5   3   3    1.50    1.70
   4  -3  -3   81.59    5.20
   4  -3  -3   79.99    6.20
   4  -3  -3   78.19    5.00
   4  -3  -3   77.29    4.00
   4  -3  -3   78.89    5.90
   4  -3  -3   81.69    4.50
  -4   3   3   79.79    4.20
  -4   3   3   85.79    5.70
   3  -3  -3   38.20    1.90
   3  -3  -3   39.60    3.10
   3  -3  -3   43.50    4.20
   3  -3  -3   37.40    2.00
   3  -3  -3   39.20    2.70
   3  -3  -3   44.30    3.40
   3  -3  -3   43.20    4.20
   3  -3  -3   39.80    3.00
  -3   3   3   37.90    3.60
  -3   3   3   38.00    1.60
  -3   3   3   37.00    2.50
  -3   3   3   44.20    3.50
   2  -3  -3  815.42   27.10
   2  -3  -3  842.92   26.80
   2  -3  -3  809.82   25.90
   2  -3  -3  824.32   26.30
   2  -3  -3  780.32   25.70
   2  -3  -3  833.12   27.50
  -2   3   3  808.42   25.80
  -2   3   3  831.42   26.40
  -2   3   3  827.92   27.00
  -2   3   3  798.12   26.00
   1  -3  -3   10.50    0.80
   1  -3  -3   11.70    1.70
   1  -3  -3   10.40    1.40
   1  -3  -3   12.60    1.60
   1  -3  -3   11.20    1.60
  -1   3   3   11.00    1.20
  -1   3   3    8.60    1.60
  -1   3   3   10.70    1.50
  -1   3   3    8.80    1.20
  -1   3   3   10.80    1.40
   0  -3  -3  384.86   13.00
   0  -3  -3  383.66   12.60
   0  -3  -3  382.26   13.00
   0  -3  -3  384.86   13.10
   0  -3  -3  388.26   12.20
   0   3   3  394.16   12.50
   0   3   3  387.26   13.10
   0   3   3  387.76   13.00
   0   3   3  385.06   13.00
   0   3   3  363.66   12.20
  -1  -3  -3   49.99    2.40
  -1  -3  -3   50.69    3.10
  -1  -3  -3   58.09    2.90
  -1  -3  -3   54.49    3.20
   1   3   3   54.99    3.10
   1   3   3   54.49    2.80
   1   3   3   53.59    2.30
   1   3   3   56.59    3.20
  -2  -3  -3   13.50    2.00
  -2  -3  -3   14.50    1.50
  -2  -3  -3   14.00    2.00
  -2  -3  -3   12.50    1.60
   2   3   3   16.40    2.10
   2   3   3   18.90    2.30
   2   3   3   15.00    1.70
   2   3   3   16.10    1.50
  -3  -3  -3  195.98    8.00
  -3  -3  -3  200.78    7.30
  -3  -3  -3  196.48    7.40
  -3  -3  -3  195.38    8.00
   3   3   3  187.28    7.50
   3   3   3  204.38    8.10
   3   3   3  202.38    8.10
   3   3   3  202.88    7.40
  -4  -3  -3   13.00    2.40
  -4  -3  -3   10.40    2.10
  -4  -3  -3   11.50    1.90
  -4  -3  -3   12.10    1.70
   4   3   3   13.20    1.80
   4   3   3   11.60    2.00
   4   3   3   13.50    2.40
   4   3   3   13.20    2.40
  -5  -3  -3   70.19    4.60
  -5  -3  -3   58.89    3.30
  -5  -3  -3   59.49    4.60
  -5  -3  -3   66.19    4.40
  -5  -3  -3   65.39    3.60
  -5  -3  -3   65.29    2.90
   5   3   3   67.29    3.60
   5   3   3   62.19    4.40
   5   3   3   65.69    4.50
   5   3   3   64.39    4.60
  -6  -3  -3   60.79    5.10
  -6  -3  -3   87.99    6.10
  -6  -3  -3   68.29    2.80
  -6  -3  -3   70.89    5.10
   6   3   3   66.69    5.20
   6   3   3   76.39    5.20
   6   3   3   71.59    4.00
   6   3   3   74.49    5.40
  -7  -3  -3   14.70    3.40
  -7  -3  -3   15.20    3.20
  -7  -3  -3   26.50    5.00
   7   3   3   12.40    2.40
   7   3   3   13.80    3.40
   7   3   3   11.60    3.10
   7   3   3   14.70    3.60
  -8  -3  -3   62.49    6.70
  -8  -3  -3   69.89    6.60
  -8  -3  -3   64.89    6.10
   8   3   3   57.79    7.20
   8   3   3   57.39    6.40
   8   3   3   55.99    6.10
   8   3   3   59.69    4.60
  -9  -3  -3   25.60    5.20
  -9  -3  -3   16.70    7.00
  -9  -3  -3   22.40    4.50
  -9  -3  -3   19.70    5.70
   9   3   3   24.40    4.80
   9   3   3   14.30    5.00
   9   3   3   17.10    5.10
   9   3   3   21.00    3.50
   8  -4  -3   -2.90    4.50
   8  -4  -3    4.10    3.40
   8  -4  -3   -1.00    3.20
  -8   4   3    2.30    3.10
   7  -4  -3   -0.70    2.60
   7  -4  -3   -0.90    2.60
   7  -4  -3    6.50    5.10
   7  -4  -3    3.50    3.20
   7  -4  -3    0.90    6.40
   7  -4  -3    2.10    5.10
   7  -4  -3   11.80    7.40
  -7   4   3    4.80    2.80
   6  -4  -3   -2.00    3.50
   6  -4  -3    4.60    4.90
   6  -4  -3    1.80    2.30
   6  -4  -3    8.30    5.30
   6  -4  -3   -2.50    2.20
   6  -4  -3    0.70    2.40
   6  -4  -3    2.60    3.80
  -6   4   3    1.30    2.20
   5  -4  -3   -3.20    2.80
   5  -4  -3   -1.00    1.90
   5  -4  -3    2.90    3.90
   5  -4  -3    0.80    3.90
   5  -4  -3    3.00    2.90
   5  -4  -3    0.40    1.90
   5  -4  -3    0.90    1.90
  -5   4   3    0.30    1.70
   4  -4  -3    6.00    1.10
   4  -4  -3    6.60    2.50
   4  -4  -3    8.10    2.00
   4  -4  -3    6.10    2.10
   4  -4  -3    5.50    2.60
   4  -4  -3    6.70    3.20
   4  -4  -3    5.90    0.90
   4  -4  -3    8.40    3.50
  -4   4   3    8.80    2.90
  -4   4   3    7.00    1.70
   3  -4  -3   25.00    3.70
   3  -4  -3   22.90    1.60
   3  -4  -3   18.40    2.40
   3  -4  -3   27.10    3.40
   3  -4  -3   20.60    1.80
   3  -4  -3   23.40    5.80
  -3   4   3   20.00    1.30
  -3   4   3   22.00    3.10
  -3   4   3   23.50    2.10
   2  -4  -3  159.08    7.70
   2  -4  -3  162.68    6.70
   2  -4  -3  151.38    7.20
   2  -4  -3  156.88    6.00
   2  -4  -3  155.08    6.00
  -2   4   3  154.18    5.90
  -2   4   3  152.78    6.00
  -2   4   3  152.68    6.90
  -2   4   3  159.68    5.90
   1  -4  -3  316.67   12.20
   1  -4  -3  323.47   10.00
   1  -4  -3  315.07   11.30
   1  -4  -3  326.47   11.50
   1  -4  -3  327.17   11.30
   1  -4  -3  318.97   11.60
  -1   4   3  319.87   10.80
  -1   4   3  325.27   11.70
  -1   4   3  329.37   11.60
  -1   4   3  309.17   11.20
  -1   4   3  321.67   11.30
   0  -4  -3  264.07    9.90
   0  -4  -3  274.87    9.80
   0  -4  -3  237.48    8.40
   0  -4  -3  273.37    9.70
   0  -4  -3  264.27    9.70
   0   4   3  260.17    9.60
   0   4   3  268.47    9.70
   0   4   3  271.77    9.70
   0   4   3  247.68    8.30
   0   4   3  269.37    9.00
  -1  -4  -3    2.70    1.40
  -1  -4  -3    4.50    1.30
  -1  -4  -3    3.90    1.50
  -1  -4  -3    4.30    1.30
   1   4   3    3.20    1.40
   1   4   3    4.60    0.80
   1   4   3    4.30    1.50
   1   4   3    6.20    1.50
  -2  -4  -3  586.14   19.80
  -2  -4  -3  549.15   18.50
  -2  -4  -3  585.44   19.10
  -2  -4  -3  582.44   19.80
   2   4   3  539.35   18.60
   2   4   3  564.44   19.20
   2   4   3  601.64   19.80
   2   4   3  594.34   19.80
  -3  -4  -3   31.40    1.40
  -3  -4  -3   27.40    3.20
  -3  -4  -3   36.10    2.60
  -3  -4  -3   36.90    3.50
   3   4   3   30.90    3.30
   3   4   3   27.20    2.50
   3   4   3   35.10    2.70
   3   4   3   34.00    3.30
  -4  -4  -3   26.70    2.50
  -4  -4  -3   27.90    3.90
  -4  -4  -3   29.40    3.50
  -4  -4  -3   26.80    3.10
   4   4   3   27.60    3.50
   4   4   3   24.30    3.50
   4   4   3   26.90    2.90
   4   4   3   30.00    2.70
  -5  -4  -3    0.80    2.30
  -5  -4  -3    4.70    2.30
  -5  -4  -3    0.00    1.30
  -5  -4  -3   -0.50    1.10
  -5  -4  -3    1.50    2.00
   5   4   3   -2.20    1.60
   5   4   3   -0.90    2.10
   5   4   3    1.20    2.40
   5   4   3   -0.90    1.50
  -6  -4  -3    1.50    2.80
  -6  -4  -3   -0.30    1.20
  -6  -4  -3    0.00    2.60
  -6  -4  -3    0.00    2.70
   6   4   3    1.10    2.80
   6   4   3   -0.60    2.30
   6   4   3   -0.40    2.50
   6   4   3   -0.30    1.70
  -7  -4  -3    2.10    3.80
  -7  -4  -3    1.60    1.20
  -7  -4  -3    4.30    3.00
  -7  -4  -3    1.90    3.40
   7   4   3    1.40    3.40
   7   4   3    2.30    2.90
   7   4   3   -0.20    2.10
   7   4   3   -2.60    2.70
  -8  -4  -3    6.20    3.80
  -8  -4  -3    0.90    4.30
  -8  -4  -3   19.60    6.00
   8   4   3    6.90    4.60
   8   4   3    7.60    6.80
   8   4   3   11.10    2.80
   8   4   3   15.90    4.90
  -9  -4  -3   -4.30    4.20
  -9  -4  -3    1.60    7.10
  -9  -4  -3   -5.10    4.80
   9   4   3   -5.30    4.50
   9   4   3   -1.50    5.10
   9   4   3    3.60    4.70
   9   4   3    0.20    3.00
   7  -5  -3   11.00    3.60
   7  -5  -3   -4.10    3.30
   7  -5  -3   -0.10    3.40
  -7   5   3    0.00    2.70
   6  -5  -3   -1.80    4.10
   6  -5  -3   -3.70    5.90
   6  -5  -3   -0.20    6.30
   6  -5  -3    9.40    4.10
   6  -5  -3    0.20    2.80
   6  -5  -3   -0.40    2.90
   6  -5  -3    0.80    2.50
  -6   5   3    0.30    2.20
   5  -5  -3   -0.10    2.40
   5  -5  -3    2.40    1.90
   5  -5  -3    0.40    4.70
   5  -5  -3    0.50    3.30
   5  -5  -3   12.00    5.20
   5  -5  -3    1.00    3.30
   5  -5  -3   -2.40    2.40
  -5   5   3    3.80    3.30
  -5   5   3    1.20    1.90
   4  -5  -3    2.50    2.20
   4  -5  -3    4.00    2.90
   4  -5  -3    2.00    1.40
   4  -5  -3   -0.50    3.50
   4  -5  -3    0.60    0.90
   4  -5  -3    1.00    3.60
  -4   5   3   -1.00    2.50
  -4   5   3   -0.70    1.60
   3  -5  -3    1.80    1.20
   3  -5  -3    0.70    1.90
   3  -5  -3    0.20    2.10
   3  -5  -3   -1.60    2.80
   3  -5  -3   -0.40    1.10
   3  -5  -3    2.60    3.10
   3  -5  -3    1.70    1.10
  -3   5   3    0.00    0.90
  -3   5   3   -2.70    2.20
  -3   5   3   -1.30    1.20
  -3   5   3    0.30    0.90
   2  -5  -3    2.20    2.50
   2  -5  -3   -0.10    1.20
   2  -5  -3   -0.50    2.10
   2  -5  -3    0.50    1.30
   2  -5  -3    1.60    1.80
  -2   5   3    2.70    1.80
  -2   5   3    0.20    1.20
  -2   5   3    0.70    1.20
  -2   5   3   -0.30    1.10
   1  -5  -3    9.20    2.10
   1  -5  -3    7.60    1.80
   1  -5  -3    7.40    1.70
   1  -5  -3   10.90    2.10
   1  -5  -3    8.10    2.50
  -1   5   3    7.20    2.00
  -1   5   3    6.90    1.40
  -1   5   3    6.10    1.70
  -1   5   3    8.80    1.80
  -1   5   3    6.90    2.00
   0  -5  -3   49.00    3.80
   0  -5  -3   53.49    3.70
   0  -5  -3   52.29    3.50
   0  -5  -3   50.59    3.70
   0   5   3   54.09    2.80
   0   5   3   55.39    3.80
   0   5   3   54.39    3.70
   0   5   3   53.19    3.60
  -1  -5  -3    0.10    1.50
  -1  -5  -3    2.80    1.40
  -1  -5  -3    0.00    1.60
  -1  -5  -3    2.40    1.60
   1   5   3    6.00    1.80
   1   5   3    4.10    1.90
   1   5   3    3.20    0.70
   1   5   3    1.10    1.40
  -2  -5  -3   35.00    3.70
  -2  -5  -3   37.40    2.40
  -2  -5  -3   32.70    3.40
  -2  -5  -3   33.70    2.90
   2   5   3   31.30    2.20
   2   5   3   34.90    3.10
   2   5   3   32.50    3.60
   2   5   3   34.20    3.60
  -3  -5  -3    0.90    1.70
  -3  -5  -3    1.00    1.30
  -3  -5  -3    0.60    2.00
   3   5   3   -1.90    1.90
   3   5   3   -2.70    1.90
   3   5   3    1.50    1.50
   3   5   3    0.80    1.20
  -4  -5  -3    1.70    2.60
  -4  -5  -3    1.10    1.60
  -4  -5  -3    0.00    2.00
   4   5   3    2.20    1.60
   4   5   3    2.00    1.70
   4   5   3    6.30    2.50
  -5  -5  -3   24.30    3.70
  -5  -5  -3   21.30    3.90
  -5  -5  -3   18.10    3.70
  -5  -5  -3   18.80    2.50
  -5  -5  -3   19.70    2.70
   5   5   3   15.60    2.90
   5   5   3   24.60    3.00
   5   5   3   22.30    3.90
   5   5   3   13.60    3.50
  -6  -5  -3    5.90    3.60
  -6  -5  -3    9.20    3.30
  -6  -5  -3   11.80    3.80
  -6  -5  -3   11.40    2.10
  -6  -5  -3    9.20    2.30
   6   5   3   11.00    2.70
   6   5   3   12.50    3.70
   6   5   3    4.50    2.70
   6   5   3    3.60    3.60
  -7  -5  -3    8.50    4.40
  -7  -5  -3    2.70    1.90
  -7  -5  -3    3.40    4.50
  -7  -5  -3    3.00    3.80
   7   5   3    1.90    3.10
   7   5   3    6.50    3.90
   7   5   3    5.40    4.30
  -8  -5  -3    2.00    1.90
  -8  -5  -3    2.80    5.90
  -8  -5  -3    6.00    4.20
   8   5   3    5.00    4.10
   8   5   3   -5.00    4.50
   8   5   3    1.10    4.60
  -9  -5  -3   12.50    8.60
  -9  -5  -3   -3.70    5.40
   9   5   3   -0.20    4.90
   9   5   3    2.40    6.10
   9   5   3  -11.30    5.00
   7  -6  -3    3.50    4.50
   7  -6  -3  -10.80    4.20
   7  -6  -3    2.10    3.30
  -7   6   3    3.00    3.10
   6  -6  -3   11.20    3.90
   6  -6  -3    8.60    3.90
   6  -6  -3   16.60    7.70
   6  -6  -3    7.10    2.60
  -6   6   3    2.90    2.60
   5  -6  -3    1.80    1.70
   5  -6  -3   -7.10    2.80
   5  -6  -3   -0.60    2.90
   5  -6  -3   12.00    6.00
   5  -6  -3    0.70    5.60
   5  -6  -3   -1.90    3.80
  -5   6   3    2.50    2.10
  -5   6   3    6.50    3.50
   4  -6  -3    5.40    4.50
   4  -6  -3    6.30    1.70
   4  -6  -3    8.00    4.70
   4  -6  -3    6.50    1.50
   4  -6  -3    8.50    1.60
   4  -6  -3    2.10    3.30
   4  -6  -3    2.50    2.80
  -4   6   3    5.70    2.10
  -4   6   3   10.50    3.50
   3  -6  -3   40.50    4.30
   3  -6  -3   40.20    6.30
   3  -6  -3   38.20    3.30
   3  -6  -3   42.40    3.30
   3  -6  -3   31.40    5.60
  -3   6   3   44.40    4.70
  -3   6   3   34.20    3.00
  -3   6   3   33.40    3.10
  -3   6   3   32.00    2.60
   2  -6  -3   11.60    2.80
   2  -6  -3   11.90    2.30
   2  -6  -3    8.20    4.10
   2  -6  -3    9.40    2.30
   2  -6  -3    9.20    3.40
  -2   6   3   12.20    1.90
  -2   6   3   13.60    3.00
  -2   6   3   11.20    2.80
  -2   6   3   11.90    2.50
   1  -6  -3   33.50    3.30
   1  -6  -3   28.40    3.70
   1  -6  -3   30.00    4.40
   1  -6  -3   26.30    3.40
  -1   6   3   26.20    3.30
  -1   6   3   27.80    2.30
  -1   6   3   30.10    3.40
  -1   6   3   24.20    3.30
   0  -6  -3   14.10    2.70
   0  -6  -3   12.90    2.50
   0  -6  -3   13.10    2.80
   0  -6  -3   16.70    2.50
   0   6   3   15.70    2.60
   0   6   3   14.30    1.80
   0   6   3   15.30    2.80
   0   6   3   22.80    3.20
  -1  -6  -3   12.50    2.80
  -1  -6  -3   18.20    2.70
  -1  -6  -3   11.10    2.60
  -1  -6  -3   16.00    2.40
   1   6   3   15.30    3.00
   1   6   3   19.80    3.30
   1   6   3   13.60    2.70
  -2  -6  -3   35.90    4.50
  -2  -6  -3   31.50    3.90
  -2  -6  -3   35.30    3.50
   2   6   3   33.90    2.40
   2   6   3   34.80    4.40
   2   6   3   34.50    4.50
   2   6   3   34.20    3.70
  -3  -6  -3   14.60    3.60
  -3  -6  -3   10.50    2.40
  -3  -6  -3    5.70    2.80
   3   6   3   10.50    1.90
   3   6   3   10.00    2.70
   3   6   3   13.60    3.30
   3   6   3   14.20    3.50
  -4  -6  -3    0.10    3.20
  -4  -6  -3   -2.50    2.60
  -4  -6  -3   -0.90    1.60
   4   6   3   -2.00    2.80
   4   6   3    2.30    3.00
   4   6   3   -1.10    1.70
   4   6   3    0.30    2.10
  -5  -6  -3    2.20    3.20
  -5  -6  -3   -3.30    3.60
  -5  -6  -3   -3.90    3.20
  -5  -6  -3    0.30    2.10
   5   6   3    2.80    2.50
   5   6   3   -1.00    3.40
   5   6   3   -1.00    3.10
   5   6   3    0.60    2.30
  -6  -6  -3   19.60    3.20
  -6  -6  -3   21.70    5.00
  -6  -6  -3   10.60    4.10
  -6  -6  -3   21.20    5.10
   6   6   3   17.20    4.60
   6   6   3   22.20    3.50
   6   6   3   25.20    4.00
   6   6   3   17.00    4.60
  -7  -6  -3    1.90    5.50
  -7  -6  -3    5.40    4.20
  -7  -6  -3    7.30    5.70
  -7  -6  -3   -5.80    2.70
  -7  -6  -3    1.60    2.80
   7   6   3   -0.60    5.20
   7   6   3    6.00    3.10
   7   6   3    5.40    4.70
   7   6   3    3.30    3.50
  -8  -6  -3   -2.90    5.20
  -8  -6  -3    2.40    7.40
  -8  -6  -3   -1.50    2.90
   8   6   3   -0.50    3.50
   8   6   3    7.00    6.30
   8   6   3   -0.50    4.70
   8   6   3    7.30    5.60
   6  -7  -3   -2.90    4.60
   6  -7  -3   -3.90    1.70
   6  -7  -3   -4.40    4.60
  -6   7   3    7.20    5.80
  -6   7   3   -0.90    3.10
   5  -7  -3    1.80    1.40
   5  -7  -3   -9.80    3.70
   5  -7  -3    4.70    7.10
   5  -7  -3    2.20    1.30
  -5   7   3    1.70    2.70
  -5   7   3    8.30    4.60
   4  -7  -3    4.40    2.10
   4  -7  -3    1.70    5.60
   4  -7  -3    1.10    5.70
   4  -7  -3    1.50    1.90
   4  -7  -3   -1.20    3.30
   4  -7  -3    5.20    4.40
  -4   7   3    1.60    4.20
  -4   7   3   -0.30    2.00
   3  -7  -3    4.40    3.30
   3  -7  -3    4.80    4.40
   3  -7  -3   -2.30    2.20
   3  -7  -3    5.50    2.20
   3  -7  -3    3.00    4.40
  -3   7   3   13.10    3.70
  -3   7   3    3.20    1.70
  -3   7   3    1.90    1.80
   2  -7  -3   48.50    6.50
   2  -7  -3   41.50    4.50
   2  -7  -3   48.00    6.70
   2  -7  -3   45.70    4.50
   2  -7  -3   42.10    5.00
  -2   7   3   36.80    4.80
  -2   7   3   40.50    3.30
  -2   7   3   48.20    5.20
  -2   7   3   50.39    4.10
   1  -7  -3   41.60    5.60
   1  -7  -3   46.00    4.50
   1  -7  -3   40.20    4.20
   1  -7  -3   39.60    4.80
  -1   7   3   51.19    4.60
  -1   7   3   36.30    4.50
  -1   7   3   38.80    3.00
  -1   7   3   33.20    4.30
   0  -7  -3  130.59    7.30
   0  -7  -3  137.69    7.20
   0  -7  -3  130.59    7.50
   0  -7  -3  129.09    7.30
   0   7   3  129.59    7.20
   0   7   3  140.79    7.40
   0   7   3  127.09    5.60
  -1  -7  -3  119.09    6.80
  -1  -7  -3  127.69    7.60
  -1  -7  -3  124.99    7.40
   1   7   3  119.29    7.00
   1   7   3  129.79    7.40
   1   7   3  131.59    7.60
  -2  -7  -3   45.70    5.20
  -2  -7  -3   53.29    5.90
  -2  -7  -3   44.20    4.60
   2   7   3   39.00    2.60
   2   7   3   45.00    5.40
   2   7   3   37.00    5.40
   2   7   3   35.50    4.60
  -3  -7  -3   12.00    3.40
  -3  -7  -3   14.90    3.10
  -3  -7  -3   21.70    4.70
   3   7   3   14.30    3.20
   3   7   3   18.20    2.40
   3   7   3   13.40    4.10
   3   7   3    4.70    3.60
  -4  -7  -3   -4.40    3.50
  -4  -7  -3    5.20    4.10
  -4  -7  -3   -0.50    2.20
   4   7   3    0.30    2.00
   4   7   3   -5.80    3.50
   4   7   3    5.10    3.70
   4   7   3   -2.30    2.60
  -5  -7  -3    0.70    2.50
  -5  -7  -3    6.00    3.20
  -5  -7  -3   -2.10    4.00
  -5  -7  -3    0.60    4.70
   5   7   3    1.70    2.40
   5   7   3    0.10    2.90
   5   7   3    1.20    4.20
   5   7   3    0.50    4.20
  -6  -7  -3    3.30    3.10
  -6  -7  -3    4.50    3.50
  -6  -7  -3   -0.50    4.70
  -6  -7  -3  -13.10    5.20
  -6  -7  -3    2.40    5.10
   6   7   3  -10.30    4.80
   6   7   3    4.70    3.40
   6   7   3   -1.50    3.00
   6   7   3    3.20    4.70
  -7  -7  -3   -0.40    3.30
  -7  -7  -3    8.10    6.90
  -7  -7  -3    1.40    5.10
  -7  -7  -3    0.40    3.80
   7   7   3    6.00    6.50
   7   7   3   -2.20    6.10
   7   7   3    3.20    3.90
   7   7   3    4.00    6.20
   5  -8  -3    4.30    5.30
   5  -8  -3    1.20    2.10
   5  -8  -3    2.40    2.20
  -5   8   3    0.20    3.00
  -5   8   3    0.60    5.60
   4  -8  -3    0.80    7.50
   4  -8  -3    2.50    4.40
   4  -8  -3   -2.30    2.90
   4  -8  -3    8.50    7.80
   4  -8  -3    1.20    2.60
  -4   8   3   -4.80    4.20
  -4   8   3    1.60    2.00
  -4   8   3    0.30    1.60
  -4   8   3   -4.10    2.40
   3  -8  -3   19.10    6.50
   3  -8  -3    1.70    7.20
   3  -8  -3   13.80    3.50
   3  -8  -3   10.10    6.00
   3  -8  -3   16.80    3.50
  -3   8   3   16.90    2.70
  -3   8   3   15.40    2.80
  -3   8   3   17.20    3.50
  -3   8   3   17.30    4.70
   2  -8  -3    9.20    4.80
   2  -8  -3    5.60    3.70
   2  -8  -3    3.10    5.00
   2  -8  -3    5.20    3.10
   2  -8  -3    2.70    3.10
  -2   8   3    2.90    2.00
  -2   8   3    8.00    3.20
  -2   8   3   -1.30    2.60
  -2   8   3    0.10    3.40
   1  -8  -3    0.40    3.00
   1  -8  -3    2.30    2.90
   1  -8  -3   -6.10    3.10
   1  -8  -3   -4.80    3.90
  -1   8   3    1.30    3.00
  -1   8   3   -3.30    2.80
  -1   8   3   -0.20    3.10
  -1   8   3   -1.00    1.60
   0  -8  -3   -2.20    3.30
   0  -8  -3    1.20    2.90
   0  -8  -3   -1.80    3.00
   0   8   3    1.30    1.60
   0   8   3   -1.00    3.10
   0   8   3   -2.10    3.10
  -1  -8  -3   62.69    5.80
  -1  -8  -3   58.59    6.10
  -1  -8  -3   48.20    7.00
   1   8   3   60.79    6.30
   1   8   3   53.29    6.40
  -2  -8  -3   32.80    5.60
  -2  -8  -3   42.70    5.80
  -2  -8  -3   30.30    4.30
   2   8   3   42.90    5.60
   2   8   3   44.40    6.10
   2   8   3   30.50    2.50
  -3  -8  -3   42.30    6.10
  -3  -8  -3   49.00    5.60
  -3  -8  -3   49.99    6.90
   3   8   3   48.50    6.50
   3   8   3   51.19    6.30
   3   8   3   47.90    3.80
   3   8   3   51.79    5.90
  -4  -8  -3    2.00    3.30
  -4  -8  -3    0.80    4.50
  -4  -8  -3    4.10    5.30
   4   8   3    2.90    4.50
   4   8   3    2.40    2.30
   4   8   3    1.20    4.90
   4   8   3    5.60    3.60
  -5  -8  -3   -3.20    6.10
  -5  -8  -3    7.20    4.30
  -5  -8  -3   10.20    3.80
   5   8   3    1.80    3.00
   5   8   3   -2.60    5.70
   5   8   3    0.60    3.90
  -6  -8  -3    6.70    4.00
  -6  -8  -3    4.90    6.40
  -6  -8  -3    6.40    5.10
  -6  -8  -3   -3.00    5.80
   6   8   3   -3.80    3.50
   6   8   3   -2.00    4.30
   6   8   3   -0.40    6.20
   4  -9  -3   19.80    7.10
   4  -9  -3   -4.70    3.80
   4  -9  -3   -1.30    5.60
  -4   9   3   -0.50    3.20
  -4   9   3   -1.50    2.30
  -4   9   3    3.20    6.40
  -4   9   3   -1.20    3.10
   3  -9  -3   -2.70    4.20
   3  -9  -3    8.60    7.80
   3  -9  -3    0.40    4.40
   3  -9  -3    0.00    5.10
  -3   9   3    2.60    4.80
  -3   9   3   -1.70    3.00
  -3   9   3   -1.90    2.60
  -3   9   3    8.20    4.40
   2  -9  -3    5.30    4.10
   2  -9  -3    1.00    4.30
   2  -9  -3    2.60    6.20
   2  -9  -3   -1.30    4.20
  -2   9   3    0.70    2.50
  -2   9   3    3.00    3.50
  -2   9   3   -1.50    4.20
  -2   9   3   -3.30    4.50
   1  -9  -3    6.90    4.10
   1  -9  -3   -0.10    4.50
   1  -9  -3   -2.70    4.10
  -1   9   3    4.70    3.90
  -1   9   3    2.20    2.20
  -1   9   3    9.00    4.10
  -1   9   3    2.00    4.30
   0  -9  -3   -0.70    4.70
   0  -9  -3    8.90    4.10
   0  -9  -3    1.60    4.10
   0   9   3    2.00    4.10
   0   9   3    0.60    4.00
   0   9   3    1.00    2.10
  -1  -9  -3    9.90    4.40
  -1  -9  -3   -3.10    5.40
  -1  -9  -3    2.10    4.20
   1   9   3    5.70    4.80
   1   9   3   11.00    4.60
   1   9   3    7.80    2.20
  -2  -9  -3    0.60    4.80
  -2  -9  -3   -5.90    5.50
  -2  -9  -3   -6.50    4.40
   2   9   3   -0.70    1.20
   2   9   3  -14.40    7.90
   2   9   3   -6.00    4.50
  -3  -9  -3   -3.90    6.30
  -3  -9  -3   -3.70    4.50
  -3  -9  -3   -0.40    6.60
   3   9   3    4.70    2.00
   3   9   3    8.80    5.60
  -4  -9  -3    8.50    6.50
  -4  -9  -3    5.00    8.40
  -4  -9  -3   -1.90    5.30
   4   9   3    3.90    8.80
   4   9   3    2.20    2.80
  -5  -9  -3    2.10    5.30
  -5  -9  -3    1.60    6.10
  -5  -9  -3    6.70    5.70
   5   9   3    1.60    3.40
   5   9   3    1.30    6.40
   1 -10  -3    1.70    5.20
   1 -10  -3    6.10    5.80
   1 -10  -3   13.00    7.90
   1 -10  -3   -5.90    6.20
  -1  10   3   -1.00    6.00
  -1  10   3   -1.30    5.30
  -1  10   3    6.50    3.10
   0 -10  -3    2.20    5.10
   0 -10  -3    7.60    6.80
   0 -10  -3    3.10    5.40
   0  10   3   -0.90    2.50
   0  10   3   -5.00    6.10
   0  10   3    6.90    5.30
  -1 -10  -3    6.50    5.90
  -1 -10  -3   -2.10    5.50
  -1 -10  -3   -3.00    7.10
   1  10   3    2.50    2.50
   1  10   3   -2.20    5.70
  -2 -10  -3   -7.70    7.30
  -2 -10  -3   16.10    6.20
  -2 -10  -3    7.30    5.80
   2  10   3    1.20    6.90
  -3 -10  -3    9.30    5.40
  -3 -10  -3   -3.60    6.50
   3  10   3    2.80    2.00
   3  10   3    7.20    7.90
   3   8  -4   -9.10    6.40
   3   8  -4   -4.20    4.30
   3   8  -4    1.50    3.70
  -3  -8   4    0.70    6.50
   2   8  -4    7.70    3.70
   2   8  -4    3.90    3.80
  -2  -8   4   10.60    4.60
  -2  -8   4  -10.00    5.20
  -2  -8   4  -11.50    6.70
   1   8  -4    2.20    4.10
   1   8  -4    4.70    3.10
   1   8  -4   12.70    5.70
  -1  -8   4    8.50    5.30
  -1  -8   4   -3.50    6.60
   0   8  -4    0.30    4.50
   0   8  -4   -0.60    2.50
   0   8  -4   -6.00    5.20
   0  -8   4    5.40    4.60
   0  -8   4   -3.00    6.00
   0  -8   4    0.90    4.50
  -1   8  -4    1.30    2.30
  -1   8  -4   -0.80    4.80
  -1   8  -4   -6.50    4.70
  -1   8  -4   -2.60    2.20
   1  -8   4    1.20    5.50
   1  -8   4   -8.90    4.30
   1  -8   4   -2.20    5.10
   1  -8   4   -0.90    4.70
  -2   8  -4    1.80    3.60
  -2   8  -4    4.00    9.60
  -2   8  -4   11.40    5.10
  -2   8  -4    3.30    2.70
   2  -8   4    7.40    4.60
   2  -8   4   16.80    5.70
   2  -8   4   11.10    5.30
   2  -8   4    7.70    5.40
  -3   8  -4   -1.00    3.90
  -3   8  -4    6.20    4.80
  -3   8  -4    5.30    2.80
  -3   8  -4  -11.20    6.40
   3  -8   4    6.90    5.80
   3  -8   4    0.50    5.80
   3  -8   4    0.60    4.40
   3  -8   4   11.00    6.60
  -4   8  -4    0.90    4.80
  -4   8  -4   -6.10    4.40
  -4   8  -4   -2.50    7.70
  -4   8  -4    2.80    3.30
   4  -8   4    2.70    5.10
   4  -8   4    2.50    4.70
   4  -8   4    9.90    6.00
   5   7  -4    0.10    6.70
   5   7  -4    6.50    2.80
  -5  -7   4    6.10    3.20
  -5  -7   4   -4.60    5.90
   4   7  -4   -6.60    5.20
   4   7  -4    2.60    5.70
  -4  -7   4   11.70    5.90
  -4  -7   4    1.20    3.10
   3   7  -4   -1.80    9.30
   3   7  -4   -1.10    2.60
   3   7  -4   -2.10    3.70
  -3  -7   4   -6.90    4.50
  -3  -7   4   -0.20    5.50
  -3  -7   4    5.00    8.10
  -3  -7   4    6.30    3.40
   2   7  -4    2.10    2.90
   2   7  -4    5.20    3.40
   2   7  -4    9.50    3.10
   2   7  -4   11.70    4.90
  -2  -7   4    6.80    3.40
  -2  -7   4    2.40    5.20
  -2  -7   4   16.10    7.30
  -2  -7   4    5.90    4.50
   1   7  -4    7.70    3.10
   1   7  -4   -6.10    4.00
   1   7  -4    3.70    3.40
   1   7  -4    0.70    2.50
  -1  -7   4    3.40    4.20
  -1  -7   4    3.80    4.40
  -1  -7   4    3.50    3.60
  -1  -7   4    3.60    4.70
   0   7  -4    8.80    4.20
   0   7  -4    9.10    3.70
   0   7  -4    8.80    3.10
   0  -7   4    8.30    4.80
   0  -7   4    3.40    3.60
   0  -7   4    8.80    4.10
   0  -7   4   13.60    4.60
  -1   7  -4   -0.90    3.00
  -1   7  -4    2.20    3.50
  -1   7  -4    0.10    1.70
  -1   7  -4    0.20    3.70
   1  -7   4   -1.60    3.10
   1  -7   4    2.20    3.90
   1  -7   4    3.00    3.30
   1  -7   4    4.70    3.90
   1  -7   4    2.60    4.00
  -2   7  -4    1.00    3.50
  -2   7  -4    0.60    3.90
  -2   7  -4    1.90    3.00
  -2   7  -4    0.30    1.90
   2  -7   4   -1.00    4.60
   2  -7   4    3.00    3.50
   2  -7   4    3.70    4.10
   2  -7   4    6.70    3.60
  -3   7  -4    0.90    3.10
  -3   7  -4    1.30    3.40
  -3   7  -4   -1.10    2.30
  -3   7  -4    2.20    2.80
  -3   7  -4   -1.20    4.70
   3  -7   4    4.90    4.40
   3  -7   4   -6.50    3.70
   3  -7   4  -11.40    4.20
   3  -7   4   -6.60    4.00
  -4   7  -4    9.30    3.80
  -4   7  -4    5.10    3.80
  -4   7  -4    9.50    3.30
  -4   7  -4    4.60    6.20
  -4   7  -4    4.90    2.80
   4  -7   4    5.90    5.00
   4  -7   4   11.20    5.00
   4  -7   4    1.20    4.10
   4  -7   4    8.60    4.00
  -5   7  -4   -1.80    3.30
  -5   7  -4   -5.90    3.60
  -5   7  -4    6.40    7.30
   5  -7   4    2.20    3.80
   5  -7   4   -3.50    3.40
   5  -7   4   13.90    6.00
   6   6  -4    8.90    6.50
   6   6  -4    5.70    6.10
  -6  -6   4    2.10    4.80
  -6  -6   4    4.40    2.00
  -6  -6   4    7.80    6.10
   5   6  -4   -1.20    5.20
   5   6  -4   -1.20    4.20
  -5  -6   4   -1.40    2.30
  -5  -6   4   -3.70    4.10
  -5  -6   4   -5.00    4.70
   4   6  -4    2.00    3.50
   4   6  -4    0.00    4.80
  -4  -6   4    4.50    2.50
  -4  -6   4    7.40    4.30
  -4  -6   4    4.90    5.10
  -4  -6   4    5.10    4.80
   3   6  -4    0.70    3.60
   3   6  -4   -2.10    2.90
  -3  -6   4    2.70    2.60
  -3  -6   4   -5.90    3.80
  -3  -6   4   -4.70    4.20
  -3  -6   4   -4.10    3.50
   2   6  -4    6.20    3.80
   2   6  -4    5.70    2.80
   2   6  -4    6.80    2.50
  -2  -6   4    7.60    3.30
  -2  -6   4    1.40    3.70
  -2  -6   4    2.80    3.40
  -2  -6   4    4.70    2.60
   1   6  -4    0.60    3.20
   1   6  -4   -0.50    2.00
   1   6  -4    2.60    2.70
  -1  -6   4    4.20    2.60
  -1  -6   4    1.80    3.10
  -1  -6   4   -0.70    3.50
  -1  -6   4    2.60    2.90
   0   6  -4   -2.00    2.80
   0   6  -4    3.40    2.50
   0   6  -4   -0.10    1.60
   0   6  -4    2.20    2.50
   0  -6   4   -3.60    3.10
   0  -6   4   -1.90    2.70
   0  -6   4   -0.50    3.10
   0  -6   4   -0.60    2.60
  -1   6  -4    9.40    1.40
  -1   6  -4   13.60    3.40
  -1   6  -4   18.40    3.10
  -1   6  -4   12.10    2.10
  -1   6  -4   18.00    3.80
   1  -6   4   16.70    3.50
   1  -6   4   14.30    3.50
   1  -6   4   10.80    4.90
   1  -6   4   11.50    3.50
  -2   6  -4    9.40    2.60
  -2   6  -4   14.80    3.90
  -2   6  -4    6.40    1.80
  -2   6  -4   12.80    3.30
   2  -6   4   11.70    3.30
   2  -6   4   14.00    3.40
   2  -6   4   14.40    3.30
   2  -6   4   10.00    3.70
  -3   6  -4   14.90    3.30
  -3   6  -4   12.70    4.60
  -3   6  -4   11.30    2.30
  -3   6  -4   11.80    2.60
  -3   6  -4    9.00    2.60
   3  -6   4   12.70    3.20
   3  -6   4   14.80    3.70
   3  -6   4   11.40    3.30
   3  -6   4    9.60    3.40
  -4   6  -4    7.70    2.30
  -4   6  -4    4.60    2.50
  -4   6  -4    6.20    3.40
  -4   6  -4    6.10    2.80
  -4   6  -4    6.50    5.00
   4  -6   4    7.00    3.70
   4  -6   4    6.40    3.00
   4  -6   4    4.70    3.80
   4  -6   4   -1.00    2.90
  -5   6  -4    4.70    3.10
  -5   6  -4   -1.00    6.00
  -5   6  -4    1.80    3.40
  -5   6  -4   -0.60    2.60
   5  -6   4    5.00    4.10
   5  -6   4    8.60    2.30
   5  -6   4    2.20    2.80
   5  -6   4    1.20    2.70
   5  -6   4   -2.30    4.50
  -6   6  -4    4.00    2.60
  -6   6  -4    5.50    7.10
  -6   6  -4    3.10    4.00
  -6   6  -4    6.70    2.90
   6  -6   4    0.50    3.00
   6  -6   4    1.80    4.30
   6  -6   4    1.80    3.00
   6  -6   4    0.50    2.50
   7   5  -4   10.00    4.30
   7   5  -4    5.50    5.50
   7   5  -4    5.20    6.00
  -7  -5   4    1.70    6.90
  -7  -5   4   -2.00    5.00
  -7  -5   4    7.60    5.60
  -7  -5   4   13.50    4.50
   6   5  -4   37.80    6.00
   6   5  -4   25.70    5.40
  -6  -5   4   54.69    7.90
  -6  -5   4   38.80    5.20
   5   5  -4   -0.50    3.60
   5   5  -4    0.60    6.40
  -5  -5   4    2.30    4.20
  -5  -5   4   -2.00    1.50
  -5  -5   4   -4.50    4.20
  -5  -5   4    0.50    3.30
   4   5  -4   35.10    5.00
   4   5  -4   40.60    5.80
  -4  -5   4   34.80    5.30
  -4  -5   4   39.10    5.60
  -4  -5   4   24.90    3.30
  -4  -5   4   28.10    4.10
   3   5  -4   37.10    4.90
   3   5  -4   27.90    4.20
  -3  -5   4   43.50    5.30
  -3  -5   4   37.10    4.20
  -3  -5   4   38.70    3.60
  -3  -5   4   28.50    4.50
   2   5  -4   10.50    2.90
   2   5  -4   12.20    3.40
  -2  -5   4   15.70    3.40
  -2  -5   4    7.80    3.10
  -2  -5   4   13.10    3.00
  -2  -5   4   14.50    2.60
   1   5  -4   22.60    3.00
   1   5  -4   19.10    3.50
   1   5  -4   25.10    3.60
  -1  -5   4   28.00    3.60
  -1  -5   4   22.70    3.60
  -1  -5   4   27.00    3.40
  -1  -5   4   24.90    3.80
   0   5  -4    5.00    2.60
   0   5  -4    5.10    1.60
   0   5  -4    4.60    2.30
   0  -5   4    1.70    2.40
   0  -5   4    2.30    2.20
   0  -5   4   -3.40    2.20
  -1   5  -4    1.70    2.00
  -1   5  -4    2.40    1.40
  -1   5  -4    4.90    1.80
   1  -5   4    3.60    2.10
   1  -5   4    2.30    2.30
   1  -5   4    3.30    1.80
   1  -5   4    3.40    2.50
  -2   5  -4    4.90    2.10
  -2   5  -4    0.20    1.60
  -2   5  -4    1.70    1.40
  -2   5  -4   -1.00    2.40
   2  -5   4    2.50    2.00
   2  -5   4    2.20    2.40
   2  -5   4    3.40    2.10
   2  -5   4   -1.10    2.20
  -3   5  -4   49.99    3.90
  -3   5  -4   47.10    3.70
  -3   5  -4   52.69    4.10
  -3   5  -4   54.79    4.30
  -3   5  -4   51.09    5.30
   3  -5   4   51.19    4.30
   3  -5   4   54.59    4.30
   3  -5   4   49.60    4.60
   3  -5   4   54.59    5.10
   3  -5   4   43.80    3.40
  -4   5  -4   14.90    2.80
  -4   5  -4   14.20    4.70
  -4   5  -4   12.40    2.70
  -4   5  -4   11.40    2.50
   4  -5   4   13.60    3.60
   4  -5   4   15.20    2.70
   4  -5   4   15.60    3.30
   4  -5   4   16.40    2.80
   4  -5   4   16.60    2.20
  -5   5  -4   22.00    3.80
  -5   5  -4   24.30    3.90
  -5   5  -4   44.40    6.70
  -5   5  -4   22.10    3.00
   5  -5   4   24.70    3.70
   5  -5   4   23.60    3.20
   5  -5   4   24.50    4.60
   5  -5   4   30.50    3.80
   5  -5   4   27.80    3.50
  -6   5  -4    4.30    2.20
  -6   5  -4    6.00    3.50
  -6   5  -4    3.30    5.70
  -6   5  -4    1.70    2.10
   6  -5   4    5.80    2.60
   6  -5   4   -1.00    4.70
   6  -5   4    3.60    6.80
   6  -5   4    9.90    3.40
   6  -5   4    3.90    2.50
   6  -5   4    4.60    2.50
  -7   5  -4   35.60    8.70
   7  -5   4   21.30    4.40
   7  -5   4   36.10    4.70
   7  -5   4   34.10    4.20
   7  -5   4   35.00    4.60
   7   4  -4    8.80    4.50
   7   4  -4    2.60    4.60
   7   4  -4   -0.40    4.70
  -7  -4   4    4.90    6.10
  -7  -4   4    4.60    4.40
  -7  -4   4   15.70    5.10
  -7  -4   4   11.10    4.10
   6   4  -4    9.60    3.80
  -6  -4   4    8.90    4.10
  -6  -4   4    7.80    4.60
  -6  -4   4    7.60    3.50
  -6  -4   4    2.60    2.90
   5   4  -4    4.70    3.10
   5   4  -4    1.50    3.00
  -5  -4   4   10.10    3.40
  -5  -4   4   -1.80    2.60
  -5  -4   4    1.40    3.30
   4   4  -4   16.80    3.50
   4   4  -4   20.50    3.80
  -4  -4   4   18.20    2.30
  -4  -4   4   21.70    3.80
  -4  -4   4   21.50    3.30
  -4  -4   4   18.70    3.70
   3   4  -4    4.10    2.50
   3   4  -4    2.10    2.30
  -3  -4   4    0.50    2.20
  -3  -4   4   -0.20    1.30
  -3  -4   4    4.00    2.50
  -3  -4   4    1.90    2.40
   2   4  -4  116.49    7.00
   2   4  -4  125.19    6.80
  -2  -4   4  126.29    6.30
  -2  -4   4  126.09    5.60
  -2  -4   4  123.29    6.80
  -2  -4   4  133.69    6.90
   1   4  -4   -1.30    1.70
   1   4  -4    2.00    1.40
  -1  -4   4   -1.30    1.60
  -1  -4   4    0.30    1.70
  -1  -4   4    3.00    2.00
   0   4  -4    5.50    2.00
   0   4  -4    3.90    1.30
   0  -4   4    6.60    2.20
   0  -4   4    1.40    2.00
  -1   4  -4    0.20    1.00
  -1   4  -4    1.90    1.70
  -1   4  -4    0.10    0.90
  -1   4  -4   -1.60    2.10
   1  -4   4   -2.00    1.50
   1  -4   4   -0.70    1.60
   1  -4   4   -1.40    1.40
   1  -4   4    0.70    1.20
  -2   4  -4    4.50    1.40
  -2   4  -4    4.80    1.30
  -2   4  -4    6.30    1.70
   2  -4   4    4.60    1.30
   2  -4   4    2.60    1.80
   2  -4   4    4.90    1.80
   2  -4   4    4.80    1.70
   2  -4   4    8.00    2.00
  -3   4  -4    1.60    1.50
  -3   4  -4    1.00    1.50
  -3   4  -4    2.60    1.60
  -3   4  -4    0.70    2.30
  -3   4  -4    1.10    1.40
   3  -4   4    2.70    1.80
   3  -4   4    3.30    2.00
   3  -4   4    2.10    1.50
   3  -4   4    1.30    1.20
   3  -4   4    1.50    1.90
  -4   4  -4   -2.00    2.70
  -4   4  -4    0.50    1.70
  -4   4  -4   -0.20    1.80
  -4   4  -4   -3.40    1.70
   4  -4   4    0.60    2.10
   4  -4   4   -0.40    1.50
   4  -4   4    0.30    1.30
   4  -4   4    0.60    1.60
   4  -4   4   -0.70    2.20
  -5   4  -4    2.60    1.90
  -5   4  -4    4.60    4.10
  -5   4  -4    5.20    1.90
  -5   4  -4    3.70    2.30
   5  -4   4    7.40    3.40
   5  -4   4    4.60    2.00
   5  -4   4    3.70    1.70
   5  -4   4    6.70    1.80
   5  -4   4    2.90    2.10
  -6   4  -4   14.10    3.30
  -6   4  -4   20.80    2.60
  -6   4  -4   26.30    3.40
  -6   4  -4   27.70    6.10
   6  -4   4   17.60    4.20
   6  -4   4   20.00    2.90
   6  -4   4   23.50    3.20
   6  -4   4   36.00    6.90
   6  -4   4   26.60    3.30
   6  -4   4   21.30    2.80
  -7   4  -4   19.10    6.60
  -7   4  -4    2.10    1.50
   7  -4   4    6.30    2.50
   7  -4   4    6.80    2.60
   7  -4   4    0.10    2.10
   7  -4   4    1.60    2.70
   7  -4   4   17.20    7.20
  -8   4  -4   21.30    7.80
   8  -4   4   11.30    3.90
   8  -4   4    4.40    2.40
   8  -4   4    5.40    2.60
   8   3  -4    9.30    5.70
   8   3  -4   12.00    5.10
   8   3  -4   12.60    9.60
  -8  -3   4    8.60    4.70
  -8  -3   4    2.40    5.00
  -8  -3   4    7.60    4.70
  -8  -3   4    5.00    6.50
   7   3  -4    3.90    4.00
   7   3  -4    0.30    3.80
   7   3  -4    7.00    4.50
  -7  -3   4    2.70    3.30
  -7  -3   4   -1.80    3.40
  -7  -3   4   -2.20    5.10
  -7  -3   4    5.80    4.00
  -7  -3   4    1.40    4.20
   6   3  -4   14.00    3.30
   6   3  -4   16.50    3.40
   6   3  -4   25.40    4.50
  -6  -3   4   20.00    3.50
  -6  -3   4   24.50    4.30
  -6  -3   4   20.00    4.00
  -6  -3   4   19.80    3.60
   5   3  -4   51.29    4.80
   5   3  -4   48.30    5.00
   5   3  -4   52.29    4.40
  -5  -3   4   44.30    4.40
  -5  -3   4   43.50    5.20
  -5  -3   4   45.70    5.10
  -5  -3   4   41.00    3.70
   4   3  -4   -1.30    2.00
   4   3  -4   -1.40    1.80
   4   3  -4    2.30    2.10
  -4  -3   4    1.40    2.40
  -4  -3   4    0.70    1.70
  -4  -3   4   -0.90    2.00
  -4  -3   4   -0.50    1.10
   3   3  -4   70.19    4.50
   3   3  -4   69.49    4.80
   3   3  -4   66.99    4.40
  -3  -3   4   69.09    3.30
  -3  -3   4   76.89    5.00
  -3  -3   4   69.79    4.80
   2   3  -4   84.89    4.90
   2   3  -4   76.19    4.60
   2   3  -4   76.19    4.40
  -2  -3   4   79.89    4.80
  -2  -3   4   82.09    4.50
  -2  -3   4   78.19    4.80
   1   3  -4  167.08    7.40
   1   3  -4  170.08    7.10
  -1  -3   4  167.28    7.30
  -1  -3   4  175.38    7.10
  -1  -3   4  169.68    7.30
   0   3  -4    1.50    1.10
   0   3  -4   -0.20    0.90
   0   3  -4    1.90    1.40
   0  -3   4    2.50    1.40
   0  -3   4    2.10    1.30
   0  -3   4    0.30    1.40
  -1   3  -4    5.30    1.50
  -1   3  -4    3.90    1.10
  -1   3  -4    4.30    1.50
  -1   3  -4    5.20    0.70
   1  -3   4    5.20    1.50
   1  -3   4    5.80    1.60
   1  -3   4    4.50    1.50
   1  -3   4    4.10    1.10
  -2   3  -4   99.39    4.80
  -2   3  -4  104.69    4.50
  -2   3  -4   95.69    4.60
   2  -3   4  101.49    4.60
   2  -3   4  104.09    4.90
   2  -3   4  104.29    4.80
   2  -3   4  104.59    4.90
   2  -3   4   99.69    4.40
  -3   3  -4  287.57   10.50
  -3   3  -4  281.97   10.40
  -3   3  -4  275.77   10.60
  -3   3  -4  291.37   10.60
  -3   3  -4  286.07   11.80
   3  -3   4  311.37   10.40
   3  -3   4  292.67   10.60
   3  -3   4  296.57   10.90
   3  -3   4  303.47   10.70
   3  -3   4  293.57   10.60
  -4   3  -4    3.00    2.30
  -4   3  -4    1.30    2.00
  -4   3  -4    0.90    1.50
  -4   3  -4   -0.70    1.40
  -4   3  -4    0.90    1.30
   4  -3   4   -0.70    1.30
   4  -3   4    0.30    1.90
   4  -3   4   -1.70    1.00
   4  -3   4   -0.10    1.30
   4  -3   4    1.10    1.30
  -5   3  -4   61.49    7.10
  -5   3  -4   57.79    5.80
  -5   3  -4   58.79    3.60
  -5   3  -4   63.39    4.30
  -5   3  -4   61.29    4.70
  -5   3  -4   59.09    4.20
   5  -3   4   73.39    4.10
   5  -3   4   70.49    5.00
   5  -3   4   59.29    3.50
   5  -3   4   64.09    3.80
   5  -3   4   65.09    3.90
  -6   3  -4   28.50    5.40
  -6   3  -4   27.60    3.80
  -6   3  -4   29.40    4.20
   6  -3   4   31.40    3.70
   6  -3   4   26.60    5.50
   6  -3   4   22.70    2.90
   6  -3   4   23.10    2.60
   6  -3   4   24.20    3.30
  -7   3  -4  117.09    9.20
  -7   3  -4   94.39    6.90
  -7   3  -4   88.79    4.30
   7  -3   4   94.49    5.30
   7  -3   4   94.09    4.80
   7  -3   4   90.29    4.70
   7  -3   4  111.09   10.80
   7  -3   4   93.49    6.30
  -8   3  -4   25.20    7.20
  -8   3  -4   17.30    4.90
   8  -3   4   14.10    2.20
   8  -3   4   15.80    2.50
   8  -3   4   14.20    4.60
   8  -3   4   25.10    4.30
   8  -3   4   20.00    2.70
   8  -3   4   15.40    3.10
  -9   3  -4   12.80    9.40
  -9   3  -4    7.10    5.40
   9  -3   4   15.50    3.00
   9  -3   4   11.20    2.40
   9  -3   4    8.60    4.70
   9  -3   4    9.30    5.90
   8   2  -4    1.50    3.90
   8   2  -4    4.70    3.60
   8   2  -4    2.10    5.40
   8   2  -4    4.50    3.40
  -8  -2   4   -3.30    5.50
  -8  -2   4   -3.50    4.00
  -8  -2   4   -1.60    4.10
  -8  -2   4   10.50    4.50
  -8  -2   4   -2.20    4.00
   7   2  -4    1.20    3.20
   7   2  -4   -0.70    4.40
   7   2  -4    8.10    2.90
   7   2  -4    3.80    3.00
  -7  -2   4    6.60    3.30
  -7  -2   4    8.30    3.60
  -7  -2   4    2.10    3.10
  -7  -2   4    4.70    3.40
   6   2  -4   31.00    5.20
   6   2  -4   40.40    4.30
   6   2  -4   48.00    5.10
   6   2  -4   33.10    4.20
  -6  -2   4   35.50    4.70
  -6  -2   4   29.70    4.00
  -6  -2   4   40.00    4.80
  -6  -2   4   44.60    4.80
  -6  -2   4   44.70    6.80
   5   2  -4   17.40    2.60
   5   2  -4   16.70    3.00
   5   2  -4   21.80    3.10
  -5  -2   4   16.00    2.90
  -5  -2   4   18.20    2.90
  -5  -2   4   17.60    2.60
  -5  -2   4   19.40    3.20
  -5  -2   4   21.20    3.10
   4   2  -4  102.69    5.20
   4   2  -4   96.49    5.10
   4   2  -4   96.29    5.50
  -4  -2   4   97.89    5.10
  -4  -2   4   94.39    5.40
  -4  -2   4   91.49    4.90
  -4  -2   4   95.49    4.50
  -4  -2   4  102.29    5.40
   3   2  -4    6.10    1.60
   3   2  -4    8.50    2.00
   3   2  -4    3.40    1.50
  -3  -2   4    5.70    1.80
  -3  -2   4    4.70    1.50
  -3  -2   4    5.20    1.80
  -3  -2   4    5.00    1.70
  -3  -2   4    7.30    1.30
   2   2  -4  300.87   11.00
   2   2  -4  296.97   11.00
   2   2  -4  299.27   11.30
  -2  -2   4  316.87   11.00
  -2  -2   4  303.37   11.20
  -2  -2   4  287.97   10.50
  -2  -2   4  316.47   11.20
   1   2  -4  151.68    6.40
   1   2  -4  148.99    6.20
   1   2  -4  150.08    6.10
  -1  -2   4  147.39    6.30
  -1  -2   4  153.78    6.30
  -1  -2   4  146.19    5.50
  -1  -2   4  150.48    6.10
   0   2  -4    0.60    1.00
   0   2  -4    0.50    0.80
   0   2  -4   -0.10    0.80
   0   2  -4   -0.30    0.90
   0  -2   4   -0.40    0.50
   0  -2   4   -0.60    0.80
   0  -2   4   -0.90    1.00
   0  -2   4   -1.50    0.80
   0  -2   4    0.30    0.60
  -1   2  -4  114.89    4.90
  -1   2  -4  109.69    5.00
  -1   2  -4  122.99    4.70
  -1   2  -4  125.59    3.90
  -1   2  -4  121.39    5.20
   1  -2   4  118.69    4.90
   1  -2   4  118.09    5.10
   1  -2   4  108.59    4.70
   1  -2   4  119.99    5.10
   1  -2   4  121.09    4.50
  -2   2  -4    6.40    1.40
  -2   2  -4    9.20    1.40
  -2   2  -4    7.00    1.30
   2  -2   4    7.60    1.40
   2  -2   4    4.60    1.20
   2  -2   4    7.50    1.40
   2  -2   4    8.20    1.20
   2  -2   4    6.80    1.40
  -3   2  -4  145.39    5.90
  -3   2  -4  148.69    6.30
  -3   2  -4  152.08    6.00
  -3   2  -4  154.48    6.20
  -3   2  -4  146.29    6.00
   3  -2   4  152.38    5.90
   3  -2   4  149.79    6.30
   3  -2   4  155.08    6.00
   3  -2   4  148.79    6.10
   3  -2   4  165.48    6.10
  -4   2  -4   71.79    3.80
  -4   2  -4   67.79    4.80
  -4   2  -4   67.59    4.10
  -4   2  -4   65.09    3.60
  -4   2  -4   60.49    4.00
   4  -2   4   66.19    3.50
   4  -2   4   69.19    4.20
   4  -2   4   68.39    3.70
   4  -2   4   72.19    3.70
   4  -2   4   62.99    3.30
  -5   2  -4    3.40    1.60
  -5   2  -4    5.10    2.10
  -5   2  -4   -0.10    2.40
  -5   2  -4    3.50    1.60
  -5   2  -4    4.50    2.20
   5  -2   4    4.10    1.40
   5  -2   4    5.70    1.30
   5  -2   4    4.60    1.50
   5  -2   4    5.70    1.80
   5  -2   4    3.30    3.00
   5  -2   4    4.50    1.60
  -6   2  -4   40.80    5.50
  -6   2  -4   41.20    3.60
  -6   2  -4   44.20    4.50
  -6   2  -4   39.20    4.60
  -6   2  -4   46.00    3.00
   6  -2   4   52.19    4.10
   6  -2   4   46.90    3.10
   6  -2   4   42.20    3.60
   6  -2   4   41.20    4.00
   6  -2   4   45.10    6.40
   6  -2   4   42.30    2.60
  -7   2  -4    3.60    2.60
  -7   2  -4    2.40    1.40
  -7   2  -4    0.60    3.10
  -7   2  -4    9.30    4.40
   7  -2   4    1.80    2.10
   7  -2   4    7.10    4.80
   7  -2   4    4.90    1.30
   7  -2   4    6.50    3.00
   7  -2   4    1.40    1.60
   7  -2   4    1.80    1.00
   7  -2   4   -0.80    2.30
  -8   2  -4   22.40    4.80
  -8   2  -4   16.20    2.40
  -8   2  -4   24.90    6.20
   8  -2   4   21.80    3.40
   8  -2   4   20.70    2.60
   8  -2   4   18.60    3.70
   8  -2   4   20.20    6.90
   8  -2   4   14.60    4.20
  -9   2  -4   16.40    5.50
  -9   2  -4   13.60    7.70
   9  -2   4    5.00    4.00
   9  -2   4    4.00    2.30
   9  -2   4    2.20    3.80
   9  -2   4   -0.80    5.00
   8   1  -4    5.90    3.70
   8   1  -4    1.60    2.80
   8   1  -4    9.00    3.10
   8   1  -4    2.80    5.50
  -8  -1   4   10.20    4.20
  -8  -1   4    0.30    3.80
  -8  -1   4   -3.50    3.20
  -8  -1   4    6.20    5.60
   7   1  -4   -4.20    2.20
   7   1  -4    0.00    2.40
   7   1  -4    0.90    2.80
   7   1  -4   -1.90    4.30
  -7  -1   4    3.30    2.70
  -7  -1   4    0.40    2.60
  -7  -1   4    1.70    3.20
  -7  -1   4    0.90    2.80
  -7  -1   4    0.10    2.70
  -7  -1   4    5.20    4.50
   6   1  -4   97.89    5.90
   6   1  -4   95.79    5.30
   6   1  -4   94.99    7.10
   6   1  -4   98.49    5.50
  -6  -1   4   95.59    6.00
  -6  -1   4   95.09    8.10
  -6  -1   4   85.49    5.70
  -6  -1   4  103.09    5.90
  -6  -1   4   96.49    5.80
  -6  -1   4   96.39    5.50
   5   1  -4    6.40    1.90
   5   1  -4    9.70    2.10
   5   1  -4    6.50    2.30
  -5  -1   4    7.20    3.40
  -5  -1   4    4.90    2.00
  -5  -1   4    7.40    2.20
  -5  -1   4    8.40    2.20
  -5  -1   4    6.50    1.90
  -5  -1   4    8.10    2.20
   4   1  -4  103.39    4.90
   4   1  -4   94.79    5.10
   4   1  -4  104.89    4.90
  -4  -1   4  103.09    5.20
  -4  -1   4  100.19    5.10
  -4  -1   4  106.59    5.00
  -4  -1   4   94.99    4.90
  -4  -1   4   99.39    4.70
   3   1  -4  148.09    6.00
   3   1  -4  141.99    6.20
   3   1  -4  138.29    5.90
  -3  -1   4  139.59    5.90
  -3  -1   4  143.89    6.10
  -3  -1   4  143.59    5.50
  -3  -1   4  143.89    6.00
  -3  -1   4  145.59    6.10
  -3  -1   4  141.49    4.70
   2   1  -4   62.29    3.20
   2   1  -4   62.69    3.30
   2   1  -4   58.19    3.40
  -2  -1   4   59.89    3.10
  -2  -1   4   59.39    3.30
  -2  -1   4   61.99    3.30
  -2  -1   4   61.49    3.40
   1   1  -4    0.30    0.90
   1   1  -4    0.00    0.70
   1   1  -4   -0.20    0.70
  -1  -1   4    0.70    1.00
  -1  -1   4   -0.30    0.70
  -1  -1   4    0.70    0.80
  -1  -1   4    0.50    0.80
   0   1  -4    5.40    1.20
   0   1  -4    4.30    1.10
   0   1  -4    4.20    0.90
   0   1  -4    4.60    0.90
   0  -1   4    5.40    1.30
   0  -1   4    3.30    1.00
   0  -1   4    4.70    1.00
   0  -1   4    4.50    0.80
  -1   1  -4   57.19    2.10
  -1   1  -4   56.59    2.80
  -1   1  -4   59.19    2.70
  -1   1  -4   54.79    2.90
  -1   1  -4   52.99    2.80
   1  -1   4   62.39    2.80
   1  -1   4   53.79    2.80
   1  -1   4   57.19    3.00
   1  -1   4   57.89    2.80
   1  -1   4   59.19    2.20
  -2   1  -4  366.66   12.60
  -2   1  -4  367.56   12.70
  -2   1  -4  371.36   12.60
  -2   1  -4  371.36   12.80
  -2   1  -4  365.16   12.70
   2  -1   4  399.06   12.70
   2  -1   4  380.06   12.80
   2  -1   4  367.16   12.70
   2  -1   4  375.16   12.40
   2  -1   4  400.16   11.80
  -3   1  -4  130.29    5.10
  -3   1  -4  129.49    5.30
  -3   1  -4  133.79    5.60
  -3   1  -4  130.09    5.50
  -3   1  -4  131.29    5.40
   3  -1   4  140.79    5.40
   3  -1   4  137.09    5.50
   3  -1   4  127.99    4.90
   3  -1   4  135.79    5.30
  -4   1  -4   98.29    4.90
  -4   1  -4  101.29    5.10
  -4   1  -4  111.19    5.20
  -4   1  -4  103.59    4.70
   4  -1   4  105.59    3.90
   4  -1   4   99.29    4.50
   4  -1   4  103.59    4.50
   4  -1   4  105.99    4.70
   4  -1   4  110.69    4.90
  -5   1  -4   45.10    3.10
  -5   1  -4   46.00    4.30
  -5   1  -4   50.39    3.40
  -5   1  -4   49.70    4.00
  -5   1  -4   48.30    3.90
   5  -1   4   50.99    3.00
   5  -1   4   49.90    2.20
   5  -1   4   50.89    3.60
   5  -1   4   49.99    3.40
   5  -1   4   49.80    5.00
   5  -1   4   56.39    3.40
  -6   1  -4   54.09    4.60
  -6   1  -4   53.89    3.30
  -6   1  -4   61.99    5.50
  -6   1  -4   49.99    3.80
   6  -1   4   49.99    4.10
   6  -1   4   58.09    4.30
   6  -1   4   58.39    6.30
   6  -1   4   57.29    3.90
  -7   1  -4   21.50    2.80
  -7   1  -4   19.90    2.80
  -7   1  -4   17.10    4.20
  -7   1  -4   23.10    4.30
   7  -1   4   18.50    3.30
   7  -1   4   27.20    3.70
   7  -1   4   22.00    3.50
   7  -1   4   20.60    5.30
  -8   1  -4   13.20    5.20
  -8   1  -4    8.90    1.90
  -8   1  -4    5.50    2.50
  -8   1  -4   11.40    4.60
   8  -1   4    7.80    2.90
   8  -1   4    8.20    3.40
   8  -1   4    6.50    2.10
   8  -1   4    4.50    3.60
   8  -1   4   15.00    6.40
  -9   1  -4   16.20    2.10
  -9   1  -4   14.60    9.00
  -9   1  -4   17.80    5.20
  -9   1  -4   18.80    2.60
   9  -1   4   17.20    2.90
   9  -1   4   14.60    4.80
   9  -1   4   18.90    5.10
   9  -1   4   25.00    4.50
   9  -1   4   21.00    3.80
   8   0  -4   -1.30    2.50
   8   0  -4   -0.10    3.20
   8   0  -4   -0.20    2.50
   8   0  -4    1.20    6.00
  -8   0   4    0.30    3.00
  -8   0   4   -5.30    3.60
  -8   0   4   -0.20    2.40
  -8   0   4    6.10    2.70
  -8   0   4   -3.90    5.30
   7   0  -4   78.39    8.30
   7   0  -4   94.39    5.90
   7   0  -4   85.09    5.50
   7   0  -4   96.09    5.10
  -7   0   4   94.79    6.50
  -7   0   4   86.89    6.60
  -7   0   4   90.29    6.00
  -7   0   4   97.69    5.10
  -7   0   4   93.99    9.30
   6   0  -4   35.30    5.40
   6   0  -4   30.50    3.50
   6   0  -4   35.60    3.10
   6   0  -4   37.90    3.50
  -6   0   4   27.50    3.70
  -6   0   4   38.90    3.60
  -6   0   4   38.90    3.50
  -6   0   4   30.50    4.90
  -6   0   4   31.90    4.00
   5   0  -4   41.10    3.30
   5   0  -4   45.20    3.30
   5   0  -4   47.90    3.00
  -5   0   4   34.50    3.30
  -5   0   4   40.90    3.20
  -5   0   4   42.10    3.60
  -5   0   4   44.30    4.20
  -5   0   4   41.40    5.40
  -5   0   4   43.30    3.80
   4   0  -4   17.30    2.20
   4   0  -4   11.60    1.70
   4   0  -4   16.20    2.20
  -4   0   4   15.70    2.20
  -4   0   4   16.00    2.00
  -4   0   4   20.60    3.60
  -4   0   4   14.50    2.10
  -4   0   4   17.20    2.30
   3   0  -4  198.78    7.30
   3   0  -4  197.38    7.50
   3   0  -4  198.68    7.50
  -3   0   4  201.58    7.30
  -3   0   4  199.38    7.70
  -3   0   4  193.28    7.20
  -3   0   4  197.28    7.60
  -3   0   4  193.08    6.40
  -3   0   4  192.38    7.50
   2   0  -4  447.46   14.90
   2   0  -4  450.45   14.80
   2   0  -4  433.06   14.90
   2   0  -4  432.66   14.40
  -2   0   4  452.15   15.10
  -2   0   4  442.26   14.20
  -2   0   4  459.65   14.90
  -2   0   4  445.76   14.80
  -2   0   4  450.55   14.90
   1   0  -4  114.39    3.90
   1   0  -4  112.79    4.60
   1   0  -4  117.19    4.60
   1   0  -4  106.99    4.50
  -1   0   4  115.99    4.60
  -1   0   4  110.59    4.60
  -1   0   4  112.49    4.20
  -1   0   4  116.49    4.40
  -1   0   4  111.89    4.60
   0   0  -4  417.96   13.80
   0   0  -4  411.36   13.80
   0   0  -4  405.56   13.60
   0   0  -4  412.86   13.70
   0   0   4  405.06   13.70
   0   0   4  415.06   13.60
   0   0   4  419.76   13.70
   0   0   4  434.76   13.90
  -1   0  -4  423.56   13.60
  -1   0  -4  406.26   13.70
  -1   0  -4  406.16   13.70
  -1   0  -4  410.26   13.50
   1   0   4  412.66   13.80
   1   0   4  411.86   13.50
   1   0   4  421.36   13.10
   1   0   4  415.66   13.60
   1   0   4  410.36   13.70
  -2   0  -4  200.18    7.40
  -2   0  -4  204.58    7.40
  -2   0  -4  196.68    7.30
  -2   0  -4  198.58    6.90
   2   0   4  211.08    7.30
   2   0   4  197.28    6.90
   2   0   4  202.08    7.40
  -3   0  -4   28.30    2.20
  -3   0  -4   29.00    2.20
  -3   0  -4   27.50    2.10
  -3   0  -4   26.70    2.20
   3   0   4   29.30    1.70
   3   0   4   29.60    2.30
   3   0   4   27.50    2.10
   3   0   4   32.40    2.30
   3   0   4   30.20    1.50
  -4   0  -4   27.80    2.30
  -4   0  -4   21.40    2.40
  -4   0  -4   24.20    2.40
  -4   0  -4   21.70    2.70
   4   0   4   26.20    2.20
   4   0   4   25.90    2.10
   4   0   4   24.60    2.40
   4   0   4   22.40    2.90
   4   0   4   22.80    2.40
   4   0   4   26.00    1.30
  -5   0  -4   21.60    3.20
  -5   0  -4   20.30    2.70
  -5   0  -4   24.00    3.10
  -5   0  -4   26.50    2.90
  -5   0  -4   24.10    2.40
   5   0   4   22.30    2.50
   5   0   4   21.80    2.60
   5   0   4   20.90    2.40
   5   0   4   21.30    2.70
   5   0   4   25.90    3.70
  -6   0  -4    1.70    2.40
  -6   0  -4    2.10    2.10
   6   0   4   -2.10    1.70
   6   0   4    2.10    3.00
   6   0   4   -0.40    1.70
   6   0   4   -0.10    1.70
   6   0   4    1.00    1.50
  -7   0  -4   13.30    2.60
  -7   0  -4   18.60    4.10
  -7   0  -4   13.00    2.50
  -7   0  -4   12.10    3.10
   7   0   4   15.70    4.70
   7   0   4   17.60    3.10
   7   0   4   10.00    2.40
   7   0   4   10.90    3.10
   7   0   4   11.20    3.00
   7   0   4   11.80    2.80
  -8   0  -4   13.50    4.80
  -8   0  -4    6.00    2.90
  -8   0  -4   14.50    3.80
  -8   0  -4    8.30    2.30
   8   0   4    9.90    3.10
   8   0   4   11.70    3.90
   8   0   4   -0.50    5.00
   8   0   4    9.40    3.20
   8   0   4    7.80    3.40
   8   0   4    7.50    2.50
  -9   0  -4   -4.20    5.40
  -9   0  -4    6.20    4.30
  -9   0  -4    1.10    3.00
   9   0   4   -3.70    6.90
   9   0   4    0.70    2.70
   9   0   4   -1.30    3.20
   9   0   4   -5.60    4.60
   9   0   4    2.20    4.00
   9   0   4    6.10    3.60
   8  -1  -4   -3.80    2.50
   8  -1  -4    0.70    6.20
   8  -1  -4    5.50    2.60
   8  -1  -4    1.10    2.40
  -8   1   4    8.30    5.20
  -8   1   4    4.00    4.90
   7  -1  -4    3.30    5.00
   7  -1  -4    6.70    4.40
   7  -1  -4    5.30    2.00
   7  -1  -4    4.90    1.80
   7  -1  -4    1.20    2.20
  -7   1   4    5.70    1.40
  -7   1   4   -2.20    4.30
  -7   1   4    6.10    2.70
  -7   1   4    1.20    2.90
  -7   1   4    3.40    1.30
   6  -1  -4   52.39    5.70
   6  -1  -4   65.79    6.90
   6  -1  -4   56.19    3.30
   6  -1  -4   53.39    3.70
   6  -1  -4   59.39    4.00
  -6   1   4   50.69    3.20
  -6   1   4   61.59    7.00
  -6   1   4   51.59    3.00
  -6   1   4   50.59    4.20
  -6   1   4   43.70    4.50
   5  -1  -4   12.90    3.10
   5  -1  -4   14.20    1.90
   5  -1  -4    3.90    3.00
   5  -1  -4   12.70    2.10
   5  -1  -4   13.30    1.70
  -5   1   4   10.30    2.40
  -5   1   4   12.80    2.30
  -5   1   4   10.60    1.50
  -5   1   4   17.10    3.80
  -5   1   4   15.40    2.60
   4  -1  -4    3.40    1.20
   4  -1  -4    3.10    2.00
   4  -1  -4    3.90    1.10
   4  -1  -4    3.20    1.10
   4  -1  -4    3.10    1.70
  -4   1   4    4.50    1.70
  -4   1   4    3.80    1.10
  -4   1   4    3.50    1.50
  -4   1   4    4.40    1.10
  -4   1   4    6.60    2.50
   3  -1  -4   24.40    2.30
   3  -1  -4   24.00    2.80
   3  -1  -4   29.30    2.30
   3  -1  -4   26.50    1.50
   3  -1  -4   27.70    1.90
   3  -1  -4   26.40    1.90
  -3   1   4   29.90    1.90
  -3   1   4   28.70    1.90
  -3   1   4   22.40    3.10
  -3   1   4   29.40    2.40
  -3   1   4   26.40    2.70
  -3   1   4   27.70    1.70
   2  -1  -4  127.79    5.40
   2  -1  -4  125.99    4.90
   2  -1  -4  127.69    4.80
   2  -1  -4  124.99    4.60
   2  -1  -4  123.49    4.80
   2  -1  -4  119.49    5.10
  -2   1   4  127.09    4.90
  -2   1   4  125.99    5.00
  -2   1   4  120.89    5.30
  -2   1   4  126.29    5.80
  -2   1   4  124.49    4.60
  -2   1   4  129.59    5.20
   1  -1  -4    4.30    0.90
   1  -1  -4    5.40    1.00
   1  -1  -4    3.50    0.70
   1  -1  -4    6.00    1.20
  -1   1   4    4.50    0.80
  -1   1   4    4.20    0.80
  -1   1   4    3.90    0.90
  -1   1   4    3.60    1.10
   0  -1  -4   64.29    2.90
   0  -1  -4   67.99    2.80
   0  -1  -4   62.09    2.60
   0  -1  -4   63.59    3.00
   0  -1  -4   62.29    2.80
   0  -1  -4   61.99    2.90
   0   1   4   64.49    2.90
   0   1   4   62.99    3.00
   0   1   4   63.49    2.80
   0   1   4   54.99    2.70
   0   1   4   65.89    2.60
   0   1   4   59.29    3.00
  -1  -1  -4  298.57   10.50
  -1  -1  -4  294.67   10.30
  -1  -1  -4  303.77   10.20
  -1  -1  -4  306.27   10.20
  -1  -1  -4  296.97   10.50
   1   1   4  302.57    9.60
   1   1   4  312.17   10.20
   1   1   4  313.87   10.60
   1   1   4  310.97   10.30
   1   1   4  301.77   10.40
   1   1   4  305.27   10.30
   1   1   4  318.57    9.90
  -2  -1  -4  369.36   12.50
  -2  -1  -4  361.16   12.00
  -2  -1  -4  362.16   12.60
  -2  -1  -4  364.86   12.70
   2   1   4  375.46   12.60
   2   1   4  372.76   12.20
   2   1   4  374.56   12.70
   2   1   4  378.56   12.50
   2   1   4  384.46   12.40
  -3  -1  -4   18.30    2.10
  -3  -1  -4   20.20    2.10
  -3  -1  -4   19.60    1.90
  -3  -1  -4   16.40    1.20
   3   1   4   17.60    1.90
   3   1   4   18.70    1.90
   3   1   4   18.40    2.10
   3   1   4   23.60    2.00
   3   1   4   19.10    1.80
  -4  -1  -4   23.80    2.60
  -4  -1  -4   23.50    2.80
  -4  -1  -4   29.10    2.40
   4   1   4   30.40    2.40
   4   1   4   29.80    2.70
   4   1   4   26.90    2.40
   4   1   4   23.10    2.70
   4   1   4   25.60    2.40
  -5  -1  -4    7.30    1.60
  -5  -1  -4    1.70    1.70
  -5  -1  -4    6.80    1.90
  -5  -1  -4    9.20    2.10
   5   1   4    5.60    1.70
   5   1   4    6.50    1.70
   5   1   4    7.30    2.30
   5   1   4    4.50    1.50
   5   1   4    6.00    1.90
  -6  -1  -4   67.29    4.60
  -6  -1  -4   69.69    4.10
  -6  -1  -4   65.29    4.90
  -6  -1  -4   65.59    4.60
   6   1   4   63.99    4.50
   6   1   4   69.39    4.10
   6   1   4   67.49    4.20
   6   1   4   62.09    4.70
   6   1   4   71.49    5.70
  -7  -1  -4    8.60    3.20
  -7  -1  -4    1.40    2.50
  -7  -1  -4    2.90    2.60
  -7  -1  -4    2.90    2.00
   7   1   4    2.50    2.10
   7   1   4    4.80    2.60
   7   1   4    5.40    3.60
   7   1   4    0.20    2.40
   7   1   4    1.10    2.50
   7   1   4    5.90    2.60
  -8  -1  -4   20.40    3.20
  -8  -1  -4   20.10    4.80
  -8  -1  -4   17.20    3.50
  -8  -1  -4   24.10    4.60
   8   1   4   12.00    3.80
   8   1   4   16.50    5.40
   8   1   4   20.90    3.50
   8   1   4   15.70    3.90
   8   1   4   20.90    4.00
   8   1   4   18.90    3.20
  -9  -1  -4    3.70    5.20
  -9  -1  -4   10.30    5.00
  -9  -1  -4   12.70    3.90
   9   1   4   10.60    4.80
   9   1   4    4.90    3.90
   9   1   4    9.80    3.50
   9   1   4    6.40    4.10
   9   1   4   11.80    3.60
   8  -2  -4   13.30    7.30
   8  -2  -4    4.00    2.90
  -8   2   4   10.00    6.10
   7  -2  -4   20.70    5.50
   7  -2  -4   19.10    5.20
   7  -2  -4   14.00    1.70
   7  -2  -4   17.20    1.90
   7  -2  -4   14.80    2.80
   7  -2  -4   19.30    2.10
  -7   2   4   20.10    3.30
  -7   2   4   15.10    5.50
   6  -2  -4    4.60    3.00
   6  -2  -4   -4.30    3.90
   6  -2  -4   -3.20    3.00
   6  -2  -4    0.60    1.40
   6  -2  -4    2.10    1.90
   6  -2  -4    1.70    1.20
  -6   2   4    2.10    2.10
  -6   2   4    5.20    3.80
   5  -2  -4   23.80    3.90
   5  -2  -4   16.20    1.90
   5  -2  -4   23.70    3.50
   5  -2  -4   15.40    4.30
   5  -2  -4   18.00    2.00
   5  -2  -4   15.20    2.30
  -5   2   4   15.20    2.50
  -5   2   4   20.00    4.10
   4  -2  -4   22.20    1.90
   4  -2  -4   18.80    1.70
   4  -2  -4   24.70    4.00
   4  -2  -4   19.50    2.70
   4  -2  -4   20.10    1.80
   4  -2  -4   17.50    2.50
  -4   2   4   25.60    2.60
  -4   2   4   20.60    1.60
  -4   2   4   26.20    4.00
  -4   2   4   21.00    1.60
   3  -2  -4  376.06   13.00
   3  -2  -4  365.96   12.30
   3  -2  -4  359.86   13.00
   3  -2  -4  365.76   12.20
   3  -2  -4  374.66   13.50
   3  -2  -4  374.66   12.20
  -3   2   4  368.36   14.00
  -3   2   4  372.36   12.40
  -3   2   4  369.36   12.10
  -3   2   4  359.76   12.80
   2  -2  -4    5.50    1.00
   2  -2  -4    5.70    1.40
   2  -2  -4    4.60    1.00
   2  -2  -4    5.70    1.40
   2  -2  -4    7.40    1.10
   2  -2  -4    5.40    1.30
  -2   2   4    7.30    1.20
  -2   2   4    7.60    1.30
  -2   2   4    6.10    1.70
  -2   2   4    7.50    1.10
  -2   2   4    7.50    1.40
   1  -2  -4   10.30    1.50
   1  -2  -4    9.20    1.20
   1  -2  -4    9.50    1.30
   1  -2  -4    9.20    1.10
   1  -2  -4   11.30    1.40
   1  -2  -4   10.50    1.50
  -1   2   4    9.10    1.20
  -1   2   4   11.50    1.70
  -1   2   4    8.50    1.20
  -1   2   4    9.00    1.50
  -1   2   4   11.20    1.40
   0  -2  -4    7.20    1.20
   0  -2  -4    5.90    1.00
   0  -2  -4    5.30    1.00
   0  -2  -4    7.00    1.30
   0  -2  -4    6.50    0.90
   0   2   4    6.10    0.90
   0   2   4    6.10    1.10
   0   2   4    6.10    1.10
   0   2   4    6.50    0.90
   0   2   4    6.40    1.10
   0   2   4    8.60    1.30
  -1  -2  -4  113.29    4.70
  -1  -2  -4  111.99    4.60
  -1  -2  -4  113.69    4.80
  -1  -2  -4  109.59    4.50
  -1  -2  -4  116.49    4.40
   1   2   4  112.09    4.80
   1   2   4  112.69    4.60
   1   2   4  120.09    4.30
   1   2   4  113.69    4.70
  -2  -2  -4   19.50    1.70
  -2  -2  -4   16.80    1.50
  -2  -2  -4   17.60    1.60
  -2  -2  -4   16.50    2.00
  -2  -2  -4   18.80    2.00
   2   2   4   17.60    1.70
   2   2   4   16.30    1.90
   2   2   4   17.20    2.00
   2   2   4   19.10    1.20
   2   2   4   19.90    1.60
  -3  -2  -4  274.37    9.60
  -3  -2  -4  267.17    9.90
  -3  -2  -4  269.57   10.00
  -3  -2  -4  248.78    9.70
  -3  -2  -4  267.67    8.90
   3   2   4  265.17    9.30
   3   2   4  263.67    9.60
   3   2   4  272.57    9.50
   3   2   4  274.67   10.10
   3   2   4  269.37    9.90
  -4  -2  -4   26.90    3.00
  -4  -2  -4   28.30    1.50
  -4  -2  -4   27.40    2.90
  -4  -2  -4   26.40    2.70
   4   2   4   27.20    2.60
   4   2   4   30.80    2.80
   4   2   4   30.60    2.40
   4   2   4   27.90    2.90
   4   2   4   27.50    2.60
  -5  -2  -4   15.80    2.60
  -5  -2  -4   14.30    2.20
  -5  -2  -4   16.20    2.30
   5   2   4   16.90    2.30
   5   2   4   19.60    2.80
   5   2   4   17.00    2.60
   5   2   4   21.40    3.00
   5   2   4   18.70    2.70
  -6  -2  -4  202.38    8.70
  -6  -2  -4  194.98    8.60
  -6  -2  -4  203.18    8.90
   6   2   4  197.88    9.10
   6   2   4  211.28    8.90
   6   2   4  205.48    9.10
   6   2   4  209.58    8.20
   6   2   4  209.18    9.40
  -7  -2  -4   13.50    3.40
  -7  -2  -4    4.00    2.40
  -7  -2  -4    7.50    3.00
  -7  -2  -4    9.60    2.90
   7   2   4    6.80    2.70
   7   2   4    8.60    3.00
   7   2   4    6.70    2.20
   7   2   4    7.00    2.50
  -8  -2  -4   61.89    6.50
  -8  -2  -4   66.39    5.40
  -8  -2  -4   68.99    6.50
  -8  -2  -4   61.29    6.30
   8   2   4   74.29    5.90
   8   2   4   54.89    6.20
   8   2   4   75.99    6.60
   8   2   4   67.99    5.00
  -9  -2  -4   -4.30    4.00
  -9  -2  -4   -1.00    4.40
  -9  -2  -4    7.90    3.50
   9   2   4    0.50    3.20
   9   2   4    1.00    4.10
   9   2   4    0.70    4.30
   9   2   4   11.60    4.20
   8  -3  -4    7.50    2.40
   8  -3  -4   12.20    4.90
   8  -3  -4   14.20    3.40
  -8   3   4    0.10    3.10
   7  -3  -4   20.40    3.40
   7  -3  -4   16.90    2.60
   7  -3  -4   22.00    5.10
   7  -3  -4    9.10    5.90
   7  -3  -4   14.70    6.40
  -7   3   4   18.40    3.50
   6  -3  -4    0.20    2.10
   6  -3  -4    2.90    3.50
   6  -3  -4    6.70    3.60
   6  -3  -4    1.20    1.70
   6  -3  -4   -8.70    4.50
  -6   3   4    0.80    2.10
  -6   3   4   -1.50    3.40
   5  -3  -4    1.10    1.50
   5  -3  -4   -3.80    3.40
   5  -3  -4    2.50    0.90
   5  -3  -4    0.40    2.80
   5  -3  -4    5.90    2.80
   5  -3  -4    2.10    1.00
   5  -3  -4    1.90    1.80
  -5   3   4   -1.00    2.70
  -5   3   4    0.10    1.80
   4  -3  -4    2.80    1.00
   4  -3  -4    3.70    2.30
   4  -3  -4    7.70    5.10
   4  -3  -4    4.30    2.80
   4  -3  -4    3.70    1.80
   4  -3  -4    3.00    0.80
   4  -3  -4    2.40    1.40
  -4   3   4    4.80    1.70
  -4   3   4    0.40    2.20
   3  -3  -4    1.10    2.20
   3  -3  -4    1.80    1.70
   3  -3  -4    2.40    1.40
   3  -3  -4    0.80    0.90
   3  -3  -4    2.00    1.30
   3  -3  -4    2.90    0.80
   3  -3  -4    1.30    1.60
   3  -3  -4    1.40    2.20
  -3   3   4    1.70    0.70
  -3   3   4    2.90    1.80
  -3   3   4    1.50    1.10
  -3   3   4    1.50    0.80
   2  -3  -4  197.88    8.30
   2  -3  -4  197.78    7.10
   2  -3  -4  195.78    7.90
   2  -3  -4  196.58    7.50
   2  -3  -4  191.08    7.20
   2  -3  -4  210.48    8.10
  -2   3   4  208.28    7.60
  -2   3   4  200.48    8.10
  -2   3   4  196.68    7.30
  -2   3   4  195.88    7.20
  -2   3   4  196.88    8.30
  -2   3   4  203.98    7.00
   1  -3  -4  221.28    7.50
   1  -3  -4  220.58    8.50
   1  -3  -4  218.58    8.30
   1  -3  -4  225.98    8.30
   1  -3  -4  221.58    8.10
   1  -3  -4  218.58    8.00
   1  -3  -4  218.48    8.10
  -1   3   4  224.78    8.10
  -1   3   4  229.98    7.90
  -1   3   4  218.38    8.30
  -1   3   4  225.58    8.20
  -1   3   4  232.48    8.50
  -1   3   4  225.78    8.00
   0  -3  -4  258.57    9.50
   0  -3  -4  262.27    9.50
   0  -3  -4  281.07    8.90
   0  -3  -4  268.97    9.70
   0   3   4  278.87    9.60
   0   3   4  276.07    9.70
   0   3   4  273.07    9.60
   0   3   4  281.87    9.20
   0   3   4  263.57    9.50
   0   3   4  247.68    8.80
  -1  -3  -4  137.29    5.80
  -1  -3  -4  141.29    6.00
  -1  -3  -4  136.89    5.60
  -1  -3  -4  140.49    5.20
   1   3   4  144.79    5.10
   1   3   4  140.19    5.80
   1   3   4  144.99    5.70
   1   3   4  138.19    5.90
  -2  -3  -4   39.90    3.10
  -2  -3  -4   42.50    2.60
  -2  -3  -4   37.00    2.50
  -2  -3  -4   43.40    3.00
   2   3   4   40.30    3.00
   2   3   4   41.40    2.90
   2   3   4   38.40    2.50
   2   3   4   45.50    2.40
  -3  -3  -4  113.59    5.60
  -3  -3  -4  120.79    5.10
  -3  -3  -4  104.19    5.10
  -3  -3  -4  118.49    5.50
   3   3   4  122.39    5.70
   3   3   4  118.19    5.60
   3   3   4  116.09    5.00
   3   3   4  114.49    5.00
  -4  -3  -4    0.20    1.40
  -4  -3  -4    0.90    1.20
  -4  -3  -4    0.90    1.10
  -4  -3  -4    0.60    1.70
   4   3   4    1.90    1.20
   4   3   4    1.30    1.70
   4   3   4   -0.20    1.00
   4   3   4   -1.10    1.50
  -5  -3  -4   -0.70    1.60
  -5  -3  -4   -0.70    1.20
  -5  -3  -4    0.70    2.10
  -5  -3  -4   -0.50    1.60
   5   3   4   -0.30    1.50
   5   3   4   -1.80    1.90
   5   3   4   -0.60    1.80
   5   3   4    1.20    1.40
  -6  -3  -4   64.09    4.90
  -6  -3  -4   62.49    5.20
  -6  -3  -4   62.39    5.20
  -6  -3  -4   62.39    2.30
  -6  -3  -4   63.99    4.10
   6   3   4   61.09    4.80
   6   3   4   62.09    5.30
   6   3   4   60.59    4.90
   6   3   4   60.39    4.00
  -7  -3  -4   25.20    3.40
  -7  -3  -4   16.20    3.50
  -7  -3  -4   29.50    3.90
  -7  -3  -4   26.50    4.90
   7   3   4   25.60    3.10
   7   3   4   21.70    3.90
   7   3   4   34.10    4.60
   7   3   4   22.30    3.60
  -8  -3  -4   52.29    7.30
  -8  -3  -4   41.20    5.70
  -8  -3  -4   52.49    6.70
   8   3   4   48.10    8.00
   8   3   4   49.80    6.00
   8   3   4   33.00    3.90
   8   3   4   37.20    5.30
  -9  -3  -4    2.90    4.70
  -9  -3  -4   -5.70    4.50
  -9  -3  -4    2.80    3.90
   9   3   4    5.50    4.10
   9   3   4    2.30    4.60
   9   3   4   10.20    5.20
   9   3   4    6.80    3.60
   8  -4  -4   11.30    3.40
   8  -4  -4   10.90    5.10
   8  -4  -4   15.00    4.20
  -8   4   4    8.30    3.70
   7  -4  -4   10.30    5.50
   7  -4  -4    2.30    3.00
   7  -4  -4   -0.10    3.60
   7  -4  -4   -1.00    7.50
   7  -4  -4    4.10    2.70
  -7   4   4    2.80    2.80
   6  -4  -4   26.60    6.40
   6  -4  -4   11.90    6.10
   6  -4  -4   19.10    4.70
   6  -4  -4    9.80    3.00
   6  -4  -4   13.70    4.50
   6  -4  -4   15.60    2.80
   6  -4  -4   10.20    3.00
  -6   4   4   11.40    2.60
   5  -4  -4    1.40    2.90
   5  -4  -4   -1.60    3.00
   5  -4  -4   -7.80    4.00
   5  -4  -4    1.00    3.90
   5  -4  -4    0.90    1.80
   5  -4  -4   -2.20    2.00
  -5   4   4    1.70    2.00
   4  -4  -4   38.10    3.90
   4  -4  -4   40.80    3.40
   4  -4  -4   38.70    5.80
   4  -4  -4   40.00    2.10
   4  -4  -4   40.70    4.30
   4  -4  -4   42.00    5.90
   4  -4  -4   43.20    4.50
  -4   4   4   37.40    3.20
   3  -4  -4    3.50    1.10
   3  -4  -4    2.50    1.60
   3  -4  -4    1.20    3.70
   3  -4  -4    2.80    2.70
   3  -4  -4    1.50    2.70
   3  -4  -4    1.20    1.80
   3  -4  -4    3.10    1.50
   3  -4  -4    2.10    1.20
  -3   4   4    1.30    1.20
  -3   4   4    1.70    0.70
  -3   4   4    1.50    0.90
  -3   4   4    1.40    2.00
   2  -4  -4    1.10    1.20
   2  -4  -4    2.00    2.00
   2  -4  -4    1.10    1.00
   2  -4  -4   -1.30    2.20
   2  -4  -4    0.70    0.70
   2  -4  -4    1.10    1.40
  -2   4   4    0.30    1.00
  -2   4   4    0.20    1.00
  -2   4   4    2.60    1.70
  -2   4   4    1.50    1.10
  -2   4   4   -0.50    1.30
   1  -4  -4   14.20    2.00
   1  -4  -4   14.40    1.90
   1  -4  -4   11.90    2.50
   1  -4  -4   10.90    1.90
   1  -4  -4   16.60    1.20
   1  -4  -4   16.20    2.50
  -1   4   4   16.00    2.10
  -1   4   4   16.80    2.30
  -1   4   4   15.20    1.60
  -1   4   4   14.80    2.10
   0  -4  -4  277.87    9.30
   0  -4  -4  278.87   10.30
   0  -4  -4  280.57   10.40
   0  -4  -4  280.77    9.90
   0  -4  -4  290.17   10.60
   0   4   4  292.47   10.50
   0   4   4  290.67   10.50
   0   4   4  299.97   10.40
   0   4   4  283.57   10.40
   0   4   4  273.97    9.70
  -1  -4  -4    7.20    1.00
  -1  -4  -4    8.40    1.20
  -1  -4  -4    7.50    1.80
  -1  -4  -4   10.30    1.90
  -1  -4  -4    6.10    1.40
   1   4   4    8.70    1.10
   1   4   4    9.20    2.00
   1   4   4    5.00    1.50
   1   4   4    9.70    1.80
  -2  -4  -4   25.00    2.30
  -2  -4  -4   20.20    2.10
  -2  -4  -4   26.90    3.10
  -2  -4  -4   25.70    2.80
   2   4   4   26.80    2.60
   2   4   4   22.80    2.80
   2   4   4   25.10    1.90
   2   4   4   22.90    3.00
  -3  -4  -4   62.29    3.50
  -3  -4  -4   67.29    4.50
  -3  -4  -4   65.19    4.30
   3   4   4   56.29    3.40
   3   4   4   65.69    4.40
   3   4   4   72.39    4.50
   3   4   4   62.09    3.70
  -4  -4  -4    6.00    1.60
  -4  -4  -4    7.20    2.10
  -4  -4  -4    8.40    1.60
   4   4   4    6.00    1.70
   4   4   4    2.80    2.00
   4   4   4    5.40    1.70
   4   4   4    4.80    2.20
  -5  -4  -4   -1.90    2.10
  -5  -4  -4    1.60    2.30
  -5  -4  -4    1.90    1.90
  -5  -4  -4   -1.50    1.40
   5   4   4   -0.60    2.30
   5   4   4    2.70    1.80
   5   4   4    3.50    2.30
   5   4   4    1.10    1.80
  -6  -4  -4   -4.60    2.60
  -6  -4  -4    1.50    1.20
  -6  -4  -4   -3.00    2.30
  -6  -4  -4   -0.10    2.70
   6   4   4   -3.20    2.10
   6   4   4    1.10    2.00
   6   4   4    3.60    2.50
   6   4   4    0.20    2.80
  -7  -4  -4   -0.80    3.80
  -7  -4  -4   10.50    4.00
  -7  -4  -4    5.00    1.10
  -7  -4  -4    3.50    3.20
   7   4   4    4.80    2.70
   7   4   4    5.70    3.10
   7   4   4   -1.00    2.80
  -8  -4  -4   13.00    4.00
  -8  -4  -4   11.40    5.60
  -8  -4  -4   20.80    5.20
   8   4   4   16.60    5.30
   8   4   4   11.30    4.80
   8   4   4   14.20    3.30
   8   4   4   21.00    5.10
  -9  -4  -4  -10.10    4.10
  -9  -4  -4    1.30    4.80
   9   4   4    3.60    3.50
   9   4   4   -4.40    5.60
   9   4   4   -4.50    4.50
   9   4   4   -7.10    4.70
   7  -5  -4    1.40    3.40
   7  -5  -4   -5.40    3.60
   7  -5  -4    2.50    3.80
  -7   5   4    3.50    3.90
   6  -5  -4    2.10    5.10
   6  -5  -4    5.80    4.50
   6  -5  -4    2.40    2.70
   6  -5  -4    4.70    6.50
   6  -5  -4    4.30    2.90
   6  -5  -4    1.40    6.10
   6  -5  -4    2.00    3.10
  -6   5   4    1.90    2.40
   5  -5  -4   -2.20    2.00
   5  -5  -4   -2.20    2.60
   5  -5  -4    0.90    3.30
   5  -5  -4    9.50    5.10
   5  -5  -4    0.50    4.60
   5  -5  -4    1.50    2.40
   5  -5  -4   -0.40    3.40
  -5   5   4   -1.90    2.10
   4  -5  -4    3.60    2.30
   4  -5  -4    0.90    1.50
   4  -5  -4    0.20    2.70
   4  -5  -4    3.10    4.00
   4  -5  -4    0.60    2.60
   4  -5  -4    0.60    2.10
   4  -5  -4   -0.50    1.00
   4  -5  -4   -4.40    3.90
  -4   5   4   -1.80    1.60
  -4   5   4   -0.10    2.60
   3  -5  -4   -2.30    1.70
   3  -5  -4    0.30    1.30
   3  -5  -4    1.80    1.20
   3  -5  -4    5.30    3.10
   3  -5  -4    2.70    3.20
   3  -5  -4   -0.10    2.30
  -3   5   4    2.30    1.10
  -3   5   4    1.70    2.30
  -3   5   4   -1.30    1.20
   2  -5  -4   20.10    1.20
   2  -5  -4   22.80    2.80
   2  -5  -4   21.00    2.60
   2  -5  -4   22.50    3.50
   2  -5  -4   20.60    2.30
  -2   5   4   19.40    2.80
  -2   5   4   22.30    3.60
  -2   5   4   19.90    2.10
  -2   5   4   21.10    2.30
  -2   5   4   16.20    2.30
   1  -5  -4    3.40    1.70
   1  -5  -4    3.30    1.50
   1  -5  -4    1.50    1.60
   1  -5  -4    0.40    2.30
   1  -5  -4    2.80    1.80
  -1   5   4    1.80    1.80
  -1   5   4    1.30    1.60
  -1   5   4    2.70    1.60
  -1   5   4    2.30    1.10
  -1   5   4    2.50    1.50
   0  -5  -4    0.70    1.40
   0  -5  -4    0.10    1.50
   0  -5  -4    1.30    1.80
   0  -5  -4    0.30    1.30
   0  -5  -4   -1.10    1.30
   0   5   4    1.60    1.60
   0   5   4   -0.60    1.30
   0   5   4   -1.60    1.30
   0   5   4   -0.50    0.90
   0   5   4   -0.30    1.50
  -1  -5  -4   44.90    3.90
  -1  -5  -4   40.40    3.20
  -1  -5  -4   47.60    3.50
  -1  -5  -4   46.10    3.70
   1   5   4   47.30    2.20
   1   5   4   46.20    3.80
   1   5   4   43.90    3.70
   1   5   4   47.40    3.40
  -2  -5  -4  121.59    5.70
  -2  -5  -4  121.59    6.40
  -2  -5  -4  118.79    5.30
  -2  -5  -4  118.99    6.50
   2   5   4  124.69    4.90
   2   5   4  129.09    6.50
   2   5   4  125.39    6.50
   2   5   4  134.69    6.00
  -3  -5  -4   21.20    1.80
  -3  -5  -4   19.20    3.10
  -3  -5  -4   22.90    3.40
  -3  -5  -4   22.40    2.70
   3   5   4   13.20    2.40
   3   5   4   16.50    2.90
   3   5   4   13.00    4.10
   3   5   4   14.40    2.10
  -4  -5  -4   37.30    3.30
  -4  -5  -4   40.80    3.50
  -4  -5  -4   41.70    4.80
  -4  -5  -4   37.60    4.40
   4   5   4   36.60    4.60
   4   5   4   44.50    3.50
   4   5   4   47.90    3.80
   4   5   4   39.10    4.40
  -5  -5  -4    5.00    2.80
  -5  -5  -4   -2.80    2.70
  -5  -5  -4    2.90    1.90
  -5  -5  -4    8.40    2.40
   5   5   4    5.70    3.70
   5   5   4    3.60    2.80
   5   5   4    1.30    1.80
   5   5   4   -0.30    3.00
  -6  -5  -4   19.60    2.50
  -6  -5  -4   18.00    3.00
  -6  -5  -4   12.00    3.60
  -6  -5  -4   19.30    4.00
  -6  -5  -4   23.80    4.20
   6   5   4   13.80    3.20
   6   5   4   14.90    4.10
   6   5   4   20.10    4.00
   6   5   4   16.40    2.80
  -7  -5  -4   15.80    4.70
  -7  -5  -4   11.40    4.10
  -7  -5  -4   15.00    2.10
  -7  -5  -4   10.40    4.70
   7   5   4   12.00    4.10
   7   5   4    6.60    4.70
   7   5   4    8.20    3.40
   7   5   4   13.10    3.10
  -8  -5  -4    7.40    4.20
  -8  -5  -4    2.70    1.60
  -8  -5  -4   -3.00    5.60
   8   5   4    0.50    3.30
   8   5   4    0.80    5.10
   8   5   4    3.80    3.80
   8   5   4    0.20    4.40
  -9  -5  -4   -0.60    5.30
  -9  -5  -4    5.70    7.80
   9   5   4    7.00    4.10
   9   5   4    1.80    5.40
   9   5   4    9.50    4.90
   9   5   4    7.30    6.30
   7  -6  -4  -10.10    5.20
   7  -6  -4    1.70    4.40
   7  -6  -4    1.20    3.90
  -7   6   4    8.20    5.60
   6  -6  -4    3.50    7.50
   6  -6  -4    4.90    3.70
   6  -6  -4    0.20    3.80
   6  -6  -4   -2.20    2.70
  -6   6   4    3.50    3.00
   5  -6  -4    0.60    3.20
   5  -6  -4   -2.30    3.10
   5  -6  -4   -0.60    6.30
   5  -6  -4    6.20    5.60
   5  -6  -4    5.70    2.10
   5  -6  -4    0.70    4.30
  -5   6   4    6.50    5.40
  -5   6   4    0.70    2.40
   4  -6  -4    1.30    1.70
   4  -6  -4    0.30    1.30
   4  -6  -4   -4.20    4.50
   4  -6  -4    1.50    4.40
   4  -6  -4    1.80    1.30
   4  -6  -4   -2.70    2.60
   4  -6  -4    2.70    3.40
   4  -6  -4   -0.50    2.70
  -4   6   4   -1.20    3.00
  -4   6   4    0.40    1.90
   3  -6  -4   12.70    2.20
   3  -6  -4   10.10    4.40
   3  -6  -4   14.30    2.10
   3  -6  -4   14.30    3.00
   3  -6  -4   12.20    4.30
  -3   6   4   11.10    1.80
  -3   6   4   10.80    1.90
  -3   6   4   10.10    2.10
  -3   6   4   13.60    3.60
   2  -6  -4   92.39    5.50
   2  -6  -4   91.39    7.10
   2  -6  -4   86.49    4.90
   2  -6  -4   99.89    6.70
   2  -6  -4   91.69    5.20
  -2   6   4   96.89    6.00
  -2   6   4   92.09    4.60
   1  -6  -4    0.20    1.80
   1  -6  -4   -2.30    2.10
   1  -6  -4   -1.40    2.60
   1  -6  -4   -0.90    1.60
   1  -6  -4   -4.60    2.10
  -1   6   4   -0.70    1.60
  -1   6   4    0.40    2.10
  -1   6   4    1.30    1.70
  -1   6   4    0.30    1.20
  -1   6   4   -0.60    1.80
   0  -6  -4   30.00    4.00
   0  -6  -4   28.40    3.80
   0  -6  -4   24.00    3.40
   0  -6  -4   26.00    3.20
   0   6   4   29.00    2.30
   0   6   4   28.30    3.60
   0   6   4   36.00    3.90
   0   6   4   27.80    3.50
  -1  -6  -4   89.39    5.20
  -1  -6  -4   93.19    5.70
  -1  -6  -4   94.79    5.40
  -1  -6  -4   98.59    5.90
   1   6   4   94.69    5.50
   1   6   4   97.79    5.80
   1   6   4   84.99    5.60
   1   6   4   88.29    3.50
  -2  -6  -4   43.10    3.30
  -2  -6  -4   49.60    4.60
  -2  -6  -4   46.90    4.90
  -2  -6  -4   42.30    3.80
   2   6   4   46.60    2.60
   2   6   4   42.70    4.10
   2   6   4   48.90    4.70
   2   6   4   47.10    4.90
  -3  -6  -4   12.30    3.00
  -3  -6  -4   11.10    3.30
  -3  -6  -4   12.80    1.70
  -3  -6  -4   13.00    2.40
   3   6   4   14.30    2.80
   3   6   4   13.50    1.90
   3   6   4   14.00    3.30
   3   6   4   16.90    3.30
  -4  -6  -4   -2.60    2.60
  -4  -6  -4   -4.60    2.90
  -4  -6  -4    0.70    1.90
   4   6   4    0.40    1.60
   4   6   4   -1.10    2.30
   4   6   4    0.50    3.00
   4   6   4   -1.60    2.60
  -5  -6  -4    5.50    2.40
  -5  -6  -4    7.90    3.80
  -5  -6  -4    2.60    3.00
  -5  -6  -4    5.30    3.20
   5   6   4    4.30    3.50
   5   6   4    6.50    2.80
   5   6   4    4.50    3.80
   5   6   4    7.10    2.50
  -6  -6  -4   -2.30    2.50
  -6  -6  -4    2.60    2.50
  -6  -6  -4    3.20    3.50
  -6  -6  -4   -1.90    3.60
  -6  -6  -4    7.00    4.20
   6   6   4    2.70    4.00
   6   6   4    1.00    3.70
   6   6   4    3.20    2.90
   6   6   4    0.30    2.80
  -7  -6  -4    7.80    3.10
  -7  -6  -4   -2.00    4.90
  -7  -6  -4    2.70    4.30
  -7  -6  -4   -7.10    5.60
  -7  -6  -4   -1.30    2.50
   7   6   4    0.60    4.10
   7   6   4    0.10    5.30
   7   6   4   -6.00    3.00
   7   6   4   -1.90    3.30
  -8  -6  -4    4.20    5.00
  -8  -6  -4    0.20    6.80
  -8  -6  -4   -0.90    2.50
   8   6   4    0.60    6.40
   8   6   4    4.30    5.20
   8   6   4    1.40    4.30
   8   6   4   -6.50    3.70
   6  -7  -4    5.90    4.80
   6  -7  -4   -3.20    2.20
   6  -7  -4    0.90    5.10
  -6   7   4   -2.00    3.20
   5  -7  -4   -2.90    3.60
   5  -7  -4    1.00    1.10
   5  -7  -4   25.10    7.90
  -5   7   4   -3.80    2.50
  -5   7   4    4.90    4.70
   4  -7  -4    3.60    4.50
   4  -7  -4    0.80    3.30
   4  -7  -4    8.20    2.40
   4  -7  -4   13.80    2.20
   4  -7  -4   11.10    6.00
   4  -7  -4    8.70    6.10
  -4   7   4    4.60    2.50
   3  -7  -4    1.80    2.00
   3  -7  -4    2.30    5.30
   3  -7  -4    2.40    3.10
   3  -7  -4   -2.50    4.20
   3  -7  -4   -1.60    2.30
  -3   7   4    1.70    1.80
  -3   7   4   -2.70    3.00
  -3   7   4    0.80    1.90
   2  -7  -4   -4.80    3.40
   2  -7  -4    1.60    4.50
   2  -7  -4    0.60    2.30
   2  -7  -4    0.60    2.10
   2  -7  -4    1.90    2.70
  -2   7   4   -0.60    2.60
  -2   7   4   -1.00    2.20
  -2   7   4   -2.50    1.50
   1  -7  -4    2.80    3.10
   1  -7  -4    6.40    2.40
   1  -7  -4    4.40    2.50
   1  -7  -4    4.30    3.70
   1  -7  -4    4.30    2.70
  -1   7   4    2.00    2.50
  -1   7   4    3.60    1.60
  -1   7   4    4.40    2.60
  -1   7   4    5.30    2.60
   0  -7  -4   14.40    3.30
   0  -7  -4   14.30    3.70
   0  -7  -4   12.60    3.30
   0  -7  -4   10.10    3.00
   0   7   4    7.70    3.10
   0   7   4   14.50    3.30
   0   7   4   20.50    3.50
   0   7   4   14.30    2.20
  -1  -7  -4    8.30    2.90
  -1  -7  -4   10.40    2.80
  -1  -7  -4    5.00    2.70
  -1  -7  -4    8.80    3.30
   1   7   4   10.90    3.10
   1   7   4   11.20    3.10
   1   7   4   12.40    3.30
  -2  -7  -4    4.90    3.20
  -2  -7  -4    8.60    2.20
  -2  -7  -4    8.30    3.50
  -2  -7  -4    9.70    2.90
   2   7   4    8.30    1.40
   2   7   4   10.20    3.70
   2   7   4   12.00    3.40
   2   7   4    4.20    3.00
  -3  -7  -4   18.00    4.10
  -3  -7  -4   22.60    3.50
  -3  -7  -4   19.00    4.30
   3   7   4   21.70    2.70
   3   7   4   26.50    4.40
   3   7   4   18.90    3.50
   3   7   4   19.80    4.50
  -4  -7  -4    1.20    4.20
  -4  -7  -4   -1.30    3.30
  -4  -7  -4   -2.00    2.30
   4   7   4    1.40    3.40
   4   7   4    4.60    4.00
   4   7   4   -4.90    2.70
   4   7   4    2.10    2.00
  -5  -7  -4    7.20    3.10
  -5  -7  -4   14.00    4.60
  -5  -7  -4   11.60    4.10
  -5  -7  -4   23.00    5.60
   5   7   4   11.00    4.50
   5   7   4   11.10    3.60
   5   7   4    9.20    2.80
   5   7   4   15.80    4.90
  -6  -7  -4    7.90    5.60
  -6  -7  -4   15.50    3.60
  -6  -7  -4   21.60    6.00
  -6  -7  -4   21.10    5.50
  -6  -7  -4   15.90    3.60
   6   7   4   14.20    3.90
   6   7   4    6.70    5.10
   6   7   4   12.10    5.80
   6   7   4   15.40    3.80
  -7  -7  -4    0.50    3.50
  -7  -7  -4   -5.40    5.90
  -7  -7  -4    7.70    5.20
  -7  -7  -4    3.30    3.70
   7   7   4   -1.40    3.80
   7   7   4  -12.20    5.80
   7   7   4    4.20    5.40
   5  -8  -4   -1.60    2.00
   5  -8  -4    5.40    5.40
   5  -8  -4    0.70    2.00
  -5   8   4    2.00    3.20
  -5   8   4    8.40    6.00
   4  -8  -4    6.70    3.00
   4  -8  -4   10.10    2.70
   4  -8  -4    9.20    4.40
   4  -8  -4    7.40    7.20
  -4   8   4   17.60    5.70
  -4   8   4    7.80    2.90
   3  -8  -4   28.30    7.10
   3  -8  -4   28.10    7.80
   3  -8  -4   37.90    7.70
   3  -8  -4   21.40    4.00
   3  -8  -4   41.00    4.80
  -3   8   4   25.40    5.10
  -3   8   4   26.60    3.50
  -3   8   4   26.20    3.20
   2  -8  -4   14.90    5.30
   2  -8  -4    9.80    4.00
   2  -8  -4   10.50    3.50
   2  -8  -4   12.20    5.40
   2  -8  -4   13.30    3.20
  -2   8   4    7.40    2.30
  -2   8   4   12.30    4.10
  -2   8   4    9.30    3.10
  -2   8   4   14.60    3.70
   1  -8  -4    9.80    4.80
   1  -8  -4   17.40    4.00
   1  -8  -4    5.20    3.60
   1  -8  -4    9.10    3.20
   1  -8  -4   11.00    4.40
  -1   8   4   10.90    3.60
  -1   8   4    7.50    3.40
  -1   8   4   11.90    2.30
  -1   8   4    9.90    3.50
   0  -8  -4   14.10    3.80
   0  -8  -4   20.60    4.50
   0  -8  -4   20.30    4.30
   0  -8  -4   22.50    4.20
   0   8   4   15.70    3.70
   0   8   4   14.60    2.30
   0   8   4   11.40    3.90
   0   8   4   24.60    4.30
  -1  -8  -4    0.20    3.60
  -1  -8  -4   -0.40    3.10
  -1  -8  -4    2.10    3.20
  -1  -8  -4   -0.90    2.80
   1   8   4    4.00    3.70
   1   8   4    0.60    3.30
   1   8   4   -1.50    3.30
   1   8   4    0.20    1.60
  -2  -8  -4   11.50    3.30
  -2  -8  -4    4.70    3.70
  -2  -8  -4   12.60    4.60
   2   8   4   11.90    1.50
   2   8   4   10.60    4.50
   2   8   4    9.90    3.80
   2   8   4   19.00    4.50
  -3  -8  -4   53.19    5.40
  -3  -8  -4   56.99    7.90
  -3  -8  -4   45.50    6.20
   3   8   4   44.70    6.10
   3   8   4   51.59    6.60
   3   8   4   41.20    3.50
   3   8   4   65.79    7.70
  -4  -8  -4   15.40    5.50
  -4  -8  -4    8.40    4.50
  -4  -8  -4    8.90    3.40
   4   8   4   10.70    2.60
   4   8   4    0.00    3.50
   4   8   4    8.60    4.80
   4   8   4    9.20    5.10
  -5  -8  -4   28.80    7.00
  -5  -8  -4   45.30    5.40
   5   8   4   26.90    5.00
   5   8   4   39.80    7.20
   5   8   4   27.40    3.90
  -6  -8  -4   -0.30    4.40
  -6  -8  -4   12.40    5.80
  -6  -8  -4   11.60    6.40
  -6  -8  -4    3.00    4.00
   6   8   4   -0.60    5.70
   6   8   4    7.40    4.70
   6   8   4    3.70    3.70
  -7  -8  -4    3.20    4.60
  -7  -8  -4   14.50    5.40
  -7  -8  -4    6.00    6.30
   7   8   4    1.30    4.50
   7   8   4    3.80    5.20
   3  -9  -4   13.90    5.30
   3  -9  -4    0.00    4.20
   3  -9  -4    2.60    4.50
   3  -9  -4   -5.40    7.60
  -3   9   4    8.10    5.50
  -3   9   4    5.60    3.30
  -3   9   4    6.70    3.00
  -3   9   4    7.40    4.90
   2  -9  -4   15.50    6.60
   2  -9  -4    0.70    6.50
   2  -9  -4    2.10    3.90
   2  -9  -4   15.50    4.90
   2  -9  -4   11.30    4.70
  -2   9   4   11.60    5.00
  -2   9   4   11.20    4.10
  -2   9   4    6.80    3.70
  -2   9   4    6.40    2.70
   1  -9  -4   -1.80    3.70
   1  -9  -4    2.30    5.70
   1  -9  -4    5.80    5.40
   1  -9  -4   10.00    4.80
   1  -9  -4   -1.10    4.20
  -1   9   4   -2.90    4.10
  -1   9   4    0.60    2.20
  -1   9   4   -4.40    3.90
  -1   9   4    3.20    4.50
   0  -9  -4    2.20    4.00
   0  -9  -4   -1.30    3.90
   0  -9  -4   10.40    4.80
   0   9   4    1.40    1.90
   0   9   4    0.10    3.60
   0   9   4   -6.40    4.30
   0   9   4   -2.40    4.30
  -1  -9  -4    1.00    4.20
  -1  -9  -4   -0.30    3.80
  -1  -9  -4   -5.60    5.50
   1   9   4    0.10    1.90
   1   9   4   -4.50    4.50
   1   9   4    0.70    4.80
  -2  -9  -4    1.30    4.90
  -2  -9  -4    2.10    3.90
  -2  -9  -4   12.00    6.00
   2   9   4    8.80    5.10
   2   9   4   10.70    7.80
  -3  -9  -4   -4.10    6.10
  -3  -9  -4   12.00    4.40
  -3  -9  -4   -7.20    4.70
   3   9   4    6.50    4.60
   3   9   4    1.10    1.70
   3   9   4    4.10    5.30
  -4  -9  -4   -9.70    7.20
  -4  -9  -4    6.30    6.20
  -4  -9  -4    3.40    4.00
   4   9   4    3.70    2.50
   4   9   4   -4.50    4.90
  -5  -9  -4    6.80    6.10
  -5  -9  -4    2.40    4.50
   5   9   4   -8.60    5.50
   5   9   4   13.90    7.10
   5   9   4    5.00    3.30
   1 -10  -4    4.20    7.60
   1 -10  -4    7.20    5.40
   1 -10  -4    7.90    5.10
   1 -10  -4   13.40    6.80
  -1  10   4    3.90    6.00
  -1  10   4   -1.40    2.80
  -1  10   4    3.70    5.80
   0 -10  -4    6.40    6.70
   0 -10  -4    2.50    6.80
   0 -10  -4  -11.90    5.00
   0  10   4    1.50    6.00
   0  10   4    3.90    2.80
   0  10   4   19.80    5.80
  -1 -10  -4    3.90    7.20
  -1 -10  -4    8.10    5.40
  -1 -10  -4    1.40    5.00
   1  10   4    1.20    2.70
   1  10   4    7.30    6.50
  -2 -10  -4   -4.30    7.50
  -2 -10  -4  -13.00    5.70
  -2 -10  -4    6.30    5.60
   2  10   4   -1.20    6.60
  -3 -10  -4  -11.90    8.40
  -3 -10  -4   -0.50    5.40
  -3 -10  -4   -1.90    6.40
   2   8  -5   -1.40    4.30
   2   8  -5  -10.80    6.40
   2   8  -5   -1.10    4.30
  -2  -8   5    6.90    6.40
   1   8  -5   -2.70    4.40
   1   8  -5   -2.90    3.40
   1   8  -5    0.30   10.20
  -1  -8   5    1.30    7.30
  -1  -8   5    4.50    5.30
  -1  -8   5    5.00    6.10
   0   8  -5    9.20    6.10
   0   8  -5    9.80    5.20
   0  -8   5    3.60    5.80
   0  -8   5    8.80    4.40
   0  -8   5   -4.80    5.30
   0  -8   5   12.70    6.60
  -1   8  -5   -1.20    5.30
  -1   8  -5   -3.30    2.90
  -1   8  -5   12.10    5.90
   1  -8   5   -4.50    4.70
   1  -8   5   -3.20    5.60
   1  -8   5    1.00    4.70
   1  -8   5   10.90    6.40
  -2   8  -5   -1.20    3.00
  -2   8  -5   -7.90    6.20
  -2   8  -5   13.80    4.60
  -2   8  -5    6.10    5.40
   2  -8   5   15.80    6.10
   2  -8   5    1.70    4.90
   2  -8   5    6.30    5.80
   2  -8   5    6.00    5.40
  -3   8  -5    7.60    5.30
  -3   8  -5   -5.20    7.40
  -3   8  -5    8.80    4.60
   3  -8   5   10.70    6.50
   3  -8   5   15.30    6.60
   3  -8   5    4.30    5.70
   4   7  -5   -9.80    6.40
  -4  -7   5    5.00    3.60
  -4  -7   5   -4.00    6.00
   3   7  -5    5.20    4.00
   3   7  -5   -2.20    5.60
  -3  -7   5    3.90    5.30
  -3  -7   5    2.50    3.70
   2   7  -5   19.90    6.00
   2   7  -5   17.80    3.80
  -2  -7   5   26.00    6.00
  -2  -7   5   12.90    6.60
  -2  -7   5    8.20    4.00
   1   7  -5   -4.00    3.40
   1   7  -5    0.30    2.90
   1   7  -5    2.60    4.60
   1   7  -5    3.50    3.30
  -1  -7   5   -3.20    4.60
  -1  -7   5   -4.40    4.90
  -1  -7   5   -0.90    4.10
  -1  -7   5   -6.70    3.90
   0   7  -5    8.10    2.70
   0   7  -5    8.10    4.80
   0   7  -5    7.10    4.00
   0   7  -5    6.60    3.90
   0  -7   5    9.00    5.00
   0  -7   5    6.20    4.80
   0  -7   5    9.50    4.30
   0  -7   5    8.70    4.80
  -1   7  -5    9.70    4.50
  -1   7  -5   -0.30    3.50
  -1   7  -5    5.80    2.40
  -1   7  -5    9.20    4.40
   1  -7   5    7.80    5.10
   1  -7   5    9.00    4.10
   1  -7   5   15.70    5.30
   1  -7   5    6.30    4.60
   1  -7   5    4.40    3.40
  -2   7  -5    8.60    2.60
  -2   7  -5    9.70    3.30
  -2   7  -5   16.00    5.10
  -2   7  -5   12.00    4.50
   2  -7   5   15.90    4.50
   2  -7   5   10.10    4.80
   2  -7   5    4.70    3.90
   2  -7   5   11.20    5.10
  -3   7  -5    4.30    3.50
  -3   7  -5   -7.20    3.80
  -3   7  -5   -8.70    5.60
  -3   7  -5   -1.70    3.10
  -3   7  -5    3.10    2.90
   3  -7   5    6.30    4.50
   3  -7   5   15.10    9.30
   3  -7   5   -1.50    3.80
   3  -7   5    7.30    4.80
  -4   7  -5   -2.60    3.90
  -4   7  -5   -5.80    3.10
  -4   7  -5   -0.20    3.50
  -4   7  -5    8.90    6.50
  -4   7  -5   -1.90    3.80
   4  -7   5   11.10    5.30
   4  -7   5   -4.20    4.40
   4  -7   5    0.30    3.80
   4  -7   5    6.20    5.50
  -5   7  -5    5.50    4.10
  -5   7  -5    8.70    4.70
  -5   7  -5   -3.20    3.70
  -5   7  -5   -7.40    8.10
  -5   7  -5    1.00    3.70
   5  -7   5   -2.70    4.00
   5  -7   5   10.60    5.40
   5  -7   5    3.60    4.40
   5   6  -5   14.90    6.20
   5   6  -5    2.10    5.40
  -5  -6   5   14.40    2.80
  -5  -6   5    8.40    6.50
   4   6  -5    8.20    5.20
   4   6  -5    5.10    4.30
  -4  -6   5    9.90    5.20
  -4  -6   5   13.40    3.10
  -4  -6   5   10.50    5.00
   3   6  -5    9.60    4.50
   3   6  -5    4.20    3.60
  -3  -6   5    1.90    4.20
  -3  -6   5    9.70    3.90
  -3  -6   5    6.00    5.70
  -3  -6   5    3.20    2.80
   2   6  -5    5.20    2.90
   2   6  -5    3.10    3.00
   2   6  -5   12.10    4.20
  -2  -6   5   -0.40    3.60
  -2  -6   5    0.70    2.90
  -2  -6   5    2.60    4.40
  -2  -6   5    7.10    4.10
   1   6  -5    3.50    2.50
   1   6  -5    5.00    3.40
   1   6  -5    0.90    3.70
  -1  -6   5   -3.10    3.10
  -1  -6   5   -3.50    3.70
  -1  -6   5    2.40    2.90
  -1  -6   5    3.40    3.40
   0   6  -5    0.10    3.30
   0   6  -5    0.70    2.50
   0   6  -5   -2.50    2.00
   0  -6   5    1.90    3.30
   0  -6   5    1.70    3.60
   0  -6   5   -3.50    2.90
  -1   6  -5   -2.50    2.90
  -1   6  -5    0.60    0.90
  -1   6  -5    0.60    3.10
  -1   6  -5    1.60    2.10
  -1   6  -5    4.40    2.70
   1  -6   5    0.80    2.50
   1  -6   5    2.10    3.40
   1  -6   5    3.50    3.70
   1  -6   5    0.60    2.90
  -2   6  -5   -0.50    2.90
  -2   6  -5    0.70    2.50
  -2   6  -5   -0.50    3.70
   2  -6   5    1.10    3.50
   2  -6   5   -0.70    2.80
   2  -6   5   -0.70    4.10
   2  -6   5    2.80    3.10
  -3   6  -5   14.60    5.20
  -3   6  -5   21.50    4.20
  -3   6  -5   16.00    3.40
  -3   6  -5   15.70    4.70
  -3   6  -5   12.60    3.10
   3  -6   5   23.50    4.10
   3  -6   5   21.50    4.10
   3  -6   5   17.50    3.80
   3  -6   5   26.60    4.30
  -4   6  -5    6.00    3.00
  -4   6  -5    6.70    3.40
  -4   6  -5   12.20    3.50
  -4   6  -5    8.00    8.20
  -4   6  -5   15.70    3.10
   4  -6   5    4.00    3.10
   4  -6   5    9.30    3.50
   4  -6   5   15.20    4.20
   4  -6   5    7.00    4.10
  -5   6  -5   -2.40    5.50
  -5   6  -5   -2.00    3.10
  -5   6  -5    2.30    3.30
  -5   6  -5    2.60    3.10
  -5   6  -5   -1.30    3.20
   5  -6   5    4.00    4.00
   5  -6   5    4.00    3.30
   5  -6   5    0.80    2.40
   5  -6   5    3.00    4.90
   5  -6   5    2.00    3.50
  -6   6  -5    2.00    3.30
  -6   6  -5    1.70    3.40
  -6   6  -5   -4.40    7.60
  -6   6  -5   -2.10    3.90
  -6   6  -5    0.80    4.00
   6  -6   5    2.10    2.90
   6  -6   5    1.90    3.90
   6  -6   5    0.90    4.40
   6  -6   5    1.10    3.50
   6   5  -5    5.30    5.00
   6   5  -5   20.40    6.60
  -6  -5   5   12.50    5.10
  -6  -5   5   14.40    5.50
  -6  -5   5   25.20    4.10
   5   5  -5    4.70    4.30
   5   5  -5    7.70    4.60
  -5  -5   5   -3.10    3.80
  -5  -5   5    6.60    1.90
  -5  -5   5    3.20    4.50
  -5  -5   5   10.00    6.50
   4   5  -5   27.20    4.90
   4   5  -5   28.70    4.50
  -4  -5   5   24.00    5.20
  -4  -5   5   22.20    5.00
  -4  -5   5   26.00    3.60
  -4  -5   5   33.50    4.70
   3   5  -5    1.20    3.50
   3   5  -5    1.80    2.70
  -3  -5   5    1.90    2.10
  -3  -5   5    3.60    3.70
  -3  -5   5    3.00    3.20
  -3  -5   5   -0.60    3.10
   2   5  -5    7.70    2.70
   2   5  -5    3.20    3.00
   2   5  -5    4.60    2.50
  -2  -5   5    0.80    3.30
  -2  -5   5    0.80    2.60
  -2  -5   5    3.20    2.30
  -2  -5   5    2.40    2.90
   1   5  -5    6.70    2.10
   1   5  -5    7.70    3.00
   1   5  -5    9.30    2.80
  -1  -5   5    2.10    2.60
  -1  -5   5   11.30    3.60
  -1  -5   5    6.40    3.00
   0   5  -5    5.00    2.50
   0   5  -5   10.40    3.10
   0  -5   5    4.50    2.40
   0  -5   5    2.30    2.70
   0  -5   5    0.70    2.70
  -1   5  -5    4.50    2.70
  -1   5  -5    2.90    2.10
  -1   5  -5    4.30    1.70
  -1   5  -5    4.10    1.10
   1  -5   5    4.90    2.80
   1  -5   5    4.30    2.00
   1  -5   5    1.90    2.20
   1  -5   5    1.90    2.70
  -2   5  -5   11.30    3.00
  -2   5  -5   12.50    2.20
  -2   5  -5    7.60    2.20
   2  -5   5   12.20    2.90
   2  -5   5   10.50    3.00
   2  -5   5    7.30    2.90
   2  -5   5   14.40    2.80
  -3   5  -5   -2.10    2.80
  -3   5  -5    6.40    2.70
  -3   5  -5   -0.30    1.80
  -3   5  -5    2.90    2.10
  -3   5  -5    2.80    2.10
   3  -5   5    1.90    2.50
   3  -5   5    0.30    1.60
   3  -5   5   -1.70    2.10
   3  -5   5    4.90    2.80
   3  -5   5    3.20    2.60
  -4   5  -5   -2.00    3.70
  -4   5  -5   -0.80    2.30
  -4   5  -5   -1.00    2.20
  -4   5  -5    2.50    2.30
   4  -5   5    0.60    2.40
   4  -5   5    0.20    2.50
   4  -5   5   -6.30    3.00
   4  -5   5    0.00    1.80
   4  -5   5   -0.50    2.30
  -5   5  -5   27.00    3.60
  -5   5  -5   25.00    3.80
  -5   5  -5   29.50    3.90
  -5   5  -5   22.50    3.80
  -5   5  -5   29.30    6.40
   5  -5   5   27.70    3.20
   5  -5   5   24.90    4.90
   5  -5   5   29.00    3.80
   5  -5   5   30.10    4.00
   5  -5   5   23.80    3.50
  -6   5  -5    7.00    3.80
  -6   5  -5   10.80    2.90
  -6   5  -5    4.20    2.60
  -6   5  -5    6.30    6.40
  -6   5  -5   10.20    3.50
   6  -5   5    7.40    3.40
   6  -5   5   10.50    5.00
   6  -5   5    9.70    3.10
   6  -5   5    0.90    2.90
   6  -5   5    9.60    2.80
  -7   5  -5    2.70    7.40
  -7   5  -5   -4.70    2.40
  -7   5  -5    0.60    2.80
   7  -5   5    3.80    3.40
   7  -5   5   -2.80    3.20
   7  -5   5    1.10    3.30
   7  -5   5    3.70    3.00
   7   4  -5    5.50    5.40
   7   4  -5    3.50    5.30
   7   4  -5    2.20    5.10
  -7  -4   5    4.50    5.30
  -7  -4   5   -3.70    3.80
  -7  -4   5    6.00    6.30
  -7  -4   5    8.70    5.30
   6   4  -5    4.00    4.70
   6   4  -5   29.20    5.30
  -6  -4   5   10.30    4.20
  -6  -4   5   14.20    3.60
  -6  -4   5   13.20    5.20
  -6  -4   5   24.90    7.50
   5   4  -5    6.40    3.60
   5   4  -5   -1.70    3.20
  -5  -4   5   11.90    4.30
  -5  -4   5   13.40    4.20
  -5  -4   5    8.90    2.50
  -5  -4   5    0.20    3.20
   4   4  -5   55.89    5.60
   4   4  -5   54.39    6.30
  -4  -4   5   67.29    5.60
  -4  -4   5   60.19    3.50
  -4  -4   5   60.09    6.20
  -4  -4   5   68.19    6.50
   3   4  -5   43.40    4.60
   3   4  -5   34.30    5.00
  -3  -4   5   46.50    5.10
  -3  -4   5   46.50    5.30
  -3  -4   5   34.30    3.30
  -3  -4   5   40.40    4.60
   2   4  -5   65.79    5.30
   2   4  -5   59.39    4.90
  -2  -4   5   71.79    5.50
  -2  -4   5   67.19    5.00
   1   4  -5   74.59    5.30
   1   4  -5   75.29    5.00
  -1  -4   5   74.19    5.20
  -1  -4   5   82.19    5.50
  -1  -4   5   77.49    5.00
   0   4  -5    8.70    2.10
   0   4  -5    9.30    2.70
   0   4  -5    7.80    1.80
   0  -4   5    8.30    1.50
   0  -4   5    9.60    2.50
   0  -4   5    7.30    2.20
   0  -4   5    5.90    2.30
  -1   4  -5    5.80    1.00
  -1   4  -5    6.10    2.00
  -1   4  -5    3.90    2.00
  -1   4  -5    4.90    1.60
   1  -4   5    4.60    2.00
   1  -4   5    4.20    2.10
   1  -4   5    2.40    1.40
   1  -4   5    6.00    2.10
  -2   4  -5    6.00    1.70
  -2   4  -5    6.00    2.00
  -2   4  -5    3.80    1.90
   2  -4   5    4.40    2.10
   2  -4   5    3.90    2.10
   2  -4   5    7.80    2.00
   2  -4   5    7.30    2.10
  -3   4  -5    3.20    1.70
  -3   4  -5    6.70    2.00
  -3   4  -5    2.40    1.70
  -3   4  -5    5.90    2.00
  -3   4  -5    5.20    2.80
   3  -4   5    1.90    1.80
   3  -4   5    1.70    1.50
   3  -4   5    3.70    2.00
   3  -4   5    0.70    2.00
   3  -4   5    3.60    2.10
  -4   4  -5    8.70    2.30
  -4   4  -5    5.60    2.10
  -4   4  -5    5.80    2.30
  -4   4  -5    9.50    3.50
   4  -4   5    9.10    2.30
   4  -4   5    7.80    2.60
   4  -4   5    4.50    2.10
   4  -4   5    7.50    1.80
   4  -4   5    9.30    2.80
  -5   4  -5    7.90    4.30
  -5   4  -5    7.50    2.50
  -5   4  -5    9.50    2.70
  -5   4  -5    5.30    2.70
  -5   4  -5   11.30    2.50
   5  -4   5    9.20    2.30
   5  -4   5    8.10    2.30
   5  -4   5   10.50    3.50
   5  -4   5    6.20    2.30
  -6   4  -5   -0.20    4.90
  -6   4  -5   -1.80    2.20
  -6   4  -5   -6.00    2.90
  -6   4  -5   -0.60    2.10
   6  -4   5   -2.10    5.80
   6  -4   5   -1.10    2.60
   6  -4   5   -3.10    2.30
   6  -4   5   -7.20    3.50
   6  -4   5    1.00    2.30
   6  -4   5   -1.10    2.20
  -7   4  -5   18.30    2.80
  -7   4  -5   18.60    3.30
  -7   4  -5   16.20    7.40
   7  -4   5   25.30    3.90
   7  -4   5   23.50    3.70
   7  -4   5   22.60    3.30
   7  -4   5   21.90    3.10
  -8   4  -5   -3.90    8.00
   8  -4   5    3.90    2.80
   8  -4   5   -7.20    6.40
   8  -4   5    2.20    2.60
   8  -4   5    3.10    3.40
   7   3  -5   -1.40    4.10
   7   3  -5    1.70    3.40
   7   3  -5   -6.80    4.60
   7   3  -5   -6.00    4.90
  -7  -3   5    6.60    4.60
  -7  -3   5   -3.30    4.10
  -7  -3   5    0.50    5.40
  -7  -3   5   -0.30    3.50
   6   3  -5    1.70    2.80
   6   3  -5    1.90    3.60
   6   3  -5    7.70    4.40
  -6  -3   5    5.70    3.90
  -6  -3   5    9.40    3.60
  -6  -3   5    9.70    3.00
  -6  -3   5    7.40    3.80
   5   3  -5    5.40    3.30
   5   3  -5    5.90    2.60
  -5  -3   5    7.40    3.40
  -5  -3   5    5.50    3.20
  -5  -3   5    2.00    2.10
  -5  -3   5    4.90    2.70
   4   3  -5    3.70    2.40
   4   3  -5    3.10    2.50
   4   3  -5    6.80    2.40
  -4  -3   5    3.10    1.20
  -4  -3   5   -0.20    2.60
  -4  -3   5    5.50    2.90
  -4  -3   5    3.70    1.70
  -4  -3   5    0.50    2.30
   3   3  -5    4.70    1.90
   3   3  -5    6.80    2.70
   3   3  -5    8.50    2.20
  -3  -3   5    5.20    2.30
  -3  -3   5    5.50    2.10
  -3  -3   5    6.00    1.40
  -3  -3   5    3.20    2.50
   2   3  -5   79.59    4.80
   2   3  -5   80.49    5.20
   2   3  -5   78.99    4.90
  -2  -3   5   83.09    5.20
  -2  -3   5   83.79    5.20
  -2  -3   5   83.79    4.80
   1   3  -5    0.70    1.60
   1   3  -5    1.70    1.60
   1   3  -5    0.90    1.40
   1   3  -5    0.40    1.30
  -1  -3   5    2.30    1.90
  -1  -3   5    2.10    1.70
   0   3  -5   50.39    3.50
   0   3  -5   50.69    3.80
   0   3  -5   51.19    3.30
   0  -3   5   50.49    3.80
   0  -3   5   56.09    4.00
   0  -3   5   54.89    3.60
   0  -3   5   50.69    2.50
  -1   3  -5   48.00    3.60
  -1   3  -5   47.10    3.30
  -1   3  -5   49.70    2.00
  -1   3  -5   55.49    3.10
   1  -3   5   48.40    2.70
   1  -3   5   49.50    3.70
   1  -3   5   49.20    3.50
   1  -3   5   47.40    3.60
  -2   3  -5   13.20    2.30
  -2   3  -5    6.10    1.80
  -2   3  -5   10.00    1.70
   2  -3   5   10.10    2.20
   2  -3   5    8.90    1.60
   2  -3   5    9.30    1.70
   2  -3   5    8.60    1.70
   2  -3   5    6.10    1.60
  -3   3  -5   25.60    2.50
  -3   3  -5   28.70    2.90
  -3   3  -5   28.70    2.80
   3  -3   5   25.60    2.90
   3  -3   5   29.50    2.80
   3  -3   5   33.50    2.70
   3  -3   5   27.90    2.90
   3  -3   5   33.20    3.10
  -4   3  -5    9.40    3.00
  -4   3  -5   12.80    2.20
  -4   3  -5   16.10    2.30
  -4   3  -5   12.40    2.30
  -4   3  -5   13.80    2.20
   4  -3   5   13.20    2.00
   4  -3   5   18.60    2.60
   4  -3   5   19.00    3.10
   4  -3   5   14.20    2.20
   4  -3   5   15.90    2.20
  -5   3  -5   -2.90    1.80
  -5   3  -5    5.50    3.40
  -5   3  -5    0.30    2.20
  -5   3  -5    0.80    1.80
  -5   3  -5    0.10    1.70
  -5   3  -5    1.60    2.10
   5  -3   5    1.50    1.60
   5  -3   5   -0.70    1.80
   5  -3   5   -0.10    1.40
   5  -3   5    1.50    1.60
  -6   3  -5   17.90    4.70
  -6   3  -5   21.00    3.30
  -6   3  -5   22.60    4.00
  -6   3  -5   14.40    3.50
  -6   3  -5   17.10    2.80
   6  -3   5   17.60    2.70
   6  -3   5   22.80    3.00
   6  -3   5   20.10    3.00
   6  -3   5   16.10    2.30
   6  -3   5   22.80    5.70
  -7   3  -5   59.29    8.40
  -7   3  -5   63.29    6.10
  -7   3  -5   49.60    4.80
   7  -3   5   50.99    3.70
   7  -3   5   60.29    4.30
   7  -3   5   54.49    5.00
   7  -3   5   64.59    5.40
   7  -3   5   70.49   10.20
  -8   3  -5   -0.60    1.90
  -8   3  -5   -4.60    6.60
  -8   3  -5    6.90    4.50
  -8   3  -5    7.70    2.40
   8  -3   5   -0.30    1.60
   8  -3   5   -2.50    2.20
   8  -3   5   -3.00    2.90
   8  -3   5    2.30    3.40
   8  -3   5    3.60    1.80
   8   2  -5    0.40    4.40
   8   2  -5   -8.60    6.40
   8   2  -5    2.90    4.50
   8   2  -5    0.70    3.90
  -8  -2   5   -1.10    6.50
  -8  -2   5    3.40    4.50
  -8  -2   5    3.80    5.30
  -8  -2   5   -0.50    4.30
   7   2  -5    3.00    3.20
   7   2  -5   -0.90    6.30
   7   2  -5    3.40    5.30
   7   2  -5    3.50    3.40
  -7  -2   5    7.20    3.30
  -7  -2   5    3.70    3.60
  -7  -2   5   -3.90    4.80
  -7  -2   5   -3.20    3.70
  -7  -2   5   -3.40    3.70
   6   2  -5    2.90    2.70
   6   2  -5   -0.90    2.30
   6   2  -5    6.10    2.90
  -6  -2   5   -2.30    2.50
  -6  -2   5   -6.10    3.80
  -6  -2   5    4.10    3.10
  -6  -2   5    0.30    3.00
  -6  -2   5   -0.30    3.00
  -6  -2   5    3.10    2.50
   5   2  -5   -2.40    2.30
   5   2  -5    1.50    1.90
   5   2  -5   -1.40    2.10
  -5  -2   5    1.70    2.60
  -5  -2   5    0.20    2.40
  -5  -2   5   -5.10    2.30
  -5  -2   5   -1.10    2.10
  -5  -2   5    3.60    1.90
   4   2  -5    0.60    1.60
   4   2  -5    1.80    2.00
   4   2  -5    2.10    2.10
  -4  -2   5    2.30    1.40
  -4  -2   5   -0.50    1.50
  -4  -2   5    3.70    2.20
  -4  -2   5   -0.70    2.00
  -4  -2   5    2.80    2.30
   3   2  -5   49.00    3.70
   3   2  -5   51.59    3.70
   3   2  -5   45.00    3.90
  -3  -2   5   49.80    2.60
  -3  -2   5   51.49    4.10
  -3  -2   5   50.59    3.40
  -3  -2   5   52.39    4.10
   2   2  -5   13.70    2.40
   2   2  -5   15.20    2.30
   2   2  -5   11.40    2.00
  -2  -2   5   13.10    2.10
  -2  -2   5   10.50    1.30
  -2  -2   5    9.20    1.80
  -2  -2   5   10.70    1.70
  -2  -2   5   10.20    2.00
   1   2  -5    2.90    1.60
   1   2  -5    5.20    1.60
   1   2  -5    4.30    1.40
   1   2  -5    4.20    1.40
  -1  -2   5    4.70    1.60
  -1  -2   5    2.90    1.60
  -1  -2   5    4.80    1.30
  -1  -2   5    6.90    1.60
   0   2  -5   24.10    2.50
   0   2  -5   27.20    2.10
   0   2  -5   23.40    2.40
   0   2  -5   22.20    2.40
   0  -2   5   25.50    1.20
   0  -2   5   26.10    2.40
   0  -2   5   24.10    2.40
   0  -2   5   26.20    1.70
   0  -2   5   26.80    2.70
  -1   2  -5   -1.20    1.00
  -1   2  -5    1.00    0.60
  -1   2  -5   -0.50    0.90
  -1   2  -5    1.20    1.10
  -1   2  -5    0.60    1.10
   1  -2   5   -0.60    1.00
   1  -2   5    0.30    1.30
   1  -2   5   -0.90    0.90
   1  -2   5    0.20    1.10
   1  -2   5    0.70    0.70
   1  -2   5    0.60    0.70
  -2   2  -5    1.50    1.00
  -2   2  -5    1.10    1.20
  -2   2  -5    0.10    1.00
   2  -2   5   -0.10    0.90
   2  -2   5   -0.70    0.90
   2  -2   5    1.20    1.20
   2  -2   5    1.20    1.00
   2  -2   5    1.10    1.00
  -3   2  -5   -1.50    1.20
  -3   2  -5    0.20    1.10
  -3   2  -5   -0.10    1.10
  -3   2  -5    0.20    0.90
  -3   2  -5    0.70    1.40
   3  -2   5   -0.20    1.00
   3  -2   5    1.70    1.20
   3  -2   5   -0.20    1.30
   3  -2   5    1.10    1.00
  -4   2  -5    1.20    1.50
  -4   2  -5    3.30    1.30
  -4   2  -5    2.00    1.70
  -4   2  -5    0.70    1.60
  -4   2  -5    1.70    1.30
   4  -2   5    3.90    1.60
   4  -2   5    2.70    1.00
   4  -2   5    1.40    1.20
   4  -2   5    1.30    1.00
   4  -2   5    0.60    1.30
  -5   2  -5   24.90    3.00
  -5   2  -5   18.40    3.00
  -5   2  -5   30.90    4.50
  -5   2  -5   23.80    2.80
  -5   2  -5   23.20    3.40
   5  -2   5   23.10    3.00
   5  -2   5   24.90    3.00
   5  -2   5   24.70    2.10
   5  -2   5   22.40    2.60
  -6   2  -5   11.10    2.50
  -6   2  -5   10.70    3.30
  -6   2  -5    8.70    3.90
  -6   2  -5   11.60    2.20
  -6   2  -5   13.80    3.30
   6  -2   5    7.80    4.20
   6  -2   5   11.80    1.60
   6  -2   5   14.60    2.70
   6  -2   5   18.80    2.90
   6  -2   5    9.90    2.00
  -7   2  -5   31.70    3.20
  -7   2  -5   51.79    7.20
  -7   2  -5   32.90    4.20
  -7   2  -5   37.10    5.20
   7  -2   5   40.50    4.60
   7  -2   5   33.70    4.00
   7  -2   5   33.40    4.50
   7  -2   5   29.70    2.20
   7  -2   5   38.50    7.20
   7  -2   5   30.70    3.40
  -8   2  -5    5.90    4.10
  -8   2  -5    4.00    2.10
  -8   2  -5    4.50    2.70
   8  -2   5   13.80    7.50
   8  -2   5    3.20    3.50
   8  -2   5    5.40    3.30
   8  -2   5   -2.10    3.50
   8  -2   5    4.50    2.30
  -9   2  -5   16.80    7.90
  -9   2  -5    8.20    2.00
  -9   2  -5    6.20    4.90
  -9   2  -5    8.10    2.40
   9  -2   5    8.40    2.80
   9  -2   5    9.10    5.10
   9  -2   5   10.40    4.50
   9  -2   5    6.90    3.90
   8   1  -5   -4.30    3.80
   8   1  -5    4.40    3.30
   8   1  -5   -0.70    3.60
   8   1  -5    8.20    7.10
  -8  -1   5    4.20    4.40
  -8  -1   5    3.00    4.00
  -8  -1   5    6.90    5.00
  -8  -1   5   -5.00    2.80
  -8  -1   5   -3.30    5.90
   7   1  -5   -0.20    4.80
   7   1  -5    3.60    2.90
   7   1  -5    0.10    2.70
   7   1  -5    6.70    3.40
  -7  -1   5    5.10    2.90
  -7  -1   5    0.50    4.80
  -7  -1   5    0.70    3.20
  -7  -1   5    2.60    3.20
  -7  -1   5    2.20    3.90
  -7  -1   5    4.10    3.20
   6   1  -5   -1.20    2.10
   6   1  -5   -0.60    2.20
   6   1  -5    2.00    2.40
  -6  -1   5    3.50    2.40
  -6  -1   5    1.70    2.50
  -6  -1   5    6.80    2.60
  -6  -1   5    2.50    3.10
  -6  -1   5   -6.10    3.80
  -6  -1   5   -1.20    2.40
   5   1  -5   -0.80    2.00
   5   1  -5    4.80    2.10
   5   1  -5    6.20    2.10
  -5  -1   5   -0.60    1.70
  -5  -1   5    4.40    1.90
  -5  -1   5    6.50    3.80
  -5  -1   5    2.50    2.20
  -5  -1   5    9.00    2.70
  -5  -1   5    3.80    2.30
   4   1  -5    5.30    1.90
   4   1  -5    5.00    1.60
   4   1  -5    7.40    1.90
  -4  -1   5    4.80    1.40
  -4  -1   5    5.50    1.80
  -4  -1   5    7.20    2.10
  -4  -1   5    5.30    2.00
   3   1  -5   -0.30    1.20
   3   1  -5   -0.70    1.10
   3   1  -5    1.80    1.40
  -3  -1   5   -0.30    1.30
  -3  -1   5   -0.30    0.60
  -3  -1   5   -0.90    1.40
  -3  -1   5   -0.40    1.20
  -3  -1   5    0.30    0.90
  -3  -1   5    1.30    1.50
   2   1  -5  304.57   11.10
   2   1  -5  307.07   11.00
   2   1  -5  311.17   11.30
  -2  -1   5  292.47   10.20
  -2  -1   5  320.97   11.20
  -2  -1   5  311.27   11.20
  -2  -1   5  296.87   10.80
  -2  -1   5  307.97   11.10
   1   1  -5   88.99    4.30
   1   1  -5   95.19    4.30
   1   1  -5   86.89    4.20
  -1  -1   5   93.69    4.40
  -1  -1   5   91.39    4.30
  -1  -1   5   95.79    3.90
  -1  -1   5   86.59    4.40
   0   1  -5   48.90    2.80
   0   1  -5   45.60    2.90
   0   1  -5   48.70    2.70
   0   1  -5   43.70    2.90
   0  -1   5   48.20    2.80
   0  -1   5   44.30    2.80
   0  -1   5   49.20    2.30
   0  -1   5   43.20    3.00
  -1   1  -5  151.68    6.30
  -1   1  -5  154.98    6.10
  -1   1  -5  157.08    6.20
  -1   1  -5  164.08    6.00
   1  -1   5  162.98    5.30
   1  -1   5  146.69    6.00
   1  -1   5  153.48    6.30
   1  -1   5  156.78    6.20
   1  -1   5  154.28    6.00
  -2   1  -5  287.67   10.40
  -2   1  -5  290.97   10.20
  -2   1  -5  279.47   10.40
  -2   1  -5  288.37   10.00
  -2   1  -5  283.27   10.20
   2  -1   5  280.57   10.00
   2  -1   5  307.87    9.30
   2  -1   5  314.57   10.30
   2  -1   5  285.87   10.40
   2  -1   5  284.27   10.40
  -3   1  -5  380.76   13.20
  -3   1  -5  371.36   12.50
  -3   1  -5  372.26   13.10
  -3   1  -5  379.16   13.30
  -3   1  -5  367.96   13.20
   3  -1   5  398.06   13.10
   3  -1   5  380.46   13.30
   3  -1   5  377.36   12.60
   3  -1   5  389.06   13.20
  -4   1  -5   19.00    2.80
  -4   1  -5   21.90    2.20
  -4   1  -5   19.40    2.50
  -4   1  -5   20.70    2.60
   4  -1   5   23.10    2.30
   4  -1   5   22.70    2.50
   4  -1   5   21.90    1.80
   4  -1   5   21.60    2.60
  -5   1  -5   34.70    4.10
  -5   1  -5   41.60    3.70
  -5   1  -5   36.80    3.90
  -5   1  -5   41.90    3.00
   5  -1   5   37.50    2.10
   5  -1   5   43.30    3.50
   5  -1   5   39.80    2.90
   5  -1   5   36.80    2.90
   5  -1   5   40.40    3.50
  -6   1  -5  209.58   10.30
  -6   1  -5  195.28    8.20
  -6   1  -5  175.78    9.30
  -6   1  -5  200.98    9.30
  -6   1  -5  208.38    8.50
   6  -1   5  208.18    8.80
   6  -1   5  195.28    6.70
   6  -1   5  198.88    8.60
   6  -1   5  208.38   10.70
   6  -1   5  206.58    8.10
   6  -1   5  210.98    8.40
  -7   1  -5  101.99    7.90
  -7   1  -5   88.59    6.50
  -7   1  -5   93.79    5.60
   7  -1   5  101.29    6.20
   7  -1   5   87.99    5.00
   7  -1   5   89.49    5.80
   7  -1   5   91.99    8.80
   7  -1   5   74.49    6.50
  -8   1  -5   19.60    5.80
  -8   1  -5   19.70    3.40
  -8   1  -5   15.10    2.70
   8  -1   5   18.00    4.20
   8  -1   5   14.50    4.00
   8  -1   5    9.90    2.50
   8  -1   5   13.60    3.40
   8  -1   5    6.90    6.10
  -9   1  -5   -0.60    6.60
  -9   1  -5    7.40    3.30
  -9   1  -5    1.70    4.50
  -9   1  -5   -1.60    2.20
   9  -1   5   -4.30    3.60
   9  -1   5    0.40    4.50
   9  -1   5    0.60    4.60
   9  -1   5   -0.50    4.00
   9  -1   5    0.80    2.50
   8   0  -5   -0.20    3.00
   8   0  -5    4.60    7.10
   8   0  -5    2.10    3.40
   8   0  -5    0.10    2.80
  -8   0   5   -2.60    2.90
  -8   0   5    2.40    3.30
  -8   0   5   -1.30    2.80
  -8   0   5   -0.60    4.20
  -8   0   5   -2.20    5.50
   7   0  -5    1.30    5.40
   7   0  -5    4.90    3.00
   7   0  -5    1.80    2.50
   7   0  -5    7.10    2.50
   7   0  -5    2.50    5.20
  -7   0   5    7.20    3.50
  -7   0   5    3.40    2.60
  -7   0   5    6.50    2.70
  -7   0   5   -2.70    5.00
  -7   0   5    7.00    3.80
   6   0  -5    8.40    2.20
   6   0  -5    5.60    2.40
   6   0  -5    4.30    4.00
   6   0  -5    6.90    2.40
  -6   0   5    6.60    2.50
  -6   0   5    9.10    3.20
  -6   0   5    8.40    2.90
  -6   0   5    5.40    3.10
  -6   0   5    7.40    2.40
  -6   0   5    9.70    4.40
   5   0  -5    8.70    2.20
   5   0  -5    8.30    2.00
   5   0  -5    6.20    2.00
  -5   0   5    9.30    2.20
  -5   0   5    9.70    3.40
  -5   0   5   11.00    2.30
  -5   0   5    8.10    2.60
  -5   0   5    3.40    2.10
  -5   0   5    8.40    2.30
   4   0  -5   34.50    3.00
   4   0  -5   32.60    3.00
   4   0  -5   33.80    2.80
  -4   0   5   36.00    2.70
  -4   0   5   31.10    4.40
  -4   0   5   33.30    3.60
  -4   0   5   31.70    3.10
  -4   0   5   34.40    3.10
  -4   0   5   31.50    3.00
   3   0  -5   69.79    3.60
   3   0  -5   70.99    3.80
   3   0  -5   64.09    3.80
  -3   0   5   72.69    3.80
  -3   0   5   68.19    2.80
  -3   0   5   68.99    4.20
  -3   0   5   70.69    3.80
  -3   0   5   66.09    3.70
   2   0  -5   10.90    1.70
   2   0  -5    7.70    1.40
   2   0  -5    9.60    1.50
  -2   0   5   10.80    1.70
  -2   0   5    9.30    1.60
  -2   0   5    8.90    1.20
  -2   0   5   11.00    1.80
  -2   0   5   12.00    1.80
   1   0  -5  273.77   10.50
   1   0  -5  313.97   10.80
   1   0  -5  311.97   10.70
   1   0  -5  305.57   10.80
   1   0  -5  303.67    9.70
  -1   0   5  315.67   10.90
  -1   0   5  299.57   10.70
  -1   0   5  309.27   10.40
  -1   0   5  303.77   10.20
  -1   0   5  313.17   10.80
   0   0  -5   28.50    2.00
   0   0  -5   27.40    2.10
   0   0  -5   26.40    2.10
   0   0  -5   29.10    2.10
   0   0   5   31.10    2.20
   0   0   5   25.60    1.70
   0   0   5   27.10    2.10
   0   0   5   26.20    1.90
   0   0   5   26.90    2.30
  -1   0  -5  327.47   11.40
  -1   0  -5  344.57   11.20
  -1   0  -5  315.87   11.00
  -1   0  -5  332.07   11.40
   1   0   5  333.97   11.40
   1   0   5  300.07   10.70
   1   0   5  322.37   11.10
   1   0   5  337.27   11.40
   1   0   5  320.07   11.10
  -2   0  -5   14.00    1.50
  -2   0  -5   15.70    1.70
  -2   0  -5   15.30    2.00
  -2   0  -5   13.40    1.80
   2   0   5   15.20    2.00
   2   0   5   15.60    1.70
   2   0   5   17.30    1.60
   2   0   5   17.50    1.80
  -3   0  -5  212.98    7.40
  -3   0  -5  207.18    8.10
  -3   0  -5  213.08    8.00
  -3   0  -5  211.48    8.00
  -3   0  -5  209.18    8.20
   3   0   5  222.88    8.00
   3   0   5  211.68    8.20
   3   0   5  214.28    7.40
  -4   0  -5    4.00    1.50
  -4   0  -5    4.30    1.30
  -4   0  -5    4.10    1.60
  -4   0  -5    3.70    1.60
   4   0   5    6.60    1.20
   4   0   5    6.20    1.80
   4   0   5    6.00    0.90
   4   0   5    5.80    1.60
   4   0   5    5.90    1.50
  -5   0  -5   -0.20    1.70
  -5   0  -5    3.60    2.20
  -5   0  -5    2.00    2.10
  -5   0  -5    1.00    1.20
  -5   0  -5    2.40    1.70
   5   0   5    1.10    1.30
   5   0   5   -0.50    1.60
   5   0   5    2.00    1.50
   5   0   5    1.40    0.60
   5   0   5    4.40    2.40
   5   0   5    2.80    1.60
  -6   0  -5   15.00    2.80
  -6   0  -5   20.20    3.40
  -6   0  -5   18.30    2.40
  -6   0  -5   16.60    3.40
  -6   0  -5   23.20    3.80
   6   0   5   18.90    2.70
   6   0   5   17.00    2.60
   6   0   5   15.10    2.60
   6   0   5   13.60    2.50
   6   0   5   19.30    4.10
  -7   0  -5   14.80    4.20
  -7   0  -5   11.80    2.50
  -7   0  -5   15.00    3.70
  -7   0  -5   13.20    3.10
   7   0   5   16.80    3.00
   7   0   5   13.10    3.00
   7   0   5   20.00    2.90
   7   0   5   14.20    4.70
   7   0   5   16.70    3.20
   7   0   5   14.40    3.00
  -8   0  -5   -3.10    2.80
  -8   0  -5    3.30    4.30
  -8   0  -5   -4.20    3.60
   8   0   5    2.20    3.10
   8   0   5   -3.80    2.90
   8   0   5    2.30    5.50
   8   0   5    2.80    3.10
   8   0   5   -0.30    2.40
   8   0   5    2.20    3.10
  -9   0  -5    1.60    3.70
  -9   0  -5    1.00    4.70
  -9   0  -5   10.00    6.00
  -9   0  -5   -2.20    2.50
   9   0   5    3.20    4.60
   9   0   5   -5.10    3.90
   9   0   5   -0.90    4.00
   9   0   5    2.30    4.10
   9   0   5   13.60    7.70
   9   0   5    2.90    3.10
   8  -1  -5    4.80    2.50
   8  -1  -5   -3.60    3.00
   8  -1  -5    1.40    2.80
   8  -1  -5   15.80    7.90
  -8   1   5    0.20    5.80
  -8   1   5    1.50    2.80
   7  -1  -5   61.69    5.10
   7  -1  -5   69.89    9.00
   7  -1  -5   55.49    4.80
   7  -1  -5   41.10    6.60
   7  -1  -5   50.89    3.90
  -7   1   5   54.19    3.80
  -7   1   5   52.39    3.60
  -7   1   5   55.39    6.50
  -7   1   5   42.70    8.30
   6  -1  -5   13.60    4.90
   6  -1  -5    9.50    1.90
   6  -1  -5    9.20    2.40
   6  -1  -5    9.40    2.50
   6  -1  -5   12.40    4.00
  -6   1   5   10.50    2.70
  -6   1   5    8.20    2.30
  -6   1   5   15.00    3.40
  -6   1   5   10.50    2.70
  -6   1   5    5.40    3.90
   5  -1  -5   63.49    4.10
   5  -1  -5   56.69    3.40
   5  -1  -5   56.89    5.50
   5  -1  -5   57.69    3.70
  -5   1   5   59.19    6.20
  -5   1   5   54.59    3.40
  -5   1   5   56.39    5.00
  -5   1   5   57.59    3.70
  -5   1   5   59.89    4.10
   4  -1  -5    1.40    2.10
   4  -1  -5    2.00    1.60
   4  -1  -5    1.10    0.80
   4  -1  -5   -1.80    1.40
   4  -1  -5    0.30    1.10
   4  -1  -5    1.40    1.30
  -4   1   5    1.20    1.30
  -4   1   5   -1.00    2.30
  -4   1   5   -1.00    1.40
  -4   1   5    1.50    1.20
  -4   1   5    1.50    1.90
   3  -1  -5  136.19    6.30
   3  -1  -5  136.49    5.40
   3  -1  -5  136.89    5.80
   3  -1  -5  133.89    5.50
   3  -1  -5  131.19    5.50
   3  -1  -5  131.49    4.90
  -3   1   5  133.39    4.90
  -3   1   5  133.99    5.40
  -3   1   5  126.99    6.10
  -3   1   5  131.39    5.70
  -3   1   5  124.59    6.80
   2  -1  -5  159.28    6.20
   2  -1  -5  160.68    6.00
   2  -1  -5  159.98    5.80
   2  -1  -5  158.18    6.20
   2  -1  -5  162.88    6.60
  -2   1   5  156.08    6.20
  -2   1   5  163.58    5.80
  -2   1   5  169.38    6.30
  -2   1   5  155.08    6.60
  -2   1   5  152.38    6.10
   1  -1  -5    7.80    1.40
   1  -1  -5    7.00    1.20
   1  -1  -5    6.50    1.10
   1  -1  -5    5.30    1.10
   1  -1  -5    7.10    1.40
  -1   1   5    6.60    1.10
  -1   1   5    8.00    1.30
  -1   1   5    6.40    1.30
  -1   1   5    4.10    1.30
  -1   1   5    6.30    1.20
   0  -1  -5   73.69    3.60
   0  -1  -5   78.19    3.40
   0  -1  -5   72.99    3.40
   0  -1  -5   75.39    3.60
   0  -1  -5   72.79    3.50
   0  -1  -5   73.79    3.10
   0   1   5   73.39    3.50
   0   1   5   76.89    3.40
   0   1   5   79.39    3.70
   0   1   5   79.29    3.70
   0   1   5   75.19    3.20
  -1  -1  -5   12.00    1.60
  -1  -1  -5   10.90    1.40
  -1  -1  -5   11.90    1.60
  -1  -1  -5   13.00    1.40
   1   1   5   13.60    1.80
   1   1   5   13.60    1.60
   1   1   5   11.80    1.10
   1   1   5   10.00    1.30
   1   1   5   12.60    1.50
  -2  -1  -5 1967.40   61.89
  -2  -1  -5 1945.61   62.39
  -2  -1  -5 2001.70   62.29
  -2  -1  -5 1965.80   62.49
   2   1   5 2003.40   62.29
   2   1   5 2017.00   62.59
   2   1   5 2055.29   62.19
   2   1   5 1974.40   62.39
   2   1   5 2018.50   61.99
  -3  -1  -5   73.49    4.00
  -3  -1  -5   77.39    3.20
  -3  -1  -5   78.49    4.00
  -3  -1  -5   80.99    4.20
   3   1   5   82.09    3.40
   3   1   5   85.49    4.20
   3   1   5   79.19    4.20
   3   1   5   84.59    3.90
   3   1   5   80.39    3.90
  -4  -1  -5  159.58    7.20
  -4  -1  -5  168.38    7.00
  -4  -1  -5  170.68    7.30
   4   1   5  175.18    7.00
   4   1   5  165.18    7.20
   4   1   5  177.98    7.10
   4   1   5  181.78    7.40
   4   1   5  173.38    7.10
  -5  -1  -5   56.09    3.60
  -5  -1  -5   47.60    4.30
  -5  -1  -5   50.69    5.80
   5   1   5   55.69    4.00
   5   1   5   57.79    3.90
   5   1   5   54.89    3.60
   5   1   5   54.79    3.80
   5   1   5   55.09    4.50
  -6  -1  -5   63.79    4.90
  -6  -1  -5   55.59    4.00
  -6  -1  -5   61.39    4.70
  -6  -1  -5   50.79    4.50
  -6  -1  -5   62.39    5.20
   6   1   5   62.39    4.70
   6   1   5   54.79    3.90
   6   1   5   53.39    5.50
   6   1   5   49.99    4.20
   6   1   5   47.80    4.00
  -7  -1  -5    4.10    3.00
  -7  -1  -5    7.90    2.30
  -7  -1  -5    5.50    2.80
  -7  -1  -5   11.70    3.70
   7   1   5    4.30    2.40
   7   1   5    2.10    2.50
   7   1   5    7.70    3.10
   7   1   5    9.40    3.80
   7   1   5    7.90    2.60
   7   1   5    3.50    2.80
  -8  -1  -5    9.50    3.50
  -8  -1  -5    5.90    4.20
  -8  -1  -5    5.70    2.20
  -8  -1  -5   -0.90    3.20
   8   1   5    6.10    2.80
   8   1   5    2.10    2.90
   8   1   5    5.20    3.20
   8   1   5   -1.20    4.50
   8   1   5    4.10    3.30
   8   1   5    2.00    3.30
  -9  -1  -5    8.30    4.80
  -9  -1  -5    6.10    5.30
  -9  -1  -5    5.10    3.10
  -9  -1  -5   -3.90    4.00
   9   1   5    1.90    3.90
   9   1   5    7.90    6.70
   9   1   5    9.00    4.40
   9   1   5    1.40    3.60
   9   1   5   -2.00    4.60
   8  -2  -5    2.30    1.80
   8  -2  -5    4.80    2.10
   8  -2  -5   -6.10    2.90
  -8   2   5    5.70    6.50
  -8   2   5    5.50    3.30
   7  -2  -5   42.60    6.50
   7  -2  -5   56.19    5.20
   7  -2  -5   74.49   10.10
   7  -2  -5   59.79    4.00
  -7   2   5   56.09    8.70
  -7   2   5   62.99    8.70
   6  -2  -5    1.20    1.50
   6  -2  -5    1.00    1.20
   6  -2  -5    3.50    2.30
   6  -2  -5    4.20    1.80
   6  -2  -5    8.60    4.80
   6  -2  -5    1.50    3.60
   6  -2  -5    0.80    3.10
  -6   2   5   -0.10    3.50
  -6   2   5    2.20    2.10
   5  -2  -5   21.10    2.40
   5  -2  -5   18.60    2.40
   5  -2  -5   21.40    3.50
   5  -2  -5   19.30    2.00
   5  -2  -5   18.10    4.50
   5  -2  -5   18.40    3.70
   5  -2  -5   19.40    2.70
  -5   2   5   17.40    2.10
  -5   2   5   19.70    2.90
  -5   2   5   16.80    4.10
  -5   2   5   22.30    2.10
   4  -2  -5   28.80    3.30
   4  -2  -5   31.30    3.90
   4  -2  -5   32.50    2.50
   4  -2  -5   33.40    2.40
   4  -2  -5   37.50    2.30
   4  -2  -5   35.80    3.20
  -4   2   5   34.70    3.00
  -4   2   5   30.80    2.40
  -4   2   5   36.00    4.50
   3  -2  -5   56.39    2.90
   3  -2  -5   54.59    3.00
   3  -2  -5   57.29    2.90
   3  -2  -5   57.79    3.50
   3  -2  -5   55.29    3.60
   3  -2  -5   54.89    4.00
  -3   2   5   53.29    3.00
  -3   2   5   60.49    4.10
  -3   2   5   51.79    3.30
  -3   2   5   54.39    3.00
  -3   2   5   52.89    2.80
  -3   2   5   55.79    4.50
   2  -2  -5   36.60    2.90
   2  -2  -5   37.40    2.80
   2  -2  -5   34.30    2.30
   2  -2  -5   37.80    2.40
   2  -2  -5   34.80    2.40
   2  -2  -5   36.60    2.30
  -2   2   5   33.80    2.40
  -2   2   5   34.30    3.30
  -2   2   5   39.40    2.50
  -2   2   5   33.80    2.20
  -2   2   5   37.50    3.10
  -2   2   5   34.90    2.40
   1  -2  -5   43.80    2.50
   1  -2  -5   46.20    2.70
   1  -2  -5   45.30    2.60
   1  -2  -5   45.30    2.70
   1  -2  -5   44.50    2.90
   1  -2  -5   42.60    2.40
  -1   2   5   41.80    3.00
  -1   2   5   44.50    2.60
  -1   2   5   45.90    2.60
  -1   2   5   44.80    3.00
  -1   2   5   45.50    2.50
  -1   2   5   45.10    2.80
   0  -2  -5   -0.50    1.00
   0  -2  -5   -0.50    0.80
   0  -2  -5    0.90    0.70
   0  -2  -5   -0.10    0.70
   0  -2  -5   -0.30    0.70
   0  -2  -5    0.20    0.90
   0   2   5   -0.10    0.70
   0   2   5    2.50    1.10
   0   2   5   -0.20    0.70
   0   2   5    0.00    1.00
   0   2   5   -0.90    0.80
   0   2   5   -1.20    0.60
   0   2   5   -0.30    0.80
  -1  -2  -5  254.17    9.50
  -1  -2  -5  262.87    9.20
  -1  -2  -5  259.47    8.90
  -1  -2  -5  256.07    9.40
  -1  -2  -5  253.47    9.20
   1   2   5  258.87    9.50
   1   2   5  266.47    8.80
   1   2   5  255.87    9.40
   1   2   5  252.97    9.20
   1   2   5  263.87    8.90
  -2  -2  -5   32.40    2.30
  -2  -2  -5   28.70    2.70
  -2  -2  -5   32.80    2.30
  -2  -2  -5   28.80    2.40
  -2  -2  -5   30.90    2.10
   2   2   5   31.30    2.70
   2   2   5   30.30    2.30
   2   2   5   29.10    2.50
   2   2   5   33.80    2.10
  -3  -2  -5   26.30    2.50
  -3  -2  -5   29.10    1.80
  -3  -2  -5   26.00    2.30
  -3  -2  -5   26.90    2.80
  -3  -2  -5   25.20    2.50
   3   2   5   26.40    2.20
   3   2   5   24.90    2.30
   3   2   5   24.90    2.50
   3   2   5   21.30    2.70
   3   2   5   25.30    2.00
  -4  -2  -5    1.10    1.30
  -4  -2  -5    2.70    1.70
  -4  -2  -5   -0.20    1.50
  -4  -2  -5    2.30    0.70
   4   2   5    3.70    1.40
   4   2   5    1.40    1.30
   4   2   5    3.10    1.90
   4   2   5    2.00    1.30
   4   2   5    0.80    1.50
  -5  -2  -5    0.10    2.00
  -5  -2  -5   -0.50    1.50
  -5  -2  -5   -2.00    1.80
   5   2   5    1.00    1.60
   5   2   5    2.10    1.40
   5   2   5    2.60    1.70
   5   2   5    2.20    1.80
   5   2   5    1.50    2.00
  -6  -2  -5   -0.80    2.30
  -6  -2  -5    0.60    1.90
  -6  -2  -5   -0.90    2.00
   6   2   5   -0.40    2.10
   6   2   5    2.30    2.50
   6   2   5   -0.20    2.00
   6   2   5   -1.20    2.00
   6   2   5    0.40    2.00
  -7  -2  -5    1.00    2.60
  -7  -2  -5    3.70    2.90
  -7  -2  -5    5.00    2.90
  -7  -2  -5    5.50    2.40
   7   2   5    4.60    3.00
   7   2   5    6.00    2.30
   7   2   5    1.20    2.50
   7   2   5    7.30    3.50
   7   2   5    2.10    2.50
  -8  -2  -5    5.40    2.70
  -8  -2  -5    5.10    3.60
  -8  -2  -5    4.60    3.70
  -8  -2  -5    9.90    3.90
   8   2   5    0.00    3.20
   8   2   5    3.50    2.80
   8   2   5    0.70    3.10
   8   2   5    5.10    3.60
  -9  -2  -5   -0.90    4.20
  -9  -2  -5   -2.80    4.50
  -9  -2  -5    6.40    4.60
  -9  -2  -5    2.40    3.20
   9   2   5    2.40    4.30
   9   2   5    5.00    4.10
   9   2   5   -2.20    3.40
   9   2   5    3.70    3.70
   9   2   5    1.20    4.50
   8  -3  -5   -1.10    3.30
   8  -3  -5   -1.80    2.10
  -8   3   5    0.80    5.90
  -8   3   5    6.90    3.30
   7  -3  -5   11.80    3.10
   7  -3  -5    2.10    6.80
   7  -3  -5   10.30    2.20
   7  -3  -5   -3.70    4.40
  -7   3   5   14.60    4.80
  -7   3   5   11.40    6.00
   6  -3  -5    4.00    1.30
   6  -3  -5    1.30    1.60
   6  -3  -5    0.50    2.40
   6  -3  -5   -0.50    1.30
   6  -3  -5   -0.50    5.20
   6  -3  -5    7.70    4.30
   6  -3  -5    0.00    3.30
  -6   3   5   -2.50    3.80
  -6   3   5   -0.60    2.10
   5  -3  -5   -2.80    3.90
   5  -3  -5    0.00    1.20
   5  -3  -5    1.40    2.50
   5  -3  -5   -0.40    1.90
   5  -3  -5   -2.10    2.90
   5  -3  -5    0.50    1.30
   5  -3  -5    1.90    1.50
  -5   3   5    0.70    3.10
  -5   3   5    2.10    1.90
   4  -3  -5   21.50    4.30
   4  -3  -5    8.70    2.20
   4  -3  -5   18.40    2.00
   4  -3  -5   17.00    1.80
   4  -3  -5   15.80    2.00
   4  -3  -5   11.10    2.90
  -4   3   5   18.50    3.60
  -4   3   5   17.60    2.50
  -4   3   5   17.70    1.60
  -4   3   5   13.80    1.70
   3  -3  -5   50.79    4.10
   3  -3  -5   44.80    3.60
   3  -3  -5   45.60    3.60
   3  -3  -5   45.50    2.60
   3  -3  -5   48.90    2.80
   3  -3  -5   49.50    3.00
  -3   3   5   49.80    2.80
  -3   3   5   46.50    3.10
  -3   3   5   46.40    3.20
  -3   3   5   48.90    4.40
   2  -3  -5   19.90    2.50
   2  -3  -5   22.10    2.70
   2  -3  -5   19.90    1.90
   2  -3  -5   19.30    2.10
   2  -3  -5   20.40    2.00
  -2   3   5   17.50    1.90
  -2   3   5   19.70    1.80
  -2   3   5   14.40    2.40
  -2   3   5   21.00    2.00
  -2   3   5   22.90    2.30
  -2   3   5   21.00    2.60
   1  -3  -5  122.89    5.10
   1  -3  -5  123.19    4.70
   1  -3  -5  118.29    5.10
   1  -3  -5  123.89    5.60
   1  -3  -5  119.79    5.20
   1  -3  -5  122.99    5.30
  -1   3   5  128.19    5.50
  -1   3   5  120.99    5.00
  -1   3   5  125.39    5.30
  -1   3   5  118.89    5.20
  -1   3   5  119.59    5.00
  -1   3   5  125.89    5.50
   0  -3  -5   88.09    4.30
   0  -3  -5   89.39    4.40
   0  -3  -5   88.59    3.50
   0  -3  -5   84.79    4.10
   0  -3  -5   86.69    4.00
   0   3   5   86.69    3.70
   0   3   5   81.69    3.80
   0   3   5   88.99    4.10
   0   3   5   83.69    4.10
   0   3   5   84.69    4.00
   0   3   5   87.49    4.20
   0   3   5   76.49    3.50
  -1  -3  -5  389.16   13.10
  -1  -3  -5  400.06   13.70
  -1  -3  -5  404.76   13.60
  -1  -3  -5  388.56   13.80
  -1  -3  -5  392.76   13.90
   1   3   5  408.06   13.00
   1   3   5  395.26   13.20
   1   3   5  390.16   13.80
   1   3   5  397.06   14.00
   1   3   5  386.96   13.60
   1   3   5  395.36   13.10
  -2  -3  -5  209.58    8.10
  -2  -3  -5  212.78    8.40
  -2  -3  -5  205.58    7.90
  -2  -3  -5  214.48    8.60
  -2  -3  -5  213.78    8.00
   2   3   5  217.88    8.10
   2   3   5  216.78    8.70
   2   3   5  225.48    7.80
   2   3   5  213.08    8.40
  -3  -3  -5   54.59    3.00
  -3  -3  -5   53.69    3.30
  -3  -3  -5   46.80    3.40
  -3  -3  -5   52.89    4.00
  -3  -3  -5   57.09    3.70
   3   3   5   59.69    3.40
   3   3   5   57.29    3.70
   3   3   5   51.29    3.90
   3   3   5   58.69    3.20
  -4  -3  -5   -1.20    1.80
  -4  -3  -5   -0.30    0.90
  -4  -3  -5   -0.10    1.60
  -4  -3  -5    0.90    1.40
  -4  -3  -5    4.20    1.70
   4   3   5    0.10    1.10
   4   3   5   -0.90    1.70
   4   3   5    0.00    1.30
   4   3   5    4.40    1.90
  -5  -3  -5   -0.30    1.70
  -5  -3  -5    5.90    2.50
  -5  -3  -5    0.50    0.90
   5   3   5   -0.50    1.50
   5   3   5    2.10    1.90
   5   3   5    1.80    1.60
   5   3   5    2.00    2.10
  -6  -3  -5   54.89    4.90
  -6  -3  -5   66.09    5.50
  -6  -3  -5   65.89    4.20
   6   3   5   67.79    5.70
   6   3   5   70.59    5.10
   6   3   5   62.29    5.00
  -7  -3  -5    9.80    3.70
  -7  -3  -5    7.20    3.00
  -7  -3  -5    6.00    2.90
   7   3   5    7.20    3.50
   7   3   5    5.50    3.00
   7   3   5   10.70    2.80
   7   3   5   16.00    3.30
  -8  -3  -5   50.39    5.90
  -8  -3  -5   50.39    6.90
  -8  -3  -5   51.09    5.90
   8   3   5   46.00    5.80
   8   3   5   57.39    6.00
   8   3   5   53.89    5.40
  -9  -3  -5    1.10    3.70
  -9  -3  -5   -3.00    4.40
   9   3   5    9.30    3.80
   9   3   5    3.80    4.20
   9   3   5   16.20    4.80
   9   3   5    0.40    5.20
   7  -4  -5    4.50    2.60
   7  -4  -5    0.40    3.20
   7  -4  -5   -7.80    5.50
  -7   4   5    0.80    3.30
   6  -4  -5    5.60    2.80
   6  -4  -5    1.80    3.90
   6  -4  -5    6.60    4.60
   6  -4  -5    1.40    6.00
   6  -4  -5    4.00    2.40
  -6   4   5    0.90    2.30
   5  -4  -5    1.20    4.20
   5  -4  -5    0.20    1.20
   5  -4  -5    0.70    1.00
   5  -4  -5    3.70    3.10
   5  -4  -5    3.00    3.40
   5  -4  -5    1.70    2.00
   5  -4  -5   -1.00    2.30
  -5   4   5    5.20    3.40
  -5   4   5    0.40    1.90
   4  -4  -5    1.10    2.50
   4  -4  -5   -0.40    3.50
   4  -4  -5    1.30    1.40
   4  -4  -5    0.30    1.70
   4  -4  -5    0.70    2.50
   4  -4  -5    1.10    2.00
   4  -4  -5   -0.30    1.00
  -4   4   5    1.80    1.80
  -4   4   5    0.30    2.60
   3  -4  -5    3.30    2.30
   3  -4  -5    2.90    1.80
   3  -4  -5    0.70    2.60
   3  -4  -5    1.10    2.90
   3  -4  -5    2.30    1.50
   3  -4  -5    2.90    1.30
   3  -4  -5    1.30    1.00
   3  -4  -5   -0.70    2.10
  -3   4   5    2.90    1.80
  -3   4   5    0.50    1.40
  -3   4   5   -0.30    1.20
  -3   4   5   -0.10    2.10
  -3   4   5    0.80    1.10
  -3   4   5    4.10    2.00
   2  -4  -5   -2.10    1.20
   2  -4  -5    0.30    1.60
   2  -4  -5   -0.10    1.30
   2  -4  -5   -0.30    1.00
   2  -4  -5   -0.50    0.80
   2  -4  -5    1.60    2.00
   2  -4  -5   -0.10    1.40
  -2   4   5   -1.90    1.40
  -2   4   5    0.30    1.20
  -2   4   5   -2.00    1.60
  -2   4   5    2.30    1.20
   1  -4  -5   -0.10    1.30
   1  -4  -5    0.80    0.70
   1  -4  -5   -0.50    1.20
   1  -4  -5    0.40    1.50
   1  -4  -5    0.20    1.30
   1  -4  -5   -0.60    1.00
  -1   4   5   -0.80    1.20
  -1   4   5    0.80    1.00
  -1   4   5    1.40    1.40
  -1   4   5    0.90    1.20
  -1   4   5   -0.70    1.40
   0  -4  -5   15.10    2.10
   0  -4  -5   17.00    2.30
   0  -4  -5   12.50    1.90
   0  -4  -5   15.10    1.50
   0   4   5   14.80    1.80
   0   4   5   15.80    2.10
   0   4   5   18.80    2.40
   0   4   5   17.40    2.40
   0   4   5   11.60    2.00
  -1  -4  -5   56.79    3.70
  -1  -4  -5   52.19    2.90
  -1  -4  -5   56.29    3.40
  -1  -4  -5   63.39    4.00
   1   4   5   58.59    2.70
   1   4   5   59.99    3.60
   1   4   5   57.09    3.80
   1   4   5   57.49    3.70
   1   4   5   54.99    2.90
  -2  -4  -5  164.28    7.50
  -2  -4  -5  153.48    6.40
  -2  -4  -5  161.28    7.20
  -2  -4  -5  171.58    6.90
   2   4   5  167.08    6.20
   2   4   5  163.78    7.40
   2   4   5  166.38    6.90
   2   4   5  169.78    7.40
  -3  -4  -5    2.70    1.60
  -3  -4  -5   -0.20    1.40
  -3  -4  -5    2.00    1.20
  -3  -4  -5    2.60    2.10
   3   4   5   -1.40    2.00
   3   4   5   -0.30    1.60
   3   4   5    1.60    1.10
   3   4   5    2.50    1.50
  -4  -4  -5   45.40    3.20
  -4  -4  -5   29.20    3.60
  -4  -4  -5   37.90    4.20
   4   4   5   37.20    3.90
   4   4   5   32.40    3.10
   4   4   5   35.40    4.30
   4   4   5   33.90    3.00
  -5  -4  -5   65.59    4.40
  -5  -4  -5   72.19    5.60
  -5  -4  -5   65.89    3.50
  -5  -4  -5   69.19    5.20
   5   4   5   72.59    5.40
   5   4   5   60.39    5.50
   5   4   5   67.19    4.50
  -6  -4  -5    4.50    3.30
  -6  -4  -5    4.80    1.30
  -6  -4  -5    6.70    1.40
  -6  -4  -5    4.80    2.90
  -6  -4  -5    4.20    1.90
   6   4   5    4.90    2.70
   6   4   5    7.50    2.40
   6   4   5    6.10    2.40
  -7  -4  -5    9.90    3.30
  -7  -4  -5    9.50    2.50
  -7  -4  -5   -1.10    3.70
   7   4   5    3.20    3.20
   7   4   5    7.70    3.20
   7   4   5    3.70    3.60
   7   4   5    5.30    2.80
  -8  -4  -5   27.40    5.70
  -8  -4  -5   39.50    5.20
   8   4   5   43.90    6.20
   8   4   5   44.00    6.00
   8   4   5   32.50    6.10
   8   4   5   40.90    5.40
  -9  -4  -5   -2.70    4.30
  -9  -4  -5    8.60    5.60
   9   4   5    4.40    4.00
   9   4   5   -2.30    4.00
   9   4   5   -1.40    6.20
   7  -5  -5   11.80    4.50
   7  -5  -5   10.50    3.70
   7  -5  -5    1.90    4.00
   6  -5  -5    4.70    3.30
   6  -5  -5    9.90    4.80
   6  -5  -5    7.90    3.10
   6  -5  -5   -8.80    5.90
   6  -5  -5    3.10    3.10
   6  -5  -5  -13.90    8.20
  -6   5   5    0.50    2.50
   5  -5  -5    6.50    5.30
   5  -5  -5    5.30    3.00
   5  -5  -5    1.30    5.10
   5  -5  -5    1.90    2.60
   5  -5  -5   -1.40    3.40
   5  -5  -5    0.70    3.80
  -5   5   5   -2.20    2.00
   4  -5  -5   30.70    4.40
   4  -5  -5   36.80    3.80
   4  -5  -5   28.70    2.80
   4  -5  -5   26.30    4.00
   4  -5  -5   35.00    4.50
   4  -5  -5   33.60    2.40
   4  -5  -5   38.30    6.00
   4  -5  -5   29.30    5.50
  -4   5   5   27.70    3.30
  -4   5   5   37.30    4.80
   3  -5  -5   -2.00    2.10
   3  -5  -5   -1.70    3.40
   3  -5  -5   -0.50    1.20
   3  -5  -5   -2.50    1.90
   3  -5  -5    4.70    3.50
   3  -5  -5   -1.20    2.50
   3  -5  -5    1.80    1.60
   3  -5  -5    2.80    1.10
  -3   5   5   -0.10    2.30
  -3   5   5   -1.20    1.40
  -3   5   5    0.00    1.00
  -3   5   5    0.50    1.30
   2  -5  -5   20.80    2.90
   2  -5  -5   18.30    2.70
   2  -5  -5   26.00    3.80
   2  -5  -5   18.40    3.90
   2  -5  -5   19.00    2.40
   2  -5  -5   17.40    2.80
   2  -5  -5   21.30    1.60
  -2   5   5   19.10    2.60
  -2   5   5   17.90    2.20
  -2   5   5   26.00    3.60
  -2   5   5   20.00    3.30
  -2   5   5   19.50    2.70
   1  -5  -5    3.40    1.70
   1  -5  -5    0.90    2.50
   1  -5  -5    3.30    0.80
   1  -5  -5    1.50    1.50
   1  -5  -5    4.20    2.00
   1  -5  -5    1.20    1.40
  -1   5   5    3.40    1.90
  -1   5   5    2.20    1.60
  -1   5   5   -0.50    1.10
  -1   5   5    2.20    1.70
   0  -5  -5   45.80    3.80
   0  -5  -5   46.60    3.30
   0  -5  -5   41.20    3.40
   0  -5  -5   46.60    3.50
   0  -5  -5   42.30    2.30
   0   5   5   48.90    3.50
   0   5   5   43.00    2.70
   0   5   5   48.20    3.60
   0   5   5   43.50    4.10
   0   5   5   49.80    3.80
  -1  -5  -5   45.40    2.50
  -1  -5  -5   42.60    4.00
  -1  -5  -5   41.80    3.60
  -1  -5  -5   45.90    3.40
  -1  -5  -5   39.60    2.60
   1   5   5   48.00    4.10
   1   5   5   45.20    2.70
   1   5   5   49.10    2.30
   1   5   5   44.40    3.80
   1   5   5   45.20    4.30
  -2  -5  -5   16.10    2.30
  -2  -5  -5   25.60    3.60
  -2  -5  -5   22.80    3.20
  -2  -5  -5   16.60    2.10
   2   5   5   18.10    1.90
   2   5   5   27.10    3.50
  -3  -5  -5   11.80    2.30
  -3  -5  -5   12.10    3.50
  -3  -5  -5   11.20    2.40
   3   5   5    7.00    2.70
   3   5   5   11.40    2.60
   3   5   5   11.10    1.70
   3   5   5   12.30    2.90
  -4  -5  -5    2.80    1.70
  -4  -5  -5    2.70    1.70
  -4  -5  -5   -0.40    2.10
  -4  -5  -5    0.70    2.60
   4   5   5    2.00    2.10
   4   5   5   -0.60    1.40
   4   5   5    0.40    2.30
   4   5   5    0.00    2.60
  -5  -5  -5   -3.00    2.50
  -5  -5  -5    0.20    3.10
  -5  -5  -5    4.30    2.10
  -5  -5  -5   -1.20    1.50
  -5  -5  -5   -0.40    1.70
   5   5   5   -1.00    2.60
   5   5   5   -1.30    2.10
   5   5   5    3.20    3.30
   5   5   5   -2.40    1.80
  -6  -5  -5   -3.00    3.70
  -6  -5  -5    4.20    2.40
  -6  -5  -5   -2.10    2.80
  -6  -5  -5   -1.70    2.90
   6   5   5   -1.70    3.00
   6   5   5    2.20    2.60
   6   5   5    1.10    3.40
   6   5   5    2.70    2.50
  -7  -5  -5    1.80    1.60
  -7  -5  -5    1.30    3.50
  -7  -5  -5   -1.90    3.90
  -7  -5  -5    0.30    4.20
   7   5   5    4.70    3.00
   7   5   5    3.60    3.20
   7   5   5    0.30    3.70
   7   5   5   -0.40    4.00
  -8  -5  -5    6.20    4.50
   8   5   5    3.90    3.90
   8   5   5   -3.90    3.50
   8   5   5   -5.30    4.20
   8   5   5    7.10    5.60
  -9  -5  -5    2.50    5.00
   9   5   5   -8.70    6.40
   9   5   5    5.50    4.30
   9   5   5    5.40    5.10
   9   5   5    5.20    5.60
   6  -6  -5   19.10    7.60
   6  -6  -5    2.80    8.20
   6  -6  -5    4.10    3.20
   6  -6  -5   -5.10    3.70
  -6   6   5    7.70    4.00
   5  -6  -5    2.10    5.60
   5  -6  -5   -1.20    2.30
   5  -6  -5    0.20    4.70
   5  -6  -5    2.00    7.10
   5  -6  -5    4.80    3.30
   5  -6  -5    3.90    3.40
  -5   6   5    1.90    2.50
   4  -6  -5    0.20    2.60
   4  -6  -5    6.90    2.00
   4  -6  -5    0.30    4.80
   4  -6  -5    3.00    1.50
   4  -6  -5   17.30    5.80
   4  -6  -5    6.20    3.00
   4  -6  -5    4.50    1.80
   4  -6  -5   11.30    3.80
   4  -6  -5    6.90    1.40
  -4   6   5    4.60    2.20
  -4   6   5    5.80    3.30
   3  -6  -5    1.50    1.90
   3  -6  -5    0.10    0.80
   3  -6  -5    3.30    4.20
   3  -6  -5    0.40    1.50
   3  -6  -5   -1.80    1.80
   3  -6  -5    2.80    2.50
   3  -6  -5   -1.90    2.40
   3  -6  -5    1.00    4.10
  -3   6   5   -5.60    2.60
  -3   6   5    1.50    1.80
  -3   6   5   -1.10    1.60
   2  -6  -5    7.80    2.00
   2  -6  -5   10.60    2.50
   2  -6  -5   10.80    2.80
   2  -6  -5   12.90    3.50
   2  -6  -5    4.20    4.30
  -2   6   5    9.30    2.40
  -2   6   5   12.20    2.40
  -2   6   5    8.40    3.00
  -2   6   5   11.90    3.00
  -2   6   5   10.60    1.90
   1  -6  -5    4.30    2.00
   1  -6  -5    6.30    2.50
   1  -6  -5    4.30    2.40
   1  -6  -5    4.00    2.50
   1  -6  -5    4.70    3.30
  -1   6   5    8.00    2.40
  -1   6   5    6.80    2.10
  -1   6   5    3.80    2.50
  -1   6   5    6.40    2.60
  -1   6   5    6.80    1.70
   0  -6  -5    2.80    2.20
   0  -6  -5    3.20    1.80
   0  -6  -5    2.70    2.60
   0  -6  -5    6.50    2.10
   0  -6  -5    5.00    2.50
   0   6   5    4.10    2.30
   0   6   5    4.80    2.20
   0   6   5    5.10    1.60
   0   6   5    4.50    2.40
   0   6   5    2.90    2.00
  -1  -6  -5    8.70    2.30
  -1  -6  -5    7.90    2.60
  -1  -6  -5   12.80    2.80
  -1  -6  -5    9.70    2.70
  -1  -6  -5   12.50    1.90
   1   6   5    7.70    2.50
   1   6   5    9.10    2.80
   1   6   5   10.70    1.40
   1   6   5   11.00    2.80
   1   6   5   12.10    1.80
  -2  -6  -5    8.30    2.20
  -2  -6  -5    7.50    2.70
  -2  -6  -5   14.50    3.40
  -2  -6  -5    5.80    2.30
   2   6   5   11.70    2.70
   2   6   5   10.60    1.40
   2   6   5   16.00    3.40
   2   6   5   12.80    3.10
  -3  -6  -5    7.30    2.80
  -3  -6  -5    3.90    1.70
  -3  -6  -5    9.10    3.20
  -3  -6  -5    9.90    2.40
   3   6   5    6.40    1.50
   3   6   5   11.20    3.50
   3   6   5    9.10    2.70
   3   6   5    6.30    2.80
  -4  -6  -5   28.20    3.20
  -4  -6  -5   20.90    4.20
  -4  -6  -5   22.40    3.90
  -4  -6  -5   21.90    3.20
   4   6   5   21.90    3.00
   4   6   5   18.30    4.00
   4   6   5   30.80    4.50
   4   6   5   27.90    3.90
  -5  -6  -5   16.60    3.10
  -5  -6  -5   11.30    4.10
  -5  -6  -5   16.40    3.00
  -5  -6  -5   18.50    4.10
   5   6   5   18.10    4.30
   5   6   5   16.10    2.90
   5   6   5   20.40    3.60
   5   6   5   13.10    4.70
  -6  -6  -5    7.80    4.30
  -6  -6  -5   10.40    4.00
  -6  -6  -5   13.20    3.80
  -6  -6  -5    5.60    2.80
   6   6   5    7.30    3.00
   6   6   5   10.50    4.30
   6   6   5   11.70    3.30
   6   6   5    5.20    4.40
  -7  -6  -5   11.20    2.70
  -7  -6  -5    3.50    4.70
  -7  -6  -5   11.10    3.40
  -7  -6  -5   12.10    6.50
  -7  -6  -5   16.00    5.00
   7   6   5    5.70    4.70
   7   6   5    9.40    4.00
   7   6   5   10.80    5.50
   7   6   5   11.40    3.70
  -8  -6  -5    9.70    5.10
  -8  -6  -5    2.20    2.20
   8   6   5   -0.30    6.20
   8   6   5    5.10    4.10
   8   6   5    7.20    4.50
   8   6   5   -8.70    5.10
   6  -7  -5   -3.90    5.00
   6  -7  -5   -4.40    5.40
   6  -7  -5    1.30    2.70
   5  -7  -5    0.80    4.10
   5  -7  -5    2.70    1.70
   5  -7  -5    3.30    4.50
   5  -7  -5   -1.90    7.60
   5  -7  -5    0.80    1.50
  -5   7   5    1.90    3.00
  -5   7   5    1.20    4.90
   4  -7  -5   -4.00    3.60
   4  -7  -5    2.50    2.40
   4  -7  -5    3.20    5.80
   4  -7  -5   -0.50    4.40
   4  -7  -5  -12.60    6.60
   4  -7  -5   -3.20    3.30
   4  -7  -5    1.30    1.90
  -4   7   5    5.00    4.20
  -4   7   5    1.50    2.20
   3  -7  -5   -2.00    4.60
   3  -7  -5   -0.90    2.90
   3  -7  -5    2.40    2.00
   3  -7  -5    9.30    5.60
   3  -7  -5   -1.80    2.30
  -3   7   5   -0.60    2.10
  -3   7   5   -3.80    3.50
  -3   7   5   -0.20    1.80
   2  -7  -5    3.20    2.20
   2  -7  -5    2.50    2.80
   2  -7  -5   11.90    4.90
   2  -7  -5    5.90    3.10
  -2   7   5    8.20    3.60
  -2   7   5   10.40    2.70
  -2   7   5    2.60    1.70
   1  -7  -5    3.10    2.40
   1  -7  -5   -3.30    3.60
   1  -7  -5   -3.40    2.70
   1  -7  -5    2.30    3.10
   1  -7  -5   -0.40    2.50
  -1   7   5    3.10    1.70
  -1   7   5    0.30    2.60
  -1   7   5   -2.80    2.60
  -1   7   5    0.20    2.50
  -1   7   5   -0.20    2.50
   0  -7  -5    4.40    2.60
   0  -7  -5    4.50    2.90
   0  -7  -5    5.30    2.60
   0  -7  -5   -1.60    2.20
   0   7   5    5.30    1.60
   0   7   5    2.70    2.80
   0   7   5    0.70    2.70
   0   7   5    1.00    2.10
   0   7   5    3.10    2.60
  -1  -7  -5   11.30    3.10
  -1  -7  -5   24.00    3.70
  -1  -7  -5   17.00    3.80
  -1  -7  -5   17.20    3.60
  -1  -7  -5   12.20    3.00
   1   7   5   11.40    3.10
   1   7   5   18.70    3.90
   1   7   5    9.90    3.30
   1   7   5   16.20    2.20
  -2  -7  -5   23.80    4.30
  -2  -7  -5   21.10    4.00
  -2  -7  -5   24.50    3.20
  -2  -7  -5   24.20    3.70
   2   7   5   18.00    3.30
   2   7   5   25.10    2.20
   2   7   5   24.80    4.40
   2   7   5   27.20    4.30
  -3  -7  -5   42.70    5.70
  -3  -7  -5   31.60    4.30
  -3  -7  -5   29.30    4.70
  -3  -7  -5   25.10    2.80
   3   7   5   33.40    4.20
   3   7   5   29.60    4.70
   3   7   5   25.80    2.70
   3   7   5   28.70    4.70
  -4  -7  -5   11.30    3.20
  -4  -7  -5    2.40    3.40
  -4  -7  -5    4.60    4.20
  -4  -7  -5    6.70    2.70
   4   7   5    8.20    3.30
   4   7   5   16.20    4.60
   4   7   5   10.60    4.30
   4   7   5    9.60    2.20
  -5  -7  -5    4.20    2.80
  -5  -7  -5   -1.60    3.60
  -5  -7  -5    4.10    5.10
  -5  -7  -5    4.20    3.50
   5   7   5    7.00    4.30
   5   7   5   -1.70    2.20
   5   7   5    1.40    3.20
   5   7   5    6.30    4.50
  -6  -7  -5    3.20    3.30
  -6  -7  -5   -0.60    5.60
  -6  -7  -5    7.40    4.50
  -6  -7  -5    9.40    4.40
   6   7   5   -0.30    3.00
   6   7   5   -4.10    3.40
   6   7   5   -1.50    5.10
   6   7   5   -0.90    4.90
  -7  -7  -5    2.80    5.30
  -7  -7  -5    2.30    3.50
  -7  -7  -5    8.90    5.70
  -7  -7  -5    1.10    3.90
   7   7   5   -3.20    5.50
   7   7   5   -4.20    4.20
   7   7   5   -3.40    6.60
   5  -8  -5    2.20    4.90
   5  -8  -5    3.70    2.00
   5  -8  -5    5.60    5.60
   5  -8  -5   -2.00    2.20
  -5   8   5   -2.80    3.30
  -5   8   5   15.70    6.60
   4  -8  -5   11.40    7.90
   4  -8  -5    1.80    3.10
   4  -8  -5    1.60    4.50
   4  -8  -5   -2.00    2.30
   4  -8  -5    7.80    4.90
  -4   8   5    3.40    2.80
  -4   8   5   -3.10    4.90
   3  -8  -5    3.10    4.60
   3  -8  -5   14.90    7.20
   3  -8  -5    0.60    3.30
   3  -8  -5    5.40    2.80
   3  -8  -5   -2.90    5.80
  -3   8   5    5.80    2.50
  -3   8   5    2.60    2.20
  -3   8   5    0.20    4.30
   2  -8  -5    0.90    2.60
   2  -8  -5    2.70    3.40
   2  -8  -5   -0.80    5.70
   2  -8  -5   -6.20    4.80
   2  -8  -5    0.20    3.90
  -2   8   5   -0.40    3.30
  -2   8   5   -1.40    5.20
  -2   8   5    0.60    2.20
  -2   8   5    2.80    3.20
   1  -8  -5   -4.80    3.90
   1  -8  -5   -0.20    3.50
   1  -8  -5   -0.20    2.60
   1  -8  -5    1.70    4.90
   1  -8  -5    0.90    3.60
  -1   8   5   -1.20    1.80
  -1   8   5    2.60    3.30
  -1   8   5    2.70    3.40
  -1   8   5    6.10    3.70
   0  -8  -5    4.50    3.20
   0  -8  -5    2.70    3.50
   0  -8  -5   -3.60    3.10
   0  -8  -5    7.20    3.90
   0  -8  -5    3.70    4.20
   0   8   5    2.90    3.60
   0   8   5   -5.40    3.20
   0   8   5   -1.50    3.00
   0   8   5    4.80    3.60
   0   8   5    3.80    1.90
  -1  -8  -5   12.20    3.20
  -1  -8  -5   10.70    3.80
  -1  -8  -5    3.70    4.20
  -1  -8  -5    9.40    3.30
  -1  -8  -5   11.10    3.60
   1   8   5   12.10    2.30
   1   8   5    1.40    3.30
   1   8   5   15.90    4.50
   1   8   5   12.60    4.10
  -2  -8  -5   17.60    4.40
  -2  -8  -5   26.00    5.60
  -2  -8  -5   23.00    3.90
  -2  -8  -5   20.60    3.30
   2   8   5   18.40    2.00
   2   8   5   28.10    5.20
   2   8   5   24.50    4.80
   2   8   5   21.80    4.30
  -3  -8  -5   11.60    4.50
  -3  -8  -5    4.40    4.30
  -3  -8  -5    8.20    3.40
   3   8   5    3.90    3.40
   3   8   5    5.60    4.60
   3   8   5   10.60    4.90
   3   8   5    5.00    1.90
  -4  -8  -5    7.10    4.40
  -4  -8  -5   14.20    5.90
  -4  -8  -5    3.60    3.30
   4   8   5   -0.20    4.80
   4   8   5    8.40    4.10
   4   8   5   10.80    2.40
   4   8   5   12.40    5.90
  -5  -8  -5   13.00    6.30
  -5  -8  -5   28.00    5.00
  -5  -8  -5   15.60    9.40
  -5  -8  -5   11.10    4.30
   5   8   5   13.40    4.70
   5   8   5   16.40    6.50
   5   8   5    5.10    2.90
  -6  -8  -5    1.70    5.20
  -6  -8  -5   -3.10    5.10
  -6  -8  -5    1.40    4.00
   6   8   5    2.40    3.30
   6   8   5   -2.90    5.70
   6   8   5  -12.00    4.60
  -7  -8  -5    1.10    5.00
  -7  -8  -5    3.90    9.30
  -7  -8  -5   12.00    6.30
   7   8   5    9.20    4.70
   7   8   5   -6.60    5.30
   3  -9  -5    2.70    4.40
   3  -9  -5    1.10    4.60
   3  -9  -5    1.80    8.10
   3  -9  -5    0.00    3.40
  -3   9   5   -2.10    3.20
  -3   9   5    2.90    2.90
  -3   9   5    9.30    5.60
   2  -9  -5    7.50    7.30
   2  -9  -5    3.30    3.60
   2  -9  -5    3.20    4.40
   2  -9  -5   -1.50    4.40
   2  -9  -5   -4.30    6.30
  -2   9   5    5.30    4.90
  -2   9   5   -1.90    2.20
  -2   9   5    2.00    3.90
  -2   9   5   -0.20    3.90
   1  -9  -5   -6.90    4.20
   1  -9  -5   -0.20    3.80
   1  -9  -5   -0.50    5.30
   1  -9  -5   -1.60    4.90
   1  -9  -5   -1.00    6.20
  -1   9   5    7.20    4.40
  -1   9   5    6.20    4.70
  -1   9   5   -2.30    4.30
  -1   9   5    1.90    2.30
   0  -9  -5    0.40    5.00
   0  -9  -5    5.50    4.80
   0  -9  -5    0.10    4.00
   0  -9  -5   -6.20    4.00
   0  -9  -5   -8.30    4.90
   0   9   5    2.80    4.10
   0   9   5    2.70    2.00
   0   9   5   -4.60    4.30
   0   9   5   -2.60    4.50
  -1  -9  -5    2.80    4.10
  -1  -9  -5   10.20    5.50
  -1  -9  -5   10.90    4.30
  -1  -9  -5    6.30    4.00
  -1  -9  -5    9.00    4.90
   1   9   5    7.70    5.00
   1   9   5   11.40    5.00
   1   9   5    4.50    2.30
  -2  -9  -5    3.00    4.60
  -2  -9  -5   -4.80    5.40
   2   9   5    1.30    2.00
   2   9   5   12.00    4.60
   2   9   5    4.30    5.10
  -3  -9  -5    1.90    4.00
  -3  -9  -5   11.00    6.90
  -3  -9  -5   -0.80    5.20
   3   9   5   -2.80    1.70
   3   9   5   -2.30    4.20
   3   9   5   -1.80    5.40
  -4  -9  -5    8.40    5.50
  -4  -9  -5   10.40    4.30
  -4  -9  -5   24.50    8.00
   4   9   5    8.80    8.70
   4   9   5    6.00    2.40
   4   9   5   -2.00   12.30
  -5  -9  -5   24.70    5.60
  -5  -9  -5   25.60    6.20
  -5  -9  -5   26.20    6.70
   5   9   5   13.50    3.30
   5   9   5   20.60    7.70
   1 -10  -5    3.10    7.60
   1 -10  -5   -1.10    4.60
   1 -10  -5    3.80    6.10
  -1  10   5   19.90    6.30
  -1  10   5    5.90    3.50
  -1  10   5   15.40    6.60
   0 -10  -5    7.10    7.10
   0 -10  -5    2.20    5.20
   0 -10  -5    3.70    5.50
   0 -10  -5   14.00    6.90
   0  10   5    9.10    6.20
   0  10   5    4.30    3.10
   0  10   5    4.70    5.80
  -1 -10  -5    0.20    7.30
  -1 -10  -5   -4.80    5.30
  -1 -10  -5   -3.80    5.00
   1  10   5    8.90    6.40
   1  10   5   -8.50    5.10
  -2 -10  -5   -1.90    5.40
  -2 -10  -5   -9.10    8.20
  -2 -10  -5    4.70    5.40
   2  10   5    0.60    2.50
   2  10   5    1.00    6.40
  -3 -10  -5    6.50    5.40
  -3 -10  -5   -0.30    8.80
  -3 -10  -5    2.50    6.30
   3  10   5   -3.40    1.50
   3  10   5   -4.90   15.20
   0   8  -6   -1.90    3.80
   0   8  -6    5.30    6.30
   0   8  -6    5.10    8.10
   0  -8   6   -5.50    4.70
   0  -8   6   25.70    8.10
   0  -8   6   13.00    6.30
   0  -8   6   -1.20    6.50
  -1   8  -6    6.40    6.40
  -1   8  -6    7.70    6.50
   1  -8   6    1.90    5.20
   1  -8   6   -4.30    5.70
   1  -8   6   -0.70    5.60
   1  -8   6   14.20    7.30
   3   7  -6    7.70    6.40
   3   7  -6    2.10    4.70
  -3  -7   6    1.70    6.10
  -3  -7   6   -9.00    3.90
   2   7  -6    8.10    6.40
   2   7  -6    1.00    3.90
  -2  -7   6    8.00    5.60
  -2  -7   6    2.50    4.10
   1   7  -6   -0.60    5.60
   1   7  -6    3.40    3.60
  -1  -7   6    6.80    6.60
  -1  -7   6   -2.60    4.80
  -1  -7   6   -5.60    4.60
   0   7  -6    6.70    4.40
   0   7  -6    1.60    4.90
   0   7  -6    0.20    3.00
   0  -7   6    0.30    9.20
   0  -7   6   -4.30    3.60
   0  -7   6    7.80    5.90
   0  -7   6    2.40    4.80
  -1   7  -6    2.10    2.80
  -1   7  -6   12.80    5.40
  -1   7  -6    1.20    4.80
   1  -7   6    5.50    4.60
   1  -7   6    6.00    5.60
   1  -7   6    4.40    3.80
  -2   7  -6   23.30    3.70
  -2   7  -6    9.20    5.00
  -2   7  -6   25.60   10.30
   2  -7   6   24.90    4.80
   2  -7   6   28.30    6.30
   2  -7   6   21.40    5.00
  -3   7  -6    0.00    3.60
  -3   7  -6   -3.70    3.30
  -3   7  -6    4.90    4.80
  -3   7  -6   11.40    6.70
   3  -7   6   11.10    4.60
   3  -7   6    0.90    4.90
   3  -7   6    5.60    5.40
  -4   7  -6   -6.10    7.10
  -4   7  -6   -1.60    7.90
  -4   7  -6    4.80    4.10
  -4   7  -6   -2.40    4.60
   4  -7   6    2.00    5.00
   4  -7   6   14.10    6.10
   4  -7   6    9.90    4.70
   5   6  -6   -8.10    6.60
  -5  -6   6    7.70    3.50
  -5  -6   6    0.50    2.70
  -5  -6   6   14.10    7.10
   4   6  -6   -2.90    5.30
   4   6  -6    0.60    5.20
  -4  -6   6    9.50    9.80
  -4  -6   6   -0.70    3.00
   3   6  -6    7.90    5.50
   3   6  -6    9.60    3.80
   3   6  -6   13.20    4.80
  -3  -6   6   17.50    5.60
  -3  -6   6    6.10    5.60
  -3  -6   6    0.30    3.10
   2   6  -6   -1.30    3.30
   2   6  -6   -4.30    3.70
   2   6  -6   -0.30    4.50
  -2  -6   6   -1.20    3.20
  -2  -6   6   -6.10    4.60
  -2  -6   6   -0.10    4.20
  -2  -6   6    4.50    4.60
   1   6  -6    4.90    3.00
   1   6  -6    1.40    3.30
   1   6  -6    4.50    4.40
  -1  -6   6    4.80    3.80
  -1  -6   6   11.70    4.90
  -1  -6   6    7.20    4.00
  -1  -6   6    3.40    3.50
   0   6  -6   -2.50    2.30
   0   6  -6   -5.80    2.80
   0   6  -6    2.00    4.10
   0  -6   6   -2.60    3.40
   0  -6   6    2.40    4.10
   0  -6   6    2.50    3.50
   0  -6   6    0.90    2.30
  -1   6  -6   11.50    3.50
  -1   6  -6    9.50    4.00
  -1   6  -6   11.00    2.60
   1  -6   6    6.70    4.00
   1  -6   6   12.30    4.30
   1  -6   6    7.70    3.80
   1  -6   6    7.00    2.90
  -2   6  -6   36.40    4.50
  -2   6  -6   49.30    5.90
  -2   6  -6   49.10    5.40
  -2   6  -6   53.59    7.00
   2  -6   6   44.50    5.90
   2  -6   6   36.90    4.80
   2  -6   6   41.60    6.10
   2  -6   6   41.20    5.20
  -3   6  -6    9.10    3.80
  -3   6  -6   -0.80    2.90
  -3   6  -6   -0.90    4.70
  -3   6  -6   -3.80    2.40
  -3   6  -6    2.00    2.70
   3  -6   6    1.80    3.50
   3  -6   6   -2.10    3.60
  -4   6  -6   -5.30    5.10
  -4   6  -6   -2.30    3.30
  -4   6  -6    0.50    3.10
  -4   6  -6    1.60    3.80
   4  -6   6    2.40    4.60
   4  -6   6   -1.10    4.00
   4  -6   6   -4.50    3.50
   4  -6   6    1.80    3.40
  -5   6  -6    1.70    3.70
  -5   6  -6    9.30    4.00
  -5   6  -6    1.20    6.60
  -5   6  -6   -1.40    3.60
  -5   6  -6    1.40    3.50
   5  -6   6    4.80    2.90
   5  -6   6   13.40    5.60
   5  -6   6   -0.50    4.10
   5  -6   6    1.60    3.60
   5  -6   6   -0.40    3.90
  -6   6  -6   -0.40    4.10
  -6   6  -6  -11.70    8.40
  -6   6  -6    0.70    4.30
  -6   6  -6   -0.40    4.90
  -6   6  -6    4.70    4.80
   6  -6   6   -1.10    4.60
   6  -6   6   -0.90    3.20
   6  -6   6    1.70    4.10
   6  -6   6    8.70    4.40
   6   5  -6    1.00    6.20
   6   5  -6   10.00    6.10
  -6  -5   6   -1.70    3.50
  -6  -5   6    0.70    5.90
   5   5  -6    0.60    4.60
   5   5  -6    4.20    5.30
  -5  -5   6   -4.50    4.20
  -5  -5   6    7.80    5.40
  -5  -5   6    6.00    2.90
  -5  -5   6    2.00    1.90
   4   5  -6   17.80    5.40
   4   5  -6   19.80    4.70
  -4  -5   6   19.40    5.60
  -4  -5   6   17.20    4.20
  -4  -5   6   20.50    2.80
  -4  -5   6    9.90    5.00
   3   5  -6   40.90    5.90
   3   5  -6   32.50    5.40
  -3  -5   6   34.70    5.30
  -3  -5   6   33.50    5.50
  -3  -5   6   31.90    3.70
  -3  -5   6   37.60    5.20
   2   5  -6   69.39    6.20
   2   5  -6   61.99    6.80
   2   5  -6   59.19    5.40
  -2  -5   6   59.19    6.30
  -2  -5   6   60.79    6.90
  -2  -5   6   67.89    6.80
  -2  -5   6   69.79    5.20
   1   5  -6   31.40    4.10
   1   5  -6   23.50    4.50
   1   5  -6   25.40    3.40
  -1  -5   6   22.50    3.80
  -1  -5   6   21.90    4.20
  -1  -5   6   31.30    4.80
   0   5  -6    3.10    3.00
   0   5  -6    1.40    2.20
   0   5  -6    1.20    2.30
   0  -5   6    6.90    3.40
   0  -5   6   -0.40    2.80
   0  -5   6    1.80    1.70
   0  -5   6    4.10    2.80
  -1   5  -6   23.80    3.60
  -1   5  -6   18.80    2.70
  -1   5  -6   36.10    4.80
   1  -5   6   21.80    3.60
   1  -5   6   22.50    2.80
   1  -5   6   35.60    4.90
   1  -5   6   21.50    3.60
  -2   5  -6   12.80    3.20
  -2   5  -6   13.40    3.10
  -2   5  -6    9.10    2.30
   2  -5   6   13.30    3.20
   2  -5   6   10.70    3.10
   2  -5   6    9.60    2.50
  -3   5  -6    2.70    3.00
  -3   5  -6    1.20    2.10
  -3   5  -6   -2.20    2.40
  -3   5  -6    4.10    3.70
  -3   5  -6    1.70    2.20
   3  -5   6    0.70    2.80
   3  -5   6   -1.30    3.00
   3  -5   6    1.70    2.80
   3  -5   6   -2.20    2.50
  -4   5  -6   17.20    5.20
  -4   5  -6   11.10    3.20
  -4   5  -6   10.60    2.90
  -4   5  -6    8.40    2.80
   4  -5   6   13.00    3.50
   4  -5   6    9.50    3.50
   4  -5   6    8.90    3.10
   4  -5   6   16.80    3.60
   4  -5   6    8.30    2.50
  -5   5  -6    9.70    3.20
  -5   5  -6    2.90    3.30
  -5   5  -6    2.10    5.60
  -5   5  -6    8.30    3.20
  -5   5  -6   11.90    3.30
   5  -5   6   13.40    3.50
   5  -5   6    2.70    3.10
   5  -5   6    3.70    3.10
   5  -5   6    8.60    2.60
   5  -5   6    8.50    4.20
  -6   5  -6    3.80    3.30
  -6   5  -6    7.70    3.60
  -6   5  -6    6.50    4.20
  -6   5  -6   15.10    7.00
  -6   5  -6    3.50    3.60
   6  -5   6    6.60    3.50
   6  -5   6    3.80    3.30
   6  -5   6    2.70    2.90
  -7   5  -6   13.60    4.00
  -7   5  -6    7.10    5.10
  -7   5  -6    1.90    8.50
   7  -5   6    6.90    3.80
   7  -5   6    8.80    4.10
   7  -5   6   10.60    3.80
   7  -5   6    7.20    3.80
   6   4  -6    0.00    5.10
   6   4  -6   -6.50    4.80
  -6  -4   6   10.30    5.00
  -6  -4   6    3.40    5.00
  -6  -4   6    3.30    3.00
   5   4  -6   -1.40    3.80
   5   4  -6   -5.30    4.30
  -5  -4   6   -4.60    4.50
  -5  -4   6    3.00    3.80
  -5  -4   6    1.30    4.40
  -5  -4   6    4.30    2.40
   4   4  -6   20.50    4.60
   4   4  -6   19.80    4.20
  -4  -4   6   21.80    3.90
  -4  -4   6   18.90    2.50
  -4  -4   6   21.90    4.50
  -4  -4   6   17.00    4.60
  -4  -4   6   20.00    2.70
   3   4  -6    3.90    3.30
   3   4  -6    3.40    3.10
  -3  -4   6    7.30    2.90
  -3  -4   6    9.90    3.40
  -3  -4   6    4.30    1.90
  -3  -4   6    1.20    3.70
   2   4  -6   27.50    4.00
   2   4  -6   27.70    3.50
   2   4  -6   24.00    4.10
  -2  -4   6   21.20    3.70
  -2  -4   6   27.90    3.80
  -2  -4   6   25.50    4.10
   1   4  -6   35.10    3.90
   1   4  -6   36.00    4.40
   1   4  -6   42.90    4.90
  -1  -4   6   37.10    4.40
  -1  -4   6   44.10    5.00
  -1  -4   6   39.10    4.70
   0   4  -6  138.19    7.50
   0   4  -6  142.79    6.50
   0   4  -6  136.49    7.00
   0  -4   6  147.79    7.20
   0  -4   6  129.59    7.30
   0  -4   6  123.29    5.30
   0  -4   6  145.59    7.50
  -1   4  -6   -0.30    0.90
  -1   4  -6    2.20    2.20
  -1   4  -6    2.00    2.00
  -1   4  -6    0.30    1.70
   1  -4   6    2.10    2.00
   1  -4   6    1.80    1.50
   1  -4   6    0.10    2.60
   1  -4   6    1.10    2.20
  -2   4  -6    4.50    1.90
  -2   4  -6   -0.60    1.90
  -2   4  -6    2.30    2.00
   2  -4   6    1.00    2.00
   2  -4   6    1.60    2.30
   2  -4   6    3.70    1.80
   2  -4   6    2.00    2.50
  -3   4  -6   -1.40    1.60
  -3   4  -6    2.30    2.20
  -3   4  -6   -2.90    1.70
  -3   4  -6    3.40    2.20
   3  -4   6   -0.30    1.60
   3  -4   6    0.80    2.00
   3  -4   6   -3.00    1.90
   3  -4   6    2.90    2.20
   3  -4   6   -3.10    1.90
  -4   4  -6    2.50    2.40
  -4   4  -6    0.30    3.30
  -4   4  -6    1.60    2.20
  -4   4  -6   -0.20    1.80
  -4   4  -6   -1.10    2.30
   4  -4   6    2.10    2.10
   4  -4   6   -1.20    2.30
   4  -4   6   -0.10    1.90
   4  -4   6   -3.70    2.40
   4  -4   6   -0.80    1.70
  -5   4  -6   -3.10    2.20
  -5   4  -6    1.20    2.50
  -5   4  -6    4.20    2.50
  -5   4  -6   -1.10    3.80
  -5   4  -6    0.10    2.90
   5  -4   6    1.20    2.20
   5  -4   6    1.60    2.50
   5  -4   6    5.40    3.50
   5  -4   6   -1.70    2.20
   5  -4   6    0.60    2.10
  -6   4  -6   -1.90    2.80
  -6   4  -6    0.50    2.60
  -6   4  -6   -2.20    3.50
  -6   4  -6   -1.40    5.30
   6  -4   6    2.40    2.50
   6  -4   6    2.80    2.90
   6  -4   6   -1.20    2.50
   6  -4   6   -1.40    2.60
  -7   4  -6    9.10    3.10
  -7   4  -6   15.70    3.60
  -7   4  -6    5.80    4.80
  -7   4  -6   22.30    7.80
   7  -4   6   12.60    3.60
   7  -4   6   13.00    3.80
   7  -4   6   12.20    3.30
  -8   4  -6   -5.10    8.50
   8  -4   6   -4.60    3.70
   8  -4   6    5.60    3.90
   7   3  -6   -4.90    5.80
   7   3  -6    2.70    5.20
   7   3  -6    8.60    5.40
  -7  -3   6   15.30    5.50
  -7  -3   6   -0.20    6.00
  -7  -3   6    6.10    3.70
  -7  -3   6    5.70    5.20
   6   3  -6    2.10    3.40
   6   3  -6    3.90    3.90
   6   3  -6   -2.10    3.70
  -6  -3   6   -4.80    4.20
  -6  -3   6    0.70    2.60
  -6  -3   6    2.30    4.20
  -6  -3   6    0.90    4.30
   5   3  -6   -0.20    3.30
   5   3  -6    1.50    3.20
   5   3  -6   -2.40    2.80
  -5  -3   6    2.40    3.70
  -5  -3   6    0.00    2.10
  -5  -3   6   -1.00    3.10
  -5  -3   6   -0.80    3.50
   4   3  -6   20.20    3.50
   4   3  -6   10.70    3.00
   4   3  -6   20.10    4.00
  -4  -3   6   15.40    3.70
  -4  -3   6   19.10    1.90
  -4  -3   6   19.40    2.30
  -4  -3   6   22.70    3.70
  -4  -3   6   19.60    3.20
  -4  -3   6   13.70    3.50
  -4  -3   6   16.20    2.00
   3   3  -6   32.80    4.00
   3   3  -6   21.90    3.60
   3   3  -6   30.80    4.00
  -3  -3   6   26.10    3.10
  -3  -3   6   25.70    3.50
  -3  -3   6   24.80    3.60
  -3  -3   6   22.90    2.10
  -3  -3   6   26.20    4.10
   2   3  -6   28.50    4.00
   2   3  -6   27.80    3.70
   2   3  -6   25.10    3.30
  -2  -3   6   30.90    3.50
  -2  -3   6   25.30    3.50
  -2  -3   6   27.90    3.90
  -2  -3   6   24.40    2.70
   1   3  -6   64.39    4.80
   1   3  -6   73.39    4.80
   1   3  -6   70.59    4.30
   1   3  -6   67.19    4.60
  -1  -3   6   66.99    4.60
  -1  -3   6   63.89    2.40
  -1  -3   6   62.89    4.90
  -1  -3   6   65.89    3.50
  -1  -3   6   74.89    5.00
   0   3  -6   83.29    4.90
   0   3  -6   78.99    5.00
   0   3  -6   75.39    5.00
   0   3  -6   84.79    5.20
   0  -3   6   78.19    3.20
   0  -3   6   94.39    5.00
   0  -3   6   86.39    5.10
   0  -3   6   87.29    5.40
  -1   3  -6   40.10    3.10
  -1   3  -6   40.00    3.50
  -1   3  -6   40.10    3.70
   1  -3   6   37.80    3.80
   1  -3   6   43.80    3.70
   1  -3   6   43.20    4.00
   1  -3   6   39.70    2.40
  -2   3  -6   30.80    3.00
  -2   3  -6   28.80    3.20
  -2   3  -6   33.50    3.40
   2  -3   6   30.00    3.10
   2  -3   6   35.80    2.70
   2  -3   6   30.50    3.20
   2  -3   6   28.50    2.90
   2  -3   6   34.90    3.60
  -3   3  -6    4.30    1.80
  -3   3  -6    2.50    1.40
   3  -3   6    2.30    1.90
   3  -3   6    5.40    1.90
   3  -3   6    3.60    1.80
   3  -3   6    6.60    1.80
   3  -3   6    4.80    1.80
  -4   3  -6    1.10    2.00
  -4   3  -6    3.20    1.70
  -4   3  -6    1.00    1.90
  -4   3  -6    1.10    1.60
   4  -3   6    1.30    1.60
   4  -3   6   -1.30    1.90
   4  -3   6    2.50    1.80
   4  -3   6    2.40    1.50
  -5   3  -6    3.50    1.90
  -5   3  -6   -2.40    2.10
  -5   3  -6   -0.40    2.40
  -5   3  -6    0.50    1.80
  -5   3  -6   -3.50    3.60
   5  -3   6    1.20    2.10
   5  -3   6    1.50    1.60
   5  -3   6   -0.50    1.70
   5  -3   6    1.30    1.70
  -6   3  -6    9.60    2.90
  -6   3  -6    6.70    3.50
  -6   3  -6    8.50    2.50
  -6   3  -6   12.50    5.30
  -6   3  -6   11.40    3.10
   6  -3   6   10.50    3.00
   6  -3   6   10.80    2.70
   6  -3   6    6.30    2.00
   6  -3   6    8.70    2.30
  -7   3  -6   40.20    5.10
  -7   3  -6   28.00    5.30
  -7   3  -6   33.80    7.40
  -7   3  -6   38.50    5.50
   7  -3   6   34.60    4.30
   7  -3   6   30.90    4.30
   7  -3   6   42.30    5.20
   7  -3   6   47.10    8.50
   7  -3   6   23.30    2.80
  -8   3  -6    1.40    4.40
  -8   3  -6    8.20    7.60
  -8   3  -6    7.40    3.70
  -8   3  -6    5.00    2.70
   8  -3   6   12.20    3.90
   8  -3   6    8.80    1.90
   8  -3   6   10.20    2.90
   8  -3   6   12.50    4.00
   7   2  -6    2.30    3.70
   7   2  -6   -4.70    5.60
   7   2  -6   -1.60    3.90
   7   2  -6    0.60    4.20
  -7  -2   6   -4.60    5.60
  -7  -2   6   -4.00    4.80
  -7  -2   6    5.50    4.70
  -7  -2   6   11.40    3.50
  -7  -2   6   -2.20    4.20
   6   2  -6   15.20    4.10
   6   2  -6   14.50    3.70
   6   2  -6   10.20    3.20
  -6  -2   6   11.70    3.90
  -6  -2   6   13.50    4.20
  -6  -2   6   11.40    3.20
  -6  -2   6   13.10    3.00
  -6  -2   6   11.30    3.70
  -6  -2   6   12.00    5.70
   5   2  -6    7.30    3.20
   5   2  -6    4.10    2.50
   5   2  -6    4.90    2.80
  -5  -2   6    1.10    3.00
  -5  -2   6   -0.60    2.30
  -5  -2   6    1.40    2.00
  -5  -2   6    5.20    3.20
  -5  -2   6   -0.10    3.00
   4   2  -6    4.10    2.20
   4   2  -6   -0.10    2.10
   4   2  -6   -0.90    2.20
  -4  -2   6    1.50    1.90
  -4  -2   6    1.40    1.40
  -4  -2   6    1.50    2.40
  -4  -2   6   -0.30    0.70
  -4  -2   6    0.30    2.50
  -4  -2   6    0.50    2.30
   3   2  -6   12.90    2.50
   3   2  -6   16.50    3.10
   3   2  -6   15.50    2.90
  -3  -2   6   12.10    1.70
  -3  -2   6   12.50    2.50
  -3  -2   6   10.80    2.30
  -3  -2   6   14.10    2.70
  -3  -2   6   11.40    1.50
  -3  -2   6   11.90    2.20
   2   2  -6   22.40    2.90
   2   2  -6   14.80    2.40
   2   2  -6   21.20    3.00
  -2  -2   6   20.80    3.10
  -2  -2   6   14.80    2.70
  -2  -2   6   13.30    2.50
  -2  -2   6   13.10    1.90
   1   2  -6   27.60    2.90
   1   2  -6   21.70    2.90
   1   2  -6   22.50    2.70
   1   2  -6   21.00    2.70
  -1  -2   6   19.00    2.00
  -1  -2   6   23.40    3.00
  -1  -2   6   25.20    3.20
   0   2  -6    4.50    1.60
   0   2  -6    5.60    1.70
   0   2  -6    4.20    1.60
   0   2  -6    3.20    1.50
   0  -2   6    6.00    1.20
   0  -2   6    6.20    2.10
   0  -2   6    3.40    1.50
   0  -2   6    5.00    1.60
  -1   2  -6   13.50    2.10
  -1   2  -6   16.20    2.20
  -1   2  -6   16.80    2.50
  -1   2  -6   14.50    2.10
   1  -2   6   17.10    1.40
   1  -2   6   17.90    2.40
   1  -2   6   15.10    2.20
   1  -2   6   18.90    2.30
  -2   2  -6    0.20    1.30
  -2   2  -6    0.10    1.30
  -2   2  -6    0.40    1.20
  -2   2  -6   -0.10    1.40
   2  -2   6    0.30    1.20
   2  -2   6    2.00    1.30
   2  -2   6    0.60    1.50
   2  -2   6    1.60    0.60
   2  -2   6    0.00    1.10
  -3   2  -6   12.30    2.10
  -3   2  -6   13.00    1.70
  -3   2  -6   16.90    2.40
  -3   2  -6   17.80    2.20
  -3   2  -6   12.30    2.20
   3  -2   6   13.90    2.00
   3  -2   6   16.40    2.40
   3  -2   6   17.90    2.60
   3  -2   6   15.70    2.00
  -4   2  -6   11.80    2.10
  -4   2  -6   14.30    2.00
  -4   2  -6   12.00    2.30
  -4   2  -6   13.80    2.60
  -4   2  -6    9.90    2.30
   4  -2   6   16.90    2.70
   4  -2   6   10.40    2.00
   4  -2   6   16.00    2.30
   4  -2   6   12.90    1.90
  -5   2  -6    6.00    2.90
  -5   2  -6    1.50    1.60
  -5   2  -6   -4.00    2.20
  -5   2  -6    0.90    2.00
  -5   2  -6   -1.40    1.90
   5  -2   6   -1.30    1.40
   5  -2   6   -1.80    1.60
   5  -2   6   -0.20    1.20
   5  -2   6   -0.20    2.00
  -6   2  -6   -2.60    2.90
  -6   2  -6    1.10    1.90
  -6   2  -6   -0.10    2.40
  -6   2  -6    1.90    3.40
  -6   2  -6    3.80    2.40
   6  -2   6    2.30    2.20
   6  -2   6   -1.50    4.20
   6  -2   6   -0.20    1.30
   6  -2   6    2.00    2.30
   6  -2   6   -0.20    1.70
  -7   2  -6   -1.40    3.80
  -7   2  -6    2.80    3.30
  -7   2  -6   -1.50    4.80
  -7   2  -6    2.50    3.00
   7  -2   6    0.30    5.40
   7  -2   6    7.60    2.90
   7  -2   6    1.30    1.30
   7  -2   6    0.90    2.10
   7  -2   6   -1.00    3.00
  -8   2  -6    9.70    3.60
  -8   2  -6   -3.90    3.90
  -8   2  -6    4.90    2.60
  -8   2  -6   -1.50    6.10
   8  -2   6   -1.10    2.50
   8  -2   6   -0.80    3.40
   8  -2   6    1.50    5.20
   8  -2   6   21.80    7.50
  -9   2  -6    1.70    2.70
  -9   2  -6  -10.20    4.90
  -9   2  -6   12.50    3.90
  -9   2  -6   -1.90    8.00
   9  -2   6    5.80    3.40
   9  -2   6   -9.10    4.10
   9  -2   6   -6.90    4.10
   8   1  -6    1.60    4.10
   8   1  -6    4.40    4.10
   8   1  -6    5.00    8.30
   8   1  -6    6.40    4.70
  -8  -1   6    2.30    6.50
  -8  -1   6    8.10    6.10
  -8  -1   6    3.90    3.20
  -8  -1   6    1.00    4.70
  -8  -1   6   -5.50    4.40
  -8  -1   6    4.10    4.40
   7   1  -6    4.30    3.40
   7   1  -6   12.50    6.10
   7   1  -6    2.30    3.40
   7   1  -6   11.50    6.60
  -7  -1   6    1.50    3.50
  -7  -1   6    0.80    5.20
  -7  -1   6    5.20    3.60
  -7  -1   6    5.80    3.30
  -7  -1   6    7.60    3.80
  -7  -1   6    5.50    4.60
   6   1  -6   -3.50    2.80
   6   1  -6    0.90    2.70
   6   1  -6   -1.30    2.50
  -6  -1   6   -3.20    3.50
  -6  -1   6    3.60    4.90
  -6  -1   6   -1.60    2.30
  -6  -1   6    0.80    3.00
  -6  -1   6    5.30    3.10
  -6  -1   6    3.80    2.60
   5   1  -6   -1.60    2.00
   5   1  -6    2.70    2.10
   5   1  -6    5.30    2.50
  -5  -1   6    3.60    3.00
  -5  -1   6    1.70    1.90
  -5  -1   6    4.20    2.60
  -5  -1   6    4.10    2.20
  -5  -1   6    2.00    2.50
  -5  -1   6    4.50    3.90
   4   1  -6    0.40    1.90
   4   1  -6   -1.70    1.60
   4   1  -6    0.00    1.70
  -4  -1   6    1.40    1.70
  -4  -1   6    4.60    2.40
  -4  -1   6    2.30    1.30
  -4  -1   6   -1.00    1.80
  -4  -1   6    1.10    2.10
   3   1  -6   23.90    2.80
   3   1  -6   20.00    2.90
   3   1  -6   23.10    3.00
  -3  -1   6   20.20    2.50
  -3  -1   6   18.80    2.60
  -3  -1   6   26.70    3.50
  -3  -1   6   17.40    1.60
  -3  -1   6   24.60    3.10
   2   1  -6   84.39    4.60
   2   1  -6   85.39    4.60
   2   1  -6   85.29    4.80
  -2  -1   6   88.99    4.30
  -2  -1   6   84.09    3.80
  -2  -1   6   87.49    4.80
  -2  -1   6   86.69    5.40
  -2  -1   6   96.69    5.00
   1   1  -6   45.60    3.20
   1   1  -6   53.09    3.40
   1   1  -6   48.00    3.40
   1   1  -6   45.10    3.20
  -1  -1   6   46.70    3.30
  -1  -1   6   53.09    3.70
  -1  -1   6   47.80    2.80
  -1  -1   6   50.29    3.40
   0   1  -6    6.30    1.60
   0   1  -6    5.00    1.40
   0   1  -6    2.70    1.30
   0   1  -6    4.20    1.40
   0  -1   6    4.10    1.10
   0  -1   6    1.50    1.50
   0  -1   6    3.20    1.30
   0  -1   6    3.90    1.20
  -1   1  -6   32.80    2.40
  -1   1  -6   40.40    3.00
  -1   1  -6   44.60    2.80
  -1   1  -6   42.20    3.00
  -1   1  -6   39.10    2.80
   1  -1   6   38.10    2.80
   1  -1   6   44.20    2.90
   1  -1   6   37.40    2.70
   1  -1   6   38.30    3.10
   1  -1   6   43.00    2.10
  -2   1  -6   79.59    4.40
  -2   1  -6   83.59    4.10
  -2   1  -6   77.69    4.30
  -2   1  -6   89.59    4.20
  -2   1  -6   85.69    3.70
   2  -1   6   85.39    4.20
   2  -1   6   85.89    4.50
   2  -1   6   81.29    4.00
   2  -1   6   81.39    4.30
   2  -1   6   87.19    3.10
  -3   1  -6    9.40    1.60
  -3   1  -6   10.70    1.50
  -3   1  -6    6.90    1.80
  -3   1  -6    9.00    1.60
  -3   1  -6    9.40    2.00
  -3   1  -6    9.30    1.90
   3  -1   6    9.30    2.10
   3  -1   6    8.10    1.60
   3  -1   6    7.50    1.40
   3  -1   6    7.70    0.90
   3  -1   6    7.60    1.60
  -4   1  -6   15.00    2.80
  -4   1  -6   13.00    2.20
  -4   1  -6   15.80    2.20
   4  -1   6   13.10    2.00
   4  -1   6   16.90    2.30
   4  -1   6   12.90    1.80
   4  -1   6   13.80    2.40
  -5   1  -6   37.40    3.70
  -5   1  -6   34.30    3.60
  -5   1  -6   31.50    4.10
  -5   1  -6   33.60    3.10
   5  -1   6   42.80    3.80
   5  -1   6   34.30    3.30
   5  -1   6   34.70    2.30
   5  -1   6   38.10    3.20
  -6   1  -6  201.68   10.00
  -6   1  -6  212.28    9.30
  -6   1  -6  222.98    8.80
  -6   1  -6  231.18    9.90
  -6   1  -6  228.38   10.90
   6  -1   6  216.28   11.30
   6  -1   6  215.08    8.50
   6  -1   6  235.08    9.50
   6  -1   6  226.08    9.50
   6  -1   6  210.98    7.50
   6  -1   6  218.78    8.90
  -7   1  -6   11.20    4.50
  -7   1  -6   13.90    2.80
  -7   1  -6   14.70    3.80
  -7   1  -6   10.00    4.10
  -7   1  -6    8.00    3.10
   7  -1   6   15.40    3.30
   7  -1   6   15.80    3.00
   7  -1   6   13.20    3.20
   7  -1   6   19.20    2.90
   7  -1   6    6.00    5.20
  -8   1  -6    9.40    5.60
  -8   1  -6    4.70    3.40
  -8   1  -6   -0.70    4.30
   8  -1   6    1.30    3.50
   8  -1   6    0.20    2.30
   8  -1   6    8.00    6.30
   8  -1   6   -1.00    3.20
  -9   1  -6    6.60    5.10
  -9   1  -6   15.00    7.30
  -9   1  -6    8.10    4.10
   9  -1   6    1.80    4.40
   9  -1   6   -6.40    5.00
   9  -1   6    0.30    3.80
   9  -1   6    8.70    4.50
   8   0  -6   17.50    8.70
   8   0  -6    2.40    3.30
   8   0  -6    6.40    4.10
   8   0  -6   -4.10    3.60
  -8   0   6    2.70    6.90
  -8   0   6   -4.90    3.00
  -8   0   6    0.10    3.60
   7   0  -6    7.10    3.20
   7   0  -6    7.10    6.10
   7   0  -6    6.50    3.20
   7   0  -6    6.90    2.90
  -7   0   6    7.80    4.50
  -7   0   6    9.50    3.20
  -7   0   6   -1.00    5.10
   6   0  -6   -0.40    2.50
   6   0  -6    3.00    2.20
   6   0  -6    3.10    2.50
  -6   0   6    4.10    2.80
  -6   0   6    3.80    4.20
  -6   0   6    4.50    3.60
  -6   0   6    2.10    2.20
  -6   0   6    8.70    2.70
   5   0  -6   -0.50    1.80
   5   0  -6    5.70    2.20
   5   0  -6    0.30    2.00
  -5   0   6    2.00    2.20
  -5   0   6   -0.70    2.60
  -5   0   6    1.20    3.40
  -5   0   6    0.80    2.00
  -5   0   6    4.90    2.30
   4   0  -6    2.80    1.60
   4   0  -6    3.80    1.80
   4   0  -6    6.40    1.90
  -4   0   6    1.30    2.70
  -4   0   6    5.70    1.90
  -4   0   6    5.00    2.60
  -4   0   6    3.80    2.10
  -4   0   6    6.10    0.80
  -4   0   6    1.40    1.80
   3   0  -6   37.20    3.20
   3   0  -6   36.20    3.10
   3   0  -6   37.70    3.00
  -3   0   6   34.60    2.90
  -3   0   6   35.50    2.10
  -3   0   6   37.80    3.10
   2   0  -6    3.80    1.40
   2   0  -6    3.20    1.50
   2   0  -6    3.60    1.50
  -2   0   6    4.00    1.60
  -2   0   6    5.30    1.10
  -2   0   6    4.10    1.50
  -2   0   6    4.40    1.40
  -2   0   6    4.10    1.30
   1   0  -6   52.89    3.20
   1   0  -6   44.80    3.00
   1   0  -6   47.80    3.10
   1   0  -6   48.60    3.10
  -1   0   6   50.09    2.70
  -1   0   6   47.30    3.10
  -1   0   6   47.90    3.30
  -1   0   6   49.50    3.40
  -1   0   6   49.30    2.80
   0   0  -6   13.30    1.90
   0   0   6   13.80    1.40
   0   0   6   19.40    2.20
   0   0   6   10.20    1.70
  -1   0  -6  501.65   17.00
  -1   0  -6  506.45   16.70
  -1   0  -6  491.05   17.00
  -1   0  -6  522.55   16.70
   1   0   6  453.15   16.60
   1   0   6  486.15   16.80
   1   0   6  514.25   17.00
   1   0   6  514.05   17.10
   1   0   6  517.85   16.10
   1   0   6  493.15   16.70
  -2   0  -6    6.90    1.20
  -2   0  -6    5.60    1.40
  -2   0  -6    7.30    1.70
  -2   0  -6    7.40    1.40
   2   0   6    8.70    1.40
   2   0   6    9.50    1.60
   2   0   6    8.50    1.60
   2   0   6    7.70    1.00
   2   0   6    9.10    1.80
  -3   0  -6   73.99    4.20
  -3   0  -6   76.09    4.30
  -3   0  -6   79.99    3.60
  -3   0  -6   77.39    3.90
  -3   0  -6   77.99    4.10
   3   0   6   72.09    4.40
   3   0   6   77.69    4.10
   3   0   6   89.39    4.20
   3   0   6   79.39    3.60
  -4   0  -6    4.40    2.00
  -4   0  -6    6.60    1.10
  -4   0  -6    4.90    1.80
  -4   0  -6    6.80    1.80
  -4   0  -6    4.10    1.40
   4   0   6    4.10    1.10
   4   0   6    5.10    1.80
   4   0   6    5.20    1.60
  -5   0  -6   31.20    3.70
  -5   0  -6   24.70    2.90
  -5   0  -6   25.40    3.20
  -5   0  -6   29.20    3.90
   5   0   6   32.50    4.20
   5   0   6   24.10    1.80
   5   0   6   28.30    3.40
   5   0   6   21.50    2.20
   5   0   6   30.50    3.20
  -6   0  -6   45.50    4.60
  -6   0  -6   50.99    5.30
  -6   0  -6   53.19    3.90
  -6   0  -6   49.70    4.60
  -6   0  -6   49.70    5.30
   6   0   6   52.69    4.70
   6   0   6   45.60    4.40
   6   0   6   59.49    4.60
   6   0   6   42.00    5.90
   6   0   6   42.00    3.50
  -7   0  -6   45.90    4.00
  -7   0  -6   45.90    5.20
  -7   0  -6   46.00    6.00
  -7   0  -6   56.49    6.30
  -7   0  -6   43.80    5.30
   7   0   6   47.60    5.00
   7   0   6   48.10    5.20
   7   0   6   51.49    4.70
   7   0   6   43.40    4.30
   7   0   6   45.60    7.10
  -8   0  -6   11.00    2.80
  -8   0  -6   13.60    5.30
  -8   0  -6   13.40    3.80
   8   0   6   13.20    4.00
   8   0   6    8.00    5.60
   8   0   6    8.10    3.40
   8   0   6    9.60    3.70
  -9   0  -6   10.60    5.30
  -9   0  -6   10.30    4.30
  -9   0  -6    9.60    6.60
   9   0   6   13.30    4.90
   9   0   6   16.00    4.70
   9   0   6    6.10    4.60
   9   0   6   15.70    4.80
   9   0   6   11.90    8.00
   8  -1  -6    8.10    3.80
   8  -1  -6   16.50    3.80
  -8   1   6    8.30    2.20
  -8   1   6   17.40    7.30
  -8   1   6    7.00    3.10
   7  -1  -6   18.00    3.60
   7  -1  -6   14.30    3.30
   7  -1  -6   16.10    7.00
   7  -1  -6   15.80    3.00
  -7   1   6   16.00    5.80
  -7   1   6   17.60    2.90
  -7   1   6   12.10    2.80
   6  -1  -6   -1.40    4.20
   6  -1  -6    0.80    2.20
   6  -1  -6    1.20    2.30
   6  -1  -6    4.50    4.80
   6  -1  -6    1.90    2.00
  -6   1   6   -5.20    3.70
  -6   1   6   -1.50    2.10
  -6   1   6   -2.90    3.40
  -6   1   6    1.70    3.50
  -6   1   6    0.90    2.50
   5  -1  -6   36.30    5.20
   5  -1  -6   36.90    3.60
   5  -1  -6   41.30    3.90
   5  -1  -6   36.40    3.40
  -5   1   6   38.60    5.20
  -5   1   6   36.50    3.50
  -5   1   6   44.60    6.10
  -5   1   6   30.10    3.60
   4  -1  -6    0.00    2.60
   4  -1  -6   -0.40    1.40
   4  -1  -6    1.40    1.60
   4  -1  -6   -0.80    1.60
   4  -1  -6   -0.60    1.30
  -4   1   6   -2.30    2.20
  -4   1   6   -2.60    2.10
  -4   1   6    1.30    1.70
  -4   1   6    0.90    0.90
  -4   1   6   -0.30    2.60
  -4   1   6   -1.50    1.50
   3  -1  -6   85.19    4.50
   3  -1  -6   73.29    4.70
   3  -1  -6   79.99    4.00
   3  -1  -6   80.19    3.90
   3  -1  -6   81.19    4.20
  -3   1   6   70.79    4.20
  -3   1   6   75.09    3.50
  -3   1   6   85.89    5.70
  -3   1   6   74.29    4.10
  -3   1   6   80.89    4.20
  -3   1   6   65.59    5.60
   2  -1  -6   -0.20    0.90
   2  -1  -6    0.90    1.20
   2  -1  -6    0.40    1.10
   2  -1  -6    0.40    1.40
  -2   1   6    1.50    0.90
  -2   1   6    1.30    1.40
  -2   1   6    1.30    1.00
  -2   1   6    1.00    1.20
  -2   1   6    2.30    1.30
   1  -1  -6   15.80    2.00
   1  -1  -6   14.60    2.00
   1  -1  -6   13.90    1.80
   1  -1  -6   14.20    1.80
   1  -1  -6   13.30    1.80
  -1   1   6   15.40    1.70
  -1   1   6   18.00    2.20
  -1   1   6   13.90    1.90
  -1   1   6   12.90    1.60
  -1   1   6   14.10    2.00
   0  -1  -6   70.39    3.40
   0  -1  -6   65.49    3.70
   0  -1  -6   66.89    3.60
   0  -1  -6   69.79    3.50
   0  -1  -6   69.89    3.10
   0   1   6   68.89    3.80
   0   1   6   73.19    3.80
   0   1   6   73.99    3.70
   0   1   6   64.99    3.40
   0   1   6   67.19    3.10
  -1  -1  -6  819.22   25.30
  -1  -1  -6  767.52   25.70
  -1  -1  -6  773.82   25.30
  -1  -1  -6  769.72   25.70
   1   1   6  776.92   25.50
   1   1   6  793.12   25.80
   1   1   6  768.02   25.30
   1   1   6  792.62   24.90
   1   1   6  788.82   25.70
   1   1   6  805.12   25.50
  -2  -1  -6   16.10    2.00
  -2  -1  -6   15.80    2.10
  -2  -1  -6   14.90    1.70
  -2  -1  -6   16.50    2.30
   2   1   6   15.30    1.30
   2   1   6   16.70    1.90
   2   1   6   17.00    2.30
   2   1   6   16.90    2.10
   2   1   6   14.40    1.80
  -3  -1  -6  511.15   17.80
  -3  -1  -6  519.65   17.00
  -3  -1  -6  512.75   17.80
  -3  -1  -6  517.05   18.00
   3   1   6  540.35   17.80
   3   1   6  539.35   17.60
   3   1   6  523.65   18.10
   3   1   6  528.95   17.20
   3   1   6  523.85   17.90
  -4  -1  -6    2.00    1.30
  -4  -1  -6    1.60    1.70
  -4  -1  -6    3.40    1.80
  -4  -1  -6   -1.20    0.70
   4   1   6    0.70    1.50
   4   1   6   -0.60    0.80
   4   1   6   -0.20    1.30
   4   1   6    2.80    1.40
   4   1   6   -0.80    0.70
   4   1   6    0.50    1.50
  -5  -1  -6  650.03   23.10
  -5  -1  -6  660.63   22.90
  -5  -1  -6  671.53   22.60
   5   1   6  686.33   23.00
   5   1   6  663.63   21.70
   5   1   6  683.83   22.70
   5   1   6  636.54   22.70
   5   1   6  659.53   23.20
   5   1   6  693.73   22.80
  -6  -1  -6  192.68    9.60
  -6  -1  -6  202.68    8.50
  -6  -1  -6  199.18    9.10
  -6  -1  -6  198.18    9.30
  -6  -1  -6  198.68    9.10
   6   1   6  197.98    9.80
   6   1   6  190.38    7.90
   6   1   6  210.38    9.00
   6   1   6  194.78    8.60
   6   1   6  207.68    9.20
   6   1   6  204.18    8.70
  -7  -1  -6   -3.30    3.20
  -7  -1  -6    1.40    2.10
  -7  -1  -6   -5.90    2.70
  -7  -1  -6    0.20    2.80
   7   1   6    1.10    2.30
   7   1   6    1.90    2.40
   7   1   6    0.20    3.80
   7   1   6   -1.10    2.50
   7   1   6    5.90    2.60
   7   1   6    0.30    2.20
  -8  -1  -6   11.00    4.80
  -8  -1  -6   17.60    3.90
  -8  -1  -6   16.80    5.10
  -8  -1  -6   14.90    3.10
   8   1   6   15.40    5.70
   8   1   6    8.50    3.50
   8   1   6    6.20    3.10
   8   1   6    9.40    3.50
   8   1   6   10.60    3.90
  -9  -1  -6   -1.00    3.00
  -9  -1  -6    4.00    4.90
  -9  -1  -6   -5.00    4.40
  -9  -1  -6    3.30    5.70
   9   1   6    5.30    4.60
   9   1   6    2.00    3.80
   9   1   6    1.80    6.70
   9   1   6   -3.60    4.00
   9   1   6   -2.10    4.20
   9   1   6    0.60    3.40
   8  -2  -6    6.00    2.60
   8  -2  -6    5.90    3.90
   8  -2  -6    4.20    2.90
  -8   2   6    4.60    3.20
  -8   2   6    5.30    7.30
   7  -2  -6    1.70    7.10
   7  -2  -6    1.50    2.50
   7  -2  -6    7.00    2.30
   7  -2  -6   -0.80    2.80
  -7   2   6    6.20    5.50
   6  -2  -6    3.50    5.80
   6  -2  -6    5.90    1.90
   6  -2  -6    7.20    2.30
   6  -2  -6    4.10    4.00
   6  -2  -6    7.00    1.40
   6  -2  -6    5.50    2.60
  -6   2   6    6.50    4.50
  -6   2   6    6.40    1.80
  -6   2   6    0.10    2.20
   5  -2  -6   45.40    3.40
   5  -2  -6   46.90    5.30
   5  -2  -6   36.60    3.40
   5  -2  -6   45.80    4.20
   5  -2  -6   50.19    4.70
   5  -2  -6   45.00    2.70
  -5   2   6   36.50    3.80
  -5   2   6   40.40    3.70
  -5   2   6   47.10    6.40
   4  -2  -6   22.50    2.10
   4  -2  -6   21.20    2.40
   4  -2  -6   22.80    3.30
   4  -2  -6   26.90    3.20
   4  -2  -6   21.80    3.60
   4  -2  -6   21.50    2.50
  -4   2   6   22.00    2.30
  -4   2   6   26.90    2.80
  -4   2   6   29.00    4.60
  -4   2   6   25.00    3.00
  -4   2   6   26.30    3.70
  -4   2   6   19.40    2.40
   3  -2  -6   16.80    2.20
   3  -2  -6   19.30    2.30
   3  -2  -6   17.90    2.90
   3  -2  -6   22.00    2.70
   3  -2  -6   16.50    1.90
   3  -2  -6   16.30    2.20
  -3   2   6   19.20    2.40
  -3   2   6   19.10    2.60
  -3   2   6   18.90    2.40
  -3   2   6   19.20    2.10
  -3   2   6   13.90    3.00
   2  -2  -6   13.40    1.90
   2  -2  -6   15.30    2.10
   2  -2  -6   14.60    1.80
   2  -2  -6   18.50    2.40
   2  -2  -6   15.70    1.80
   2  -2  -6   14.80    2.40
  -2   2   6   18.70    2.90
  -2   2   6   13.80    2.30
  -2   2   6   17.10    2.10
  -2   2   6   14.50    1.90
  -2   2   6   14.20    2.00
  -2   2   6   15.00    1.90
   1  -2  -6    0.90    1.00
   1  -2  -6    0.60    1.00
   1  -2  -6    2.00    1.20
   1  -2  -6    1.60    1.20
   1  -2  -6    2.50    1.10
   1  -2  -6    2.70    1.20
  -1   2   6    1.90    1.50
  -1   2   6    3.00    1.30
  -1   2   6    2.20    1.10
  -1   2   6    1.70    1.00
  -1   2   6    2.60    1.10
   0  -2  -6   79.09    4.20
   0  -2  -6   82.19    3.60
   0  -2  -6   90.89    4.20
   0  -2  -6   84.29    4.20
   0  -2  -6   88.79    4.00
   0  -2  -6   86.39    3.80
   0   2   6   87.69    4.00
   0   2   6   82.69    4.30
   0   2   6   86.19    4.40
   0   2   6   88.29    3.80
  -1  -2  -6   22.10    2.30
  -1  -2  -6   21.40    2.10
  -1  -2  -6   21.50    2.50
  -1  -2  -6   20.30    2.20
  -1  -2  -6   25.30    2.00
   1   2   6   24.30    1.90
   1   2   6   23.60    2.20
   1   2   6   23.30    2.40
   1   2   6   26.70    2.50
   1   2   6   23.90    2.60
   1   2   6   25.80    2.00
   1   2   6   24.20    1.70
  -2  -2  -6   16.50    1.80
  -2  -2  -6   14.50    2.20
  -2  -2  -6   15.10    2.20
  -2  -2  -6   18.10    2.30
  -2  -2  -6   14.30    2.00
   2   2   6   13.60    2.10
   2   2   6   15.00    1.80
   2   2   6   15.60    2.20
   2   2   6   17.40    1.50
   2   2   6   15.10    2.10
  -3  -2  -6   50.19    3.40
  -3  -2  -6   44.10    2.60
  -3  -2  -6   49.60    3.70
  -3  -2  -6   45.20    3.40
   3   2   6   49.80    3.30
   3   2   6   51.19    3.10
   3   2   6   47.50    3.50
   3   2   6   51.79    3.80
  -4  -2  -6  226.28    9.50
  -4  -2  -6  241.98    8.20
  -4  -2  -6  235.98    9.80
  -4  -2  -6  239.38    9.50
   4   2   6  238.88    9.20
   4   2   6  235.78    9.00
   4   2   6  250.47    9.30
   4   2   6  232.58    9.70
   4   2   6  237.98    9.50
  -5  -2  -6    3.10    1.90
  -5  -2  -6    1.00    2.20
  -5  -2  -6    2.60    2.30
   5   2   6    0.90    2.00
   5   2   6    1.50    1.80
   5   2   6   -0.50    1.50
   5   2   6    1.40    1.80
  -6  -2  -6   89.99    6.10
  -6  -2  -6   86.69    5.50
  -6  -2  -6   97.29    5.80
  -6  -2  -6   88.19    6.60
   6   2   6  102.09    5.90
   6   2   6   93.49    6.20
   6   2   6   97.29    5.90
   6   2   6   94.29    5.50
   6   2   6  100.29    6.40
  -7  -2  -6    6.50    3.20
  -7  -2  -6    6.10    3.10
  -7  -2  -6    0.30    2.40
  -7  -2  -6    6.80    3.20
   7   2   6    2.10    3.60
   7   2   6    3.90    3.40
   7   2   6    5.00    2.80
   7   2   6    6.90    2.80
   7   2   6    8.20    2.80
  -8  -2  -6    2.90    4.00
  -8  -2  -6   -1.20    2.80
  -8  -2  -6    5.50    4.00
   8   2   6   -1.30    3.90
   8   2   6   -1.10    2.80
   8   2   6   -2.60    2.90
   8   2   6    0.80    3.20
   8   2   6    3.40    4.40
  -9  -2  -6   -2.40    3.40
  -9  -2  -6    1.30    4.70
  -9  -2  -6    2.90    4.70
  -9  -2  -6    8.80    5.00
   9   2   6   -3.00    3.90
   9   2   6   -3.20    3.70
   9   2   6    6.70    3.90
   9   2   6   -0.20    5.00
   9   2   6    9.60    4.30
   7  -3  -6    6.80    1.90
   7  -3  -6    9.10    5.30
   7  -3  -6    9.10    1.90
   7  -3  -6    9.30    2.10
   7  -3  -6    9.90    3.40
  -7   3   6   10.70    5.80
  -7   3   6    9.60    3.60
   6  -3  -6   10.10    5.80
   6  -3  -6    1.90    1.80
   6  -3  -6   -0.90    1.70
   6  -3  -6   -2.60    4.30
   6  -3  -6    2.60    2.80
  -6   3   6   -0.30    2.30
  -6   3   6    5.60    4.60
   5  -3  -6   26.80    3.50
   5  -3  -6   27.20    2.80
   5  -3  -6   21.60    2.80
   5  -3  -6   27.50    3.90
   5  -3  -6   24.40    2.80
   5  -3  -6   30.20    5.00
   5  -3  -6   28.40    5.40
  -5   3   6   28.90    3.60
  -5   3   6   29.90    2.20
  -5   3   6   24.90    2.30
  -5   3   6   28.60    5.60
   4  -3  -6   27.30    2.70
   4  -3  -6   29.70    3.60
   4  -3  -6   29.30    2.50
   4  -3  -6   27.20    2.80
   4  -3  -6   27.80    3.80
   4  -3  -6   32.70    4.50
  -4   3   6   26.50    2.60
  -4   3   6   23.20    4.20
  -4   3   6   28.80    3.20
  -4   3   6   29.00    2.90
   3  -3  -6   97.19    5.30
   3  -3  -6  104.29    4.80
   3  -3  -6  103.19    5.50
   3  -3  -6  104.39    4.70
   3  -3  -6  102.99    6.00
   3  -3  -6   97.09    4.50
  -3   3   6  100.99    6.40
  -3   3   6   96.99    4.70
  -3   3   6  107.79    5.00
  -3   3   6   95.69    5.00
  -3   3   6   96.19    4.30
   2  -3  -6    0.10    1.30
   2  -3  -6   -0.50    1.10
   2  -3  -6    0.20    1.10
   2  -3  -6    0.80    1.60
   2  -3  -6    1.00    1.50
  -2   3   6    0.90    1.70
  -2   3   6   -1.10    1.20
  -2   3   6   -0.60    1.30
  -2   3   6    2.70    1.30
   1  -3  -6   54.19    3.20
   1  -3  -6   53.49    2.90
   1  -3  -6   52.49    3.70
   1  -3  -6   53.89    3.40
   1  -3  -6   58.29    3.30
   1  -3  -6   55.29    3.30
  -1   3   6   55.99    3.60
  -1   3   6   56.69    3.50
  -1   3   6   53.09    3.00
  -1   3   6   56.49    3.50
  -1   3   6   56.69    3.40
   0  -3  -6  122.89    5.50
   0  -3  -6  121.69    5.70
   0  -3  -6  130.39    5.00
   0  -3  -6  126.49    5.40
   0  -3  -6  133.39    5.80
   0   3   6  129.19    5.30
   0   3   6  126.29    5.50
   0   3   6  124.79    5.70
   0   3   6  120.59    5.00
   0   3   6  123.19    5.20
   0   3   6  119.69    5.40
  -1  -3  -6  422.06   14.90
  -1  -3  -6  408.76   15.00
  -1  -3  -6  427.66   15.00
  -1  -3  -6  431.86   14.50
  -1  -3  -6  429.26   15.30
   1   3   6  451.95   15.40
   1   3   6  421.06   14.30
   1   3   6  440.26   14.40
   1   3   6  443.66   15.10
   1   3   6  447.36   15.00
   1   3   6  435.76   14.40
  -2  -3  -6   16.90    2.10
  -2  -3  -6   17.10    2.10
  -2  -3  -6   17.80    2.20
  -2  -3  -6   18.80    2.60
  -2  -3  -6   14.10    2.10
   2   3   6   20.80    2.70
   2   3   6   17.50    1.90
   2   3   6   17.20    2.30
   2   3   6   14.40    2.10
  -3  -3  -6  191.48    7.40
  -3  -3  -6  187.98    8.20
  -3  -3  -6  201.18    8.00
  -3  -3  -6  200.98    8.60
  -3  -3  -6  191.28    7.90
   3   3   6  198.28    7.90
   3   3   6  196.48    8.60
   3   3   6  202.98    7.70
   3   3   6  203.28    8.30
  -4  -3  -6  162.98    6.20
  -4  -3  -6  168.88    7.10
  -4  -3  -6  156.98    8.60
  -4  -3  -6  162.98    7.50
  -4  -3  -6  155.28    7.40
   4   3   6  173.38    7.20
   4   3   6  167.98    7.00
   4   3   6  158.98    7.50
   4   3   6  165.28    7.90
  -5  -3  -6  249.68   10.80
  -5  -3  -6  262.97   10.60
  -5  -3  -6  238.98   10.60
  -5  -3  -6  250.97    8.60
   5   3   6  249.18   10.50
   5   3   6  247.18   10.00
   5   3   6  253.67    9.90
   5   3   6  255.57   10.90
  -6  -3  -6   53.29    4.20
  -6  -3  -6   56.29    4.90
  -6  -3  -6   46.20    5.30
   6   3   6   53.09    4.40
   6   3   6   53.89    4.90
   6   3   6   43.10    5.30
   6   3   6   52.29    4.30
  -7  -3  -6   39.90    4.90
  -7  -3  -6   47.10    5.10
  -7  -3  -6   36.80    5.10
   7   3   6   42.00    5.00
   7   3   6   35.30    4.40
   7   3   6   39.80    5.10
   7   3   6   46.80    6.20
  -8  -3  -6    5.60    4.30
  -8  -3  -6    4.50    3.40
  -8  -3  -6    2.00    3.80
   8   3   6    4.30    3.60
   8   3   6   -0.60    3.20
  -9  -3  -6   12.60    5.00
  -9  -3  -6   10.40    4.30
  -9  -3  -6   16.70    5.80
   9   3   6   23.40    5.80
   9   3   6   11.90    4.70
   9   3   6   10.50    4.40
   9   3   6    2.70    4.10
   7  -4  -6    6.10    2.70
   7  -4  -6    1.40    3.70
   7  -4  -6   -7.60    6.10
  -7   4   6    1.80    3.40
  -7   4   6    7.20    6.40
   6  -4  -6    8.70    3.20
   6  -4  -6   10.20    2.50
   6  -4  -6   11.70    4.70
   6  -4  -6   14.90    7.00
   6  -4  -6    5.90    5.40
  -6   4   6   19.20    5.60
  -6   4   6    6.30    2.60
   5  -4  -6   12.30    3.80
   5  -4  -6    4.10    5.40
   5  -4  -6    8.00    1.50
   5  -4  -6    8.20    4.30
   5  -4  -6    6.70    2.70
   5  -4  -6    6.20    2.20
  -5   4   6    5.90    2.50
  -5   4   6    5.90    3.90
   4  -4  -6   25.10    2.40
   4  -4  -6   23.40    3.90
   4  -4  -6   25.60    2.90
   4  -4  -6   31.00    3.90
   4  -4  -6   21.60    4.90
   4  -4  -6   26.40    3.70
   4  -4  -6   28.30    3.10
  -4   4   6   25.90    2.00
  -4   4   6   24.80    3.10
  -4   4   6   21.70    2.50
  -4   4   6   38.30    5.20
   3  -4  -6   14.90    2.20
   3  -4  -6   10.50    2.50
   3  -4  -6   15.10    1.90
   3  -4  -6   11.00    2.90
   3  -4  -6   10.80    2.80
   3  -4  -6   16.10    2.30
  -3   4   6   14.80    2.10
  -3   4   6   14.00    3.00
  -3   4   6    9.70    2.20
  -3   4   6   14.00    1.90
  -3   4   6   11.70    2.20
   2  -4  -6   -0.20    1.60
   2  -4  -6   -0.40    1.10
   2  -4  -6   -1.20    1.30
   2  -4  -6    0.10    1.50
   2  -4  -6    0.30    1.00
   2  -4  -6   -0.10    1.70
  -2   4   6   -2.10    1.60
  -2   4   6    0.10    1.90
  -2   4   6    0.70    1.30
  -2   4   6   -1.30    1.60
  -2   4   6    1.20    1.60
  -2   4   6   -1.00    1.30
   1  -4  -6    6.50    1.60
   1  -4  -6    7.30    1.80
   1  -4  -6    9.60    2.10
   1  -4  -6    9.90    1.30
   1  -4  -6    9.60    2.10
  -1   4   6   10.30    1.90
  -1   4   6   12.00    2.20
  -1   4   6   10.80    1.70
  -1   4   6   10.50    1.80
  -1   4   6   10.20    2.30
  -1   4   6    7.90    1.90
   0  -4  -6   39.70    2.90
   0  -4  -6   35.50    3.40
   0  -4  -6   43.20    2.50
   0  -4  -6   41.50    3.00
   0  -4  -6   35.60    3.30
   0   4   6   41.70    2.60
   0   4   6   41.10    3.20
   0   4   6   43.50    3.10
   0   4   6   41.10    3.40
   0   4   6   42.40    3.30
  -1  -4  -6   13.70    2.20
  -1  -4  -6   10.80    2.00
  -1  -4  -6   14.20    1.90
  -1  -4  -6   16.40    2.40
  -1  -4  -6   22.80    3.00
   1   4   6   15.00    2.50
   1   4   6   16.90    2.00
   1   4   6   14.90    1.60
   1   4   6   16.70    2.40
   1   4   6   13.80    1.70
   1   4   6   20.20    2.70
  -2  -4  -6  151.28    7.20
  -2  -4  -6  154.98    6.60
  -2  -4  -6  140.19    6.80
  -2  -4  -6  143.99    6.50
  -2  -4  -6  141.49    6.20
   2   4   6  152.88    6.70
   2   4   6  157.58    7.20
   2   4   6  159.38    5.90
   2   4   6  147.29    6.90
  -3  -4  -6   19.30    2.40
  -3  -4  -6   26.60    3.70
  -3  -4  -6   21.20    2.90
  -3  -4  -6   19.60    2.70
  -3  -4  -6   22.30    3.10
   3   4   6   26.40    3.60
   3   4   6   27.80    3.30
   3   4   6   17.70    2.80
   3   4   6   24.70    2.40
  -4  -4  -6   28.70    3.80
  -4  -4  -6   28.50    2.70
  -4  -4  -6   31.30    4.30
  -4  -4  -6   38.40    3.90
  -4  -4  -6   30.50    3.10
   4   4   6   34.30    3.50
   4   4   6   36.50    3.90
   4   4   6   36.00    4.80
   4   4   6   32.00    3.00
  -5  -4  -6    7.20    3.00
  -5  -4  -6   13.10    1.90
  -5  -4  -6   13.50    2.60
  -5  -4  -6   10.80    2.90
   5   4   6   12.60    4.50
   5   4   6    8.40    2.80
   5   4   6   13.80    2.60
   5   4   6   13.40    2.70
  -6  -4  -6   31.20    2.30
  -6  -4  -6   22.40    4.00
  -6  -4  -6   25.90    3.40
  -6  -4  -6   31.90    4.50
   6   4   6   29.80    4.20
   6   4   6   29.70    4.10
   6   4   6   32.40    5.10
   6   4   6   25.60    3.30
  -7  -4  -6    8.30    2.80
  -7  -4  -6   11.70    4.10
  -7  -4  -6   13.10    3.90
   7   4   6    6.20    3.00
   7   4   6   15.10    3.40
   7   4   6   10.50    4.20
   7   4   6   13.60    3.80
  -8  -4  -6   14.50    4.10
  -8  -4  -6   10.30    3.50
  -8  -4  -6    1.60    4.70
   8   4   6   16.30    4.30
   8   4   6    9.50    3.70
   8   4   6   14.70    5.30
   8   4   6   12.40    4.30
  -9  -4  -6   12.30    4.90
   9   4   6    1.50    6.60
   9   4   6    6.00    4.80
   9   4   6    6.30    4.80
   9   4   6    6.60    5.00
   7  -5  -6    1.60    4.30
   7  -5  -6   -3.80    4.60
   7  -5  -6   -0.70    3.40
  -7   5   6   -2.80    3.10
   6  -5  -6   -4.90    5.20
   6  -5  -6    4.50    3.10
   6  -5  -6   -1.00    3.50
  -6   5   6    1.70    2.90
   5  -5  -6    0.50    3.00
   5  -5  -6    5.50    1.50
   5  -5  -6    4.50    2.10
   5  -5  -6    5.00    2.60
   5  -5  -6    8.40    4.50
   5  -5  -6   -3.10    3.90
   5  -5  -6    4.50    6.10
  -5   5   6    2.00    2.50
   4  -5  -6    1.80    3.30
   4  -5  -6    1.60    4.40
   4  -5  -6    2.20    1.40
   4  -5  -6   -1.50    2.90
   4  -5  -6    2.90    2.30
   4  -5  -6    0.70    2.70
   4  -5  -6   -0.10    1.80
  -4   5   6    0.50    1.90
  -4   5   6    1.20    0.90
  -4   5   6    0.40    1.20
   3  -5  -6    4.10    2.60
   3  -5  -6    1.30    3.90
   3  -5  -6    5.00    1.60
   3  -5  -6    4.50    2.00
   3  -5  -6    5.00    2.70
   3  -5  -6    2.60    1.30
   3  -5  -6    5.50    2.10
  -3   5   6   -1.10    2.30
  -3   5   6    3.90    1.80
  -3   5   6    6.40    2.90
  -3   5   6    6.70    2.00
   2  -5  -6    1.50    1.90
   2  -5  -6    1.60    1.90
   2  -5  -6    0.50    2.00
   2  -5  -6    1.30    1.00
   2  -5  -6    2.20    3.20
   2  -5  -6    1.60    1.40
  -2   5   6    0.10    2.00
  -2   5   6    2.20    1.50
  -2   5   6    2.00    2.40
  -2   5   6    0.90    2.10
   1  -5  -6    1.90    1.90
   1  -5  -6   -3.10    1.40
   1  -5  -6   -1.50    1.80
   1  -5  -6    0.70    1.50
   1  -5  -6    1.10    0.90
  -1   5   6    1.70    1.40
  -1   5   6   -0.30    1.50
  -1   5   6   -4.10    1.80
  -1   5   6    0.40    2.20
  -1   5   6   -3.10    1.80
   0  -5  -6   72.89    3.40
   0  -5  -6   74.19    4.50
   0  -5  -6   81.19    5.00
   0  -5  -6   76.79    4.50
   0  -5  -6   70.79    4.80
   0   5   6   80.59    5.10
   0   5   6   72.29    4.50
   0   5   6   69.19    3.80
   0   5   6   78.29    4.70
   0   5   6   80.49    4.60
  -1  -5  -6   12.30    1.70
  -1  -5  -6   15.80    2.50
  -1  -5  -6   16.20    2.70
  -1  -5  -6    9.20    2.60
   1   5   6   14.80    2.00
   1   5   6   12.50    2.80
   1   5   6   15.40    2.30
   1   5   6   19.20    2.90
   1   5   6   14.60    1.60
   1   5   6   11.10    2.50
  -2  -5  -6    1.40    2.40
  -2  -5  -6    1.90    1.70
  -2  -5  -6   -1.20    1.60
  -2  -5  -6   -1.10    1.40
   2   5   6    2.90    2.10
   2   5   6   -0.40    1.90
   2   5   6    4.50    2.50
   2   5   6    2.10    1.10
  -3  -5  -6   43.20    5.50
  -3  -5  -6   34.70    3.60
  -3  -5  -6   39.70    4.10
  -3  -5  -6   39.70    3.40
   3   5   6   34.20    4.80
   3   5   6   42.50    3.70
   3   5   6   39.90    3.00
   3   5   6   37.50    4.30
  -4  -5  -6    0.10    1.70
  -4  -5  -6   -0.80    2.40
  -4  -5  -6    1.30    2.80
   4   5   6    1.00    1.40
   4   5   6    3.10    2.30
   4   5   6    1.30    2.60
   4   5   6    1.60    3.00
  -5  -5  -6   33.40    3.80
  -5  -5  -6   37.00    5.40
  -5  -5  -6   36.30    4.70
   5   5   6   29.40    5.20
   5   5   6   32.80    4.10
   5   5   6   34.30    3.70
   5   5   6   35.80    4.60
  -6  -5  -6    4.70    3.30
  -6  -5  -6    2.40    2.50
  -6  -5  -6    6.70    1.90
  -6  -5  -6    5.80    1.90
  -6  -5  -6    5.80    3.60
   6   5   6    7.50    3.50
   6   5   6    4.90    2.60
   6   5   6   -0.60    3.80
   6   5   6    3.70    2.70
  -7  -5  -6   40.30    3.10
  -7  -5  -6   32.10    6.10
  -7  -5  -6   35.90    3.10
  -7  -5  -6   46.90    6.30
   7   5   6   34.60    4.50
   7   5   6   48.80    6.30
   7   5   6   47.60    5.70
  -8  -5  -6    2.70    4.30
   8   5   6   -6.50    5.60
   8   5   6   -8.10    3.60
   8   5   6    2.60    4.40
   8   5   6    7.90    4.20
  -9  -5  -6    1.50    5.40
   9   5   6    5.00    5.00
   9   5   6    9.30    8.00
   9   5   6    4.30    5.70
   9   5   6    1.70    4.80
   6  -6  -6   -1.00    3.50
   6  -6  -6    6.00    4.30
   6  -6  -6    4.30    3.90
   5  -6  -6   11.90    2.00
   5  -6  -6   17.00    3.10
   5  -6  -6   10.30    4.40
   5  -6  -6    9.90    3.50
   5  -6  -6   12.60    5.00
   5  -6  -6   18.40    2.20
  -5   6   6   11.90    3.30
   4  -6  -6    0.20    1.50
   4  -6  -6    1.00    4.00
   4  -6  -6    0.10    1.50
   4  -6  -6    2.00    3.40
   4  -6  -6    3.70    3.20
   4  -6  -6    2.50    2.20
   4  -6  -6    4.20    5.90
   4  -6  -6    4.10    4.90
  -4   6   6   -1.50    1.90
  -4   6   6   -4.40    3.50
   3  -6  -6    2.20    4.80
   3  -6  -6   10.40    2.80
   3  -6  -6    6.80    2.00
   3  -6  -6    7.60    2.50
   3  -6  -6    6.80    4.20
   3  -6  -6    5.40    3.00
   3  -6  -6    7.40    1.30
  -3   6   6    9.20    2.30
  -3   6   6    6.90    3.10
  -3   6   6    8.20    2.20
   2  -6  -6   17.50    5.00
   2  -6  -6   17.50    1.80
   2  -6  -6   20.50    4.10
   2  -6  -6   19.40    3.40
   2  -6  -6   21.40    3.00
   2  -6  -6   19.80    3.00
   2  -6  -6   17.00    3.40
  -2   6   6   22.30    3.10
  -2   6   6   15.80    3.20
  -2   6   6   18.70    3.60
  -2   6   6   18.90    2.60
   1  -6  -6    2.90    1.10
   1  -6  -6    1.90    2.30
   1  -6  -6   -3.60    2.00
   1  -6  -6    0.00    2.50
   1  -6  -6   -0.70    1.70
   1  -6  -6   -1.50    3.60
  -1   6   6   -0.20    1.30
  -1   6   6   -0.20    2.20
  -1   6   6    2.50    1.90
  -1   6   6    6.00    2.60
  -1   6   6    2.80    2.40
   0  -6  -6   24.50    3.30
   0  -6  -6   22.90    2.10
   0  -6  -6   25.00    3.40
   0  -6  -6   19.60    3.90
   0  -6  -6   15.50    3.20
   0  -6  -6   23.30    3.40
   0   6   6   21.30    3.30
   0   6   6   26.90    3.40
   0   6   6   24.30    3.60
   0   6   6   28.00    2.50
   0   6   6   29.70    3.60
  -1  -6  -6   -1.40    1.90
  -1  -6  -6    0.30    2.50
  -1  -6  -6   -1.80    1.30
  -1  -6  -6   -1.60    1.80
   1   6   6   -1.00    1.80
   1   6   6   -0.70    1.30
   1   6   6   -2.80    2.20
   1   6   6    0.30    2.10
   1   6   6    2.20    2.70
   1   6   6    1.20    0.90
  -2  -6  -6   14.00    2.90
  -2  -6  -6    9.20    2.50
  -2  -6  -6    9.80    3.20
   2   6   6    8.70    3.10
   2   6   6   11.00    1.50
   2   6   6   15.20    2.90
   2   6   6   12.30    3.10
  -3  -6  -6    3.50    2.10
  -3  -6  -6    3.80    2.50
  -3  -6  -6    2.40    3.10
   3   6   6    0.10    2.80
   3   6   6    8.10    1.60
   3   6   6    1.50    2.60
   3   6   6   11.80    3.30
  -4  -6  -6    6.90    2.50
  -4  -6  -6    0.40    3.70
  -4  -6  -6    6.60    3.10
   4   6   6    3.90    3.20
   4   6   6    5.80    2.00
   4   6   6    5.20    3.70
   4   6   6    3.90    2.80
  -5  -6  -6    9.30    3.00
  -5  -6  -6    9.00    3.50
  -5  -6  -6    1.70    4.00
   5   6   6    8.40    2.90
   5   6   6   12.70    4.20
   5   6   6   14.20    4.00
   5   6   6   12.60    2.60
  -6  -6  -6    0.10    3.60
  -6  -6  -6   -0.40    4.40
  -6  -6  -6    0.60    2.90
   6   6   6   -3.60    4.40
   6   6   6   -1.40    2.40
   6   6   6    4.50    4.40
   6   6   6    4.30    3.20
  -7  -6  -6   -2.50    4.00
  -7  -6  -6   -3.90    3.40
  -7  -6  -6    6.10    2.60
   7   6   6    8.70    3.70
   7   6   6    1.40    3.60
   7   6   6   -0.80    5.50
   7   6   6    3.10    4.90
  -8  -6  -6    2.30    2.20
  -8  -6  -6   -0.60    5.10
  -8  -6  -6    0.20    2.10
   8   6   6    5.60    7.10
   8   6   6    1.40    5.60
   8   6   6    3.10    4.40
   8   6   6    7.80    4.70
   5  -7  -6    1.00    1.60
   5  -7  -6    3.60    2.00
   5  -7  -6   -6.20    7.80
   5  -7  -6   -3.10    4.10
   5  -7  -6   -3.40    1.80
   5  -7  -6    5.40    4.70
   5  -7  -6    0.40    2.40
  -5   7   6   -3.50    2.80
   4  -7  -6    1.90    4.80
   4  -7  -6    8.40    6.40
   4  -7  -6    6.90    4.40
   4  -7  -6   -0.20    1.90
   4  -7  -6    4.30    2.60
   4  -7  -6    0.20    3.70
   4  -7  -6    0.00    1.20
   4  -7  -6   -2.10    6.50
  -4   7   6    2.50    2.40
  -4   7   6    6.70    4.60
   3  -7  -6    0.80    2.10
   3  -7  -6    2.20    5.00
   3  -7  -6   -0.80    3.40
   3  -7  -6   -0.90    5.90
   3  -7  -6    6.30    3.50
   3  -7  -6    5.00    2.80
  -3   7   6    3.20    2.40
  -3   7   6    0.30    2.00
  -3   7   6   -2.70    3.50
   2  -7  -6    8.90    4.80
   2  -7  -6   -1.10    2.80
   2  -7  -6    6.80    2.40
   2  -7  -6    3.80    2.80
   2  -7  -6    1.60    4.90
  -2   7   6    4.80    3.10
  -2   7   6    8.20    2.90
  -2   7   6    2.70    2.00
  -2   7   6   -1.40    3.40
  -2   7   6    6.70    3.70
   1  -7  -6    3.50    2.80
   1  -7  -6    8.90    3.60
   1  -7  -6    3.90    2.40
   1  -7  -6    5.70    3.10
   1  -7  -6   -0.40    4.20
  -1   7   6    3.70    3.00
  -1   7   6    6.20    2.90
  -1   7   6    7.30    2.80
  -1   7   6    3.40    2.80
  -1   7   6    6.80    2.00
   0  -7  -6   -1.20    2.60
   0  -7  -6    0.30    2.60
   0  -7  -6    3.80    2.90
   0  -7  -6   -1.60    2.30
   0  -7  -6   -1.10    3.50
   0   7   6    0.10    2.50
   0   7   6    2.50    3.00
   0   7   6   -0.70    2.60
   0   7   6   -3.40    2.80
   0   7   6   -0.80    1.40
  -1  -7  -6   -3.90    2.40
  -1  -7  -6    3.50    2.10
  -1  -7  -6   -1.20    3.00
  -1  -7  -6    5.10    3.20
  -1  -7  -6    1.00    2.30
   1   7   6   -0.40    1.60
   1   7   6    2.20    2.90
   1   7   6   -0.30    0.90
   1   7   6    2.30    3.10
   1   7   6    2.10    2.50
   1   7   6    2.90    3.00
  -2  -7  -6   -0.80    2.30
  -2  -7  -6    2.50    2.70
  -2  -7  -6    2.50    3.30
  -2  -7  -6    1.30    2.80
   2   7   6   -0.80    2.70
   2   7   6   -1.40    3.10
   2   7   6    2.10    3.30
   2   7   6    2.70    1.20
  -3  -7  -6    6.90    4.20
  -3  -7  -6   -0.80    2.30
  -3  -7  -6    1.70    2.30
  -3  -7  -6   -0.30    3.10
   3   7   6    3.30    4.00
   3   7   6    0.40    3.10
   3   7   6   -3.60    3.30
   3   7   6    0.20    1.50
  -4  -7  -6    0.70    2.80
  -4  -7  -6   -3.70    3.40
  -4  -7  -6    7.90    4.90
  -4  -7  -6    3.80    1.60
   4   7   6    7.20    4.10
   4   7   6    6.70    3.50
   4   7   6    6.20    2.00
   4   7   6    7.70    4.40
  -5  -7  -6   -2.10    3.90
  -5  -7  -6   -6.50    4.30
  -5  -7  -6    2.40    3.00
   5   7   6    2.40    4.20
   5   7   6   -0.70    2.10
   5   7   6   -1.40    4.90
   5   7   6    4.10    3.30
  -6  -7  -6   21.20    5.10
  -6  -7  -6    8.30    5.50
  -6  -7  -6    8.10    3.90
   6   7   6   14.60    3.40
   6   7   6    6.40    4.20
   6   7   6   16.20    5.80
   6   7   6   13.20    6.20
  -7  -7  -6    4.70    5.40
  -7  -7  -6    1.50    3.40
  -7  -7  -6    2.90    4.00
   7   7   6    0.10    6.80
   7   7   6    5.30    7.10
   7   7   6   -1.30    4.40
   7   7   6    4.00    5.80
   4  -8  -6    6.30    2.60
   4  -8  -6    8.70    8.10
   4  -8  -6    7.30    3.30
   4  -8  -6    2.70    5.20
   4  -8  -6    3.80    4.60
  -4   8   6    7.70    5.70
  -4   8   6    0.90    2.80
   3  -8  -6   -2.60    3.50
   3  -8  -6    7.10    4.60
   3  -8  -6   -0.40    7.40
   3  -8  -6    6.70    4.20
   3  -8  -6    5.50    2.80
   3  -8  -6   10.10    6.70
  -3   8   6    0.70    4.50
  -3   8   6    2.80    3.00
  -3   8   6    0.90    2.30
   2  -8  -6   -1.00    5.20
   2  -8  -6   -0.90    5.70
   2  -8  -6    2.80    2.80
   2  -8  -6    5.10    3.70
  -2   8   6    3.90    3.30
  -2   8   6    0.10    2.10
  -2   8   6   -0.50    3.30
   1  -8  -6   -7.00    3.10
   1  -8  -6    2.40    4.90
   1  -8  -6    2.60    3.70
   1  -8  -6   10.30    4.30
   1  -8  -6    2.50    3.00
  -1   8   6   -2.90    3.10
  -1   8   6    4.80    3.90
  -1   8   6   -1.00    1.70
  -1   8   6    1.70    3.50
  -1   8   6    0.50    3.40
   0  -8  -6    7.10    3.30
   0  -8  -6    0.10    3.00
   0  -8  -6   -4.90    3.40
   0  -8  -6    1.00    4.30
   0  -8  -6   -0.30    3.70
   0   8   6    3.10    3.10
   0   8   6    3.30    3.70
   0   8   6   -0.60    3.90
   0   8   6   -1.50    1.60
   0   8   6   -4.40    3.30
  -1  -8  -6   21.00    4.00
  -1  -8  -6    7.90    3.00
  -1  -8  -6   18.40    5.00
  -1  -8  -6   12.70    3.90
   1   8   6   17.60    4.50
   1   8   6   14.20    2.30
   1   8   6   13.20    4.20
   1   8   6   12.20    4.20
   1   8   6   14.80    3.50
  -2  -8  -6   -0.60    3.00
  -2  -8  -6   -2.40    2.30
  -2  -8  -6    0.20    2.90
  -2  -8  -6    4.90    3.50
  -2  -8  -6    8.10    4.80
   2   8   6    3.70    4.40
   2   8   6    0.90    1.70
   2   8   6    9.30    4.00
   2   8   6    3.30    4.00
  -3  -8  -6   -0.70    2.30
  -3  -8  -6    5.40    3.40
  -3  -8  -6    0.40    3.80
  -3  -8  -6   -7.90    5.00
   3   8   6    2.10    4.80
   3   8   6   -1.70    3.40
   3   8   6    6.10    4.40
   3   8   6   -1.60    1.50
  -4  -8  -6    4.70    3.70
  -4  -8  -6    0.40    5.20
   4   8   6    3.70    4.20
   4   8   6    8.70    5.10
   4   8   6    0.50    2.30
   4   8   6   -1.70    5.30
  -5  -8  -6   12.40    5.30
  -5  -8  -6   20.80    5.20
  -5  -8  -6   19.80    6.70
   5   8   6   17.10    4.90
   5   8   6   20.50    9.60
   5   8   6   16.70    6.30
   5   8   6   11.70    3.00
  -6  -8  -6   12.20    5.80
  -6  -8  -6    2.10    5.00
   6   8   6    3.00    5.10
   6   8   6   19.20    6.70
   6   8   6    3.80    3.30
   3  -9  -6   19.70    5.90
   3  -9  -6    5.10    4.60
   3  -9  -6    5.60    8.30
   3  -9  -6    1.60    3.50
  -3   9   6   11.30    6.00
  -3   9   6    6.90    3.70
   2  -9  -6   20.10    7.30
   2  -9  -6    7.40    3.80
   2  -9  -6   -0.20    4.90
   2  -9  -6   13.70    5.20
   2  -9  -6    9.30    8.30
  -2   9   6    1.20    4.20
  -2   9   6   11.40    4.20
  -2   9   6    3.10    4.50
  -2   9   6   -0.40    5.20
   1  -9  -6    3.50    4.70
   1  -9  -6   -4.50    5.60
   1  -9  -6   -1.80    4.30
   1  -9  -6   -2.20    3.70
   1  -9  -6   18.90    7.30
  -1   9   6   -1.20    4.30
  -1   9   6    2.30    2.40
  -1   9   6    0.70    4.60
  -1   9   6    4.20    4.90
   0  -9  -6   -1.90    4.70
   0  -9  -6    1.80    5.00
   0  -9  -6    7.50    5.70
   0  -9  -6   11.60    4.20
   0  -9  -6    4.20    4.10
   0   9   6    1.60    4.40
   0   9   6    1.10    1.90
   0   9   6   -0.10    4.80
   0   9   6    3.50    4.90
  -1  -9  -6   -5.10    3.90
  -1  -9  -6    2.40    5.10
  -1  -9  -6    3.70    4.30
  -1  -9  -6    1.60    4.50
  -1  -9  -6    3.40    4.00
   1   9   6   -1.20    2.10
   1   9   6    9.20    5.20
   1   9   6    9.30    7.70
   1   9   6    8.40    4.00
  -2  -9  -6   -1.00    4.10
  -2  -9  -6    5.40    3.90
  -2  -9  -6    2.00    3.50
  -2  -9  -6    3.80    5.90
  -2  -9  -6   -3.90    3.70
   2   9   6   -5.70    4.90
   2   9   6    1.20    3.50
  -3  -9  -6    1.60    4.80
  -3  -9  -6    1.30    6.10
  -3  -9  -6   -1.80    2.80
  -3  -9  -6   -2.60    3.90
   3   9   6   -7.10    5.30
   3   9   6   -2.10    1.60
  -4  -9  -6   10.00    5.70
  -4  -9  -6    9.30    4.40
  -4  -9  -6   12.00    7.30
   4   9   6    7.20    2.70
  -5  -9  -6   -2.40    6.00
  -5  -9  -6    0.60    5.00
   5   9   6   -0.10    2.80
   5   9   6  -10.10    6.40
   0 -10  -6   -2.60    5.20
   0 -10  -6   -9.60    7.20
   0 -10  -6    5.80    5.20
   0 -10  -6    8.10    7.40
   0  10   6    2.70    6.40
   0  10   6   -0.20    2.70
   0  10   6   -7.70    5.50
  -1 -10  -6    0.80    5.00
  -1 -10  -6   -6.30    7.20
  -1 -10  -6    9.30    5.90
  -1 -10  -6    2.90    5.30
   1  10   6   -0.80    5.20
   1  10   6   -1.40    2.30
   1  10   6   12.10    6.50
  -2 -10  -6    3.90    5.10
  -2 -10  -6    6.80    5.20
  -2 -10  -6    4.40    8.60
  -2 -10  -6   -2.40    5.60
   2  10   6   -1.40    6.80
   2  10   6   -1.10    2.50
  -3 -10  -6    2.30    6.00
  -3 -10  -6    6.50    5.20
  -3 -10  -6    0.90    9.60
  -3 -10  -6   -5.20    4.40
   3  10   6   -1.20    1.50
   3  10   6   -2.90   11.10
   2   7  -7    4.70    7.00
   2   7  -7   10.70    5.30
  -2  -7   7   16.90    7.10
  -2  -7   7    8.20    3.20
  -2  -7   7   15.00    5.50
   1   7  -7   10.30    6.30
   1   7  -7   -1.10    4.50
  -1  -7   7    3.00    3.10
  -1  -7   7   -1.60    6.20
   0   7  -7    2.60    3.80
   0   7  -7    3.50    6.60
   0  -7   7    4.20    5.20
   0  -7   7    9.40    3.50
   0  -7   7    4.80    6.80
   0  -7   7   16.20    5.80
  -1   7  -7    9.10    6.10
  -1   7  -7    1.40    6.10
  -1   7  -7   -0.50    3.50
   1  -7   7   -1.10    4.70
   1  -7   7    1.10    3.80
   1  -7   7    9.00    6.80
  -2   7  -7   29.80    4.40
  -2   7  -7   32.30    7.70
  -2   7  -7   28.60    6.40
   2  -7   7   23.70    5.10
   2  -7   7   22.50    7.20
   2  -7   7   29.90    6.40
  -3   7  -7   -1.20    4.10
  -3   7  -7    4.50    5.70
  -3   7  -7    8.80    7.70
  -3   7  -7   -1.50    3.90
   3  -7   7    2.10    5.30
   3  -7   7    5.00    5.50
   3  -7   7    8.70    5.40
   4   6  -7   -7.90    6.40
  -4  -6   7    3.90    2.60
  -4  -6   7   -3.30    6.50
  -4  -6   7    2.10    3.40
   3   6  -7    1.60    5.80
   3   6  -7    3.50    4.60
  -3  -6   7    6.40    5.90
  -3  -6   7    7.70    3.70
   2   6  -7   -6.00    3.60
   2   6  -7   12.50    5.80
  -2  -6   7   -6.00    5.00
  -2  -6   7    4.60    3.60
  -2  -6   7   10.80    6.30
   1   6  -7    4.60    3.60
   1   6  -7    4.50    4.10
   1   6  -7    3.30    5.20
  -1  -6   7    0.20    5.10
  -1  -6   7    3.00    2.20
  -1  -6   7    5.60    4.90
   0   6  -7   -2.40    3.10
   0   6  -7   -1.20    3.50
   0   6  -7    1.80    4.80
   0  -6   7    5.90    4.30
   0  -6   7    2.10    2.40
   0  -6   7   10.50    4.70
   0  -6   7    0.90    5.00
  -1   6  -7   -4.90    2.80
  -1   6  -7    4.30    4.30
  -1   6  -7    2.00    3.80
   1  -6   7   -1.80    2.60
   1  -6   7    0.20    4.00
   1  -6   7    2.10    4.90
   1  -6   7    6.50    4.30
  -2   6  -7   17.90    4.70
  -2   6  -7   28.50    5.50
  -2   6  -7   12.70    3.30
   2  -6   7   10.50    4.50
   2  -6   7   11.90    4.20
   2  -6   7   13.20    4.40
   2  -6   7   17.80    5.10
  -3   6  -7    6.30    5.70
  -3   6  -7   -4.10    3.00
  -3   6  -7    8.20    4.30
  -3   6  -7   -0.10    3.00
   3  -6   7   11.60    4.40
   3  -6   7    2.80    4.00
   3  -6   7    1.30    4.10
   3  -6   7   -4.10    4.00
  -4   6  -7    0.00    4.20
  -4   6  -7   -1.30    3.50
  -4   6  -7    2.00    3.80
  -4   6  -7   -3.60    6.60
   4  -6   7   -6.80    3.90
   4  -6   7    1.40    4.00
   4  -6   7   13.90    4.60
   4  -6   7    8.00    4.80
  -5   6  -7   -5.00    4.50
  -5   6  -7   -1.40    4.30
  -5   6  -7   -0.80    7.80
  -5   6  -7    4.10    3.80
   5  -6   7   -4.30    4.60
   5  -6   7   -1.20    5.50
   5  -6   7    2.90    4.20
   5  -6   7    2.70    4.60
   5   5  -7   14.10    6.10
   5   5  -7   10.30    6.10
  -5  -5   7    0.10    2.70
  -5  -5   7    1.20    2.00
  -5  -5   7    1.10    2.00
  -5  -5   7   -2.30    5.80
   4   5  -7   21.30    5.60
   4   5  -7    4.40    5.40
  -4  -5   7   11.00    2.90
  -4  -5   7   14.30    2.50
  -4  -5   7   10.20    5.60
   3   5  -7    6.40    4.40
   3   5  -7   -4.80    3.50
   3   5  -7    1.00    5.00
  -3  -5   7    5.00    4.80
  -3  -5   7   -0.60    2.80
  -3  -5   7    0.50    4.30
  -3  -5   7    2.50    5.30
  -3  -5   7    1.70    1.60
   2   5  -7   -0.60    3.90
   2   5  -7    1.00    3.10
   2   5  -7   -3.10    3.30
  -2  -5   7   -4.10    4.70
  -2  -5   7    2.30    4.00
  -2  -5   7    3.90    3.90
   1   5  -7    1.20    3.80
   1   5  -7    9.00    3.50
   1   5  -7   11.00    3.30
  -1  -5   7    7.70    4.20
  -1  -5   7    3.60    3.80
  -1  -5   7    6.50    1.60
  -1  -5   7    2.90    3.80
   0   5  -7   -0.60    2.70
   0   5  -7   -1.80    2.50
   0   5  -7    0.20    3.60
   0  -5   7    2.10    3.10
   0  -5   7   -1.10    3.30
   0  -5   7    2.20    1.60
   0  -5   7    1.00    4.10
  -1   5  -7   93.69    7.30
  -1   5  -7   91.79    5.70
  -1   5  -7   77.59    6.20
   1  -5   7   94.39    7.10
   1  -5   7   86.59    4.80
   1  -5   7   84.69    6.70
   1  -5   7   76.59    7.20
  -2   5  -7   33.90    4.50
  -2   5  -7   46.00    5.30
  -2   5  -7   48.60    6.00
   2  -5   7   30.30    4.20
   2  -5   7   42.50    5.30
   2  -5   7   40.50    5.50
   2  -5   7   37.40    4.90
  -3   5  -7   -3.50    3.00
  -3   5  -7    1.40    2.80
  -3   5  -7    1.80    2.70
  -3   5  -7   -0.40    2.20
   3  -5   7    1.90    2.90
   3  -5   7    2.20    3.20
   3  -5   7    0.00    3.40
   3  -5   7   -3.20    3.10
  -4   5  -7   -0.20    2.60
  -4   5  -7   -1.10    3.20
  -4   5  -7    2.50    3.20
  -4   5  -7   -1.70    5.30
   4  -5   7   -0.30    3.20
   4  -5   7   -3.50    3.10
   4  -5   7    2.30    2.50
   4  -5   7   -1.50    3.40
  -5   5  -7   -3.00    3.60
  -5   5  -7   -5.20    3.60
  -5   5  -7   -0.30    2.90
  -5   5  -7   -7.80    5.80
  -5   5  -7    3.30    3.50
   5  -5   7   -5.20    2.40
   5  -5   7    0.50    3.80
   5  -5   7    3.90    3.50
   5  -5   7   -2.10    3.30
  -6   5  -7    0.70    3.40
  -6   5  -7    8.40    8.00
  -6   5  -7    3.00    4.00
  -6   5  -7    3.10    4.90
  -6   5  -7   -1.60    3.50
   6  -5   7    3.10    3.20
   6  -5   7   -2.60    3.60
   6  -5   7    5.80    4.20
   6  -5   7    0.60    3.50
   6   4  -7    4.40    6.10
   6   4  -7   12.50    6.00
  -6  -4   7    1.90    5.90
  -6  -4   7    0.50    3.00
   5   4  -7    0.50    5.00
   5   4  -7    0.90    4.50
  -5  -4   7    1.20    2.30
  -5  -4   7    0.90    4.60
  -5  -4   7    0.30    4.80
   4   4  -7    4.30    4.20
   4   4  -7    7.40    4.20
  -4  -4   7    0.50    4.20
  -4  -4   7    0.30    3.70
  -4  -4   7    2.50    4.70
  -4  -4   7    2.20    1.90
  -4  -4   7   -0.70    1.60
   3   4  -7   -0.70    3.50
   3   4  -7   -2.50    3.30
  -3  -4   7   -3.70    3.20
  -3  -4   7   -2.90    3.70
  -3  -4   7   -1.30    3.60
   2   4  -7  159.98    9.20
   2   4  -7  147.19    8.30
   2   4  -7  149.19    7.90
  -2  -4   7  176.18    9.40
  -2  -4   7  150.18    8.90
  -2  -4   7  155.38    8.30
   1   4  -7   14.30    3.00
   1   4  -7   18.50    3.80
   1   4  -7   14.60    3.10
  -1  -4   7   12.00    3.70
  -1  -4   7   15.20    3.70
  -1  -4   7   21.90    3.80
   0   4  -7   56.59    4.90
   0   4  -7   58.89    5.70
   0   4  -7   62.69    4.80
   0  -4   7   61.99    6.00
   0  -4   7   55.39    2.80
   0  -4   7   60.39    5.60
   0  -4   7   53.29    5.40
  -1   4  -7  113.89    6.60
  -1   4  -7  111.89    7.10
  -1   4  -7  125.49    6.20
   1  -4   7  123.29    7.40
   1  -4   7  110.19    5.00
   1  -4   7  107.99    6.70
   1  -4   7  116.49    7.10
  -2   4  -7   47.60    4.60
  -2   4  -7   42.00    4.00
  -2   4  -7   48.00    4.90
   2  -4   7   44.80    3.40
   2  -4   7   42.20    4.70
   2  -4   7   48.40    4.80
   2  -4   7   37.90    5.10
  -3   4  -7    0.90    2.30
  -3   4  -7   -0.70    2.20
  -3   4  -7    5.00    2.60
  -3   4  -7   -1.80    1.70
   3  -4   7    2.80    2.00
   3  -4   7   -0.90    2.20
   3  -4   7    2.60    2.10
   3  -4   7   -0.30    2.50
   3  -4   7    2.80    2.60
  -4   4  -7    4.60    2.50
  -4   4  -7   -3.00    1.80
  -4   4  -7   -0.50    2.70
  -4   4  -7    1.10    2.80
   4  -4   7   -4.70    1.90
   4  -4   7    0.30    2.80
   4  -4   7    4.90    2.40
   4  -4   7    2.20    2.60
  -5   4  -7   -7.60    6.30
  -5   4  -7    1.30    2.70
  -5   4  -7   -0.80    3.00
  -5   4  -7    4.60    2.50
  -5   4  -7    3.20    3.20
   5  -4   7    0.10    2.50
   5  -4   7    4.80    2.50
   5  -4   7   -1.70    2.50
   5  -4   7   -0.60    2.90
  -6   4  -7   -0.90    2.90
  -6   4  -7    2.90    4.00
  -6   4  -7    2.90    5.80
  -6   4  -7    1.00    3.40
   6  -4   7   -1.30    4.20
   6  -4   7   -0.50    2.80
   6  -4   7    7.30    3.60
   6  -4   7    0.90    2.70
  -7   4  -7    5.70    5.60
  -7   4  -7    1.00    4.00
  -7   4  -7    9.60    8.20
  -7   4  -7   12.40    5.50
   7  -4   7    3.20    3.40
   7  -4   7    9.10    4.10
   7  -4   7    4.00    3.10
   6   3  -7   11.70    5.10
   6   3  -7   -9.00    4.60
   6   3  -7   10.10    4.00
  -6  -3   7    4.30    2.90
  -6  -3   7   12.10    5.00
  -6  -3   7    0.90    5.10
   5   3  -7    2.90    3.90
   5   3  -7    1.40    3.60
   5   3  -7    8.50    3.90
  -5  -3   7    0.20    4.10
  -5  -3   7    4.10    4.30
  -5  -3   7    3.70    2.10
  -5  -3   7    6.30    4.80
   4   3  -7    5.90    3.30
   4   3  -7    1.80    3.50
   4   3  -7   -1.40    3.00
  -4  -3   7    4.30    3.40
  -4  -3   7    2.50    2.40
  -4  -3   7    3.40    1.40
  -4  -3   7    3.30    1.40
  -4  -3   7    4.90    1.50
  -4  -3   7   -1.30    3.60
  -4  -3   7   -4.70    3.00
   3   3  -7   32.30    4.40
   3   3  -7   30.10    4.20
   3   3  -7   35.30    4.90
  -3  -3   7   25.00    4.00
  -3  -3   7   20.50    3.60
  -3  -3   7   24.00    3.10
  -3  -3   7   23.10    4.10
   2   3  -7    1.20    2.10
   2   3  -7   -2.20    2.40
   2   3  -7    2.40    2.30
   2   3  -7    0.50    2.40
  -2  -3   7    2.80    2.50
  -2  -3   7    0.60    2.20
  -2  -3   7    0.60    2.70
  -2  -3   7    1.10    1.70
   1   3  -7   36.30    4.20
   1   3  -7   29.70    4.20
   1   3  -7   39.10    4.50
   1   3  -7   28.80    3.70
  -1  -3   7   32.90    4.30
  -1  -3   7   39.70    4.20
  -1  -3   7   35.20    4.70
  -1  -3   7   30.60    2.70
   0   3  -7    4.80    2.20
   0   3  -7    5.30    2.30
   0   3  -7    6.40    2.40
   0   3  -7   11.30    2.80
   0  -3   7    3.60    2.20
   0  -3   7    8.60    2.80
   0  -3   7    8.40    2.60
   0  -3   7    4.70    1.50
  -1   3  -7  374.06   14.70
  -1   3  -7  388.16   14.40
  -1   3  -7  405.86   14.00
   1  -3   7  351.86   15.60
   1  -3   7  405.76   14.40
   1  -3   7  396.36   14.80
  -2   3  -7  221.78    9.40
  -2   3  -7  230.28    9.00
  -2   3  -7  213.28    9.50
   2  -3   7  228.38    9.20
   2  -3   7  216.38    9.50
   2  -3   7  227.08    9.50
   2  -3   7  196.08    8.70
  -3   3  -7   89.49    5.50
  -3   3  -7   87.99    4.40
  -3   3  -7   92.39    5.40
   3  -3   7   88.49    5.40
   3  -3   7   87.59    5.20
   3  -3   7   88.79    5.70
   3  -3   7   89.19    5.00
  -4   3  -7    7.00    2.30
  -4   3  -7   10.60    2.20
  -4   3  -7    9.10    2.60
  -4   3  -7   10.60    2.70
   4  -3   7   12.30    2.40
   4  -3   7   12.00    2.30
   4  -3   7   10.70    2.80
   4  -3   7   10.90    2.70
  -5   3  -7    1.60    3.80
  -5   3  -7    0.40    2.00
  -5   3  -7    0.10    2.90
  -5   3  -7   -0.50    2.60
  -5   3  -7   -2.10    1.90
   5  -3   7   -0.70    2.40
   5  -3   7    2.20    2.30
   5  -3   7    2.60    2.20
   5  -3   7   -1.30    1.90
  -6   3  -7   -1.50    2.30
  -6   3  -7    1.00    3.50
  -6   3  -7    1.30    5.50
  -6   3  -7    6.50    3.20
   6  -3   7    6.70    3.20
   6  -3   7    2.10    2.30
   6  -3   7    6.70    2.20
   6  -3   7   -0.50    2.50
  -7   3  -7   10.80    3.20
  -7   3  -7    7.60    3.70
  -7   3  -7   10.70    6.40
  -7   3  -7   12.10    4.40
  -7   3  -7    6.20    4.70
   7  -3   7    8.80    2.40
   7  -3   7   14.40    3.30
   7  -3   7    9.80    3.20
   7  -3   7    8.00    7.60
   7  -3   7    4.90    3.70
  -8   3  -7    9.90    7.80
  -8   3  -7    5.20    4.60
  -8   3  -7    3.20    4.50
  -8   3  -7   10.00    3.30
   8  -3   7    3.70    3.20
   8  -3   7    6.30    2.20
   8  -3   7    9.50    3.90
   8  -3   7   -3.50    4.50
   7   2  -7   -5.00    4.70
   7   2  -7    0.10    4.80
   7   2  -7    1.40    4.10
  -7  -2   7   -8.50    5.90
  -7  -2   7   -7.40    5.60
  -7  -2   7    5.30    5.20
  -7  -2   7   -4.00    3.10
   6   2  -7    1.70    3.30
   6   2  -7    1.10    4.00
   6   2  -7    5.90    4.20
  -6  -2   7   -4.90    4.20
  -6  -2   7   -0.70    2.60
  -6  -2   7   -2.90    4.30
  -6  -2   7    2.90    4.30
  -6  -2   7    8.80    5.30
   5   2  -7    0.80    3.30
   5   2  -7    0.80    2.80
  -5  -2   7    4.00    2.60
  -5  -2   7   -1.90    3.40
  -5  -2   7    7.80    3.60
  -5  -2   7    2.30    3.70
   4   2  -7   -2.80    2.40
   4   2  -7    1.90    2.50
  -4  -2   7   -0.60    0.90
  -4  -2   7    3.70    3.00
  -4  -2   7    1.20    3.10
  -4  -2   7    1.40    3.00
  -4  -2   7   -0.50    1.70
  -4  -2   7   -0.60    2.00
   3   2  -7   50.89    4.50
   3   2  -7   52.19    4.90
  -3  -2   7   57.19    5.10
  -3  -2   7   43.30    2.90
  -3  -2   7   48.00    4.90
  -3  -2   7   49.80    4.80
  -3  -2   7   49.70    3.80
   2   2  -7    0.40    2.00
   2   2  -7   -0.50    1.80
   2   2  -7   -0.50    2.00
  -2  -2   7   -1.30    2.30
  -2  -2   7    2.10    2.10
  -2  -2   7    4.30    2.30
  -2  -2   7   -0.40    1.40
   1   2  -7   -1.10    1.80
   1   2  -7   -0.40    1.60
   1   2  -7   -0.40    1.70
  -1  -2   7    3.90    2.00
  -1  -2   7    0.10    2.20
  -1  -2   7    1.00    1.30
  -1  -2   7   -0.10    2.00
   0   2  -7   39.20    3.80
   0   2  -7   39.10    3.60
   0   2  -7   39.20    3.60
   0   2  -7   36.20    3.30
   0  -2   7   36.20    2.40
   0  -2   7   39.90    3.60
   0  -2   7   35.20    3.50
   0  -2   7   40.10    4.80
  -1   2  -7    3.40    1.80
  -1   2  -7    1.40    1.60
  -1   2  -7    1.70    1.70
  -1   2  -7    2.00    1.80
   1  -2   7    4.20    1.10
   1  -2   7    4.90    2.30
   1  -2   7    2.70    1.60
  -2   2  -7    0.70    1.50
  -2   2  -7    2.40    1.60
  -2   2  -7    0.40    1.60
   2  -2   7    2.10    1.60
   2  -2   7    0.40    1.40
   2  -2   7   -1.00    0.80
   2  -2   7    2.10    2.00
   2  -2   7    0.30    1.50
  -3   2  -7  127.79    5.20
  -3   2  -7  131.99    5.70
  -3   2  -7  126.19    6.30
  -3   2  -7  133.39    6.30
  -3   2  -7  126.49    6.40
   3  -2   7  132.39    5.90
   3  -2   7  128.79    6.30
   3  -2   7  132.59    6.10
   3  -2   7  127.99    6.60
  -4   2  -7   37.70    3.90
  -4   2  -7   35.20    4.00
  -4   2  -7   33.10    2.70
  -4   2  -7   39.00    3.60
  -4   2  -7   36.40    3.40
   4  -2   7   36.00    3.50
   4  -2   7   40.20    3.20
   4  -2   7   32.70    4.00
   4  -2   7   45.60    3.70
  -5   2  -7   45.80    4.60
  -5   2  -7   46.70    4.00
  -5   2  -7   43.40    4.20
  -5   2  -7   40.00    5.00
   5  -2   7   40.40    1.90
   5  -2   7   49.30    4.70
   5  -2   7   45.90    3.30
   5  -2   7   51.09    4.10
   5  -2   7   50.09    4.00
  -6   2  -7    1.40    3.20
  -6   2  -7    0.70    2.60
  -6   2  -7    3.60    2.30
  -6   2  -7    5.10    3.00
  -6   2  -7    3.40    4.30
   6  -2   7    4.00    1.60
   6  -2   7    3.20    2.90
   6  -2   7    1.50    2.10
   6  -2   7    6.30    2.40
  -7   2  -7    4.70    3.40
  -7   2  -7    0.70    5.50
  -7   2  -7   11.20    4.20
  -7   2  -7   -3.10    2.10
   7  -2   7   -1.90    1.50
   7  -2   7    2.10    6.00
   7  -2   7    3.40    3.00
   7  -2   7    2.50    3.30
   7  -2   7   -1.00    2.30
  -8   2  -7   16.60    9.90
  -8   2  -7    1.20    6.70
  -8   2  -7    1.10    4.20
  -8   2  -7    5.30    4.10
   8  -2   7    3.10    3.60
   8  -2   7   -0.10    3.70
   8  -2   7    2.50    4.00
   7   1  -7   16.30    7.40
   7   1  -7    4.60    4.40
   7   1  -7    4.10    4.00
  -7  -1   7    7.70    6.00
  -7  -1   7    4.20    4.70
  -7  -1   7    8.40    4.50
  -7  -1   7    3.70    5.70
   6   1  -7   -2.30    2.80
   6   1  -7   -1.40    3.00
   6   1  -7    0.70    5.20
  -6  -1   7    2.40    3.60
  -6  -1   7   -3.50    2.30
  -6  -1   7    2.30    5.20
  -6  -1   7    0.90    3.60
  -6  -1   7   -5.40    4.30
   5   1  -7   -2.10    2.40
   5   1  -7    4.90    2.60
   5   1  -7    6.50    2.90
  -5  -1   7    3.80    3.60
  -5  -1   7   -5.10    2.70
  -5  -1   7   -4.10    2.90
  -5  -1   7    2.00    2.10
   4   1  -7   67.99    4.90
   4   1  -7   53.29    4.70
   4   1  -7   62.09    5.10
  -4  -1   7   57.59    5.20
  -4  -1   7   56.09    4.30
  -4  -1   7   59.69    5.20
  -4  -1   7   58.69    2.50
  -4  -1   7   66.19    5.70
   3   1  -7    5.50    1.90
   3   1  -7    6.70    2.10
   3   1  -7    4.00    2.20
  -3  -1   7    6.10    1.30
  -3  -1   7    3.40    2.40
  -3  -1   7    6.90    2.50
  -3  -1   7    7.60    2.50
  -3  -1   7    4.60    1.90
   2   1  -7    3.60    2.00
   2   1  -7    2.50    1.60
   2   1  -7    1.90    1.60
   2   1  -7    2.70    1.70
  -2  -1   7    2.80    1.50
  -2  -1   7    5.80    2.30
  -2  -1   7    3.30    2.00
  -2  -1   7    4.70    2.00
  -2  -1   7    2.90    1.20
   1   1  -7   11.20    2.10
   1   1  -7    8.20    1.90
   1   1  -7   10.50    2.30
   1   1  -7    9.30    2.00
  -1  -1   7   10.50    1.80
  -1  -1   7   10.30    2.10
  -1  -1   7    9.30    2.00
  -1  -1   7    9.50    1.70
  -1  -1   7    9.70    2.40
   0   1  -7   24.40    2.80
   0   1  -7   31.80    3.10
   0   1  -7   30.90    3.00
   0   1  -7   26.40    3.20
   0  -1   7   27.00    3.20
   0  -1   7   27.90    2.10
   0  -1   7   31.60    3.00
   0  -1   7   25.40    2.90
  -1   1  -7  110.79    5.10
  -1   1  -7  112.49    5.60
  -1   1  -7  113.99    5.40
   1  -1   7  109.29    5.30
   1  -1   7  113.19    4.40
   1  -1   7  116.99    5.50
   1  -1   7  114.69    5.80
   1  -1   7  103.39    5.10
  -2   1  -7    3.60    1.50
  -2   1  -7    2.40    1.00
  -2   1  -7    1.20    1.20
  -2   1  -7    0.70    1.40
   2  -1   7    3.00    0.90
   2  -1   7    2.40    1.50
   2  -1   7    0.70    1.30
   2  -1   7   -0.70    1.70
   2  -1   7    2.80    1.40
  -3   1  -7   11.60    2.40
  -3   1  -7    6.70    1.80
  -3   1  -7    5.30    1.80
  -3   1  -7    7.20    1.70
  -3   1  -7   11.70    1.80
   3  -1   7    6.60    2.10
   3  -1   7    7.10    1.50
   3  -1   7    8.40    2.00
   3  -1   7   10.90    1.80
   3  -1   7    5.90    1.70
  -4   1  -7    8.60    2.10
  -4   1  -7    2.70    2.10
  -4   1  -7    7.30    2.00
  -4   1  -7    5.20    2.20
   4  -1   7    7.10    1.80
   4  -1   7    5.10    1.50
   4  -1   7    8.10    2.20
   4  -1   7    7.40    1.10
   4  -1   7    5.30    2.00
  -5   1  -7   19.50    3.40
  -5   1  -7   18.00    2.90
  -5   1  -7   23.40    3.30
  -5   1  -7   24.20    3.10
   5  -1   7   23.50    3.10
   5  -1   7   18.40    2.20
   5  -1   7   18.50    3.20
   5  -1   7   17.20    2.70
  -6   1  -7   36.10    4.50
  -6   1  -7   30.00    5.00
  -6   1  -7   23.30    4.10
  -6   1  -7   44.70    4.90
  -6   1  -7   37.10    3.80
   6  -1   7   39.80    3.90
   6  -1   7   39.90    5.80
   6  -1   7   33.00    2.60
   6  -1   7   34.30    4.10
   6  -1   7   35.20    4.70
  -7   1  -7   18.70    4.80
  -7   1  -7   22.90    5.20
  -7   1  -7   14.20    2.90
  -7   1  -7   10.80    3.60
  -7   1  -7   14.90    3.80
   7  -1   7   13.50    5.50
   7  -1   7   21.70    4.00
   7  -1   7   16.80    3.50
   7  -1   7   16.00    3.00
  -8   1  -7    3.30    2.60
  -8   1  -7    4.40    4.20
  -8   1  -7    2.40    4.00
   8  -1   7   -6.60    4.30
   8  -1   7   -0.20    3.20
   8  -1   7    2.00    2.90
   8  -1   7   -9.10    6.40
   8  -1   7   -5.50    3.80
  -9   1  -7   -1.60    4.80
  -9   1  -7   -6.20    7.70
  -9   1  -7   -0.30    5.00
   9  -1   7   -1.50    3.20
   9  -1   7    1.20    4.30
   9  -1   7    2.10    4.30
   9  -1   7    3.20    5.00
   7   0  -7   10.00    3.50
   7   0  -7    7.00    7.50
   7   0  -7   10.40    3.80
   7   0  -7   15.30    4.30
  -7   0   7    7.90    5.70
  -7   0   7   12.00    6.90
  -7   0   7   11.50    3.80
  -7   0   7    8.30    3.20
   6   0  -7    7.10    3.10
   6   0  -7   -1.00    2.60
   6   0  -7    2.30    2.70
  -6   0   7   -3.50    3.00
  -6   0   7    2.40    6.50
  -6   0   7    0.30    3.00
  -6   0   7    4.50    4.30
   5   0  -7    2.10    2.60
   5   0  -7    9.10    2.60
   5   0  -7    5.90    2.50
  -5   0   7    8.10    2.70
  -5   0   7    6.70    3.30
  -5   0   7   10.80    3.00
  -5   0   7    7.80    4.10
  -5   0   7    7.40    2.70
   4   0  -7   14.20    2.60
   4   0  -7   17.00    2.90
   4   0  -7   10.10    2.40
  -4   0   7   12.90    2.80
  -4   0   7   11.70    2.50
  -4   0   7   11.80    1.30
  -4   0   7    9.80    3.00
  -4   0   7   10.50    2.70
   3   0  -7    1.70    1.70
   3   0  -7    1.60    1.50
   3   0  -7    0.90    1.60
  -3   0   7    0.00    2.10
  -3   0   7    1.50    1.60
  -3   0   7    0.40    1.90
  -3   0   7    1.10    1.60
  -3   0   7    0.80    1.00
   2   0  -7   14.30    2.40
   2   0  -7    9.40    2.20
   2   0  -7   10.20    2.10
   2   0  -7   12.40    2.20
  -2   0   7   10.90    1.90
  -2   0   7   13.50    1.70
  -2   0   7   12.60    2.40
  -2   0   7   12.80    2.40
  -2   0   7    9.00    1.80
   1   0  -7    3.60    1.50
   1   0  -7    1.90    1.30
   1   0  -7    1.20    1.40
   1   0  -7    0.40    1.40
  -1   0   7    1.70    1.60
  -1   0   7    1.40    1.20
  -1   0   7    1.60    1.10
  -1   0   7   -0.10    1.20
  -1   0   7    2.70    1.80
   0   0  -7   22.20    2.50
   0   0  -7   19.90    2.30
   0   0  -7   17.00    2.20
   0   0   7   15.00    1.70
   0   0   7   21.90    2.50
   0   0   7   20.40    2.70
   0   0   7   15.80    2.30
   0   0   7   17.80    2.10
  -1   0  -7  107.29    4.90
  -1   0  -7   98.69    4.70
  -1   0  -7  102.89    5.20
  -1   0  -7  105.19    5.10
   1   0   7  107.99    5.00
   1   0   7  102.49    4.10
   1   0   7  108.79    5.10
   1   0   7  100.39    5.20
   1   0   7  102.99    4.90
   1   0   7   96.19    4.80
  -2   0  -7    8.30    1.70
  -2   0  -7   11.60    1.50
  -2   0  -7   11.10    1.70
  -2   0  -7   11.80    2.10
  -2   0  -7   15.00    2.50
   2   0   7    9.00    1.90
   2   0   7   10.10    1.80
   2   0   7   10.60    2.10
   2   0   7   10.60    1.80
   2   0   7    9.30    1.60
   2   0   7   11.90    1.30
  -3   0  -7   30.70    2.50
  -3   0  -7   31.20    3.00
  -3   0  -7   31.00    2.50
   3   0   7   35.30    3.50
   3   0   7   28.80    1.80
   3   0   7   28.40    2.50
   3   0   7   29.40    2.90
   3   0   7   34.50    2.90
  -4   0  -7    6.90    2.30
  -4   0  -7    6.70    1.40
  -4   0  -7    4.40    2.20
  -4   0  -7    7.60    1.90
  -4   0  -7    6.40    1.80
   4   0   7    5.00    1.40
   4   0   7    5.90    1.90
   4   0   7    1.90    2.00
   4   0   7    4.80    1.60
   4   0   7    5.60    2.10
  -5   0  -7   37.00    3.60
  -5   0  -7   34.50    4.20
  -5   0  -7   37.10    3.50
  -5   0  -7   32.00    4.40
   5   0   7   33.50    2.50
   5   0   7   34.70    3.90
   5   0   7   38.80    4.20
   5   0   7   38.90    3.70
   5   0   7   39.10    3.50
  -6   0  -7   16.10    3.30
  -6   0  -7   16.90    3.40
  -6   0  -7   13.80    3.70
  -6   0  -7   16.30    2.70
   6   0   7   21.10    3.20
   6   0   7    9.80    3.20
   6   0   7   16.40    2.10
   6   0   7   10.70    4.00
   6   0   7   16.10    3.40
  -7   0  -7   16.80    2.90
  -7   0  -7   11.40    3.80
  -7   0  -7   19.30    4.50
  -7   0  -7   22.40    4.00
  -7   0  -7    8.00    4.00
   7   0   7   15.60    3.70
   7   0   7   24.70    3.80
   7   0   7   16.00    2.80
   7   0   7   12.40    4.70
   7   0   7   14.50    3.50
  -8   0  -7   34.90    7.00
  -8   0  -7   35.40    4.70
  -8   0  -7   30.30    6.20
  -8   0  -7   32.40    5.00
   8   0   7   27.90    5.00
   8   0   7   26.00    4.80
   8   0   7   30.70    7.00
   8   0   7   27.60    4.30
   8   0   7   25.20    6.20
  -9   0  -7   -0.10    4.80
  -9   0  -7   11.30    3.20
  -9   0  -7    6.40    5.30
  -9   0  -7    0.40    7.90
   9   0   7   15.90    5.30
   9   0   7   -8.30    5.20
   9   0   7    0.60    3.90
   9   0   7    4.10    4.30
   9   0   7   -6.20    7.70
   9   0   7    6.30    3.30
   7  -1  -7   18.00    3.70
   7  -1  -7   15.60    8.10
   7  -1  -7   12.70    3.80
  -7   1   7   12.70    3.70
  -7   1   7    6.40    4.20
  -7   1   7   30.70    7.10
  -7   1   7   10.70    3.30
   6  -1  -7    7.70    2.50
   6  -1  -7    4.40    4.80
   6  -1  -7    6.50    2.90
   6  -1  -7    8.80    2.90
  -6   1   7    1.10    4.30
  -6   1   7    9.30    3.40
  -6   1   7    2.10    2.80
   5  -1  -7    6.80    2.30
   5  -1  -7   12.80    2.60
   5  -1  -7    9.80    2.60
   5  -1  -7    7.30    4.00
  -5   1   7    6.50    4.20
  -5   1   7    9.20    3.80
  -5   1   7    6.60    2.50
  -5   1   7    5.60    2.40
  -5   1   7    8.70    2.70
   4  -1  -7   -0.90    2.70
   4  -1  -7   -2.20    1.60
   4  -1  -7   -1.20    1.70
   4  -1  -7    0.00    1.70
  -4   1   7    0.20    1.10
  -4   1   7    3.20    1.90
  -4   1   7    2.20    2.70
  -4   1   7    0.40    1.90
  -4   1   7    1.80    2.00
  -4   1   7    3.00    3.10
   3  -1  -7   43.40    3.00
   3  -1  -7   39.50    3.40
   3  -1  -7   45.70    3.70
   3  -1  -7   41.30    3.40
  -3   1   7   40.90    3.30
  -3   1   7   42.00    2.70
  -3   1   7   46.70    4.60
  -3   1   7   47.50    3.60
  -3   1   7   38.50    3.40
   2  -1  -7    5.20    2.00
   2  -1  -7    7.40    1.80
   2  -1  -7    7.10    2.00
   2  -1  -7    7.50    1.40
   2  -1  -7    7.00    1.80
  -2   1   7    5.20    1.70
  -2   1   7    6.00    1.90
  -2   1   7    6.90    1.40
  -2   1   7    6.20    1.70
   1  -1  -7    4.60    1.60
   1  -1  -7    7.40    1.70
   1  -1  -7    7.80    1.60
   1  -1  -7    5.90    1.60
   1  -1  -7    6.10    1.60
  -1   1   7    6.30    1.40
  -1   1   7    6.90    1.80
  -1   1   7    6.10    1.90
  -1   1   7    2.40    1.30
  -1   1   7    4.40    1.30
   0  -1  -7    2.80    1.40
   0  -1  -7    1.30    0.90
   0  -1  -7    1.20    1.30
   0  -1  -7    1.10    1.10
   0  -1  -7    1.00    1.10
   0   1   7    0.60    1.50
   0   1   7    2.70    1.50
   0   1   7    0.00    0.90
   0   1   7    0.80    1.30
   0   1   7    0.10    1.00
  -1  -1  -7   -0.40    1.20
  -1  -1  -7   -0.50    1.40
  -1  -1  -7    1.20    1.10
  -1  -1  -7    0.70    0.50
  -1  -1  -7    2.30    1.40
   1   1   7    1.60    0.90
   1   1   7   -0.40    1.40
   1   1   7    0.80    1.30
   1   1   7    0.20    1.00
   1   1   7    0.20    1.30
   1   1   7   -0.70    1.10
  -2  -1  -7   17.10    2.30
  -2  -1  -7   17.10    2.30
  -2  -1  -7   19.20    2.10
  -2  -1  -7   22.20    2.80
   2   1   7   17.60    2.50
   2   1   7   17.90    2.40
   2   1   7   18.80    2.20
   2   1   7   16.30    2.20
   2   1   7   16.20    2.40
   2   1   7   14.90    1.50
  -3  -1  -7  303.07   11.40
  -3  -1  -7  299.47   11.30
  -3  -1  -7  301.17   11.60
  -3  -1  -7  301.47   10.60
   3   1   7  312.07   11.80
   3   1   7  300.47   10.80
   3   1   7  307.57   11.40
   3   1   7  296.47   10.20
   3   1   7  319.17   11.20
  -4  -1  -7   -0.80    0.90
  -4  -1  -7    0.40    1.80
  -4  -1  -7   -1.00    1.90
  -4  -1  -7   -0.20    1.50
   4   1   7    0.50    1.60
   4   1   7   -0.90    1.20
   4   1   7    0.40    1.10
   4   1   7   -1.60    1.80
   4   1   7    0.50    1.80
  -5  -1  -7   34.10    4.20
  -5  -1  -7   26.50    2.20
  -5  -1  -7   28.90    3.80
  -5  -1  -7   29.20    3.50
   5   1   7   33.30    3.60
   5   1   7   26.10    4.10
   5   1   7   31.70    3.60
   5   1   7   32.40    4.20
   5   1   7   31.00    2.10
   5   1   7   35.90    3.80
  -6  -1  -7  109.39    6.50
  -6  -1  -7  100.39    7.00
  -6  -1  -7  105.79    6.10
  -6  -1  -7  119.59    7.10
   6   1   7  119.99    6.40
   6   1   7  118.89    6.30
   6   1   7  108.69    5.00
   6   1   7  108.69    6.40
   6   1   7  107.39    6.70
   6   1   7  104.29    8.20
  -7  -1  -7    6.00    3.40
  -7  -1  -7   -2.60    3.20
  -7  -1  -7   -0.30    2.30
  -7  -1  -7    1.70    3.70
  -7  -1  -7   -4.20    2.60
   7   1   7   -0.10    3.30
   7   1   7    2.00    2.50
   7   1   7    1.40    2.20
   7   1   7    1.30    2.40
   7   1   7    2.00    3.90
   7   1   7    0.90    2.90
  -8  -1  -7   -2.80    4.50
  -8  -1  -7   -0.50    4.10
  -8  -1  -7   -1.60    2.60
   8   1   7    5.40    3.60
   8   1   7   -9.50    5.00
   8   1   7   -1.60    3.70
   8   1   7    1.00    3.80
   8   1   7    1.80    3.30
  -9  -1  -7   25.40    4.20
  -9  -1  -7   25.00    5.50
  -9  -1  -7   43.40    7.00
  -9  -1  -7   30.00    7.10
   9   1   7   23.80    5.00
   9   1   7   26.70    4.90
   9   1   7   26.30    4.90
   9   1   7   21.70    5.70
   9   1   7   34.10    6.20
   9   1   7   28.90    7.90
   7  -2  -7    1.60    3.00
   7  -2  -7    0.70    3.20
   7  -2  -7    3.70    2.80
  -7   2   7    0.40    2.00
  -7   2   7   -3.10    5.90
  -7   2   7    3.50    2.50
  -7   2   7   -1.80    2.60
   6  -2  -7   14.60    2.70
   6  -2  -7    0.50    6.20
   6  -2  -7   16.20    3.40
   6  -2  -7   25.10    5.80
   6  -2  -7   14.40    3.00
  -6   2   7   23.20    7.80
  -6   2   7   12.10    2.60
  -6   2   7   11.80    2.60
   5  -2  -7  101.09    7.40
   5  -2  -7   86.29    6.00
   5  -2  -7   83.09    5.60
   5  -2  -7   79.99    4.90
   5  -2  -7   79.69    3.90
   5  -2  -7   80.59    4.80
  -5   2   7   82.29    5.40
  -5   2   7   83.79    5.00
  -5   2   7   91.09    8.20
  -5   2   7   82.89    4.80
   4  -2  -7    1.20    1.90
   4  -2  -7   -1.10    1.20
   4  -2  -7    2.20    2.90
   4  -2  -7   -1.40    1.50
   4  -2  -7    0.50    1.60
   4  -2  -7    3.50    2.30
  -4   2   7    0.00    2.80
  -4   2   7    2.60    2.00
  -4   2   7   -0.20    2.80
  -4   2   7   -1.60    1.80
  -4   2   7    2.40    1.50
   3  -2  -7  129.09    6.80
   3  -2  -7  121.39    5.70
   3  -2  -7  130.49    6.30
   3  -2  -7  122.69    5.80
   3  -2  -7  128.89    5.30
   3  -2  -7  127.19    5.80
  -3   2   7  130.39    7.00
  -3   2   7  126.49    5.70
  -3   2   7  123.49    6.00
  -3   2   7  131.49    7.60
  -3   2   7  126.19    6.00
  -3   2   7  128.49    5.50
   2  -2  -7    3.70    1.40
   2  -2  -7   -0.10    1.30
   2  -2  -7    1.80    1.20
   2  -2  -7    2.60    1.50
   2  -2  -7    1.90    1.30
   2  -2  -7    0.10    1.40
   2  -2  -7    2.90    1.70
  -2   2   7    1.00    1.30
  -2   2   7    1.40    1.20
  -2   2   7    0.10    1.80
  -2   2   7    2.70    2.10
  -2   2   7    1.00    2.00
  -2   2   7   -0.10    1.30
   1  -2  -7    8.40    1.70
   1  -2  -7    7.60    1.50
   1  -2  -7   10.70    2.00
   1  -2  -7    9.30    1.80
   1  -2  -7   10.80    2.00
   1  -2  -7   10.60    1.70
  -1   2   7    4.70    1.90
  -1   2   7    8.80    1.80
  -1   2   7    8.60    1.60
  -1   2   7   12.60    1.70
  -1   2   7    9.00    1.90
   0  -2  -7    7.80    1.60
   0  -2  -7    5.40    1.40
   0  -2  -7    9.40    1.60
   0  -2  -7   11.30    1.90
   0  -2  -7    8.60    1.90
   0  -2  -7   10.30    1.40
   0   2   7    8.40    1.90
   0   2   7   10.70    1.80
   0   2   7    9.00    2.00
   0   2   7   10.90    1.80
   0   2   7   10.30    1.60
  -1  -2  -7   12.50    2.30
  -1  -2  -7    7.60    1.40
  -1  -2  -7    8.40    1.80
  -1  -2  -7    6.70    1.60
  -1  -2  -7    9.30    1.80
   1   2   7   10.40    1.80
   1   2   7   11.40    2.30
   1   2   7    7.60    1.80
   1   2   7    9.40    1.60
   1   2   7    9.90    1.40
  -2  -2  -7   32.80    2.50
  -2  -2  -7   30.90    2.90
  -2  -2  -7   27.80    3.20
  -2  -2  -7   30.30    2.70
   2   2   7   32.80    2.70
   2   2   7   37.10    2.60
   2   2   7   34.50    3.00
   2   2   7   35.20    3.40
   2   2   7   32.40    2.10
   2   2   7   29.60    2.80
  -3  -2  -7   19.00    2.70
  -3  -2  -7   16.20    2.80
  -3  -2  -7   19.60    2.50
  -3  -2  -7   14.00    1.80
   3   2   7   15.60    2.30
   3   2   7   21.90    3.20
   3   2   7   19.70    2.30
   3   2   7   19.90    2.70
  -4  -2  -7   27.90    3.20
  -4  -2  -7   30.20    2.20
  -4  -2  -7   30.90    3.70
  -4  -2  -7   36.40    4.00
   4   2   7   33.20    3.50
   4   2   7   29.20    3.00
   4   2   7   35.80    3.20
   4   2   7   35.50    4.00
   4   2   7   32.20    3.40
  -5  -2  -7  250.57   10.70
  -5  -2  -7  240.28    8.40
  -5  -2  -7  253.47   10.20
  -5  -2  -7  230.98   10.50
   5   2   7  268.37   10.20
   5   2   7  252.97   10.40
   5   2   7  247.18   10.70
   5   2   7  243.08   10.00
   5   2   7  238.58   10.00
  -6  -2  -7   -0.60    2.80
  -6  -2  -7    2.20    2.10
  -6  -2  -7    2.70    3.10
   6   2   7   -1.90    2.60
   6   2   7    1.90    3.00
   6   2   7    4.00    2.70
   6   2   7   -0.90    2.20
   6   2   7    3.40    2.40
  -7  -2  -7  125.49    7.60
  -7  -2  -7   93.39    7.50
  -7  -2  -7  116.59    6.90
  -7  -2  -7  109.99    8.50
  -7  -2  -7  114.79    7.30
   7   2   7  112.29    6.00
   7   2   7  114.69    7.10
   7   2   7  112.19    6.80
   7   2   7  113.39    7.90
   7   2   7  125.19    7.20
   7   2   7  119.49    8.00
  -8  -2  -7    6.00    3.00
  -8  -2  -7   -1.30    3.70
  -8  -2  -7    1.70    4.30
  -8  -2  -7    1.30    4.20
   8   2   7    7.10    3.30
   8   2   7    2.90    3.70
   8   2   7    2.80    3.10
   8   2   7   -1.00    3.90
   8   2   7    8.40    4.60
  -9  -2  -7    6.80    4.00
  -9  -2  -7   -1.10    5.60
  -9  -2  -7    6.00    5.20
   9   2   7   11.40    4.90
   9   2   7    0.40    4.10
   9   2   7   10.20    6.50
   9   2   7   -0.30    4.50
   9   2   7    6.10    4.70
   7  -3  -7    3.30    3.50
   7  -3  -7    1.40    1.80
   7  -3  -7   -0.70    2.50
  -7   3   7    1.40    3.00
  -7   3   7    5.20    6.20
   6  -3  -7    5.50    3.30
   6  -3  -7    2.00    2.20
   6  -3  -7   -3.80    4.90
   6  -3  -7    9.30    4.50
   6  -3  -7   -2.70    7.00
   6  -3  -7    2.80    2.20
  -6   3   7   -1.40    2.30
  -6   3   7    0.90    7.90
   5  -3  -7    2.90    2.50
   5  -3  -7    7.50    4.10
   5  -3  -7    6.50    1.90
   5  -3  -7    7.70    3.40
   5  -3  -7    8.10    5.10
   5  -3  -7    4.90    2.00
   5  -3  -7    8.80    2.30
  -5   3   7   -0.60    3.60
  -5   3   7    4.10    2.40
  -5   3   7    2.90    2.20
  -5   3   7    5.90    1.90
   4  -3  -7   26.00    4.20
   4  -3  -7   24.30    2.70
   4  -3  -7   27.30    3.50
   4  -3  -7   23.80    3.50
   4  -3  -7   24.30    2.80
   4  -3  -7   20.90    3.10
  -4   3   7   21.00    4.10
  -4   3   7   21.20    2.60
  -4   3   7   24.40    2.90
  -4   3   7   25.10    3.20
  -4   3   7   16.80    2.90
   3  -3  -7   33.50    3.30
   3  -3  -7   29.40    3.50
   3  -3  -7   33.90    2.90
   3  -3  -7   36.50    2.90
   3  -3  -7   32.10    3.60
   3  -3  -7   31.30    4.00
  -3   3   7   29.50    3.10
  -3   3   7   37.70    4.70
  -3   3   7   30.20    3.20
  -3   3   7   32.90    4.00
   2  -3  -7    0.10    1.30
   2  -3  -7    1.50    1.60
   2  -3  -7    0.90    1.30
   2  -3  -7    2.20    1.60
   2  -3  -7    2.20    1.40
   2  -3  -7    4.10    2.00
  -2   3   7    1.00    1.20
  -2   3   7    3.70    1.90
  -2   3   7    1.30    1.90
  -2   3   7    0.70    1.30
  -2   3   7    1.60    1.60
   1  -3  -7   90.79    5.00
   1  -3  -7   91.69    4.50
   1  -3  -7   89.29    4.80
   1  -3  -7   88.29    4.20
   1  -3  -7   93.19    4.50
   1  -3  -7   89.79    4.60
  -1   3   7   88.29    4.90
  -1   3   7   87.99    4.60
  -1   3   7   91.29    4.40
  -1   3   7   87.49    4.90
  -1   3   7   86.29    4.30
   0  -3  -7  100.49    5.20
   0  -3  -7   94.39    5.00
   0  -3  -7  101.79    4.40
   0  -3  -7   95.19    4.70
   0  -3  -7   99.99    4.90
   0   3   7  103.29    4.70
   0   3   7   97.29    4.40
   0   3   7   95.09    4.60
   0   3   7  100.29    4.90
   0   3   7   99.69    5.30
  -1  -3  -7  125.69    5.60
  -1  -3  -7  113.99    5.40
  -1  -3  -7  109.59    5.50
  -1  -3  -7  118.49    5.10
  -1  -3  -7  121.49    5.90
   1   3   7  116.09    5.40
   1   3   7  118.49    5.70
   1   3   7  121.79    6.00
   1   3   7  119.29    4.90
   1   3   7  117.89    5.00
   1   3   7  119.59    4.90
  -2  -3  -7   41.50    3.90
  -2  -3  -7   37.50    3.00
  -2  -3  -7   33.40    2.90
  -2  -3  -7   41.60    3.30
  -2  -3  -7   39.40    2.90
   2   3   7   36.80    2.20
   2   3   7   39.60    2.40
   2   3   7   35.60    3.70
   2   3   7   39.40    2.80
   2   3   7   33.50    3.30
   2   3   7   34.10    3.00
  -3  -3  -7    6.50    1.90
  -3  -3  -7    9.60    2.10
  -3  -3  -7    6.00    2.00
  -3  -3  -7    7.10    2.40
  -3  -3  -7    5.20    1.40
   3   3   7    5.70    2.00
   3   3   7    7.80    1.10
   3   3   7    7.10    1.70
   3   3   7    6.50    2.50
  -4  -3  -7  100.09    5.80
  -4  -3  -7  105.09    6.40
  -4  -3  -7  100.09    4.50
  -4  -3  -7  102.99    5.90
   4   3   7  102.79    5.40
   4   3   7   98.29    6.20
   4   3   7  106.49    5.90
   4   3   7  107.79    5.30
   4   3   7  100.59    4.50
  -5  -3  -7  272.27    9.50
  -5  -3  -7  272.47   11.90
  -5  -3  -7  262.27   11.50
  -5  -3  -7  280.07   11.40
   5   3   7  274.87   10.90
   5   3   7  265.27   10.30
   5   3   7  290.27   11.60
   5   3   7  274.27   12.00
   5   3   7  294.97   11.10
  -6  -3  -7    2.50    3.10
  -6  -3  -7    1.70    2.70
  -6  -3  -7    3.80    3.20
   6   3   7    4.20    2.60
   6   3   7    2.60    2.40
   6   3   7    5.70    2.30
   6   3   7    4.30    2.40
  -7  -3  -7    0.80    3.80
  -7  -3  -7    9.30    3.40
  -7  -3  -7    7.00    2.90
   7   3   7    7.00    2.90
   7   3   7    0.80    3.80
   7   3   7    8.20    3.00
   7   3   7   12.40    3.50
  -8  -3  -7   21.70    4.10
  -8  -3  -7   24.00    4.90
  -8  -3  -7   18.20    4.90
   8   3   7   15.00    5.20
   8   3   7   26.60    4.80
   8   3   7   18.30    4.10
   8   3   7   21.60    4.30
  -9  -3  -7   13.30    4.50
  -9  -3  -7    8.60    5.80
  -9  -3  -7   16.00    5.30
   9   3   7    6.90    5.90
   9   3   7   10.00    4.80
   9   3   7    6.90    4.70
   9   3   7    6.30    5.10
   7  -4  -7   -3.30    2.70
   7  -4  -7    8.40    4.30
  -7   4   7    3.20    2.80
  -7   4   7    5.60    6.80
   6  -4  -7    4.70    3.50
   6  -4  -7   -7.70    4.90
   6  -4  -7    0.20    2.40
   6  -4  -7    0.10    3.00
   6  -4  -7    6.00    2.10
  -6   4   7    3.10    6.00
   5  -4  -7   -5.00    3.50
   5  -4  -7    1.90    2.10
   5  -4  -7    1.40    2.20
   5  -4  -7   -1.30    4.00
   5  -4  -7    5.50    6.10
   5  -4  -7   -1.00    1.60
   5  -4  -7   -1.50    3.00
  -5   4   7    0.20    3.90
  -5   4   7    0.30    1.30
  -5   4   7    6.00    2.60
   4  -4  -7    0.30    1.80
   4  -4  -7    2.90    1.60
   4  -4  -7    1.20    2.00
   4  -4  -7    3.40    3.00
   4  -4  -7    1.40    4.80
   4  -4  -7   -1.10    3.40
   4  -4  -7   -2.40    2.20
  -4   4   7    1.40    2.20
  -4   4   7    2.50    3.40
  -4   4   7    0.90    1.40
   3  -4  -7    1.60    1.50
   3  -4  -7    1.30    1.90
   3  -4  -7    0.10    2.40
   3  -4  -7    2.60    1.60
   3  -4  -7    0.00    1.50
   3  -4  -7   -1.20    2.40
   3  -4  -7   -2.50    2.10
  -3   4   7    0.00    1.30
  -3   4   7    0.50    1.60
  -3   4   7    2.10    2.60
  -3   4   7    1.60    1.90
  -3   4   7    3.00    2.00
   2  -4  -7    4.40    1.70
   2  -4  -7    4.00    1.80
   2  -4  -7    5.40    2.00
   2  -4  -7    4.90    2.20
   2  -4  -7    3.00    2.40
   2  -4  -7    4.70    1.40
  -2   4   7    5.20    2.20
  -2   4   7    3.90    1.60
  -2   4   7    3.00    1.50
  -2   4   7    5.40    2.30
  -2   4   7    5.50    2.10
   1  -4  -7   19.10    2.80
   1  -4  -7   18.20    2.40
   1  -4  -7   14.60    2.70
   1  -4  -7   14.20    2.00
   1  -4  -7   14.60    2.40
  -1   4   7   12.00    2.40
  -1   4   7   12.20    2.40
  -1   4   7   13.40    2.30
  -1   4   7   11.40    2.80
  -1   4   7   10.90    1.90
   0  -4  -7    6.20    1.80
   0  -4  -7    7.80    1.90
   0  -4  -7   10.20    1.60
   0  -4  -7    6.60    2.20
   0  -4  -7    7.30    2.10
   0   4   7    7.00    1.90
   0   4   7   10.30    2.00
   0   4   7    7.80    1.60
   0   4   7    4.50    1.90
   0   4   7    8.20    1.70
   0   4   7    6.90    3.80
  -1  -4  -7   10.00    2.00
  -1  -4  -7   12.30    2.70
  -1  -4  -7   12.80    1.90
  -1  -4  -7   11.50    2.20
  -1  -4  -7   12.60    2.20
   1   4   7   13.10    1.80
   1   4   7   10.20    2.10
   1   4   7    8.00    3.10
   1   4   7   12.50    2.00
   1   4   7   10.00    1.50
  -2  -4  -7    8.90    1.90
  -2  -4  -7    9.30    2.60
  -2  -4  -7    8.60    2.00
  -2  -4  -7    9.90    2.20
  -2  -4  -7    8.90    1.90
   2   4   7   12.50    1.80
   2   4   7    9.90    2.20
   2   4   7   10.60    1.60
   2   4   7   13.80    2.00
   2   4   7    9.90    2.20
   2   4   7    9.40    2.70
  -3  -4  -7   14.60    2.70
  -3  -4  -7   13.40    2.30
  -3  -4  -7   15.60    2.10
  -3  -4  -7   19.20    2.70
   3   4   7   20.80    2.90
   3   4   7   16.00    2.10
   3   4   7   19.20    3.30
   3   4   7   20.50    3.20
  -4  -4  -7   56.09    3.50
  -4  -4  -7   48.50    5.10
  -4  -4  -7   45.00    4.50
  -4  -4  -7   49.30    4.10
  -4  -4  -7   48.70    4.60
   4   4   7   49.60    4.60
   4   4   7   54.69    3.90
   4   4   7   40.60    5.00
   4   4   7   43.80    3.90
  -5  -4  -7   41.10    3.10
  -5  -4  -7   37.00    5.20
  -5  -4  -7   40.70    4.30
  -5  -4  -7   50.29    4.90
  -5  -4  -7   49.20    5.50
   5   4   7   48.50    4.30
   5   4   7   47.80    5.70
   5   4   7   52.89    4.50
   5   4   7   43.40    4.90
  -6  -4  -7   17.90    4.20
  -6  -4  -7   11.60    3.40
  -6  -4  -7   21.30    2.20
   6   4   7   21.30    3.40
   6   4   7   27.40    3.90
   6   4   7   28.80    4.60
   6   4   7   22.90    4.00
  -7  -4  -7    6.60    4.70
  -7  -4  -7   13.10    3.20
  -7  -4  -7   16.80    4.10
   7   4   7   11.00    3.20
   7   4   7   16.40    5.00
   7   4   7   15.00    4.10
   7   4   7   17.20    3.70
  -8  -4  -7    4.70    3.80
  -8  -4  -7   -0.40    3.50
   8   4   7   -8.00    4.90
   8   4   7    2.40    3.90
   8   4   7    2.00    3.90
   8   4   7   -2.50    3.70
  -9  -4  -7   12.10    4.90
  -9  -4  -7    9.20    5.10
   9   4   7    9.30    6.40
   9   4   7    8.10    4.60
   9   4   7    8.60    5.50
   9   4   7    6.60    5.30
   6  -5  -7   -2.00    3.00
   6  -5  -7   -0.40    4.00
   6  -5  -7   20.10    6.10
  -6   5   7    0.60    3.20
   5  -5  -7    0.00    3.50
   5  -5  -7   -2.50    4.70
   5  -5  -7    1.80    4.30
   5  -5  -7    3.50    2.60
   5  -5  -7    2.00    1.70
   5  -5  -7    9.30    6.80
  -5   5   7    4.70    3.10
   4  -5  -7   18.80    2.40
   4  -5  -7   23.60    4.90
   4  -5  -7   18.40    3.00
   4  -5  -7   18.10    3.90
   4  -5  -7   14.60    5.60
   4  -5  -7   14.90    2.50
   4  -5  -7   14.30    4.20
   4  -5  -7   15.10    2.70
  -4   5   7   17.50    3.30
  -4   5   7   17.50    2.20
   3  -5  -7   -0.80    2.50
   3  -5  -7    1.40    2.70
   3  -5  -7   -0.10    2.80
   3  -5  -7    3.10    1.50
   3  -5  -7    3.60    4.50
   3  -5  -7    2.60    2.10
   3  -5  -7    1.00    1.60
   3  -5  -7    2.60    2.20
  -3   5   7   -0.80    1.70
  -3   5   7    0.60    2.20
  -3   5   7   -2.00    2.30
  -3   5   7   -0.20    1.40
   2  -5  -7    6.20    2.40
   2  -5  -7    4.80    2.50
   2  -5  -7    9.00    2.00
   2  -5  -7    9.50    2.30
   2  -5  -7    5.60    1.40
  -2   5   7    6.40    2.60
  -2   5   7    7.00    2.80
  -2   5   7    6.10    1.80
  -2   5   7    7.30    2.40
   1  -5  -7    4.60    2.30
   1  -5  -7   10.90    2.40
   1  -5  -7    7.90    1.40
   1  -5  -7    7.60    2.00
   1  -5  -7    7.60    2.40
  -1   5   7    8.70    2.60
  -1   5   7    9.70    2.20
  -1   5   7    9.30    2.60
  -1   5   7    6.70    1.80
  -1   5   7    7.40    2.40
   0  -5  -7   50.19    4.50
   0  -5  -7   61.89    4.90
   0  -5  -7   54.89    4.10
   0  -5  -7   59.49    4.20
   0  -5  -7   56.19    3.30
   0   5   7   57.39    4.80
   0   5   7   56.49    3.40
   0   5   7   67.19    4.40
   0   5   7   70.79    4.80
   0   5   7   58.09    4.10
  -1  -5  -7   60.59    4.50
  -1  -5  -7   64.59    5.10
  -1  -5  -7   57.89    3.60
  -1  -5  -7   55.99    4.20
  -1  -5  -7   58.79    4.50
   1   5   7   61.59    4.00
   1   5   7   65.69    5.10
   1   5   7   65.39    4.60
   1   5   7   62.19    3.50
   1   5   7   66.89    4.60
   1   5   7   60.79    3.20
  -2  -5  -7   69.99    4.90
  -2  -5  -7   64.29    4.50
  -2  -5  -7   61.89    5.40
  -2  -5  -7   62.49    4.00
  -2  -5  -7   62.99    4.30
   2   5   7   62.69    4.90
   2   5   7   58.99    3.50
   2   5   7   60.89    4.50
   2   5   7   64.79    5.40
   2   5   7   68.39    3.50
  -3  -5  -7   -1.80    1.70
  -3  -5  -7    2.60    2.80
  -3  -5  -7    1.00    2.20
  -3  -5  -7    1.30    1.80
  -3  -5  -7    0.90    2.10
   3   5   7    3.60    2.40
   3   5   7    1.60    1.30
   3   5   7    0.70    2.90
   3   5   7    0.80    2.10
  -4  -5  -7  216.28   10.10
  -4  -5  -7  229.68   10.70
  -4  -5  -7  244.38   11.40
  -4  -5  -7  234.18    9.60
  -4  -5  -7  241.48   10.00
   4   5   7  250.87   10.30
   4   5   7  245.28   10.90
   4   5   7  236.38   11.20
   4   5   7  261.87    9.70
  -5  -5  -7   39.20    5.20
  -5  -5  -7   41.70    4.40
  -5  -5  -7   31.50    3.60
  -5  -5  -7   37.60    5.40
   5   5   7   35.60    5.20
   5   5   7   49.30    4.10
   5   5   7   36.50    5.30
   5   5   7   44.70    4.60
  -6  -5  -7   21.00    4.20
  -6  -5  -7   22.40    3.10
  -6  -5  -7   22.70    3.80
  -6  -5  -7   25.70    5.20
   6   5   7   22.00    5.10
   6   5   7   26.80    4.70
   6   5   7   21.20    3.40
   6   5   7   29.70    4.10
  -7  -5  -7    1.50    3.90
  -7  -5  -7   -0.20    1.50
  -7  -5  -7   -3.30    4.80
  -7  -5  -7    2.00    2.50
   7   5   7   -2.00    4.10
   7   5   7    7.70    3.40
   7   5   7   -2.00    4.40
   7   5   7    2.30    3.10
  -8  -5  -7   23.50    3.50
  -8  -5  -7   21.60    5.40
   8   5   7   15.40    4.60
   8   5   7   15.00    4.50
   8   5   7   20.40    6.00
   8   5   7   22.20    5.50
   6  -6  -7    4.70    4.10
   6  -6  -7    1.00    4.80
  -6   6   7    4.30    3.40
   5  -6  -7    3.10    4.00
   5  -6  -7   -1.00    5.30
   5  -6  -7    3.20    3.30
   5  -6  -7    3.30    2.50
   5  -6  -7    0.80    1.70
   4  -6  -7   -2.60    3.40
   4  -6  -7   -3.20    2.90
   4  -6  -7    0.20    6.40
   4  -6  -7   -5.80    2.40
   4  -6  -7   -2.50    3.80
   4  -6  -7    0.10    1.80
   4  -6  -7   -0.20    1.80
  -4   6   7   -2.20    2.10
  -4   6   7   -0.30    1.30
   3  -6  -7    6.30    3.20
   3  -6  -7    3.20    1.50
   3  -6  -7    3.90    2.70
   3  -6  -7   11.30    5.60
   3  -6  -7    4.30    2.10
   3  -6  -7    3.70    2.80
  -3   6   7    5.00    1.80
  -3   6   7    3.50    3.40
  -3   6   7    2.70    2.10
  -3   6   7    8.10    3.70
  -3   6   7    8.20    2.70
   2  -6  -7    8.50    1.50
   2  -6  -7    3.10    2.10
   2  -6  -7    8.60    4.50
   2  -6  -7    2.40    2.50
   2  -6  -7    6.90    2.80
   2  -6  -7    5.20    3.00
  -2   6   7    5.00    3.30
  -2   6   7   11.30    2.80
  -2   6   7    3.50    1.80
  -2   6   7    8.20    2.50
  -2   6   7    4.00    3.40
   1  -6  -7    5.20    2.50
   1  -6  -7    8.00    2.30
   1  -6  -7    8.70    1.50
   1  -6  -7    3.70    3.90
   1  -6  -7    7.00    2.90
   1  -6  -7    9.00    3.00
  -1   6   7   11.30    2.70
  -1   6   7   10.10    3.20
  -1   6   7    9.80    3.10
  -1   6   7    8.90    2.20
  -1   6   7    8.40    2.90
   0  -6  -7    2.70    2.60
   0  -6  -7   -0.60    2.10
   0  -6  -7    3.50    2.10
   0  -6  -7    0.00    2.60
   0  -6  -7    0.50    1.40
   0   6   7    2.80    2.40
   0   6   7    0.70    2.80
   0   6   7    0.30    1.30
   0   6   7    0.20    2.30
   0   6   7    2.80    2.40
  -1  -6  -7   16.20    3.60
  -1  -6  -7   20.10    2.40
  -1  -6  -7   24.50    3.30
  -1  -6  -7   17.30    3.00
  -1  -6  -7   24.50    3.80
   1   6   7   19.90    3.40
   1   6   7   24.20    2.60
   1   6   7   28.50    4.10
   1   6   7   25.90    3.30
   1   6   7   23.30    3.70
   1   6   7   23.70    2.20
  -2  -6  -7    3.70    3.30
  -2  -6  -7   -0.90    2.00
  -2  -6  -7   -1.60    2.20
  -2  -6  -7    0.50    1.80
   2   6   7    2.10    2.60
   2   6   7    1.10    1.40
   2   6   7   -2.30    2.40
   2   6   7    2.10    1.20
   2   6   7   -0.10    3.00
  -3  -6  -7    1.60    2.30
  -3  -6  -7    0.40    2.60
  -3  -6  -7    4.50    3.40
  -3  -6  -7    2.80    2.30
   3   6   7    1.20    3.50
   3   6   7    0.70    2.80
   3   6   7    1.40    1.30
   3   6   7    3.30    2.50
  -4  -6  -7    1.60    3.60
  -4  -6  -7   -0.80    2.30
  -4  -6  -7   -1.20    2.90
   4   6   7   -2.70    2.50
   4   6   7    1.60    3.60
   4   6   7   -4.10    3.10
   4   6   7   -0.30    1.80
  -5  -6  -7   -2.10    3.80
  -5  -6  -7    8.00    3.20
  -5  -6  -7   12.50    3.70
   5   6   7    8.10    4.90
   5   6   7    9.00    4.20
   5   6   7    5.70    2.50
   5   6   7    8.70    3.40
  -6  -6  -7   13.80    3.90
  -6  -6  -7   14.00    5.30
  -6  -6  -7   13.40    4.20
  -6  -6  -7    9.70    2.70
   6   6   7    8.90    3.60
   6   6   7   12.10    3.10
   6   6   7   10.00    4.80
   6   6   7   16.90    5.00
  -7  -6  -7    0.30    4.20
  -7  -6  -7   -0.60    2.20
   7   6   7   -5.10    5.20
   7   6   7    6.30    5.50
   7   6   7   -4.00    4.90
   7   6   7   -3.50    4.10
  -8  -6  -7   10.00    5.30
  -8  -6  -7    1.90    2.00
  -8  -6  -7    2.30    2.10
   8   6   7   10.10    7.70
   8   6   7   -5.90    4.20
   8   6   7   -5.80    5.00
   8   6   7    2.30    5.60
   5  -7  -7    2.30    3.00
   5  -7  -7   -0.70    2.30
   5  -7  -7    1.20    4.90
   5  -7  -7    7.00    2.60
   5  -7  -7    0.70    2.00
   5  -7  -7    7.40    6.70
  -5   7   7   -1.00    3.10
   4  -7  -7    4.00    3.60
   4  -7  -7   -1.00    2.10
   4  -7  -7    0.90    4.30
   4  -7  -7    2.80    3.00
   4  -7  -7    5.20    2.40
   4  -7  -7   -0.70    1.60
  -4   7   7    3.20    2.90
  -4   7   7    1.20    1.40
  -4   7   7    5.50    5.40
  -4   7   7    2.20    2.90
   3  -7  -7    6.30    6.50
   3  -7  -7    0.90    4.80
   3  -7  -7    1.60    2.30
   3  -7  -7    2.80    1.30
   3  -7  -7    1.50    3.50
   3  -7  -7    9.10    3.20
  -3   7   7   -2.00    4.30
  -3   7   7    5.40    2.80
  -3   7   7    0.90    2.10
   2  -7  -7   -3.90    5.00
   2  -7  -7    3.50    1.10
   2  -7  -7   -1.60    3.30
   2  -7  -7    2.10    2.30
   2  -7  -7    2.60    3.20
   2  -7  -7    0.00    3.00
  -2   7   7    4.30    3.60
  -2   7   7    2.40    2.70
  -2   7   7   -0.60    3.50
  -2   7   7    1.40    1.80
  -2   7   7    1.70    3.00
   1  -7  -7    0.40    3.10
   1  -7  -7    4.50    2.70
   1  -7  -7    3.40    1.20
   1  -7  -7    3.40    2.50
   1  -7  -7   -2.80    4.60
   1  -7  -7    5.60    3.50
  -1   7   7   -1.90    3.00
  -1   7   7    1.70    3.20
  -1   7   7    1.50    1.90
  -1   7   7    4.80    3.20
  -1   7   7    8.50    3.00
   0  -7  -7  107.89    8.20
   0  -7  -7  108.09    6.70
   0  -7  -7  104.19    6.60
   0  -7  -7  100.19    7.40
   0   7   7   99.59    6.90
   0   7   7  113.59    7.00
   0   7   7   93.99    7.20
   0   7   7   96.59    5.20
   0   7   7  116.99    6.90
  -1  -7  -7    0.30    2.80
  -1  -7  -7    0.40    4.10
  -1  -7  -7    1.00    2.50
  -1  -7  -7    3.50    4.20
   1   7   7   -2.10    2.70
   1   7   7   -2.80    3.30
   1   7   7   -5.80    2.60
   1   7   7   -0.50    1.50
   1   7   7   -2.20    2.60
  -2  -7  -7   21.90    4.50
  -2  -7  -7   16.60    3.80
  -2  -7  -7   24.60    4.40
  -2  -7  -7   20.70    3.70
   2   7   7   24.50    2.80
   2   7   7   28.00    4.90
   2   7   7   22.70    2.50
   2   7   7   21.30    4.60
   2   7   7   22.80    4.20
  -3  -7  -7    5.80    3.60
  -3  -7  -7    4.40    2.80
  -3  -7  -7    1.90    4.00
  -3  -7  -7    1.70    2.80
   3   7   7   -0.60    3.20
   3   7   7    6.60    4.20
   3   7   7    4.70    3.60
   3   7   7    5.80    1.60
  -4  -7  -7   17.90    3.80
  -4  -7  -7   14.70    4.20
  -4  -7  -7   15.60    4.50
  -4  -7  -7   18.30    2.90
   4   7   7    6.40    3.50
   4   7   7   17.00    2.80
   4   7   7   21.10    5.40
   4   7   7   16.20    4.60
  -5  -7  -7   -5.90    4.90
  -5  -7  -7    1.10    4.50
  -5  -7  -7    1.70    3.30
   5   7   7    0.80    2.60
   5   7   7   -6.90    3.80
   5   7   7   -2.60    4.30
   5   7   7    4.80    5.40
  -6  -7  -7    0.50    3.80
  -6  -7  -7    0.30    4.70
   6   7   7   -6.70    4.10
   6   7   7    4.60    5.80
   6   7   7   -1.70    2.90
   6   7   7   -2.40    5.10
  -7  -7  -7    6.30    3.30
   7   7   7   -3.20    3.70
   7   7   7    2.10    5.90
   7   7   7   13.50    7.50
   7   7   7  -11.80    5.30
   4  -8  -7   -3.80    2.60
   4  -8  -7   -6.30    5.30
   4  -8  -7    0.90    4.60
   4  -8  -7   -0.10    3.80
  -4   8   7   -2.80    2.90
  -4   8   7   -2.20    6.00
   3  -8  -7   -0.20    2.70
   3  -8  -7   -5.30    3.70
   3  -8  -7   -4.60    4.40
   3  -8  -7   -9.50    6.20
   3  -8  -7   -0.80    4.20
  -3   8   7   -0.80    2.40
  -3   8   7   -4.50    5.40
  -3   8   7   -0.30    3.40
   2  -8  -7    3.10    4.30
   2  -8  -7    3.40    6.80
   2  -8  -7   -1.40    3.90
   2  -8  -7   -7.80    5.20
   2  -8  -7   -0.50    2.80
   2  -8  -7    4.90    3.90
  -2   8   7    4.30    2.30
  -2   8   7    8.10    3.80
  -2   8   7    7.90    3.80
  -2   8   7   -3.90    4.60
   1  -8  -7    0.80    2.90
   1  -8  -7   -0.50    4.20
   1  -8  -7   -3.30    5.70
   1  -8  -7   -2.80    3.90
  -1   8   7   -1.10    3.50
  -1   8   7   -3.40    3.70
  -1   8   7   -4.10    3.70
  -1   8   7   -1.70    3.80
  -1   8   7    1.70    2.00
   0  -8  -7   -3.80    4.70
   0  -8  -7    1.30    3.50
   0  -8  -7    1.30    3.50
   0  -8  -7   -4.70    2.90
   0  -8  -7   -3.70    4.00
   0   8   7   -2.70    3.80
   0   8   7   -1.80    1.70
   0   8   7    1.40    3.50
   0   8   7    0.30    3.90
   0   8   7   -2.00    3.60
  -1  -8  -7    8.50    4.50
  -1  -8  -7   -4.00    4.30
  -1  -8  -7    9.90    3.60
  -1  -8  -7   -3.60    3.00
   1   8   7    0.40    4.30
   1   8   7   -3.30    3.80
   1   8   7   -4.80    3.70
   1   8   7    4.40    2.00
   1   8   7   -3.40    3.20
  -2  -8  -7    8.10    3.90
  -2  -8  -7   13.10    4.50
  -2  -8  -7    1.80    3.60
  -2  -8  -7    3.80    4.60
   2   8   7   -3.20    3.80
   2   8   7    5.00    5.10
   2   8   7    7.90    2.10
   2   8   7    7.50    1.50
   2   8   7   12.30    4.60
  -3  -8  -7    5.30    3.30
  -3  -8  -7   -6.10    4.70
  -3  -8  -7    7.60    4.40
   3   8   7    1.40    4.60
   3   8   7   -1.20    1.50
   3   8   7   -8.70    3.90
   3   8   7    5.30    5.60
  -4  -8  -7    3.00    5.90
  -4  -8  -7    3.50    2.30
  -4  -8  -7    6.90    4.40
  -4  -8  -7    4.10    5.50
   4   8   7    5.50    5.60
   4   8   7   -2.80    2.20
   4   8   7    8.50    4.30
   4   8   7    6.90    5.70
  -5  -8  -7   -0.60    5.00
  -5  -8  -7   -2.10    3.90
  -5  -8  -7   -2.30    5.90
   5   8   7    4.20    5.50
   5   8   7    6.10    4.70
   5   8   7   -2.70    2.70
  -6  -8  -7    0.90    4.40
  -6  -8  -7   -3.40    5.60
   6   8   7    3.60    6.10
   6   8   7   11.80    3.50
   2  -9  -7   -1.70    5.00
   2  -9  -7  -11.40    4.80
   2  -9  -7   -2.80    9.80
   2  -9  -7   -3.50    5.00
   2  -9  -7    3.80    6.80
   2  -9  -7    3.50    3.70
  -2   9   7   -2.40    2.90
  -2   9   7    0.80    4.70
  -2   9   7    6.90    4.30
  -2   9   7   10.60    5.60
   1  -9  -7    8.00    3.90
   1  -9  -7   12.40    6.50
   1  -9  -7   -0.80    4.50
   1  -9  -7    5.40    5.30
   1  -9  -7   10.00    7.70
  -1   9   7    7.80    5.10
  -1   9   7   21.20    5.70
  -1   9   7    9.00    4.90
   0  -9  -7    4.90    4.70
   0  -9  -7    2.90    4.10
   0  -9  -7    6.30    5.90
   0  -9  -7   13.80    6.80
   0  -9  -7    3.30    4.10
   0   9   7   11.10    5.00
   0   9   7    1.90    2.50
   0   9   7   -0.30    4.20
  -1  -9  -7    4.20    6.00
  -1  -9  -7   -6.50    4.00
  -1  -9  -7   -0.20    3.60
  -1  -9  -7    1.80    5.30
  -1  -9  -7   -1.50    4.20
   1   9   7   -1.40    2.20
   1   9   7   -4.40    4.20
   1   9   7   -2.90    5.00
  -2  -9  -7   -0.10    4.40
  -2  -9  -7   -3.50    3.80
  -2  -9  -7   -6.00    6.40
   2   9   7   10.80    5.40
  -3  -9  -7    0.30    5.10
  -3  -9  -7   -1.80    3.50
  -3  -9  -7    1.50    4.20
  -3  -9  -7  -10.40    6.30
   3   9   7   -2.50    5.60
   3   9   7    1.50    2.00
   3   9   7    1.20    1.80
  -4  -9  -7  -17.20    7.20
  -4  -9  -7   11.40    5.60
  -4  -9  -7    5.70    4.70
   4   9   7    1.30    8.90
   4   9   7    1.40    2.10
  -5  -9  -7    2.00    6.20
  -5  -9  -7    7.80    4.90
   5   9   7    1.00    3.20
   5   9   7   -3.10    7.00
  -1 -10  -7  -13.20    5.10
  -1 -10  -7    8.20    6.00
  -1 -10  -7   14.50    5.60
  -1 -10  -7    9.00    7.60
  -1 -10  -7    2.30    7.00
   1  10   7   -1.40    6.80
   1  10   7    1.60    2.60
   1  10   7    4.20    5.50
  -2 -10  -7    6.50    5.30
  -2 -10  -7   12.30    9.00
  -2 -10  -7   -9.90    5.40
  -2 -10  -7    5.20    5.40
   2  10   7   -1.50    6.90
   2  10   7   -9.60    5.50
   2  10   7   -1.70    2.30
   3   6  -8    9.10    7.00
  -3  -6   8    5.70    7.10
  -3  -6   8    8.30    4.40
   2   6  -8   -4.60    5.90
  -2  -6   8    8.10    4.40
  -2  -6   8    5.80    5.80
   1   6  -8    7.60    4.20
   1   6  -8   -6.40    5.80
  -1  -6   8    7.90    6.10
  -1  -6   8    7.40    1.90
   0   6  -8    9.00    5.70
   0   6  -8    5.80    3.70
   0  -6   8    5.10    2.30
   0  -6   8    8.30    6.30
   0  -6   8    2.70    5.10
  -1   6  -8    3.80    3.40
  -1   6  -8    7.90    5.40
   1  -6   8    4.80    2.80
   1  -6   8    1.40    4.60
   1  -6   8   13.70    5.90
  -2   6  -8   47.20    6.40
  -2   6  -8   68.69    9.00
   2  -6   8   42.40    7.20
   2  -6   8   39.60    5.90
   2  -6   8   48.30    5.70
  -3   6  -8    2.20    3.30
  -3   6  -8   -5.80    4.90
  -3   6  -8   -0.50    6.20
  -3   6  -8   -4.90    4.00
   3  -6   8   -2.50    4.30
   3  -6   8   -6.60    3.90
   3  -6   8   -2.70    4.50
  -4   6  -8    9.10    4.00
  -4   6  -8    4.10    5.10
  -4   6  -8    8.70    5.00
  -4   6  -8   17.40    8.00
   4  -6   8    3.30    5.60
   4  -6   8    6.90    4.90
   4   5  -8   -1.70    9.50
  -4  -5   8    0.90    6.50
  -4  -5   8   -3.30    2.90
   3   5  -8   -1.20    5.20
  -3  -5   8    1.90    3.30
   2   5  -8   -9.40    4.30
   2   5  -8    0.70    4.50
   2   5  -8   -1.90    3.50
  -2  -5   8   -2.30    8.90
  -2  -5   8   -4.50    5.20
   1   5  -8    4.90    3.30
   1   5  -8   -2.90    4.40
   1   5  -8    1.40    3.70
  -1  -5   8    1.80    5.10
  -1  -5   8   -2.90    4.30
  -1  -5   8    5.50    5.70
   0   5  -8   14.00    4.90
   0   5  -8    4.60    3.20
   0   5  -8    9.90    3.70
   0  -5   8   14.60    5.20
   0  -5   8   11.40    4.40
   0  -5   8    4.90    5.40
  -1   5  -8   84.99    7.30
  -1   5  -8   79.79    6.30
  -1   5  -8   95.19    8.10
   1  -5   8   81.69    8.40
   1  -5   8   93.39    7.80
  -2   5  -8    4.40    3.70
  -2   5  -8    1.30    3.80
  -2   5  -8    8.60    3.10
   2  -5   8    5.60    3.80
   2  -5   8    3.00    3.70
   2  -5   8    8.70    4.10
  -3   5  -8    5.90    3.30
  -3   5  -8   -4.10    3.60
  -3   5  -8    3.70    2.60
  -3   5  -8    3.60    3.80
   3  -5   8   -1.70    3.50
   3  -5   8    4.70    3.90
   3  -5   8    1.70    3.50
  -4   5  -8   -0.30    4.00
  -4   5  -8    0.40    2.90
  -4   5  -8    0.00    5.60
  -4   5  -8   -4.50    3.60
   4  -5   8    2.50    3.70
   4  -5   8   -2.00    4.20
   4  -5   8    5.80    3.90
  -5   5  -8   18.10    7.60
  -5   5  -8    8.30    3.40
  -5   5  -8    6.80    4.20
  -5   5  -8    1.80    4.50
   5  -5   8    5.90    4.10
   5  -5   8   -2.70    4.30
   5  -5   8    7.30    4.40
   5  -5   8   10.00    3.50
  -6   5  -8    1.90    8.10
  -6   5  -8   -4.50    4.40
  -6   5  -8    7.70    5.90
  -6   5  -8    0.50    3.60
   6  -5   8   -1.60    4.30
   6  -5   8   -5.50    3.60
   6  -5   8   -3.00    4.90
   6  -5   8   -2.30    4.20
   5   4  -8   -4.00    5.30
   5   4  -8    1.50    5.40
  -5  -4   8    3.20    5.80
   4   4  -8    3.60    4.30
   4   4  -8   -5.70    4.00
   4   4  -8    2.70    4.90
  -4  -4   8   -3.10    2.20
  -4  -4   8    1.40    2.10
  -4  -4   8   -5.70    5.00
   3   4  -8   -1.80    4.10
   3   4  -8    1.30    3.80
   3   4  -8    7.60    3.90
   3   4  -8   -3.60    3.60
  -3  -4   8    4.40    4.20
  -3  -4   8    1.80    4.90
   2   4  -8    5.90    3.40
   2   4  -8    3.70    4.30
   2   4  -8    4.70    3.40
  -2  -4   8   13.60    4.80
  -2  -4   8    8.30    4.00
  -2  -4   8    0.50    3.40
   1   4  -8    4.30    3.00
   1   4  -8    4.10    3.60
   1   4  -8    1.90    2.80
  -1  -4   8    5.20    3.40
  -1  -4   8    0.10    3.70
  -1  -4   8   -7.10    2.90
   0   4  -8   31.50    4.70
   0   4  -8   32.50    4.80
   0   4  -8   40.20    5.20
   0  -4   8   34.40    4.40
   0  -4   8   40.90    5.50
   0  -4   8   39.50    5.70
  -1   4  -8   86.39    5.70
  -1   4  -8   76.59    6.50
  -1   4  -8   84.59    6.30
   1  -4   8   86.29    6.80
   1  -4   8   96.89    7.40
   1  -4   8   76.79    6.30
  -2   4  -8   11.60    3.60
  -2   4  -8   10.60    2.80
  -2   4  -8   14.10    3.30
   2  -4   8   13.10    3.70
   2  -4   8    8.50    3.30
   2  -4   8   15.70    3.80
  -3   4  -8   18.50    3.50
  -3   4  -8   14.30    2.60
  -3   4  -8   18.40    3.80
   3  -4   8   12.80    3.40
   3  -4   8   16.40    3.40
   3  -4   8   14.60    3.90
  -4   4  -8    6.90    2.40
  -4   4  -8    0.90    2.80
  -4   4  -8    3.00    3.20
  -4   4  -8    3.40    3.20
   4  -4   8    4.50    3.80
   4  -4   8    5.80    2.60
   4  -4   8    5.10    3.10
   4  -4   8    5.50    3.10
  -5   4  -8    7.20    5.70
  -5   4  -8   15.70    3.70
  -5   4  -8   11.70    4.00
  -5   4  -8   17.30    3.20
  -5   4  -8   21.30    4.60
   5  -4   8   12.50    3.50
   5  -4   8    6.90    3.30
   5  -4   8   16.30    3.50
   5  -4   8   11.10    4.00
  -6   4  -8   -3.20    3.20
  -6   4  -8   -5.50    6.40
  -6   4  -8   -1.30    4.00
  -6   4  -8    6.40    4.80
   6  -4   8    2.00    3.30
   6  -4   8   -1.50    3.00
   6  -4   8    0.40    4.00
   6  -4   8   -4.20    3.30
  -7   4  -8   -2.70    7.80
  -7   4  -8    2.70    3.90
   7  -4   8   -3.80    3.60
   7  -4   8   -2.10    4.70
   7  -4   8   -3.40    3.40
   7  -4   8   -3.70    3.90
   6   3  -8   -2.40    5.40
   6   3  -8   -0.10    5.30
   6   3  -8   15.00    4.90
  -6  -3   8   14.00    6.50
   5   3  -8   -2.40    4.60
   5   3  -8   -9.30    3.80
   5   3  -8   -0.90    4.60
  -5  -3   8   -5.90    4.40
  -5  -3   8  -12.70    8.00
   4   3  -8   -0.10    3.80
   4   3  -8    1.90    3.50
  -4  -3   8    6.40    4.20
  -4  -3   8    2.50    1.80
  -4  -3   8    1.90    2.50
  -4  -3   8   -2.60    3.90
  -4  -3   8    4.00    4.80
  -4  -3   8    2.70    1.70
   3   3  -8   20.90    4.70
   3   3  -8   16.30    3.50
   3   3  -8   24.80    4.10
   3   3  -8   16.20    3.60
  -3  -3   8   20.50    3.30
  -3  -3   8   20.70    2.60
  -3  -3   8   18.30    4.20
  -3  -3   8   19.10    4.20
  -3  -3   8   20.00    4.90
   2   3  -8   28.90    4.50
   2   3  -8   13.40    3.30
   2   3  -8   22.00    3.60
   2   3  -8   23.90    3.90
  -2  -3   8   14.00    2.50
  -2  -3   8   16.40    3.40
  -2  -3   8   20.30    4.10
  -2  -3   8   30.70    4.80
   1   3  -8    0.80    2.40
   1   3  -8   -0.10    2.60
   1   3  -8    0.50    2.80
   1   3  -8   -1.30    2.20
  -1  -3   8    1.10    3.30
  -1  -3   8   -0.20    1.60
  -1  -3   8   -3.80    2.50
  -1  -3   8   -1.20    2.60
   0   3  -8  500.15   18.40
   0   3  -8  470.65   17.80
   0   3  -8  469.65   18.10
   0   3  -8  522.65   17.50
   0  -3   8  515.05   18.50
   0  -3   8  443.36   16.00
   0  -3   8  500.75   18.40
   0  -3   8  461.55   17.60
  -1   3  -8   21.80    3.60
  -1   3  -8   13.20    3.10
  -1   3  -8   12.60    2.60
  -1   3  -8   18.00    3.50
   1  -3   8   12.20    2.70
   1  -3   8   15.50    3.30
   1  -3   8   20.20    3.70
  -2   3  -8  116.79    6.80
  -2   3  -8  128.29    6.40
  -2   3  -8  122.99    7.00
   2  -3   8  122.99    7.00
   2  -3   8  119.89    6.70
   2  -3   8  122.09    7.20
  -3   3  -8   15.70    3.20
  -3   3  -8   15.70    2.20
  -3   3  -8   13.20    2.90
  -3   3  -8   15.00    3.30
   3  -3   8   13.40    2.60
   3  -3   8   13.00    2.80
   3  -3   8   16.90    2.80
   3  -3   8   13.90    4.30
  -4   3  -8   44.50    4.70
  -4   3  -8   38.90    5.10
  -4   3  -8   43.20    5.00
  -4   3  -8   39.70    3.40
   4  -3   8   36.80    4.40
   4  -3   8   41.40    4.20
   4  -3   8   48.20    4.60
   4  -3   8   42.80    5.10
  -5   3  -8   -2.30    3.00
  -5   3  -8    5.80    3.40
  -5   3  -8    2.40    2.70
   5  -3   8    5.30    2.40
   5  -3   8   -0.50    3.10
   5  -3   8    1.50    2.30
   5  -3   8    1.40    2.30
  -6   3  -8   -0.40    2.80
  -6   3  -8   -2.40    5.40
  -6   3  -8    5.40    4.00
  -6   3  -8   -1.80    3.50
   6  -3   8   -0.50    2.60
   6  -3   8    4.30    3.40
   6  -3   8   -0.70    2.40
  -7   3  -8    3.40    4.40
  -7   3  -8   -1.90    6.80
  -7   3  -8    0.80    5.40
  -7   3  -8    1.30    3.10
   7  -3   8    4.60    2.60
   7  -3   8    2.80    3.50
   7  -3   8   -2.90    4.40
   7  -3   8   -0.50    3.30
   6   2  -8    7.90    4.40
   6   2  -8   10.70    4.00
   6   2  -8    9.10    4.80
  -6  -2   8   13.20    3.60
  -6  -2   8    8.10    6.00
  -6  -2   8   10.90    5.50
   5   2  -8    0.30    3.80
   5   2  -8   -0.50    5.20
   5   2  -8    1.70    4.00
  -5  -2   8    2.60    2.60
  -5  -2   8    8.90    4.50
  -5  -2   8    0.70    4.40
  -5  -2   8    6.70    4.00
   4   2  -8    4.30    3.10
   4   2  -8    9.30    3.80
   4   2  -8   12.60    3.30
  -4  -2   8    9.40    3.50
  -4  -2   8    6.20    2.70
  -4  -2   8   10.50    1.60
  -4  -2   8   11.80    4.40
  -4  -2   8   10.40    4.20
   3   2  -8    9.20    3.10
   3   2  -8    4.90    2.80
   3   2  -8    9.10    2.90
  -3  -2   8    5.40    1.70
  -3  -2   8    7.70    3.70
  -3  -2   8    6.10    3.10
  -3  -2   8    9.40    3.30
  -3  -2   8    4.40    2.30
   2   2  -8   10.20    2.80
   2   2  -8    6.30    2.60
   2   2  -8    9.30    2.70
   2   2  -8    9.30    3.00
  -2  -2   8    6.60    2.10
  -2  -2   8    4.40    2.70
  -2  -2   8    9.60    2.10
  -2  -2   8    8.80    2.80
  -2  -2   8    9.40    3.40
   1   2  -8    3.00    2.10
   1   2  -8    1.40    2.20
   1   2  -8    4.90    2.30
   1   2  -8    0.90    2.20
  -1  -2   8   -0.70    1.40
  -1  -2   8   -2.90    2.40
  -1  -2   8   -1.50    2.10
  -1  -2   8   -1.70    2.20
   0   2  -8  101.69    5.80
   0   2  -8   87.19    5.70
   0   2  -8   91.69    5.60
   0   2  -8   93.29    5.30
   0  -2   8   86.39    5.50
   0  -2   8  101.59    6.20
   0  -2   8   82.99    4.20
   0  -2   8   95.29    5.80
  -1   2  -8  152.48    7.40
  -1   2  -8  148.29    7.50
  -1   2  -8  151.08    7.50
  -1   2  -8  165.68    7.10
   1  -2   8  150.88    7.20
   1  -2   8  150.98    7.40
   1  -2   8  146.69    5.70
   1  -2   8  156.28    7.90
  -2   2  -8   80.49    5.00
  -2   2  -8   81.99    4.80
  -2   2  -8   80.79    5.20
   2  -2   8   79.69    4.90
   2  -2   8   69.09    4.60
   2  -2   8   67.39    3.20
   2  -2   8   75.59    5.10
   2  -2   8   67.69    6.30
  -3   2  -8  137.09    5.60
  -3   2  -8  144.39    7.30
  -3   2  -8  149.99    7.20
  -3   2  -8  139.79    7.20
   3  -2   8  148.89    7.20
   3  -2   8  147.69    6.90
   3  -2   8  146.79    6.90
   3  -2   8  145.09    7.60
  -4   2  -8   44.80    4.80
  -4   2  -8   46.40    3.00
  -4   2  -8   52.29    4.80
  -4   2  -8   53.19    4.50
  -4   2  -8   56.39    4.00
   4  -2   8   62.29    4.40
   4  -2   8   46.70    5.00
   4  -2   8   49.50    4.00
   4  -2   8   55.89    4.50
  -5   2  -8   91.99    6.80
  -5   2  -8   98.99    6.00
  -5   2  -8  103.69    6.10
  -5   2  -8  103.39    6.70
   5  -2   8   98.69    5.30
   5  -2   8  110.29    6.20
   5  -2   8  110.09    6.10
   5  -2   8  108.19    6.80
  -6   2  -8   20.80    5.40
  -6   2  -8    5.20    3.70
  -6   2  -8   11.20    2.90
  -6   2  -8    8.10    3.10
  -6   2  -8   11.30    3.60
   6  -2   8    9.40    3.00
   6  -2   8   10.60    3.70
   6  -2   8   10.00    1.20
   6  -2   8    8.40    2.10
   6  -2   8   13.10    2.90
  -7   2  -8    6.40    4.00
  -7   2  -8    3.20    2.80
  -7   2  -8    2.70    5.10
  -7   2  -8    2.50    3.80
  -7   2  -8    0.10    5.60
   7  -2   8    2.10    4.10
   7  -2   8   -2.60    1.90
   7  -2   8    0.70    6.10
   7  -2   8    3.00    4.80
   7  -2   8    4.20    5.20
  -8   2  -8    3.40    4.50
  -8   2  -8   -1.20    6.90
  -8   2  -8   -1.50    3.00
   8  -2   8   -3.50    4.60
   8  -2   8   -2.10    3.40
   8  -2   8    5.40    3.20
   6   1  -8    9.20    4.10
   6   1  -8    8.20    3.90
   6   1  -8   10.00    4.10
  -6  -1   8   -0.80    5.60
  -6  -1   8   10.20    4.50
  -6  -1   8   15.10    5.90
  -6  -1   8   14.10    4.60
  -6  -1   8    4.60    3.20
   5   1  -8    1.00    3.10
   5   1  -8    1.60    3.10
   5   1  -8    8.10    4.00
  -5  -1   8   -3.00    4.20
  -5  -1   8   -1.80    2.20
  -5  -1   8    6.10    3.40
  -5  -1   8   -1.90    3.70
   4   1  -8    4.00    3.00
   4   1  -8    5.10    2.80
   4   1  -8    2.80    2.50
  -4  -1   8    0.30    3.00
  -4  -1   8    7.00    3.40
  -4  -1   8    9.20    1.40
  -4  -1   8    6.90    2.40
  -4  -1   8    7.80    3.70
   3   1  -8    1.20    2.20
   3   1  -8    4.40    2.50
   3   1  -8    0.70    2.10
  -3  -1   8    2.60    2.60
  -3  -1   8    0.10    1.80
  -3  -1   8    2.40    2.60
  -3  -1   8    0.90    1.30
  -3  -1   8    1.80    2.70
   2   1  -8    3.90    1.90
   2   1  -8    2.30    2.20
   2   1  -8   10.30    2.60
   2   1  -8    3.80    2.00
  -2  -1   8    3.70    2.40
  -2  -1   8    8.00    2.70
  -2  -1   8    0.60    2.00
  -2  -1   8    3.80    1.60
  -2  -1   8    1.90    1.70
   1   1  -8  101.79    7.80
   1   1  -8   95.09    5.60
   1   1  -8   93.89    5.40
   1   1  -8   92.99    5.30
  -1  -1   8   93.19    5.60
  -1  -1   8   99.59    5.90
  -1  -1   8   90.79    4.80
  -1  -1   8   95.79    5.60
  -1  -1   8   86.99    4.50
   0   1  -8  140.59    6.60
   0   1  -8  137.99    7.40
   0   1  -8  151.78    6.60
   0   1  -8  142.59    6.90
   0  -1   8  135.79    6.80
   0  -1   8  148.19    6.80
   0  -1   8  143.39    7.10
   0  -1   8  126.39    5.60
   0  -1   8  137.99    6.30
  -1   1  -8   23.80    3.00
  -1   1  -8   25.10    3.30
  -1   1  -8   20.60    2.70
   1  -1   8   24.80    3.20
   1  -1   8   20.90    2.90
   1  -1   8   25.60    2.00
   1  -1   8   27.00    3.80
  -2   1  -8   21.00    1.90
  -2   1  -8   23.60    3.10
  -2   1  -8   22.00    2.90
  -2   1  -8   27.70    3.00
  -2   1  -8   25.10    3.30
   2  -1   8   22.20    3.20
   2  -1   8   21.90    3.00
   2  -1   8   20.90    1.70
   2  -1   8   19.20    2.60
   2  -1   8   26.00    3.10
  -3   1  -8    3.50    2.00
  -3   1  -8    8.60    2.30
  -3   1  -8    5.80    2.00
  -3   1  -8    8.90    1.90
  -3   1  -8    7.30    2.50
   3  -1   8    5.10    1.90
   3  -1   8    6.30    1.80
   3  -1   8    8.40    1.20
   3  -1   8   11.30    2.10
   3  -1   8    4.60    2.60
  -4   1  -8   -0.70    1.90
  -4   1  -8   -2.10    2.00
  -4   1  -8   -0.50    2.20
  -4   1  -8   -0.50    1.60
   4  -1   8   -4.50    2.10
   4  -1   8    0.20    1.70
   4  -1   8    2.00    1.00
   4  -1   8    0.90    1.70
   4  -1   8    1.10    1.50
  -5   1  -8   39.20    4.90
  -5   1  -8   32.40    4.00
  -5   1  -8   41.90    4.10
  -5   1  -8   41.40    5.00
   5  -1   8   39.30    4.00
   5  -1   8   37.70    2.20
   5  -1   8   41.90    4.10
   5  -1   8   35.60    3.20
   5  -1   8   41.20    4.90
  -6   1  -8    2.40    2.40
  -6   1  -8    0.80    3.10
  -6   1  -8    7.70    3.00
  -6   1  -8   -1.90    3.40
   6  -1   8   -0.40    2.20
   6  -1   8    3.00    2.60
   6  -1   8    1.30    1.60
   6  -1   8    7.70    3.20
  -7   1  -8   70.59    7.90
  -7   1  -8   63.69    6.40
  -7   1  -8   77.89    8.30
  -7   1  -8   79.99    7.00
  -7   1  -8   73.89    5.50
   7  -1   8   73.49    8.90
   7  -1   8   61.59    7.10
   7  -1   8   65.19    9.70
   7  -1   8   68.19    5.50
   7  -1   8   62.29    3.50
  -8   1  -8   -8.30    6.30
  -8   1  -8   -1.40    2.80
  -8   1  -8   -0.60    4.80
  -8   1  -8    0.70    4.40
   8  -1   8   -1.60    4.30
   8  -1   8    5.80    3.20
   8  -1   8   -3.60    3.50
   8  -1   8    9.00    7.70
   7   0  -8    1.20    4.10
   7   0  -8    1.70    4.20
   7   0  -8    7.40    4.40
  -7   0   8    1.60    6.70
  -7   0   8    6.00    4.40
  -7   0   8    2.40    2.90
  -7   0   8    1.30    4.50
   6   0  -8   -0.60    5.10
   6   0  -8    1.50    4.30
   6   0  -8    0.40    3.30
   6   0  -8   -2.30    3.80
  -6   0   8  -11.40    5.20
  -6   0   8   -3.90    3.50
  -6   0   8    4.30    3.60
  -6   0   8    4.90    3.80
  -6   0   8    2.50    5.40
   5   0  -8   -1.70    2.60
   5   0  -8    2.40    3.10
   5   0  -8    0.10    2.50
  -5   0   8   -3.60    2.80
  -5   0   8   -1.70    4.00
  -5   0   8    3.60    2.50
  -5   0   8   -0.70    3.10
  -5   0   8   -3.30    3.90
   4   0  -8   13.60    3.00
   4   0  -8   13.40    3.20
   4   0  -8   13.30    3.00
  -4   0   8    8.60    3.00
  -4   0   8   11.70    1.60
  -4   0   8   13.80    3.80
  -4   0   8   10.10    2.90
  -4   0   8    8.80    2.80
   3   0  -8    7.60    2.20
   3   0  -8    7.40    2.40
   3   0  -8    5.30    2.40
  -3   0   8   10.00    2.70
  -3   0   8    8.50    2.50
  -3   0   8    7.00    3.10
  -3   0   8    4.70    1.50
  -3   0   8    8.70    2.40
   2   0  -8    6.00    2.10
   2   0  -8    3.40    1.90
   2   0  -8    8.20    2.10
   2   0  -8    5.90    2.20
  -2   0   8    4.50    1.50
  -2   0   8    7.20    1.90
  -2   0   8    4.20    1.90
  -2   0   8    4.30    2.60
  -2   0   8   10.90    2.60
   1   0  -8   77.49    4.70
   1   0  -8   76.99    4.80
   1   0  -8   81.29    4.60
   1   0  -8   79.29    4.90
  -1   0   8   78.89    4.20
  -1   0   8   82.69    4.80
  -1   0   8   79.59    5.20
  -1   0   8   80.59    4.20
  -1   0   8   81.59    5.10
   0   0  -8   72.69    4.20
   0   0  -8   62.19    4.00
   0   0  -8   65.49    4.30
   0   0   8   63.79    3.90
   0   0   8   59.09    4.10
   0   0   8   64.39    3.40
   0   0   8   59.59    4.40
   0   0   8   59.79    4.40
  -1   0  -8    9.80    2.30
  -1   0  -8    6.40    1.70
  -1   0  -8    4.00    1.60
  -1   0  -8    9.60    1.90
   1   0   8    6.80    1.90
   1   0   8    6.90    1.90
   1   0   8    5.80    1.90
   1   0   8    5.20    1.50
   1   0   8    5.30    1.30
  -2   0  -8   -0.30    1.20
  -2   0  -8   -0.10    1.50
  -2   0  -8    0.70    1.60
  -2   0  -8    0.70    0.90
  -2   0  -8    1.20    1.90
   2   0   8   -0.80    1.40
   2   0   8   -1.60    1.90
   2   0   8    1.10    0.90
   2   0   8    0.80    1.40
   2   0   8    0.70    1.50
   2   0   8    0.20    1.60
  -3   0  -8    0.10    1.30
  -3   0  -8   -1.80    1.60
  -3   0  -8    0.30    2.00
  -3   0  -8   -2.00    1.30
  -3   0  -8   -1.50    1.40
   3   0   8    0.00    0.90
   3   0   8    0.40    1.40
   3   0   8    0.60    2.00
   3   0   8    2.30    1.50
   3   0   8    0.40    1.50
   3   0   8    1.50    1.90
  -4   0  -8    0.50    1.40
  -4   0  -8   -0.60    1.40
  -4   0  -8    3.10    2.20
  -4   0  -8   -0.20    2.30
  -4   0  -8    0.10    1.70
   4   0   8   -2.10    1.50
   4   0   8    0.90    2.10
   4   0   8   -0.80    1.30
   4   0   8    2.60    1.00
   4   0   8   -1.60    2.00
   4   0   8    0.00    1.80
  -5   0  -8   -1.90    2.40
  -5   0  -8    1.20    2.50
  -5   0  -8    2.50    2.10
  -5   0  -8   -1.80    1.70
   5   0   8    1.00    1.40
   5   0   8    1.70    1.90
   5   0   8    2.40    1.90
   5   0   8    0.10    2.40
   5   0   8   -4.70    2.50
  -6   0  -8    5.60    2.40
  -6   0  -8    3.00    3.20
  -6   0  -8   -0.30    2.40
  -6   0  -8    4.80    3.20
   6   0   8    0.80    2.10
   6   0   8    7.10    3.90
   6   0   8    2.40    1.50
   6   0   8    1.00    2.90
   6   0   8    5.00    2.30
   6   0   8    0.30    3.10
  -7   0  -8    6.40    4.50
  -7   0  -8   -3.00    3.70
  -7   0  -8   -2.60    3.10
  -7   0  -8    6.30    2.70
  -7   0  -8    6.30    4.40
   7   0   8    2.20    2.80
   7   0   8   -5.30    4.50
   7   0   8    2.90    3.70
   7   0   8   -3.20    3.60
   7   0   8    3.70    2.90
  -8   0  -8   -1.20    4.50
  -8   0  -8    3.20    4.30
  -8   0  -8    4.30    3.10
  -8   0  -8   -2.20    5.60
   8   0   8    3.50    4.60
   8   0   8    4.60    6.30
   8   0   8   -2.30    3.30
   8   0   8   -3.70    2.70
   8   0   8    1.50    3.10
   8   0   8   -5.10    4.40
  -9   0  -8   -2.40    7.30
  -9   0  -8    7.40    5.20
  -9   0  -8    4.90    3.60
   9   0   8   -1.00    3.60
   9   0   8    5.70    4.60
   9   0   8    1.80    3.90
   9   0   8   -1.30    5.50
   7  -1  -8   -6.10    3.80
   7  -1  -8   -3.30    3.90
  -7   1   8    7.90    4.00
  -7   1   8   -2.20    2.80
  -7   1   8    8.00    7.40
   6  -1  -8    9.20    3.40
   6  -1  -8   12.80    5.60
   6  -1  -8    4.70    3.10
  -6   1   8    0.50    3.70
  -6   1   8    8.20    5.30
  -6   1   8    9.00    3.60
  -6   1   8    7.50    5.20
   5  -1  -8   54.59    7.00
   5  -1  -8   63.49    5.50
   5  -1  -8   57.79    5.20
  -5   1   8   48.00    5.80
  -5   1   8   50.99    5.30
  -5   1   8   53.09    8.20
  -5   1   8   54.99    4.80
  -5   1   8   57.59    5.20
   4  -1  -8    9.10    2.40
   4  -1  -8   11.40    3.80
   4  -1  -8    8.40    2.70
  -4   1   8    4.90    3.60
  -4   1   8    7.70    2.80
  -4   1   8    9.60    1.80
  -4   1   8    8.20    2.70
  -4   1   8   11.60    2.80
  -4   1   8    9.20    4.00
   3  -1  -8   22.50    3.20
   3  -1  -8   23.90    3.80
   3  -1  -8   25.30    3.30
   3  -1  -8   19.20    2.30
  -3   1   8   30.20    4.10
  -3   1   8   20.00    2.90
  -3   1   8   29.70    3.80
  -3   1   8   23.80    3.30
  -3   1   8   20.50    2.60
   2  -1  -8   14.70    2.60
   2  -1  -8   15.30    2.50
   2  -1  -8   11.30    2.40
   2  -1  -8   14.10    1.80
   2  -1  -8   12.10    2.60
  -2   1   8   10.60    1.90
  -2   1   8   12.50    2.90
  -2   1   8   16.80    2.60
  -2   1   8   18.60    2.90
  -2   1   8   11.20    2.20
   1  -1  -8    8.70    1.90
   1  -1  -8    9.50    2.40
   1  -1  -8   11.50    2.10
   1  -1  -8    7.20    1.80
   1  -1  -8    8.70    2.00
   1  -1  -8    8.40    1.20
  -1   1   8    7.60    1.80
  -1   1   8    8.70    1.90
  -1   1   8    7.30    2.50
  -1   1   8    8.50    2.50
  -1   1   8    8.80    1.70
   0  -1  -8   80.79    4.80
   0  -1  -8   79.59    4.40
   0  -1  -8   79.89    4.60
   0  -1  -8   75.69    3.60
   0   1   8   74.39    4.20
   0   1   8   76.59    3.80
   0   1   8   79.79    5.00
   0   1   8   83.09    4.60
  -1  -1  -8   13.00    2.50
  -1  -1  -8    9.80    2.30
  -1  -1  -8   15.40    2.10
  -1  -1  -8   13.50    1.10
  -1  -1  -8   15.80    2.90
   1   1   8   13.50    1.70
   1   1   8   19.60    2.70
   1   1   8   13.30    2.20
   1   1   8   13.20    2.90
   1   1   8    9.00    2.10
   1   1   8   12.70    2.00
  -2  -1  -8   18.80    2.80
  -2  -1  -8   16.50    2.30
  -2  -1  -8   24.30    3.50
  -2  -1  -8   20.90    2.80
   2   1   8   18.20    2.40
   2   1   8   21.50    2.70
   2   1   8   17.00    2.40
   2   1   8   18.10    2.90
   2   1   8   19.40    1.80
  -3  -1  -8   49.00    3.90
  -3  -1  -8   53.29    3.20
  -3  -1  -8   54.09    4.40
  -3  -1  -8   49.20    4.00
   3   1   8   55.19    3.60
   3   1   8   54.29    4.60
   3   1   8   51.59    2.70
   3   1   8   57.39    3.70
   3   1   8   58.89    4.10
   3   1   8   49.60    4.00
  -4  -1  -8    0.80    1.90
  -4  -1  -8   -1.50    1.90
  -4  -1  -8   -0.60    1.10
  -4  -1  -8   -4.00    2.10
   4   1   8    4.10    2.20
   4   1   8   -0.20    2.20
   4   1   8   -0.90    1.30
   4   1   8   -0.90    1.50
  -5  -1  -8   87.39    4.00
  -5  -1  -8   84.49    5.40
  -5  -1  -8   86.09    5.30
  -5  -1  -8   80.09    6.00
  -5  -1  -8   81.69    6.00
   5   1   8   79.79    4.10
   5   1   8   83.39    5.60
   5   1   8   84.59    6.30
   5   1   8   79.19    5.90
   5   1   8   91.99    5.30
  -6  -1  -8   68.09    6.70
  -6  -1  -8   75.69    5.50
  -6  -1  -8   76.39    6.30
  -6  -1  -8   70.49    5.40
   6   1   8   57.49    7.20
   6   1   8   76.09    6.50
   6   1   8   71.09    3.50
   6   1   8   87.89    5.90
   6   1   8   76.89    5.40
   6   1   8   70.79    5.70
  -7  -1  -8    0.20    4.40
  -7  -1  -8   11.20    4.20
  -7  -1  -8   -0.40    3.10
  -7  -1  -8    2.50    2.70
  -7  -1  -8    1.20    3.70
   7   1   8    3.00    4.30
   7   1   8    2.80    3.50
   7   1   8    4.80    2.10
   7   1   8    3.00    3.00
   7   1   8   -2.00    3.40
   7   1   8    8.50    3.20
  -8  -1  -8   -6.10    4.60
  -8  -1  -8   -1.80    3.00
  -8  -1  -8    9.50    4.80
  -8  -1  -8    7.60    4.30
   8   1   8    1.90    4.20
   8   1   8    0.00    5.30
   8   1   8    1.30    2.90
   8   1   8    3.70    3.50
   8   1   8    4.40    3.70
   8   1   8    3.10    4.30
  -9  -1  -8    6.10    3.80
  -9  -1  -8    3.10    7.40
  -9  -1  -8    8.10    5.30
   9   1   8   -6.80    7.30
   9   1   8    4.30    4.40
   9   1   8    9.40    6.00
   9   1   8    8.30    4.10
   9   1   8    8.90    8.60
   7  -2  -8    4.10    3.60
   7  -2  -8    3.70    3.80
   7  -2  -8    4.20    3.90
  -7   2   8    8.20    3.20
  -7   2   8    5.00    3.00
  -7   2   8   -4.50    2.70
  -7   2   8    6.00    6.70
   6  -2  -8   -3.00    2.80
   6  -2  -8    4.10    7.30
   6  -2  -8   10.00    3.20
   6  -2  -8    3.80    3.50
   6  -2  -8    5.80    5.70
  -6   2   8    1.80    5.30
  -6   2   8    3.30    3.00
  -6   2   8    1.70    3.20
   5  -2  -8   10.50    3.40
   5  -2  -8   15.90    2.90
   5  -2  -8   14.80    4.70
   5  -2  -8   14.20    2.90
   5  -2  -8   15.10    3.40
  -5   2   8   12.10    3.10
  -5   2   8    2.90    4.30
  -5   2   8    9.20    3.30
  -5   2   8   13.60    2.90
  -5   2   8    9.80    4.80
   4  -2  -8    5.00    2.70
   4  -2  -8    2.90    2.10
   4  -2  -8    5.70    2.20
   4  -2  -8    6.40    3.40
   4  -2  -8    1.40    2.40
  -4   2   8    7.90    3.90
  -4   2   8    3.10    2.20
  -4   2   8    1.20    3.30
  -4   2   8    6.60    2.30
  -4   2   8    4.30    2.40
  -4   2   8    7.60    1.90
   3  -2  -8   86.99    4.90
   3  -2  -8   88.29    5.20
   3  -2  -8   95.89    4.60
   3  -2  -8   91.09    6.00
   3  -2  -8  101.59    5.70
   3  -2  -8   81.69    5.30
   3  -2  -8   94.59    5.20
  -3   2   8   90.29    5.50
  -3   2   8   92.49    4.80
  -3   2   8   90.99    5.00
  -3   2   8   96.29    7.00
  -3   2   8  100.19    6.60
  -3   2   8   89.39    5.20
   2  -2  -8   34.50    3.60
   2  -2  -8   31.70    3.20
   2  -2  -8   32.30    3.50
   2  -2  -8   36.00    2.90
   2  -2  -8   33.60    2.80
   2  -2  -8   35.80    3.60
  -2   2   8   28.40    4.20
  -2   2   8   27.80    3.70
  -2   2   8   33.10    4.60
  -2   2   8   32.40    3.10
  -2   2   8   35.90    3.10
  -2   2   8   36.50    3.20
   1  -2  -8   14.60    2.30
   1  -2  -8   15.10    2.10
   1  -2  -8   14.10    2.30
   1  -2  -8   15.70    2.60
   1  -2  -8   18.10    2.50
   1  -2  -8   13.10    2.10
  -1   2   8   15.90    2.20
  -1   2   8   16.00    2.10
  -1   2   8   18.70    2.30
  -1   2   8   15.10    2.90
  -1   2   8   16.10    2.70
   0  -2  -8   -0.90    1.30
   0  -2  -8   -0.60    1.30
   0  -2  -8    0.10    1.40
   0  -2  -8    0.70    1.70
   0  -2  -8    0.40    1.10
   0  -2  -8   -0.20    1.30
   0   2   8    1.30    1.20
   0   2   8   -1.20    1.90
   0   2   8   -0.60    1.30
   0   2   8   -1.70    1.30
  -1  -2  -8    8.40    2.20
  -1  -2  -8   12.90    2.10
  -1  -2  -8   12.50    1.90
  -1  -2  -8    8.90    2.00
   1   2   8   11.50    2.10
   1   2   8   10.70    2.00
   1   2   8   15.70    2.80
   1   2   8   14.20    1.80
   1   2   8   11.90    1.90
  -2  -2  -8   39.60    3.90
  -2  -2  -8   42.10    3.50
  -2  -2  -8   34.60    3.30
  -2  -2  -8   40.10    3.00
   2   2   8   36.60    2.40
   2   2   8   33.80    4.50
   2   2   8   43.60    3.10
   2   2   8   42.70    3.50
  -3  -2  -8    0.10    1.70
  -3  -2  -8    1.30    2.10
  -3  -2  -8    2.10    1.90
  -3  -2  -8    1.10    1.20
   3   2   8    0.30    1.00
   3   2   8   -0.60    1.70
   3   2   8   -1.70    2.00
   3   2   8    0.90    1.30
   3   2   8    1.90    1.60
   3   2   8    1.20    1.70
  -4  -2  -8   10.90    1.70
  -4  -2  -8    8.20    2.50
  -4  -2  -8    8.90    2.20
  -4  -2  -8   10.40    2.60
   4   2   8   10.80    2.10
   4   2   8   11.70    2.90
   4   2   8   10.20    2.50
   4   2   8    6.70    2.50
  -5  -2  -8   45.00    5.10
  -5  -2  -8   40.20    4.90
  -5  -2  -8   41.50    2.70
  -5  -2  -8   44.30    4.30
   5   2   8   52.69    4.30
   5   2   8   44.20    4.30
   5   2   8   44.10    5.90
   5   2   8   47.70    4.60
   5   2   8   41.00    2.30
   5   2   8   42.70    4.20
  -6  -2  -8   13.40    3.70
  -6  -2  -8    7.20    2.90
  -6  -2  -8    9.80    1.60
  -6  -2  -8   14.90    3.80
   6   2   8   14.10    3.20
   6   2   8   14.70    3.10
   6   2   8    9.70    2.80
   6   2   8    8.50    1.80
   6   2   8    9.20    3.30
  -7  -2  -8    2.20    3.90
  -7  -2  -8   -4.40    3.10
  -7  -2  -8    1.00    4.30
  -7  -2  -8    0.60    2.80
  -7  -2  -8   -3.50    3.30
   7   2   8   -8.10    3.50
   7   2   8    2.00    3.00
   7   2   8    3.00    3.40
   7   2   8    1.80    4.20
   7   2   8    1.60    2.10
   7   2   8   -3.20    2.80
  -8  -2  -8   12.20    3.50
  -8  -2  -8    6.10    4.20
  -8  -2  -8    1.30    4.60
   8   2   8    2.50    3.50
   8   2   8   -5.30    4.60
   8   2   8    8.00    4.90
   8   2   8   11.70    4.20
   8   2   8    2.70    2.90
   8   2   8    3.80    3.90
  -9  -2  -8    3.70    6.10
  -9  -2  -8    1.30    5.10
  -9  -2  -8    8.40    4.10
   9   2   8   -0.40    4.30
   9   2   8    7.90    6.90
   9   2   8   11.60    4.60
   9   2   8    6.70    4.10
   9   2   8    9.40    5.40
   9   2   8   15.10    6.60
   6  -3  -8    5.80    2.10
   6  -3  -8    2.70    5.70
   6  -3  -8    4.90    3.10
   6  -3  -8    9.90    3.10
   6  -3  -8   -2.30    4.60
  -6   3   8    0.00    2.70
  -6   3   8   12.20    2.60
  -6   3   8    6.20    6.10
  -6   3   8    8.90    2.40
   5  -3  -8   -0.10    1.80
   5  -3  -8    5.40    4.50
   5  -3  -8   -1.50    2.10
   5  -3  -8    3.50    3.00
   5  -3  -8    1.30    2.40
   5  -3  -8    2.00    3.60
  -5   3   8    0.90    4.30
  -5   3   8    1.50    2.50
  -5   3   8    1.70    2.60
   4  -3  -8    2.30    2.90
   4  -3  -8    6.70    2.00
   4  -3  -8    2.10    2.20
   4  -3  -8    5.10    1.80
   4  -3  -8    8.00    3.80
   4  -3  -8    6.00    2.70
  -4   3   8    4.20    3.90
  -4   3   8    5.90    2.40
  -4   3   8    5.00    2.20
  -4   3   8    5.50    2.50
  -4   3   8    2.90    2.30
   3  -3  -8  123.69    5.70
   3  -3  -8  120.39    7.00
   3  -3  -8  121.99    6.20
   3  -3  -8  119.29    5.90
   3  -3  -8  117.99    6.20
   3  -3  -8  118.69    6.10
   3  -3  -8  126.09    6.70
  -3   3   8  120.99    5.80
  -3   3   8  113.89    6.10
  -3   3   8  132.39    7.90
  -3   3   8  124.79    6.10
  -3   3   8  118.69    6.30
   2  -3  -8   -0.80    1.80
   2  -3  -8   -0.60    1.90
   2  -3  -8    0.80    1.60
   2  -3  -8    0.00    1.80
   2  -3  -8    1.60    2.20
   2  -3  -8    1.00    1.60
  -2   3   8    2.20    1.40
  -2   3   8    0.00    1.70
  -2   3   8    1.00    1.50
  -2   3   8    0.10    2.10
  -2   3   8    1.90    2.10
   1  -3  -8  165.98    7.20
   1  -3  -8  170.38    7.40
   1  -3  -8  166.38    7.60
   1  -3  -8  175.68    7.80
   1  -3  -8  172.08    7.20
   1  -3  -8  181.48    7.10
  -1   3   8  170.38    7.30
  -1   3   8  173.78    7.40
  -1   3   8  164.78    7.00
  -1   3   8  176.58    7.80
  -1   3   8  166.58    7.70
   0  -3  -8    5.40    1.70
   0  -3  -8    3.80    1.70
   0  -3  -8    9.90    1.80
   0  -3  -8    2.80    1.80
   0  -3  -8    6.70    2.10
   0   3   8    6.50    1.90
   0   3   8    7.40    2.00
   0   3   8    6.70    2.20
   0   3   8    4.90    1.50
   0   3   8    6.90    1.80
  -1  -3  -8   23.90    3.30
  -1  -3  -8   24.90    2.70
  -1  -3  -8   24.10    2.80
  -1  -3  -8   22.20    2.80
  -1  -3  -8   20.50    2.70
   1   3   8   25.50    3.20
   1   3   8   24.50    3.60
   1   3   8   27.50    2.20
   1   3   8   23.60    2.40
  -2  -3  -8    1.90    2.10
  -2  -3  -8    0.40    1.40
  -2  -3  -8   -0.50    1.50
  -2  -3  -8    2.20    1.60
  -2  -3  -8   -1.30    1.60
   2   3   8   -2.60    2.10
   2   3   8    1.70    1.30
   2   3   8   -0.70    1.80
   2   3   8    0.40    0.90
   2   3   8   -0.60    1.00
   2   3   8    0.50    1.60
  -3  -3  -8    2.70    2.00
  -3  -3  -8    0.70    1.70
  -3  -3  -8    1.40    2.40
  -3  -3  -8    2.60    1.40
  -3  -3  -8    3.40    2.00
   3   3   8    3.90    2.20
   3   3   8    2.60    1.50
   3   3   8    4.80    1.30
   3   3   8    3.80    2.40
   3   3   8    3.10    1.80
  -4  -3  -8   70.49    5.40
  -4  -3  -8   79.69    4.10
  -4  -3  -8   82.19    5.30
  -4  -3  -8   83.79    6.00
   4   3   8   78.99    5.80
   4   3   8   87.99    4.80
   4   3   8   76.19    4.00
   4   3   8   80.09    5.40
   4   3   8   76.09    4.90
  -5  -3  -8  170.68    6.70
  -5  -3  -8  178.78    9.30
  -5  -3  -8  176.18    8.50
  -5  -3  -8  167.28    8.70
   5   3   8  197.68    8.20
   5   3   8  170.18    7.40
   5   3   8  170.68    8.60
   5   3   8  163.38    8.00
   5   3   8  183.58    9.40
  -6  -3  -8   17.40    2.00
  -6  -3  -8   16.70    4.20
  -6  -3  -8   18.80    3.50
  -6  -3  -8   10.70    3.90
   6   3   8   22.80    3.50
   6   3   8   18.80    3.50
   6   3   8   19.50    3.20
   6   3   8   16.10    3.80
   6   3   8   26.50    4.80
  -7  -3  -8   13.90    4.80
  -7  -3  -8   19.60    4.70
  -7  -3  -8   10.60    3.60
  -7  -3  -8   18.00    4.10
   7   3   8   15.90    4.00
   7   3   8   12.90    3.70
   7   3   8   15.80    3.70
   7   3   8   16.00    4.90
   7   3   8   11.70    3.90
  -8  -3  -8   -0.30    3.50
  -8  -3  -8   -0.70    4.30
   8   3   8    1.10    4.00
   8   3   8   -9.10    3.70
   8   3   8   -5.30    5.00
   8   3   8   -0.40    3.40
  -9  -3  -8   -1.50    4.30
  -9  -3  -8    1.10    5.60
  -9  -3  -8  -10.10    4.90
   9   3   8    6.80    4.90
   9   3   8   10.60    4.60
   9   3   8   -6.80    6.60
   9   3   8   -1.80    4.30
   9   3   8   -0.20    5.30
   6  -4  -8    5.10    5.70
   6  -4  -8    4.40    3.70
   6  -4  -8    2.20    2.60
   6  -4  -8   -3.20    2.60
   6  -4  -8    2.10    4.00
  -6   4   8    5.30    3.00
  -6   4   8    3.20    5.80
   5  -4  -8   -0.70    2.60
   5  -4  -8    1.20    3.40
   5  -4  -8    0.90    3.90
   5  -4  -8   -2.40    2.00
   5  -4  -8   -4.70    4.20
   5  -4  -8    2.90    2.30
   5  -4  -8   -4.30    6.20
  -5   4   8   -3.30    4.30
  -5   4   8    2.90    1.90
  -5   4   8    2.60    2.30
  -5   4   8    1.10    2.50
   4  -4  -8   -1.20    2.40
   4  -4  -8    1.80    1.90
   4  -4  -8    1.50    2.30
   4  -4  -8   -0.20    2.00
   4  -4  -8   -1.40    3.10
   4  -4  -8   -1.20    2.70
   4  -4  -8   -0.50    3.90
  -4   4   8    3.70    2.30
  -4   4   8   -0.50    1.80
  -4   4   8    0.50    2.40
  -4   4   8    0.10    3.50
   3  -4  -8    1.20    2.10
   3  -4  -8    4.80    3.10
   3  -4  -8    1.60    2.20
   3  -4  -8   -1.20    2.20
   3  -4  -8   -1.40    1.70
   3  -4  -8    0.40    2.60
   3  -4  -8    3.60    1.90
  -3   4   8    0.70    2.30
  -3   4   8    0.90    1.80
  -3   4   8   -3.30    2.90
   2  -4  -8   -0.70    1.60
   2  -4  -8   -1.00    1.50
   2  -4  -8   -1.00    2.10
   2  -4  -8   -0.10    2.30
   2  -4  -8   -1.40    2.20
   2  -4  -8    1.80    1.80
  -2   4   8    0.30    1.60
  -2   4   8   -1.40    2.30
  -2   4   8    0.10    2.10
  -2   4   8    0.30    1.40
   1  -4  -8   52.49    3.30
   1  -4  -8   54.59    3.90
   1  -4  -8   57.09    4.50
   1  -4  -8   51.69    4.40
   1  -4  -8   48.90    3.80
  -1   4   8   45.90    4.10
  -1   4   8   53.19    3.80
  -1   4   8   43.90    3.30
  -1   4   8   51.09    4.30
  -1   4   8   44.30    4.10
   0  -4  -8   28.20    3.00
   0  -4  -8   26.70    3.20
   0  -4  -8   26.40    3.50
   0  -4  -8   28.50    3.70
   0  -4  -8   25.00    2.60
   0   4   8   28.00    3.60
   0   4   8   22.50    2.90
   0   4   8   24.20    2.40
   0   4   8   23.20    2.70
   0   4   8   26.40    3.40
   0   4   8   28.90    3.50
  -1  -4  -8   47.50    3.50
  -1  -4  -8   49.20    3.60
  -1  -4  -8   50.79    3.90
  -1  -4  -8   47.10    4.50
  -1  -4  -8   50.29    4.00
   1   4   8   50.99    4.10
   1   4   8   51.29    3.30
   1   4   8   47.60    4.40
   1   4   8   43.00    3.10
   1   4   8   45.20    3.00
   1   4   8   42.40    3.80
  -2  -4  -8   21.70    3.10
  -2  -4  -8   23.80    3.20
  -2  -4  -8   28.30    3.50
  -2  -4  -8   27.10    3.20
  -2  -4  -8   28.60    3.90
   2   4   8   30.80    3.60
   2   4   8   32.10    2.70
   2   4   8   23.70    3.50
   2   4   8   29.20    2.50
   2   4   8   31.70    3.80
   2   4   8   26.60    2.50
  -3  -4  -8    5.20    2.10
  -3  -4  -8   10.30    2.80
  -3  -4  -8    7.80    1.90
  -3  -4  -8    8.30    3.20
   3   4   8    4.10    2.20
   3   4   8    7.60    2.40
   3   4   8    4.80    1.60
   3   4   8    2.20    2.70
  -4  -4  -8    0.70    2.00
  -4  -4  -8    2.30    1.60
  -4  -4  -8    1.70    2.30
  -4  -4  -8    1.20    2.50
  -4  -4  -8   -1.60    2.90
   4   4   8    4.00    2.30
   4   4   8    2.20    3.00
   4   4   8    5.00    2.60
   4   4   8    3.20    1.70
  -5  -4  -8   25.40    2.80
  -5  -4  -8   13.40    3.90
  -5  -4  -8   21.50    3.60
  -5  -4  -8   27.40    4.20
   5   4   8   21.30    3.40
   5   4   8   22.30    3.40
   5   4   8   24.10    3.90
   5   4   8   21.00    4.20
  -6  -4  -8    4.00    3.70
  -6  -4  -8    2.30    3.10
  -6  -4  -8    2.40    3.70
  -6  -4  -8    2.50    1.40
   6   4   8    4.30    3.30
   6   4   8    0.40    3.80
   6   4   8    6.20    3.10
   6   4   8    4.20    2.70
  -7  -4  -8   19.90    4.50
  -7  -4  -8   14.60    3.70
  -7  -4  -8   16.10    5.30
   7   4   8   10.70    3.70
   7   4   8   15.60    6.00
   7   4   8   12.10    3.60
   7   4   8    8.20    5.20
  -8  -4  -8    4.40    4.20
  -8  -4  -8    1.70    4.10
   8   4   8    6.30    5.70
   8   4   8   16.50    4.60
   8   4   8    8.10    4.80
   8   4   8    7.20    4.50
  -9  -4  -8    0.70    4.60
   9   4   8   -0.50    4.50
   9   4   8    0.30    5.50
   9   4   8   -5.40    5.40
   9   4   8    6.10    7.20
   6  -5  -8    2.80    2.60
   6  -5  -8    6.10    4.40
   6  -5  -8   -3.90    2.30
   6  -5  -8   -0.30    3.40
  -6   5   8    5.60    3.40
   5  -5  -8    1.90    5.00
   5  -5  -8   -1.50    2.80
   5  -5  -8   -2.70    5.40
   5  -5  -8    3.60    2.20
   5  -5  -8   -1.30    2.70
   5  -5  -8   -0.90    3.70
   5  -5  -8    2.10    3.00
  -5   5   8    6.10    5.20
   4  -5  -8    2.60    2.30
   4  -5  -8    3.50    2.80
   4  -5  -8    2.70    2.10
   4  -5  -8    4.80    4.00
   4  -5  -8    0.90    3.80
   4  -5  -8   -1.30    3.10
   4  -5  -8    4.50    2.80
   4  -5  -8    1.40    5.80
  -4   5   8    1.00    2.30
  -4   5   8    3.60    1.80
  -4   5   8    4.70    4.10
  -4   5   8    1.00    2.60
   3  -5  -8    1.50    1.80
   3  -5  -8   -0.70    1.80
   3  -5  -8   -0.60    2.80
   3  -5  -8    0.90    3.20
   3  -5  -8    3.80    3.20
   3  -5  -8    0.90    2.40
   3  -5  -8    2.10    2.40
  -3   5   8   -0.70    2.80
  -3   5   8    0.90    3.10
  -3   5   8    1.00    1.90
  -3   5   8    3.90    2.60
   2  -5  -8   -0.60    1.50
   2  -5  -8    0.80    2.60
   2  -5  -8   -0.20    2.30
   2  -5  -8   -0.90    1.70
   2  -5  -8    0.20    2.00
  -2   5   8    0.70    2.50
  -2   5   8    3.10    1.80
  -2   5   8    4.00    2.50
  -2   5   8    0.20    1.50
  -2   5   8    1.50    2.80
  -2   5   8    0.90    2.40
   1  -5  -8   25.00    3.70
   1  -5  -8   16.80    2.70
   1  -5  -8   16.60    3.10
   1  -5  -8   24.90    3.30
   1  -5  -8   18.80    2.20
  -1   5   8   20.20    3.20
  -1   5   8   18.40    3.30
  -1   5   8   15.00    2.30
  -1   5   8   20.50    3.30
   0  -5  -8   15.30    3.20
   0  -5  -8   13.30    2.00
   0  -5  -8   13.80    2.70
   0  -5  -8   14.60    2.80
   0  -5  -8   11.20    2.60
   0   5   8   17.50    2.80
   0   5   8   11.40    3.30
   0   5   8   15.20    2.50
   0   5   8   17.10    2.80
   0   5   8   14.00    3.00
  -1  -5  -8    6.20    2.40
  -1  -5  -8    1.90    2.00
  -1  -5  -8    6.70    3.00
  -1  -5  -8    3.60    1.70
  -1  -5  -8   -0.90    1.80
   1   5   8    0.10    2.20
   1   5   8    2.90    1.40
   1   5   8    4.80    2.50
   1   5   8    0.70    2.40
   1   5   8    4.70    1.40
   1   5   8    4.80    2.00
  -2  -5  -8   10.80    2.70
  -2  -5  -8   11.70    2.50
  -2  -5  -8   14.00    2.50
  -2  -5  -8   14.50    2.60
  -2  -5  -8   12.40    4.00
   2   5   8   12.30    2.00
   2   5   8   16.30    3.10
   2   5   8   16.80    3.10
   2   5   8   21.40    2.50
   2   5   8   18.40    3.80
   2   5   8   16.50    2.50
  -3  -5  -8   18.90    4.50
  -3  -5  -8   24.20    3.30
  -3  -5  -8   11.70    5.10
  -3  -5  -8   30.40    3.60
  -3  -5  -8   18.90    3.40
   3   5   8   19.90    3.30
   3   5   8   19.30    2.70
   3   5   8   20.50    4.30
   3   5   8   24.40    3.70
  -4  -5  -8  203.78    9.80
  -4  -5  -8  211.58   10.30
  -4  -5  -8  232.48    9.80
  -4  -5  -8  215.08    9.10
  -4  -5  -8  202.38   10.70
   4   5   8  219.38   10.40
   4   5   8  214.88   10.90
   4   5   8  247.18    9.20
   4   5   8  209.38    9.60
  -5  -5  -8   20.80    4.10
  -5  -5  -8   17.40    4.00
  -5  -5  -8   16.60    3.50
  -5  -5  -8   11.50    3.90
  -5  -5  -8   16.60    2.60
   5   5   8   15.50    3.00
   5   5   8   16.40    4.20
   5   5   8   14.10    3.40
   5   5   8   12.20    4.20
  -6  -5  -8   -1.20    3.20
  -6  -5  -8    1.50    1.80
  -6  -5  -8   -5.70    4.60
   6   5   8    3.60    4.60
   6   5   8   -1.60    2.60
   6   5   8    1.30    3.10
   6   5   8   -1.20    3.30
  -7  -5  -8   10.10    8.30
  -7  -5  -8   -0.30    4.20
  -7  -5  -8   -4.60    2.90
  -7  -5  -8   -1.30    1.60
   7   5   8   -3.10    4.10
   7   5   8   -4.60    3.90
   7   5   8    3.50    5.10
  -8  -5  -8   -6.30    3.60
  -8  -5  -8    1.50    4.40
   8   5   8    2.10    5.10
   8   5   8    1.70    5.00
   8   5   8    2.20    4.10
   8   5   8    6.40    6.60
   5  -6  -8    3.40    3.70
   5  -6  -8    2.30    2.90
   5  -6  -8   10.60    2.40
   5  -6  -8    4.10    4.60
  -5   6   8    7.30    3.40
   4  -6  -8    3.50    3.10
   4  -6  -8   -0.40    3.00
   4  -6  -8    6.50    4.60
   4  -6  -8    0.50    2.20
   4  -6  -8   -3.30    2.10
   4  -6  -8    1.50    3.70
  -4   6   8   -1.10    2.50
  -4   6   8    1.40    2.30
  -4   6   8    0.20    1.70
   3  -6  -8    2.20    2.20
   3  -6  -8    6.10    3.40
   3  -6  -8    6.30    3.00
   3  -6  -8    5.10    1.90
   3  -6  -8    2.80    6.20
   3  -6  -8    5.60    3.10
   3  -6  -8    3.20    3.70
  -3   6   8    4.00    2.20
  -3   6   8    4.80    3.60
  -3   6   8    5.30    2.10
  -3   6   8    5.10    2.90
   2  -6  -8    0.10    2.10
   2  -6  -8    1.30    1.60
   2  -6  -8   -1.20    2.40
   2  -6  -8   -1.70    3.00
   2  -6  -8    0.30    5.10
   2  -6  -8   -1.30    3.00
  -2   6   8    1.00    3.20
  -2   6   8    5.30    3.50
  -2   6   8    1.40    1.60
  -2   6   8    1.00    2.90
   1  -6  -8    2.60    2.50
   1  -6  -8    5.60    3.20
   1  -6  -8    1.50    2.10
   1  -6  -8    3.60    1.60
  -1   6   8    2.70    3.00
  -1   6   8    4.60    3.10
  -1   6   8    8.60    2.70
  -1   6   8    4.60    3.10
  -1   6   8    2.10    1.70
   0  -6  -8   -0.10    2.30
   0  -6  -8    3.90    3.10
   0  -6  -8    2.70    1.70
   0  -6  -8    2.10    2.80
   0  -6  -8   -0.40    2.20
   0   6   8    2.70    2.60
   0   6   8   -2.20    2.80
   0   6   8    1.60    1.60
   0   6   8    2.00    2.70
   0   6   8   -0.90    2.50
  -1  -6  -8    1.10    2.40
  -1  -6  -8   -1.70    1.80
  -1  -6  -8   -2.10    3.10
  -1  -6  -8    1.40    2.20
  -1  -6  -8    0.30    2.30
   1   6   8   -0.80    1.30
   1   6   8    0.00    2.50
   1   6   8    5.20    2.30
   1   6   8   -2.10    3.10
   1   6   8    0.00    1.30
  -2  -6  -8    3.20    2.60
  -2  -6  -8    6.50    3.60
  -2  -6  -8    0.00    2.40
  -2  -6  -8    4.50    2.50
  -2  -6  -8    6.30    2.30
   2   6   8    4.30    2.90
   2   6   8    7.50    1.70
   2   6   8    6.50    3.50
   2   6   8    4.90    1.80
   2   6   8    3.00    2.90
   2   6   8    8.30    2.40
  -3  -6  -8    1.50    2.80
  -3  -6  -8    3.40    2.60
  -3  -6  -8    0.10    3.30
  -3  -6  -8    2.10    2.90
  -3  -6  -8   -1.20    2.30
   3   6   8    1.30    3.90
   3   6   8   -2.00    3.00
   3   6   8    4.60    3.00
   3   6   8    3.30    1.60
  -4  -6  -8   58.69    5.30
  -4  -6  -8   46.00    5.60
  -4  -6  -8   39.80    4.90
  -4  -6  -8   64.09    7.20
  -4  -6  -8   50.49    6.10
   4   6   8   50.19    4.20
   4   6   8   57.39    6.30
   4   6   8   47.20    5.60
   4   6   8   58.19    7.30
  -5  -6  -8   14.20    3.50
  -5  -6  -8    8.30    4.30
  -5  -6  -8   15.40    4.70
  -5  -6  -8    8.80    2.70
   5   6   8   16.60    5.30
   5   6   8    3.50    3.40
   5   6   8   12.20    2.90
   5   6   8   12.70    4.30
  -6  -6  -8   14.50    4.70
  -6  -6  -8   16.80    4.20
  -6  -6  -8   21.90    5.90
  -6  -6  -8   23.90    3.30
   6   6   8   13.10    7.20
   6   6   8   12.00    4.30
   6   6   8   16.40    6.10
   6   6   8   22.10    4.00
  -7  -6  -8    1.30    5.10
  -7  -6  -8    4.70    2.40
  -7  -6  -8    7.30    2.50
   7   6   8    3.20    3.30
   7   6   8   10.00    7.10
   7   6   8    1.50    4.80
   7   6   8    8.40    4.90
  -8  -6  -8    4.40    2.00
  -8  -6  -8   11.00    2.30
  -8  -6  -8   13.80    6.00
   8   6   8   10.40    6.90
   8   6   8   20.30    7.60
   8   6   8    7.60    6.00
   8   6   8    7.00    4.60
   4  -7  -8   -1.90    2.00
   4  -7  -8    1.10    2.60
   4  -7  -8    0.90    3.70
   4  -7  -8   -1.70    4.50
   4  -7  -8    1.80    3.50
  -4   7   8   -3.10    2.40
  -4   7   8   -3.30    1.80
  -4   7   8    3.70    3.00
   3  -7  -8   -3.00    1.70
   3  -7  -8    4.10    3.40
   3  -7  -8   -0.10    3.90
   3  -7  -8   -3.00    3.50
   3  -7  -8    8.70    7.20
  -3   7   8   -1.40    3.10
  -3   7   8   -2.70    2.20
  -3   7   8   -1.70    5.60
  -3   7   8    1.80    2.20
   2  -7  -8    5.00    5.50
   2  -7  -8   -3.20    2.30
   2  -7  -8   10.50    6.30
   2  -7  -8    1.50    3.60
   2  -7  -8    0.70    1.70
   2  -7  -8    3.10    3.10
  -2   7   8    0.20    4.10
  -2   7   8    0.00    3.40
  -2   7   8    2.60    4.00
  -2   7   8    0.10    1.80
   1  -7  -8   25.00    2.90
   1  -7  -8   16.80    6.00
   1  -7  -8   16.40    3.80
   1  -7  -8   24.50    4.80
   1  -7  -8   22.90    3.70
   1  -7  -8   22.10    4.10
  -1   7   8   21.70    4.30
  -1   7   8   22.30    4.40
  -1   7   8   23.40    4.60
  -1   7   8   20.60    2.90
  -1   7   8   24.80    3.90
   0  -7  -8    0.00    3.70
   0  -7  -8    5.40    4.60
   0  -7  -8    0.30    2.70
   0  -7  -8    3.20    3.00
   0  -7  -8    2.10    1.80
   0  -7  -8    2.60    3.40
   0   7   8    0.10    3.10
   0   7   8    3.50    3.60
   0   7   8    5.00    3.60
   0   7   8   10.30    3.30
   0   7   8    5.90    2.00
  -1  -7  -8   20.20    4.60
  -1  -7  -8   18.30    3.60
  -1  -7  -8   27.20    4.00
  -1  -7  -8   15.30    3.80
  -1  -7  -8   24.50    3.50
   1   7   8   30.10    4.80
   1   7   8   18.10    3.60
   1   7   8   30.70    4.70
   1   7   8   20.70    4.10
   1   7   8   22.70    2.80
  -2  -7  -8    9.90    2.80
  -2  -7  -8   10.70    4.30
  -2  -7  -8   19.10    4.10
  -2  -7  -8   13.00    3.50
  -2  -7  -8   11.80    3.20
   2   7   8   11.90    2.00
   2   7   8   21.20    3.60
   2   7   8   10.50    4.20
   2   7   8   20.50    4.40
   2   7   8   12.30    3.90
   2   7   8   13.10    2.50
  -3  -7  -8  110.69    7.90
  -3  -7  -8  102.89    7.10
  -3  -7  -8  118.09    7.10
  -3  -7  -8   92.39    8.50
   3   7   8   99.39    8.80
   3   7   8   83.89    7.10
   3   7   8  108.39    5.30
   3   7   8  127.99    8.40
  -4  -7  -8   25.60    4.10
  -4  -7  -8   19.40    5.20
  -4  -7  -8   24.00    4.30
  -4  -7  -8   24.90    5.00
   4   7   8   23.10    6.00
   4   7   8   31.10    5.70
   4   7   8   19.50    2.70
   4   7   8   26.50    4.60
  -5  -7  -8    1.90    3.10
  -5  -7  -8   -0.60    4.50
  -5  -7  -8    7.90    5.50
  -5  -7  -8   -0.50    3.80
   5   7   8   -0.20    2.60
   5   7   8    2.90    4.60
   5   7   8    9.60    5.70
   5   7   8   -0.40    4.20
  -6  -7  -8    7.30    3.60
  -6  -7  -8   13.80    4.50
   6   7   8   19.50    6.00
   6   7   8    9.00    3.90
   6   7   8   11.10    6.30
   6   7   8   12.20    4.80
  -7  -7  -8    1.40    4.80
  -7  -7  -8   -0.40    5.80
  -7  -7  -8   -0.20    3.20
   7   7   8  -11.50    5.50
   7   7   8   -2.40    3.80
   3  -8  -8    4.10    5.30
   3  -8  -8    8.60    4.60
   3  -8  -8    2.40    4.40
  -3   8   8   -4.10    5.20
  -3   8   8   -0.50    4.10
  -3   8   8   -1.90    3.80
  -3   8   8   -2.70    2.60
   2  -8  -8   -0.50    4.50
   2  -8  -8    4.50    3.90
   2  -8  -8   -2.50    4.30
   2  -8  -8    3.30    7.50
   2  -8  -8   -6.60    3.50
  -2   8   8   -4.90    4.10
  -2   8   8   -1.50    5.60
  -2   8   8    3.90    3.60
   1  -8  -8    6.10    4.60
   1  -8  -8   -0.30    3.70
   1  -8  -8    0.50    6.40
   1  -8  -8   -5.60    4.00
   1  -8  -8   -2.10    5.10
  -1   8   8   -0.40    4.70
  -1   8   8   -1.80    4.30
  -1   8   8    1.70    3.30
  -1   8   8    2.70    3.60
  -1   8   8    7.10    4.20
   0  -8  -8   10.80    5.80
   0  -8  -8    1.90    4.10
   0  -8  -8    6.60    5.00
   0  -8  -8    6.50    3.80
   0   8   8    6.00    4.70
   0   8   8    6.00    4.10
   0   8   8    8.10    2.50
   0   8   8    9.80    4.60
   0   8   8    5.30    4.10
  -1  -8  -8    1.60    5.10
  -1  -8  -8    1.70    3.90
  -1  -8  -8    0.20    3.20
  -1  -8  -8   -0.90    4.80
  -1  -8  -8   -1.20    4.80
   1   8   8   -1.10    3.40
   1   8   8   -0.70    4.60
   1   8   8   -2.50    4.40
   1   8   8   -0.30    1.80
  -2  -8  -8   23.40    5.10
  -2  -8  -8   29.70    4.90
  -2  -8  -8   25.30    4.70
  -2  -8  -8   23.90    5.60
   2   8   8   45.20    5.30
   2   8   8   30.90    3.10
   2   8   8   30.90    5.40
   2   8   8   23.00    5.40
   2   8   8   36.80    6.70
  -3  -8  -8    5.90    3.90
  -3  -8  -8    8.90    5.60
  -3  -8  -8    5.00    4.20
  -3  -8  -8    4.40    3.50
   3   8   8    3.60    2.00
   3   8   8   -0.30    4.40
   3   8   8    4.70    4.80
   3   8   8    2.30    1.90
   3   8   8    6.90    5.80
  -4  -8  -8   36.10    5.50
  -4  -8  -8   18.50    5.20
  -4  -8  -8   26.60    6.60
  -4  -8  -8   25.00    4.00
   4   8   8   31.00    3.90
   4   8   8   29.40    5.70
   4   8   8   32.30    6.90
  -5  -8  -8    9.10    4.50
  -5  -8  -8    8.60    5.40
   5   8   8    4.10    5.80
  -6  -8  -8    4.90    5.20
  -6  -8  -8    2.10    5.20
  -6  -8  -8    6.80    4.20
   6   8   8   -9.00    6.10
   6   8   8   -2.60    3.70
   2  -9  -8    6.70    5.80
   2  -9  -8    2.40    4.90
   2  -9  -8    0.80    3.80
   2  -9  -8   -7.20    5.60
  -2   9   8    1.70    4.40
  -2   9   8    2.40    6.10
  -2   9   8   10.50    6.70
  -2   9   8   -2.80    2.90
   1  -9  -8    9.50    4.10
   1  -9  -8    2.40    8.30
   1  -9  -8    4.60    5.40
   1  -9  -8    9.70    5.30
   1  -9  -8    8.90    5.90
  -1   9   8    8.20    5.60
  -1   9   8   -2.30    4.70
  -1   9   8    4.30    3.00
   0  -9  -8   21.30    7.80
   0  -9  -8    7.70    4.40
   0  -9  -8   -2.90    5.20
   0  -9  -8    0.80    4.40
   0  -9  -8    6.90    6.00
   0   9   8    6.00    2.70
   0   9   8   11.60    5.00
  -1  -9  -8   -3.50    4.40
  -1  -9  -8   -0.90    6.30
  -1  -9  -8    8.00    4.20
  -1  -9  -8   -3.00    6.00
   1   9   8   -2.90    5.10
   1   9   8    2.50    2.40
   1   9   8   -8.80    4.20
  -2  -9  -8   -9.80    6.50
  -2  -9  -8   -0.90    4.60
  -2  -9  -8    8.60    5.40
  -2  -9  -8    0.30    4.20
   2   9   8    2.90    2.50
   2   9   8    7.20    5.70
  -3  -9  -8   15.30    4.80
  -3  -9  -8   10.70    4.70
  -3  -9  -8   15.10    7.90
  -3  -9  -8   22.40    6.00
   3   9   8   12.10    2.70
   3   9   8   18.10    2.60
   3   9   8   14.20    6.40
  -4  -9  -8   13.60    5.20
  -4  -9  -8   -1.70    5.40
  -4  -9  -8    3.00    3.20
   4   9   8    8.60    7.20
   4   9   8   -0.90    2.30
   1   6  -9   -6.30    6.60
  -1  -6   9    6.50    6.50
   0   6  -9   15.10    7.00
   0  -6   9   -0.90    5.80
  -1   6  -9   21.30    9.90
  -1   6  -9   -3.50    4.10
   1  -6   9   -9.90    7.10
   1  -6   9   14.90    6.50
  -2   6  -9   -4.10    4.60
  -2   6  -9   14.20    6.10
   2  -6   9   -8.70    5.30
   2  -6   9    5.60    5.80
   3   5  -9   -8.30    6.20
  -3  -5   9    7.90    6.60
   2   5  -9   -1.80    5.40
  -2  -5   9    8.20    6.10
   1   5  -9    2.20    5.10
   1   5  -9    5.60    4.30
  -1  -5   9   12.50    5.50
   0   5  -9    2.70    5.20
   0   5  -9   -7.60    3.40
   0  -5   9   -0.10    4.70
   0  -5   9    3.90    6.00
  -1   5  -9    6.00    3.90
  -1   5  -9    5.60    4.80
   1  -5   9   -1.80    4.90
   1  -5   9    3.20    4.70
  -2   5  -9    4.30    3.60
  -2   5  -9   -1.20    4.70
   2  -5   9   -2.90    4.00
   2  -5   9    6.00    4.70
   2  -5   9    0.40    4.90
  -3   5  -9    1.10    2.70
  -3   5  -9    2.20    4.10
  -3   5  -9   -7.10    4.30
   3  -5   9    7.10    4.50
   3  -5   9    3.70    4.70
   3  -5   9    2.10    4.40
  -4   5  -9   20.70    7.40
  -4   5  -9   11.20    5.00
  -4   5  -9   12.50    3.40
  -4   5  -9    6.60    4.50
   4  -5   9   11.30    5.10
   4  -5   9   11.10    4.80
   4  -5   9    9.70    4.80
  -5   5  -9    0.80    4.80
  -5   5  -9    0.10    3.40
  -5   5  -9    1.90    5.30
  -5   5  -9    8.90    8.40
   5  -5   9    9.90    5.50
   5  -5   9    0.30    4.70
   5  -5   9    7.40    4.60
   5  -5   9    4.50    3.80
   4   4  -9   -5.10    4.80
   4   4  -9    6.30    5.70
   4   4  -9   -3.50    5.60
  -4  -4   9    7.80    2.80
  -4  -4   9   -9.70    5.90
  -4  -4   9    4.50    2.70
   3   4  -9   -4.90    4.20
   3   4  -9    8.70    4.50
   3   4  -9    2.40    5.10
  -3  -4   9   -5.20    5.30
   2   4  -9   10.30    4.00
   2   4  -9    7.60    4.10
   2   4  -9    1.10    4.40
   2   4  -9    3.90    3.70
  -2  -4   9   11.60    6.00
  -2  -4   9   -0.80    4.20
   1   4  -9   -2.90    3.30
   1   4  -9   -2.20    4.10
   1   4  -9    1.00    3.50
  -1  -4   9   -3.40    4.70
  -1  -4   9    1.80    4.00
  -1  -4   9    7.40    4.40
   0   4  -9    3.20    3.90
   0   4  -9   -2.50    2.90
   0   4  -9   -2.70    3.40
   0  -4   9   -3.30    3.60
   0  -4   9   -0.30    3.40
   0  -4   9   -3.60    4.30
  -1   4  -9   55.49    6.50
  -1   4  -9   41.50    5.40
  -1   4  -9   43.70    6.40
   1  -4   9   53.79    6.60
   1  -4   9   51.99    6.60
   1  -4   9   54.59    6.00
  -2   4  -9    0.00    3.00
  -2   4  -9    5.20    3.90
  -2   4  -9    1.00    3.20
   2  -4   9    5.10    3.60
   2  -4   9    8.90    3.90
  -3   4  -9   16.90    4.00
  -3   4  -9   26.70    4.40
  -3   4  -9   25.30    3.20
   3  -4   9   30.40    5.10
   3  -4   9   20.40    4.20
   3  -4   9   31.00    4.60
  -4   4  -9    3.60    4.50
  -4   4  -9    5.10    2.50
  -4   4  -9    0.10    3.80
  -4   4  -9   11.90    4.00
   4  -4   9    1.90    2.90
   4  -4   9    7.30    3.80
   4  -4   9    5.70    4.60
   4  -4   9    2.00    3.40
  -5   4  -9   12.00    7.10
  -5   4  -9   24.70    4.70
  -5   4  -9   19.90    5.20
  -5   4  -9   15.70    3.20
   5  -4   9   14.70    4.20
   5  -4   9   11.90    3.80
   5  -4   9   14.40    5.20
  -6   4  -9    6.80    7.90
  -6   4  -9    6.70    4.10
   6  -4   9    6.80    3.80
   6  -4   9   -0.20    4.10
   6  -4   9    8.10    5.20
   6  -4   9    0.50    3.50
   5   3  -9   -3.20    4.90
   5   3  -9    4.20    5.70
   5   3  -9   -0.60    4.90
  -5  -3   9    1.00    5.60
   4   3  -9   -2.30    4.70
   4   3  -9   12.50    4.80
   4   3  -9    5.60    4.20
  -4  -3   9    5.00    2.90
  -4  -3   9    2.20    2.10
  -4  -3   9   -3.10    4.60
  -4  -3   9    2.50    2.00
   3   3  -9    9.90    3.70
   3   3  -9   -1.80    3.90
   3   3  -9    5.70    3.90
   3   3  -9    5.50    3.90
  -3  -3   9    2.10    2.30
  -3  -3   9    8.50    5.10
  -3  -3   9   -0.40    3.90
  -3  -3   9   -0.80    4.30
  -3  -3   9    5.90    2.50
   2   3  -9   -2.30    3.60
   2   3  -9   -1.30    3.00
   2   3  -9   -2.50    3.00
   2   3  -9    4.50    3.20
  -2  -3   9   -2.50    4.30
  -2  -3   9    5.20    3.60
  -2  -3   9    3.40    3.70
  -2  -3   9   -0.10    2.10
   1   3  -9    0.80    3.10
   1   3  -9    0.20    3.40
   1   3  -9   -6.40    2.70
   1   3  -9   -0.20    2.90
  -1  -3   9    2.20    3.20
  -1  -3   9    1.70    1.80
  -1  -3   9    3.70    3.70
  -1  -3   9   -0.10    3.20
   0   3  -9   27.40    4.30
   0   3  -9   32.80    4.10
   0   3  -9   23.60    4.10
   0   3  -9   41.70    5.00
   0  -3   9   29.70    2.80
   0  -3   9   27.20    4.00
   0  -3   9   32.80    4.70
   0  -3   9   32.00    4.70
  -1   3  -9   40.10    5.30
  -1   3  -9   44.10    5.30
  -1   3  -9   42.10    4.60
  -1   3  -9   40.60    5.60
   1  -3   9   58.39    6.10
   1  -3   9   49.10    5.50
   1  -3   9   52.29    5.20
  -2   3  -9   21.90    3.90
  -2   3  -9   21.80    3.50
   2  -3   9   11.70    3.20
   2  -3   9   27.70    4.30
   2  -3   9   16.70    3.80
  -3   3  -9    1.20    2.50
  -3   3  -9   -2.40    2.60
  -3   3  -9    0.40    1.70
  -3   3  -9   -2.30    2.90
   3  -3   9   -7.40    3.00
   3  -3   9   -0.80    2.80
   3  -3   9    2.80    2.70
   3  -3   9   -2.00    2.20
  -4   3  -9   -2.10    3.30
  -4   3  -9    1.40    1.80
  -4   3  -9    3.40    3.50
  -4   3  -9    3.10    2.70
   4  -3   9    2.70    2.80
   4  -3   9    0.20    2.30
   4  -3   9    1.00    3.30
   4  -3   9    4.90    3.00
  -5   3  -9    2.30    3.80
  -5   3  -9    9.50    3.40
  -5   3  -9    6.10    4.00
   5  -3   9    7.00    3.00
   5  -3   9    8.60    3.00
   5  -3   9   12.10    3.20
   5  -3   9   12.30    4.20
  -6   3  -9    1.00    6.50
  -6   3  -9    0.50    4.70
  -6   3  -9   -0.40    3.20
   6  -3   9   -1.10    3.10
   6  -3   9    2.70    2.90
   6  -3   9    5.20    5.10
   6  -3   9    0.80    3.20
  -7   3  -9   -1.90    3.70
  -7   3  -9  -11.60    6.60
   7  -3   9   -2.70    3.00
   7  -3   9   12.20    5.30
   7  -3   9    5.00    3.60
   7  -3   9   -5.20    3.50
   5   2  -9    1.60    4.50
   5   2  -9   -5.00    3.80
   5   2  -9   -2.40    4.20
  -5  -2   9    2.00    4.60
   4   2  -9   22.20    4.90
   4   2  -9   28.50    4.80
   4   2  -9   18.50    4.30
  -4  -2   9   23.10    2.70
  -4  -2   9   23.80    5.30
  -4  -2   9   10.10    4.80
  -4  -2   9   21.00    4.80
  -4  -2   9   24.70    3.70
   3   2  -9    3.00    3.00
   3   2  -9    1.50    3.70
   3   2  -9    2.60    3.30
   3   2  -9    6.80    3.40
  -3  -2   9    2.50    4.10
  -3  -2   9    2.20    2.40
  -3  -2   9   -2.70    3.90
  -3  -2   9    1.20    3.30
  -3  -2   9    0.90    1.90
   2   2  -9    0.00    2.80
   2   2  -9    0.70    3.00
   2   2  -9    2.70    2.60
   2   2  -9   -2.30    2.40
  -2  -2   9   -1.60    1.80
  -2  -2   9   -3.70    3.30
  -2  -2   9    1.40    3.00
  -2  -2   9   -1.00    2.80
  -2  -2   9   -3.40    1.90
   1   2  -9    7.10    2.80
   1   2  -9    3.80    2.60
   1   2  -9    7.30    3.20
   1   2  -9    8.10    2.90
  -1  -2   9   10.40    2.80
  -1  -2   9    0.50    3.10
  -1  -2   9    6.70    3.00
  -1  -2   9    6.20    2.00
  -1  -2   9    6.40    3.00
   0   2  -9  146.79    7.80
   0   2  -9  132.29    7.70
   0   2  -9  153.28    7.40
   0   2  -9  151.08    7.80
   0  -2   9  147.19    7.90
   0  -2   9  140.69    7.70
   0  -2   9  147.79    8.20
   0  -2   9  137.39    6.00
  -1   2  -9   64.89    5.50
  -1   2  -9   70.09    5.40
  -1   2  -9   64.89    5.60
  -1   2  -9   75.29    5.10
   1  -2   9   64.39    6.20
   1  -2   9   67.29    3.50
   1  -2   9   72.29    5.40
   1  -2   9   64.49    5.40
  -2   2  -9  171.28    8.50
  -2   2  -9  178.88    7.90
  -2   2  -9  171.18    8.30
   2  -2   9  164.38    7.90
   2  -2   9  164.68    8.80
   2  -2   9  159.48    6.10
   2  -2   9  170.68    8.40
  -3   2  -9   -0.60    2.40
  -3   2  -9   -1.40    2.50
  -3   2  -9    2.00    1.30
  -3   2  -9    3.70    2.70
   3  -2   9    1.90    2.90
   3  -2   9    6.80    2.60
   3  -2   9    8.70    2.60
   3  -2   9    2.10    2.20
   3  -2   9    4.10    1.20
  -4   2  -9  161.88    8.80
  -4   2  -9  169.58    8.90
  -4   2  -9  177.38    7.70
  -4   2  -9  172.48    8.70
   4  -2   9  180.28    8.10
   4  -2   9  184.38    8.80
   4  -2   9  193.68    8.50
   4  -2   9  178.48    9.30
  -5   2  -9    1.10    3.60
  -5   2  -9    0.90    2.40
  -5   2  -9    2.50    3.30
  -5   2  -9    2.40    2.70
   5  -2   9    5.90    2.30
   5  -2   9    5.00    3.60
   5  -2   9    2.30    2.50
   5  -2   9    2.00    2.80
  -6   2  -9   13.20    3.60
  -6   2  -9   12.80    4.20
  -6   2  -9    7.80    3.30
  -6   2  -9    9.80    4.80
   6  -2   9   11.70    2.60
   6  -2   9   13.70    3.60
   6  -2   9   21.00    6.40
  -7   2  -9    5.60    6.80
  -7   2  -9   -1.70    3.10
  -7   2  -9    7.00    4.10
   7  -2   9    1.10    3.40
   7  -2   9   11.10    7.20
   7  -2   9   -3.00    4.50
   7  -2   9   -0.20    3.20
   7  -2   9   -0.60    2.50
   6   1  -9    0.40    4.30
   6   1  -9    7.60    4.80
   6   1  -9    7.90    4.80
  -6  -1   9    3.20    5.20
  -6  -1   9   -0.10    6.30
  -6  -1   9   -3.50    2.70
   5   1  -9   10.90    4.30
   5   1  -9   10.30    3.80
   5   1  -9    7.70    3.80
  -5  -1   9    6.70    5.20
  -5  -1   9    7.50    5.70
  -5  -1   9   18.10    4.40
  -5  -1   9    3.30    2.80
   4   1  -9   34.00    4.60
   4   1  -9   38.40    4.90
  -4  -1   9   41.00    5.80
  -4  -1   9   30.00    2.90
  -4  -1   9   34.80    4.10
  -4  -1   9   42.90    5.60
  -4  -1   9   40.50    5.20
   3   1  -9    0.40    2.90
   3   1  -9    6.10    2.90
   3   1  -9    3.50    2.70
   3   1  -9   -1.30    2.60
  -3  -1   9   -5.20    3.30
  -3  -1   9   -3.10    3.30
  -3  -1   9    4.50    2.50
  -3  -1   9    3.50    3.00
  -3  -1   9    0.50    1.60
   2   1  -9   63.39    5.70
   2   1  -9   73.69    5.70
   2   1  -9   76.99    5.40
   2   1  -9   67.39    5.10
  -2  -1   9   68.29    5.80
  -2  -1   9   83.19    6.40
  -2  -1   9   73.79    4.60
  -2  -1   9   78.89    4.40
  -2  -1   9   71.29    6.10
   1   1  -9  107.39    6.10
   1   1  -9  106.19    6.40
   1   1  -9  101.69    6.20
   1   1  -9  103.49    6.50
  -1  -1   9  111.39    6.40
  -1  -1   9  101.09    6.60
  -1  -1   9  110.59    6.80
  -1  -1   9  107.69    5.50
  -1  -1   9   97.39    5.10
   0   1  -9  207.58    9.10
   0   1  -9  203.58    9.40
   0   1  -9  218.98    9.00
   0   1  -9  199.28    9.30
   0  -1   9  218.68    9.70
   0  -1   9  191.68    7.90
   0  -1   9  210.58    8.90
   0  -1   9  206.48    9.40
   0  -1   9  213.98    9.40
  -1   1  -9    4.90    2.50
  -1   1  -9    4.10    2.10
  -1   1  -9    6.30    2.30
   1  -1   9    9.80    2.40
   1  -1   9    3.90    2.50
   1  -1   9    5.20    2.60
   1  -1   9    7.30    2.40
   1  -1   9    7.60    1.60
  -2   1  -9    1.30    2.10
  -2   1  -9    1.10    2.20
  -2   1  -9    4.20    1.20
  -2   1  -9    0.80    2.20
  -2   1  -9    4.80    2.20
   2  -1   9    1.80    1.20
   2  -1   9   -1.20    2.10
   2  -1   9   -0.80    2.40
   2  -1   9    4.10    1.90
   2  -1   9    3.40    2.10
  -3   1  -9   15.40    3.10
  -3   1  -9   13.40    3.00
  -3   1  -9   15.40    2.80
  -3   1  -9   17.90    2.20
  -3   1  -9   15.40    2.60
   3  -1   9   18.80    3.70
   3  -1   9   14.90    1.70
   3  -1   9   15.80    2.70
   3  -1   9   14.20    2.50
   3  -1   9   19.00    3.30
  -4   1  -9  100.39    6.10
  -4   1  -9   97.79    6.10
  -4   1  -9  106.09    6.60
  -4   1  -9   92.59    5.30
  -4   1  -9  100.99    5.60
   4  -1   9   93.69    6.00
   4  -1   9   97.49    6.80
   4  -1   9  115.39    6.00
   4  -1   9   94.39    5.50
   4  -1   9   91.89    3.90
  -5   1  -9   28.40    3.90
  -5   1  -9   30.00    4.00
  -5   1  -9   26.70    4.20
  -5   1  -9   25.30    4.20
   5  -1   9   20.90    1.90
   5  -1   9   27.60    3.60
   5  -1   9   29.50    3.70
   5  -1   9   32.60    4.10
  -6   1  -9   29.90    5.00
  -6   1  -9   43.10    6.30
  -6   1  -9   39.10    5.00
  -6   1  -9   40.40    5.10
   6  -1   9   28.70    2.30
   6  -1   9   44.20    8.20
   6  -1   9   37.00    4.70
   6  -1   9   39.50    4.80
   6  -1   9   35.60    3.70
  -7   1  -9   19.30    3.70
  -7   1  -9   17.50    6.50
  -7   1  -9   17.70    5.90
  -7   1  -9   26.50    4.60
  -7   1  -9   13.80    4.90
   7  -1   9   17.80    2.40
   7  -1   9   24.60    4.10
   7  -1   9   17.90    6.80
   7  -1   9   18.50    3.70
   7  -1   9   20.10    5.00
   7  -1   9   15.60    6.50
  -8   1  -9    2.80    3.50
  -8   1  -9    3.80    6.90
  -8   1  -9    3.20    4.50
   8  -1   9    5.90    5.40
   8  -1   9   -4.40    3.30
   8  -1   9    8.50    3.90
   8  -1   9   -3.90    8.80
   6   0  -9   -1.90    3.80
   6   0  -9    2.60    4.10
   6   0  -9   -1.30    4.20
  -6   0   9    2.90    6.30
  -6   0   9    4.90    4.30
  -6   0   9    1.90    2.80
   5   0  -9   14.10    5.50
   5   0  -9    2.30    3.50
   5   0  -9   -4.20    4.10
   5   0  -9   -1.10    3.30
  -5   0   9   -1.00    2.50
  -5   0   9    0.80    5.20
  -5   0   9   -3.00    5.10
  -5   0   9    1.60    3.70
  -5   0   9   -1.80    3.70
   4   0  -9    0.70    2.90
   4   0  -9   -2.90    2.80
   4   0  -9    2.60    2.80
  -4   0   9    3.50    4.20
  -4   0   9    5.80    3.30
  -4   0   9   -0.50    2.20
  -4   0   9    1.20    1.50
  -4   0   9    7.30    3.30
   3   0  -9   26.10    3.60
   3   0  -9   24.10    3.60
   3   0  -9   36.30    4.30
   3   0  -9   33.50    4.40
  -3   0   9   32.70    3.10
  -3   0   9   41.60    5.00
  -3   0   9   31.60    3.70
  -3   0   9   38.10    4.60
  -3   0   9   42.30    5.20
   2   0  -9    3.60    2.10
   2   0  -9    0.50    2.30
   2   0  -9   -1.10    2.00
   2   0  -9    2.60    2.30
  -2   0   9    1.30    1.60
  -2   0   9    1.70    2.20
  -2   0   9   -1.90    2.30
  -2   0   9    6.10    2.80
  -2   0   9    3.10    2.10
   1   0  -9   21.80    3.10
   1   0  -9   19.50    3.00
   1   0  -9   22.70    3.20
  -1   0   9   29.00    3.90
  -1   0   9   18.90    3.50
  -1   0   9   19.30    2.60
  -1   0   9   25.20    3.60
  -1   0   9   25.10    2.80
   0   0  -9   92.39    6.00
   0   0  -9  100.59    5.40
   0   0  -9   91.49    5.60
   0   0  -9   93.59    5.40
   0   0   9   95.89    6.00
   0   0   9   94.49    5.90
   0   0   9   92.19    5.60
   0   0   9   91.29    4.50
  -1   0  -9    4.20    1.80
  -1   0  -9    8.20    2.40
  -1   0  -9    4.50    2.30
  -1   0  -9    7.60    1.30
  -1   0  -9    5.60    2.10
   1   0   9    8.30    1.60
   1   0   9    6.20    2.30
   1   0   9    6.10    2.30
   1   0   9    8.30    2.30
   1   0   9   11.20    3.00
  -2   0  -9   15.70    2.80
  -2   0  -9   14.80    1.80
  -2   0  -9    9.20    2.80
  -2   0  -9   14.60    2.60
  -2   0  -9   15.60    2.50
   2   0   9   15.50    1.80
   2   0   9   19.80    3.60
   2   0   9   13.60    2.60
   2   0   9   12.00    2.80
   2   0   9   14.60    2.50
   2   0   9   14.20    2.70
  -3   0  -9    0.70    1.40
  -3   0  -9    0.80    2.10
  -3   0  -9    0.30    2.30
  -3   0  -9   -1.70    1.50
  -3   0  -9   -2.50    1.70
   3   0   9    2.80    2.10
   3   0   9   -1.50    1.60
   3   0   9    5.20    2.00
   3   0   9    2.40    2.20
   3   0   9    1.60    2.60
   3   0   9   -0.90    1.00
  -4   0  -9   25.40    3.20
  -4   0  -9   39.00    4.70
  -4   0  -9   31.50    4.00
  -4   0  -9   27.90    3.20
  -4   0  -9   27.50    3.60
   4   0   9   26.50    3.90
   4   0   9   30.40    3.30
   4   0   9   24.30    3.90
   4   0   9   36.20    4.80
   4   0   9   29.40    2.10
   4   0   9   29.50    3.60
  -5   0  -9    1.90    2.30
  -5   0  -9    1.20    1.70
  -5   0  -9    8.00    3.10
  -5   0  -9   -0.60    3.00
  -5   0  -9   -0.50    2.20
   5   0   9    2.00    1.20
   5   0   9    0.90    3.10
   5   0   9    4.60    2.00
   5   0   9    1.40    2.20
   5   0   9    3.60    3.50
   5   0   9    1.30    2.30
  -6   0  -9   10.80    4.10
  -6   0  -9    8.80    3.70
  -6   0  -9   10.90    3.30
  -6   0  -9    6.70    2.80
   6   0   9    4.80    1.90
   6   0   9    9.20    4.50
   6   0   9    9.00    3.90
   6   0   9    8.30    3.00
   6   0   9    3.40    2.50
  -7   0  -9   11.10    3.40
  -7   0  -9   16.80    5.20
  -7   0  -9    8.50    4.70
  -7   0  -9    5.40    3.60
  -7   0  -9    6.40    5.40
   7   0   9    8.50    3.20
   7   0   9   14.80    3.60
   7   0   9    9.50    4.40
   7   0   9   16.30    5.80
  -8   0  -9   12.50    4.80
  -8   0  -9    0.40    6.30
  -8   0  -9    8.00    3.60
   8   0   9   11.80    3.90
   8   0   9   11.70    7.70
   8   0   9    6.50    3.80
   6  -1  -9    0.30    3.90
   6  -1  -9   10.60    4.10
  -6   1   9    1.20    3.60
  -6   1   9   -1.70    2.60
  -6   1   9    3.00    4.40
  -6   1   9   -4.10    5.80
   5  -1  -9   -1.50    4.80
   5  -1  -9    1.90    3.20
  -5   1   9    0.40    4.80
  -5   1   9    4.30    3.30
  -5   1   9    3.20    3.60
  -5   1   9    1.90    2.70
   4  -1  -9    2.90    2.60
   4  -1  -9    0.40    2.60
   4  -1  -9   -3.80    3.60
  -4   1   9    1.60    2.30
  -4   1   9   -0.20    2.50
  -4   1   9    4.00    1.80
  -4   1   9    0.50    4.00
  -4   1   9    0.70    4.00
  -4   1   9    5.70    3.40
   3  -1  -9    8.30    3.20
   3  -1  -9   17.50    3.30
   3  -1  -9   16.70    3.10
   3  -1  -9   13.60    2.70
  -3   1   9   14.50    3.70
  -3   1   9   15.90    2.30
  -3   1   9   14.60    3.10
  -3   1   9   16.00    3.20
  -3   1   9   19.10    3.60
   2  -1  -9   17.40    2.90
   2  -1  -9   15.50    3.20
   2  -1  -9   14.60    1.90
   2  -1  -9   14.30    3.00
   2  -1  -9   22.40    3.10
   2  -1  -9   18.10    2.90
  -2   1   9   18.40    2.90
  -2   1   9   14.30    3.20
  -2   1   9   20.60    3.10
  -2   1   9   19.50    3.60
  -2   1   9   18.40    2.50
   1  -1  -9  139.79    6.90
   1  -1  -9  141.29    6.90
   1  -1  -9  136.29    5.10
   1  -1  -9  128.59    6.30
   1  -1  -9  140.69    6.60
   1  -1  -9  144.29    7.10
  -1   1   9  145.29    6.90
  -1   1   9  138.99    6.30
  -1   1   9  145.89    7.60
  -1   1   9  145.79    7.30
  -1   1   9  139.89    6.30
   0  -1  -9   68.59    4.20
   0  -1  -9   64.09    3.40
   0  -1  -9   70.49    5.00
   0  -1  -9   64.49    4.40
   0  -1  -9   62.49    4.50
   0   1   9   67.09    4.50
   0   1   9   58.89    4.10
   0   1   9   64.19    5.10
   0   1   9   70.59    5.20
   0   1   9   60.69    3.60
  -1  -1  -9    0.60    1.60
  -1  -1  -9    0.20    0.70
  -1  -1  -9    1.00    1.70
  -1  -1  -9    0.30    2.20
  -1  -1  -9   -0.70    1.50
   1   1   9    0.70    1.60
   1   1   9    0.20    1.90
   1   1   9    2.80    2.10
   1   1   9    0.50    1.20
   1   1   9   -1.50    1.90
   1   1   9   -1.50    2.20
  -2  -1  -9    2.00    1.60
  -2  -1  -9    3.90    1.90
  -2  -1  -9    3.60    1.90
  -2  -1  -9    5.60    2.50
   2   1   9    3.10    1.20
   2   1   9   -0.30    2.30
   2   1   9    4.40    1.80
   2   1   9    4.00    1.90
   2   1   9    3.80    2.50
   2   1   9    4.30    2.00
  -3  -1  -9    3.10    1.50
  -3  -1  -9   -0.10    1.90
  -3  -1  -9   -0.20    2.40
  -3  -1  -9    1.90    1.80
   3   1   9    4.70    2.90
   3   1   9    4.10    1.90
   3   1   9    3.70    1.20
   3   1   9    3.70    2.00
   3   1   9    4.40    2.10
   3   1   9    2.50    1.70
  -4  -1  -9   -1.10    1.40
  -4  -1  -9    1.70    2.40
  -4  -1  -9    1.80    2.50
  -4  -1  -9    0.70    2.00
   4   1   9    5.40    1.90
   4   1   9    1.30    3.00
   4   1   9    3.50    1.20
   4   1   9    2.40    2.40
   4   1   9   -1.00    1.90
   4   1   9    0.70    2.00
  -5  -1  -9   -0.60    2.10
  -5  -1  -9   -2.30    2.20
  -5  -1  -9   -2.10    3.00
  -5  -1  -9    1.40    1.50
  -5  -1  -9    1.30    2.80
   5   1   9    0.30    1.70
   5   1   9   -2.80    2.10
   5   1   9   -1.70    1.80
   5   1   9   -1.80    2.70
   5   1   9    0.70    2.80
  -6  -1  -9   19.60    4.50
  -6  -1  -9   19.70    4.40
  -6  -1  -9   26.30    4.20
  -6  -1  -9   21.80    3.60
   6   1   9   25.60    4.70
   6   1   9   27.80    3.70
   6   1   9   25.00    4.80
   6   1   9   29.50    4.50
  -7  -1  -9   -1.60    3.20
  -7  -1  -9   12.40    5.20
  -7  -1  -9    9.70    4.60
  -7  -1  -9    1.30    3.00
   7   1   9    4.80    4.80
   7   1   9    1.30    4.00
   7   1   9    6.80    4.20
   7   1   9    2.90    3.00
  -8  -1  -9    1.20    3.40
  -8  -1  -9    5.40    5.70
  -8  -1  -9   -2.40    4.10
   8   1   9    4.30    3.90
   8   1   9   -0.80    2.40
   8   1   9    5.30    5.30
   8   1   9   -5.10    6.00
   8   1   9   15.50    5.80
   6  -2  -9    4.60    3.90
   6  -2  -9   -1.60    4.10
   6  -2  -9   -1.70    3.60
  -6   2   9    5.10    6.10
  -6   2   9    4.00    2.70
  -6   2   9    2.80    3.40
  -6   2   9    7.10    4.00
   5  -2  -9    7.60    3.00
   5  -2  -9   13.50    5.20
   5  -2  -9    6.80    3.30
  -5   2   9    6.10    3.50
  -5   2   9    0.30    4.80
  -5   2   9   10.30    5.60
  -5   2   9   -1.00    4.20
  -5   2   9    6.70    3.20
   4  -2  -9   38.00    4.90
   4  -2  -9   40.80    5.20
   4  -2  -9   45.90    4.60
   4  -2  -9   51.99    6.20
   4  -2  -9   43.70    4.90
   4  -2  -9   49.99    4.60
  -4   2   9   49.80    4.60
  -4   2   9   45.30    3.80
  -4   2   9   50.99    4.60
  -4   2   9   34.40    5.70
  -4   2   9   59.09    7.10
  -4   2   9   46.70    5.60
   3  -2  -9   43.40    4.60
   3  -2  -9   59.19    4.60
   3  -2  -9   55.49    4.00
   3  -2  -9   63.69    5.10
   3  -2  -9   43.80    4.80
   3  -2  -9   45.60    5.20
  -3   2   9   55.09    4.40
  -3   2   9   59.29    6.60
  -3   2   9   57.99    4.40
  -3   2   9   52.79    4.10
  -3   2   9   60.49    6.40
  -3   2   9   52.89    5.30
   2  -2  -9   -1.80    2.00
   2  -2  -9   -0.60    2.10
   2  -2  -9   -0.90    1.50
   2  -2  -9    1.40    2.00
   2  -2  -9   -1.70    1.90
   2  -2  -9    2.30    2.00
  -2   2   9    0.80    1.80
  -2   2   9   -3.30    2.40
  -2   2   9    1.70    1.80
  -2   2   9   -0.90    1.90
  -2   2   9    1.20    2.70
   1  -2  -9  128.09    6.50
   1  -2  -9  127.79    6.10
   1  -2  -9  125.39    6.40
   1  -2  -9  120.69    6.60
   1  -2  -9  113.79    5.80
  -1   2   9  130.29    7.40
  -1   2   9  121.79    6.00
  -1   2   9  123.89    6.90
  -1   2   9  135.49    6.40
  -1   2   9  117.59    5.70
   0  -2  -9   38.40    3.50
   0  -2  -9   32.30    3.40
   0  -2  -9   27.00    2.40
   0  -2  -9   34.10    3.20
   0  -2  -9   27.80    3.80
   0   2   9   28.20    3.70
   0   2   9   29.70    2.70
   0   2   9   32.30    4.50
   0   2   9   26.90    3.40
  -1  -2  -9   11.40    2.90
  -1  -2  -9   16.70    2.70
  -1  -2  -9   17.50    2.90
  -1  -2  -9   17.40    2.40
   1   2   9   12.70    2.10
   1   2   9   14.60    3.10
   1   2   9   19.50    2.90
   1   2   9   12.00    1.80
   1   2   9   12.50    2.40
   1   2   9   14.50    2.70
  -2  -2  -9    4.40    1.70
  -2  -2  -9    2.80    2.00
  -2  -2  -9    1.30    1.70
  -2  -2  -9    1.60    2.30
   2   2   9    1.50    2.10
   2   2   9    2.90    2.70
   2   2   9    4.80    2.00
   2   2   9    2.40    1.20
   2   2   9    2.60    1.50
   2   2   9    1.70    1.90
  -3  -2  -9   -0.90    1.40
  -3  -2  -9   -1.40    2.30
  -3  -2  -9    0.30    1.90
  -3  -2  -9    2.20    2.10
   3   2   9    0.30    1.20
   3   2   9    4.00    2.20
   3   2   9    2.20    1.90
   3   2   9    0.70    2.70
   3   2   9   -0.20    1.50
  -4  -2  -9    1.90    1.40
  -4  -2  -9    1.90    2.10
  -4  -2  -9   -4.30    2.60
  -4  -2  -9    2.60    2.40
   4   2   9   -0.20    2.30
   4   2   9    0.40    1.80
   4   2   9   -0.70    1.10
   4   2   9   -2.60    2.10
   4   2   9   -0.10    2.80
  -5  -2  -9   11.40    3.70
  -5  -2  -9    9.10    1.70
  -5  -2  -9    1.90    3.00
  -5  -2  -9    5.70    2.70
   5   2   9    7.60    3.10
   5   2   9    9.30    2.70
   5   2   9    8.70    2.50
   5   2   9    8.60    3.50
   5   2   9    9.20    3.00
  -6  -2  -9    2.20    3.70
  -6  -2  -9   -3.80    3.30
  -6  -2  -9    1.60    1.40
  -6  -2  -9   -1.40    2.40
   6   2   9    3.70    3.30
   6   2   9    2.70    1.00
   6   2   9    0.80    2.90
   6   2   9    2.70    3.60
   6   2   9    5.30    3.30
   6   2   9    1.20    2.30
  -7  -2  -9   24.30    4.70
  -7  -2  -9   27.20    4.60
  -7  -2  -9   23.60    5.40
  -7  -2  -9   28.80    6.10
   7   2   9   19.50    2.40
   7   2   9   16.90    4.50
   7   2   9   18.10    4.70
   7   2   9   22.70    5.80
   7   2   9   18.20    5.20
   7   2   9   20.00    4.00
  -8  -2  -9    3.50    5.10
  -8  -2  -9    0.50    4.40
  -8  -2  -9    5.60    3.70
   8   2   9   -1.60    5.20
   8   2   9    2.60    3.90
   8   2   9    3.90    3.70
   8   2   9   -7.90    5.30
   8   2   9    3.40    2.70
   8   2   9    3.30    4.60
   6  -3  -9   -3.00    3.30
   6  -3  -9   -1.20    3.70
   6  -3  -9   -6.10    3.90
   6  -3  -9    6.10    5.20
  -6   3   9    5.40    6.20
  -6   3   9    0.50    3.00
  -6   3   9    1.30    3.40
  -6   3   9    1.60    3.10
   5  -3  -9    4.70    4.00
   5  -3  -9   -0.50    5.00
   5  -3  -9    5.80    2.80
   5  -3  -9    2.60    3.10
   5  -3  -9    2.50    3.30
  -5   3   9    7.40    5.60
  -5   3   9    4.10    2.70
  -5   3   9    1.20    3.30
   4  -3  -9    0.00    2.60
   4  -3  -9    2.10    2.10
   4  -3  -9    4.60    3.10
   4  -3  -9    0.20    2.00
   4  -3  -9    7.30    2.80
   4  -3  -9   -1.10    3.80
   4  -3  -9    4.30    2.90
  -4   3   9   -0.70    2.30
  -4   3   9   -0.60    2.30
  -4   3   9    5.70    4.00
  -4   3   9    0.00    3.00
  -4   3   9    0.20    2.30
   3  -3  -9   19.20    2.80
   3  -3  -9   27.90    3.70
   3  -3  -9   26.50    3.90
   3  -3  -9   25.50    3.40
   3  -3  -9   22.20    4.00
   3  -3  -9   16.00    2.80
   3  -3  -9   24.10    3.40
  -3   3   9   21.10    3.20
  -3   3   9   21.00    4.30
  -3   3   9   26.10    3.50
  -3   3   9   24.00    3.70
  -3   3   9   18.60    2.90
   2  -3  -9    1.10    2.10
   2  -3  -9   -0.90    2.30
   2  -3  -9   -1.30    2.30
   2  -3  -9    1.20    1.90
   2  -3  -9    0.30    1.80
   2  -3  -9    2.00    1.80
   2  -3  -9   -2.00    1.90
  -2   3   9    3.80    2.40
  -2   3   9   -0.60    2.50
  -2   3   9    3.80    3.00
  -2   3   9    2.00    1.70
  -2   3   9    3.00    1.90
   1  -3  -9  397.06   15.10
   1  -3  -9  396.86   14.40
   1  -3  -9  400.56   15.10
   1  -3  -9  409.56   14.40
   1  -3  -9  409.96   14.60
   1  -3  -9  410.26   14.90
  -1   3   9  388.46   14.40
  -1   3   9  398.66   15.20
  -1   3   9  420.76   15.30
  -1   3   9  401.36   15.60
  -1   3   9  420.06   14.80
  -1   3   9  380.06   15.30
   0  -3  -9   15.90    2.40
   0  -3  -9   22.10    3.00
   0  -3  -9   20.90    3.30
   0  -3  -9   16.10    2.50
   0  -3  -9   19.50    2.90
   0   3   9   21.70    3.10
   0   3   9   16.90    2.40
   0   3   9   14.40    3.00
   0   3   9   29.40    3.40
  -1  -3  -9  173.68    7.90
  -1  -3  -9  170.78    7.70
  -1  -3  -9  181.68    7.50
  -1  -3  -9  178.68    7.80
  -1  -3  -9  175.48    8.40
   1   3   9  184.88    7.90
   1   3   9  171.18    7.00
   1   3   9  181.58    8.60
   1   3   9  156.28    7.30
  -2  -3  -9   -0.70    1.70
  -2  -3  -9    1.90    2.60
  -2  -3  -9    0.80    1.60
  -2  -3  -9    2.20    1.90
  -2  -3  -9    0.10    2.00
   2   3   9    0.80    2.50
   2   3   9    2.00    2.10
   2   3   9    0.30    1.20
   2   3   9    0.20    1.40
   2   3   9    2.00    2.10
  -3  -3  -9    1.20    1.60
  -3  -3  -9    4.30    2.90
  -3  -3  -9    1.80    2.00
  -3  -3  -9    4.30    2.20
   3   3   9   -2.20    2.10
   3   3   9    4.80    2.80
   3   3   9    2.30    1.40
   3   3   9    2.50    1.60
   3   3   9    3.30    2.30
  -4  -3  -9    0.40    2.30
  -4  -3  -9    1.80    1.50
  -4  -3  -9   -0.60    3.20
  -4  -3  -9   -1.20    2.30
   4   3   9   -1.10    2.90
   4   3   9    0.20    2.30
   4   3   9    0.70    1.60
   4   3   9    3.00    1.90
   4   3   9    1.80    2.50
  -5  -3  -9   60.99    3.70
  -5  -3  -9   61.39    5.50
  -5  -3  -9   56.29    6.30
  -5  -3  -9   59.19    6.10
   5   3   9   64.39    5.60
   5   3   9   57.99    6.30
   5   3   9   62.39    5.40
   5   3   9   65.69    4.60
   5   3   9   61.89    4.30
  -6  -3  -9   17.50    4.70
  -6  -3  -9   15.70    4.60
  -6  -3  -9   14.10    3.60
  -6  -3  -9   16.40    1.90
   6   3   9   18.10    4.00
   6   3   9   12.90    3.10
   6   3   9   10.00    4.50
   6   3   9   14.30    3.20
   6   3   9   18.90    4.10
  -7  -3  -9   12.60    3.90
  -7  -3  -9    9.30    5.50
  -7  -3  -9    7.00    5.60
   7   3   9   18.20    4.10
   7   3   9   16.90    4.30
   7   3   9   15.40    2.60
   7   3   9   12.00    4.00
   7   3   9   13.40    3.80
   7   3   9   16.80    5.50
  -8  -3  -9   14.30    5.00
  -8  -3  -9   15.00    5.10
  -8  -3  -9   14.20    4.20
   8   3   9   22.60    5.00
   8   3   9   14.10    3.40
   8   3   9   14.70    5.20
   8   3   9    9.80    6.10
   8   3   9   12.90    4.20
   6  -4  -9    4.90    4.40
   6  -4  -9    6.10    6.40
   6  -4  -9    1.30    3.60
   6  -4  -9   -6.00    3.10
   6  -4  -9   -5.60    2.80
  -6   4   9   -1.30    2.70
   5  -4  -9   15.40    3.80
   5  -4  -9   10.80    3.50
   5  -4  -9   10.60    2.90
   5  -4  -9    8.90    4.70
   5  -4  -9    5.20    3.70
   5  -4  -9    4.70    5.50
   5  -4  -9    6.70    2.80
  -5   4   9    6.90    3.30
  -5   4   9    8.90    3.30
  -5   4   9    8.40    5.70
  -5   4   9    7.00    2.50
   4  -4  -9    0.10    3.00
   4  -4  -9    1.50    2.70
   4  -4  -9    4.30    2.40
   4  -4  -9    2.90    3.60
   4  -4  -9    2.90    2.40
   4  -4  -9    3.30    3.90
   4  -4  -9   -3.30    3.40
  -4   4   9    2.50    2.90
  -4   4   9    6.10    3.00
  -4   4   9   -2.80    4.20
  -4   4   9    2.20    3.90
   3  -4  -9    4.60    3.60
   3  -4  -9   -0.30    2.90
   3  -4  -9   -1.10    2.80
   3  -4  -9   -0.50    2.00
   3  -4  -9    2.70    2.20
   3  -4  -9    0.50    2.70
   3  -4  -9    1.00    2.10
  -3   4   9   -2.20    1.80
  -3   4   9   -0.60    2.60
  -3   4   9    0.10    3.20
  -3   4   9   -4.20    1.90
  -3   4   9   -0.20    2.70
   2  -4  -9   16.80    3.20
   2  -4  -9   12.00    3.00
   2  -4  -9   19.10    2.90
   2  -4  -9   16.00    2.90
   2  -4  -9   16.50    3.20
   2  -4  -9   11.60    2.30
  -2   4   9   16.80    3.60
  -2   4   9   11.80    2.90
  -2   4   9   10.80    2.20
  -2   4   9   16.90    2.70
  -2   4   9   10.90    3.10
   1  -4  -9   19.40    3.40
   1  -4  -9   15.50    3.30
   1  -4  -9   22.00    3.20
   1  -4  -9   17.60    2.80
  -1   4   9   16.60    3.30
  -1   4   9   21.60    3.20
  -1   4   9   16.40    3.00
  -1   4   9   21.90    3.10
  -1   4   9   14.90    2.50
   0  -4  -9    7.30    2.90
   0  -4  -9    9.60    2.50
   0  -4  -9   13.70    2.30
   0  -4  -9    8.10    2.30
   0  -4  -9   10.80    2.50
   0   4   9   10.60    3.30
   0   4   9    7.90    2.10
   0   4   9   12.30    2.40
   0   4   9   10.80    2.70
  -1  -4  -9  256.37   10.50
  -1  -4  -9  253.37   10.10
  -1  -4  -9  250.77   10.30
  -1  -4  -9  246.08   10.90
   1   4   9  244.48   10.80
   1   4   9  257.47   10.40
   1   4   9  226.98    9.50
   1   4   9  258.57   10.50
   1   4   9  246.88    9.00
   1   4   9  241.28    9.40
   1   4   9  256.17    9.50
  -2  -4  -9   -1.70    1.90
  -2  -4  -9    4.40    3.10
  -2  -4  -9   -0.90    1.80
  -2  -4  -9   -0.60    1.90
  -2  -4  -9    3.90    2.10
   2   4   9    2.50    2.50
   2   4   9    0.90    1.30
   2   4   9    2.70    2.20
   2   4   9    0.60    1.40
   2   4   9   -0.60    2.30
   2   4   9   -0.90    1.30
  -3  -4  -9  119.49    7.60
  -3  -4  -9  108.29    6.50
  -3  -4  -9  120.19    5.90
  -3  -4  -9  122.99    6.80
  -3  -4  -9  118.99    6.40
   3   4   9  114.19    6.50
   3   4   9  114.69    6.80
   3   4   9  113.79    7.40
   3   4   9  109.89    5.30
   3   4   9  127.49    5.90
   3   4   9  115.99    4.90
  -4  -4  -9    0.00    2.30
  -4  -4  -9    0.20    2.40
  -4  -4  -9   -2.70    1.60
  -4  -4  -9    3.80    3.70
  -4  -4  -9    4.60    2.80
   4   4   9   -0.20    2.40
   4   4   9    1.10    2.80
   4   4   9    3.20    3.50
   4   4   9    1.30    1.80
  -5  -4  -9    6.50    2.80
  -5  -4  -9    2.00    3.30
  -5  -4  -9    3.50    4.00
  -5  -4  -9    1.40    1.60
   5   4   9   -0.80    2.70
   5   4   9    4.00    2.10
   5   4   9   -0.80    3.00
   5   4   9   -3.40    3.40
  -6  -4  -9   21.70    4.20
  -6  -4  -9   11.90    4.60
  -6  -4  -9   20.90    5.20
  -6  -4  -9   21.10    2.70
   6   4   9   17.80    3.80
   6   4   9   21.90    4.40
   6   4   9   20.10    4.30
   6   4   9   21.90    4.70
  -7  -4  -9    6.20    1.40
  -7  -4  -9    3.10    3.70
  -7  -4  -9    5.80    5.30
  -7  -4  -9   12.50    6.60
   7   4   9   10.10    5.50
   7   4   9    1.10    4.00
   7   4   9    2.70    4.00
   7   4   9   12.60    3.90
  -8  -4  -9   -8.60    4.20
  -8  -4  -9   -1.30    4.10
   8   4   9    7.30    4.50
   8   4   9    1.70    4.70
   8   4   9    5.90    4.70
   8   4   9   13.10    6.60
   5  -5  -9    4.00    3.30
   5  -5  -9    2.90    4.40
   5  -5  -9    3.80    5.70
   5  -5  -9   -0.80    3.40
   5  -5  -9   -1.00    2.70
   5  -5  -9    4.20    3.60
  -5   5   9    5.20    2.20
  -5   5   9    4.30    3.20
  -5   5   9    1.70    2.70
   4  -5  -9    3.90    3.30
   4  -5  -9   -0.80    2.20
   4  -5  -9   -1.00    2.70
   4  -5  -9    1.20    2.60
   4  -5  -9   -1.80    4.10
   4  -5  -9   -3.20    3.30
   4  -5  -9    0.60    4.30
  -4   5   9   -2.50    3.60
  -4   5   9    2.70    3.10
  -4   5   9    0.40    4.40
   3  -5  -9    2.40    3.70
   3  -5  -9   -4.30    2.00
   3  -5  -9   -2.40    2.10
   3  -5  -9   -2.40    3.00
   3  -5  -9    2.30    2.60
   3  -5  -9    6.40    3.70
   3  -5  -9    3.20    3.20
  -3   5   9    0.40    3.30
  -3   5   9   -0.60    3.00
  -3   5   9    2.80    2.20
  -3   5   9   -1.70    3.40
  -3   5   9    1.10    2.20
   2  -5  -9    8.70    2.50
   2  -5  -9    8.70    2.60
   2  -5  -9   15.10    2.80
   2  -5  -9    8.20    3.30
   2  -5  -9   10.10    3.40
  -2   5   9    9.10    2.40
  -2   5   9   17.20    3.60
  -2   5   9    5.00    1.90
  -2   5   9    7.90    3.30
  -2   5   9   13.00    3.50
   1  -5  -9    4.90    2.00
   1  -5  -9    5.80    2.30
   1  -5  -9    5.60    2.30
   1  -5  -9    9.50    3.10
   1  -5  -9    7.80    3.10
  -1   5   9    6.10    2.60
  -1   5   9    7.20    2.20
  -1   5   9    6.20    2.50
  -1   5   9   10.50    3.30
  -1   5   9   13.60    3.20
  -1   5   9    4.90    3.00
   0  -5  -9   10.50    3.20
   0  -5  -9    6.80    2.10
   0  -5  -9    6.80    3.20
   0  -5  -9    6.70    2.40
   0  -5  -9    8.80    2.90
   0   5   9    5.40    3.00
   0   5   9    6.80    2.10
   0   5   9   11.00    2.90
   0   5   9   15.40    2.80
   0   5   9   11.60    3.10
  -1  -5  -9   -1.50    2.00
  -1  -5  -9    0.80    1.90
  -1  -5  -9    2.10    2.30
  -1  -5  -9   -1.10    3.30
  -1  -5  -9    2.70    2.00
   1   5   9    2.20    2.60
   1   5   9    0.80    3.00
   1   5   9    4.50    2.10
   1   5   9    2.90    2.50
   1   5   9    1.70    1.50
   1   5   9   -1.10    1.30
  -2  -5  -9    9.60    2.60
  -2  -5  -9   15.20    4.10
  -2  -5  -9   13.00    3.00
  -2  -5  -9    9.80    2.70
   2   5   9   11.30    3.10
   2   5   9   13.70    2.40
   2   5   9    8.90    2.00
   2   5   9    7.30    3.40
   2   5   9   12.30    2.50
   2   5   9   10.50    3.00
  -3  -5  -9   50.89    6.50
  -3  -5  -9   59.89    5.00
  -3  -5  -9   56.29    4.70
  -3  -5  -9   56.09    5.20
  -3  -5  -9   54.99    5.40
   3   5   9   60.69    5.70
   3   5   9   60.99    5.30
   3   5   9   50.09    3.70
   3   5   9   50.19    6.20
   3   5   9   63.79    4.20
   3   5   9   56.09    3.70
  -4  -5  -9   39.60    5.90
  -4  -5  -9   34.30    4.40
  -4  -5  -9   44.90    5.40
  -4  -5  -9   29.50    3.90
  -4  -5  -9   41.70    4.50
   4   5   9   42.60    5.60
   4   5   9   39.70    5.20
   4   5   9   43.10    6.00
   4   5   9   38.70    3.80
  -5  -5  -9    3.20    4.80
  -5  -5  -9    1.10    2.10
  -5  -5  -9    6.20    3.80
  -5  -5  -9    3.40    3.30
  -5  -5  -9    6.70    3.30
   5   5   9   -1.30    3.10
   5   5   9   -1.20    4.20
   5   5   9    5.70    2.60
   5   5   9    3.90    3.50
  -6  -5  -9    3.90    4.30
  -6  -5  -9   -2.10    4.60
  -6  -5  -9   -0.70    3.40
  -6  -5  -9   -3.70    1.90
   6   5   9    3.80    4.70
   6   5   9   -3.80    2.80
   6   5   9   -1.60    3.90
  -7  -5  -9    1.80    4.00
  -7  -5  -9    5.10    1.90
   7   5   9   12.80    4.20
   7   5   9   -0.80    4.70
   7   5   9   -2.00    5.90
   7   5   9   17.10    5.10
  -8  -5  -9    3.50    5.10
  -8  -5  -9   11.80    4.60
   8   5   9    5.20    4.80
   8   5   9   20.00    7.70
   8   5   9   22.90    6.00
   5  -6  -9    8.60    3.90
   5  -6  -9    8.70    2.90
   5  -6  -9    0.50    3.40
   5  -6  -9   -2.60    4.90
   5  -6  -9    3.00    4.00
  -5   6   9    3.20    3.30
   4  -6  -9   -8.50    3.90
   4  -6  -9    3.10    2.60
   4  -6  -9   10.00    5.60
   4  -6  -9    2.30    3.60
   4  -6  -9    4.80    3.80
   4  -6  -9    3.20    2.80
  -4   6   9   -1.70    2.60
  -4   6   9    2.20    2.20
  -4   6   9    2.90    3.30
   3  -6  -9    0.00    3.60
   3  -6  -9    4.50    4.20
   3  -6  -9    1.50    3.90
   3  -6  -9    1.80    2.20
   3  -6  -9    1.10    6.70
   3  -6  -9   -2.70    3.10
   3  -6  -9    2.20    2.40
  -3   6   9    0.80    2.80
  -3   6   9   -5.90    3.30
  -3   6   9   -0.10    1.80
  -3   6   9    6.00    4.10
   2  -6  -9    2.50    2.00
   2  -6  -9   -5.60    3.30
   2  -6  -9    3.40    3.60
   2  -6  -9    2.70    2.40
   2  -6  -9    1.10    2.90
  -2   6   9   -0.70    2.10
  -2   6   9   -2.00    3.50
  -2   6   9   -2.30    3.40
  -2   6   9   -2.10    3.50
  -2   6   9   -1.10    1.90
   1  -6  -9    6.10    2.70
   1  -6  -9    3.70    3.40
   1  -6  -9   -2.70    2.90
   1  -6  -9    6.90    2.60
   1  -6  -9    2.40    1.90
  -1   6   9    8.30    3.70
  -1   6   9    7.00    3.40
  -1   6   9   11.40    3.60
  -1   6   9    4.30    2.10
   0  -6  -9    2.80    2.60
   0  -6  -9   -0.60    2.80
   0  -6  -9    2.10    3.40
   0  -6  -9    4.00    2.50
   0  -6  -9    1.20    2.00
   0   6   9   -0.90    3.10
   0   6   9    1.70    1.70
   0   6   9    2.10    2.60
   0   6   9    0.40    2.70
   0   6   9    0.30    3.40
  -1  -6  -9    3.50    2.50
  -1  -6  -9    5.90    2.30
  -1  -6  -9    5.80    2.90
  -1  -6  -9    2.40    2.60
  -1  -6  -9    4.80    3.80
   1   6   9    4.40    1.80
   1   6   9    5.10    3.10
   1   6   9    2.90    3.50
   1   6   9    5.30    2.80
   1   6   9   10.80    3.20
  -2  -6  -9    6.10    4.10
  -2  -6  -9    1.10    2.60
  -2  -6  -9    5.40    3.00
  -2  -6  -9    2.70    2.60
  -2  -6  -9    2.70    2.50
   2   6   9    1.60    3.90
   2   6   9    6.00    1.90
   2   6   9    6.20    2.50
   2   6   9    5.70    1.80
   2   6   9    8.60    3.30
   2   6   9    3.80    3.10
  -3  -6  -9    9.90    2.90
  -3  -6  -9    3.50    2.80
  -3  -6  -9    0.80    3.80
  -3  -6  -9    4.60    3.10
  -3  -6  -9    6.60    3.10
   3   6   9    2.90    4.00
   3   6   9    5.80    2.00
   3   6   9    1.30    3.20
   3   6   9   -1.50    3.10
   3   6   9    5.50    1.90
   3   6   9    8.20    2.40
  -4  -6  -9   12.00    3.70
  -4  -6  -9    8.40    4.60
  -4  -6  -9    7.10    3.10
  -4  -6  -9    1.40    3.40
  -4  -6  -9    7.70    3.00
   4   6   9    3.20    3.50
   4   6   9   10.30    4.30
   4   6   9    5.30    2.00
   4   6   9    9.40    4.50
  -5  -6  -9    5.80    4.20
  -5  -6  -9    5.60    4.10
  -5  -6  -9    8.20    2.80
  -5  -6  -9    4.40    5.30
  -5  -6  -9    7.10    3.70
   5   6   9    4.80    2.70
   5   6   9   -2.10    5.10
   5   6   9    4.50    3.60
   5   6   9    6.70    4.30
  -6  -6  -9   17.90    4.90
  -6  -6  -9   17.10    9.50
  -6  -6  -9   15.80    6.40
  -6  -6  -9   16.40    3.10
   6   6   9   18.50    4.30
   6   6   9   17.90    4.70
   6   6   9   22.50    5.70
  -7  -6  -9    2.80    2.40
  -7  -6  -9    2.30    4.60
  -7  -6  -9    0.40    3.30
   7   6   9    0.20    4.10
   7   6   9   -0.20    5.10
   7   6   9   -4.50    6.90
   4  -7  -9   -3.00    2.70
   4  -7  -9    1.70    5.00
   4  -7  -9   -0.80    4.20
   4  -7  -9   -3.20    3.40
   4  -7  -9    1.90    5.70
  -4   7   9    3.40    2.40
  -4   7   9   -2.50    2.60
  -4   7   9    4.00    3.30
   3  -7  -9   -5.70    5.10
   3  -7  -9    4.40    5.70
   3  -7  -9   -0.80    2.30
   3  -7  -9    7.10    4.20
   3  -7  -9    2.50    4.50
   3  -7  -9   -3.60    2.90
  -3   7   9    1.50    3.10
  -3   7   9    7.90    5.10
  -3   7   9    2.30    2.60
  -3   7   9   -4.90    3.70
   2  -7  -9   -7.70    6.80
   2  -7  -9   -1.80    4.00
   2  -7  -9    1.30    4.00
   2  -7  -9   -1.90    2.00
   2  -7  -9    0.40    2.70
   2  -7  -9    4.70    3.50
  -2   7   9    0.60    4.70
  -2   7   9    3.40    4.10
  -2   7   9   -0.70    2.60
  -2   7   9   10.10    4.50
  -2   7   9    0.90    2.20
   1  -7  -9    0.60    2.80
   1  -7  -9    1.50    4.10
   1  -7  -9   -1.70    3.90
   1  -7  -9    2.50    3.50
   1  -7  -9    0.00    2.10
   1  -7  -9    8.20    5.80
  -1   7   9   -1.50    2.00
  -1   7   9    8.80    4.30
  -1   7   9   -5.90    3.70
  -1   7   9    1.50    3.40
  -1   7   9    6.40    4.00
   0  -7  -9   15.70    2.60
   0  -7  -9   19.30    4.10
   0  -7  -9    8.90    4.10
   0  -7  -9   14.20    4.50
   0  -7  -9   13.20    3.40
   0   7   9    4.90    4.30
   0   7   9   12.10    4.00
   0   7   9   20.70    4.10
   0   7   9   11.50    2.70
   0   7   9   23.50    4.10
  -1  -7  -9   10.00    3.90
  -1  -7  -9    7.50    3.00
  -1  -7  -9    5.00    4.30
  -1  -7  -9    7.00    2.60
  -1  -7  -9    8.50    3.20
   1   7   9   16.80    4.10
   1   7   9    6.60    2.20
   1   7   9    9.70    3.90
   1   7   9   10.10    4.70
   1   7   9    7.80    3.30
  -2  -7  -9    5.60    3.00
  -2  -7  -9   -3.30    4.60
  -2  -7  -9    4.20    3.40
  -2  -7  -9    3.00    2.80
  -2  -7  -9    4.80    3.40
   2   7   9    2.70    2.00
   2   7   9    4.70    3.90
   2   7   9    4.50    1.90
   2   7   9    0.80    2.70
   2   7   9    0.10    4.70
   2   7   9    9.20    4.10
  -3  -7  -9   25.30    4.10
  -3  -7  -9   31.10    5.90
  -3  -7  -9   22.60    5.00
  -3  -7  -9   36.10    5.50
  -3  -7  -9   26.80    4.50
   3   7   9   32.30    3.70
   3   7   9   35.70    5.80
   3   7   9   29.80    3.30
   3   7   9   33.40    5.30
   3   7   9   34.10    4.40
   3   7   9   33.90    6.00
  -4  -7  -9   21.80    6.40
  -4  -7  -9   25.60    4.30
   4   7   9   19.40    5.50
   4   7   9   18.70    2.90
   4   7   9   19.20    6.90
   4   7   9   15.50    5.00
  -5  -7  -9   -3.00    3.20
  -5  -7  -9   -5.20    4.50
  -5  -7  -9   -7.40    5.80
  -5  -7  -9   -8.60    3.70
   5   7   9    2.50    4.50
   5   7   9    1.90    2.30
   5   7   9  -12.50    6.20
  -6  -7  -9    0.50    5.10
  -6  -7  -9    8.80    5.00
  -6  -7  -9   -2.30    3.10
   6   7   9   -4.40    5.20
   6   7   9    5.20    3.70
  -7  -7  -9    6.40    6.10
  -7  -7  -9   12.30    3.60
   7   7   9   11.00    6.60
   7   7   9    6.40    4.50
   3  -8  -9   -0.60    3.30
   3  -8  -9    1.70    5.40
   3  -8  -9    2.70    4.80
   3  -8  -9   -3.40    4.70
  -3   8   9   -1.40    2.30
  -3   8   9    6.00    6.60
  -3   8   9    3.50    3.10
  -3   8   9    3.90    4.70
   2  -8  -9   -1.70    4.90
   2  -8  -9    5.30    3.40
   2  -8  -9   -3.90    5.00
   2  -8  -9    5.50    4.20
  -2   8   9   10.80    5.60
  -2   8   9   -0.50    2.40
  -2   8   9    3.00    4.90
   1  -8  -9   -7.30    4.40
   1  -8  -9    4.70    3.50
   1  -8  -9    3.40    5.20
   1  -8  -9    0.10    2.00
   1  -8  -9    1.00    4.20
   1  -8  -9   11.50    7.40
  -1   8   9    6.80    8.00
  -1   8   9    0.50    2.40
  -1   8   9    3.50    4.10
  -1   8   9   -7.50    4.70
   0  -8  -9    8.00    6.70
   0  -8  -9    2.00    3.70
   0  -8  -9   -0.70    3.50
   0  -8  -9   -0.60    4.20
   0  -8  -9   -3.60    5.20
   0  -8  -9    0.90    2.30
   0   8   9   13.00    5.30
   0   8   9    0.90    4.20
   0   8   9   -0.60    4.40
  -1  -8  -9    2.00    3.60
  -1  -8  -9   -5.30    3.60
  -1  -8  -9   -3.40    4.20
  -1  -8  -9    4.10    5.50
  -1  -8  -9    0.40    5.60
   1   8   9    5.10    4.30
   1   8   9    2.70    4.00
   1   8   9    7.30    5.50
  -2  -8  -9   11.30    4.50
  -2  -8  -9    5.90    4.00
  -2  -8  -9    8.40    5.50
  -2  -8  -9   17.00    6.40
   2   8   9    3.20    2.00
   2   8   9   -3.90    3.60
   2   8   9   -1.60    4.50
  -3  -8  -9   20.40    4.80
  -3  -8  -9   10.50    4.50
  -3  -8  -9   12.50    4.50
  -3  -8  -9   13.60    5.20
  -3  -8  -9   23.00    6.50
   3   8   9   10.00    3.90
   3   8   9   13.80    5.80
   3   8   9   16.20    2.60
  -4  -8  -9    0.00    7.40
  -4  -8  -9    9.10    4.70
  -4  -8  -9    4.80    4.70
  -4  -8  -9   15.10    4.70
  -4  -8  -9    1.70    4.30
   4   8   9   16.50    2.80
   4   8   9    9.20    5.80
  -5  -8  -9    8.90    4.70
  -5  -8  -9    2.80    3.60
  -5  -8  -9   12.30    4.30
  -5  -8  -9    8.70    5.50
   5   8   9   19.50    3.30
   5   8   9   27.30    7.00
  -6  -8  -9   -5.40    6.10
  -6  -8  -9    9.90    5.40
  -6  -8  -9    4.00    4.40
   6   8   9   -2.60    4.50
   6   8   9    1.80    6.50
   1  -9  -9    7.10    4.30
   1  -9  -9    5.10    6.30
   1  -9  -9   -1.50    4.70
   1  -9  -9   11.40   13.00
  -1   9   9    0.10    5.10
  -1   9   9    4.90    3.00
  -1   9   9    9.10    6.20
   0  -9  -9   -6.10    5.10
   0  -9  -9   15.00    5.20
   0  -9  -9   -6.10    4.20
   0  -9  -9   16.00    7.00
   0  -9  -9   -9.50    8.10
   0   9   9    3.80    5.70
   0   9   9    0.10    5.40
   0   9   9    6.30    2.60
  -1  -9  -9    9.40    5.70
  -1  -9  -9    5.90    4.70
  -1  -9  -9   -1.70    4.40
  -1  -9  -9   -1.50    6.40
  -1  -9  -9   14.70    7.50
   1   9   9    2.50    5.40
   1   9   9    5.90    5.60
   1   9   9    1.40    2.30
  -2  -9  -9    5.60    6.90
  -2  -9  -9    8.60    5.50
  -2  -9  -9    2.20    4.80
  -2  -9  -9    5.00    5.00
  -2  -9  -9    7.20    6.40
   2   9   9    9.60    3.00
   2   9   9    9.40    6.00
  -3  -9  -9    4.70    5.30
  -3  -9  -9    2.00    7.40
  -3  -9  -9   12.50    5.10
  -3  -9  -9   14.90    5.30
  -3  -9  -9    5.00    5.50
   3   9   9    0.50    6.30
   3   9   9   10.90    2.50
   3   9   9    7.60    2.50
  -4  -9  -9    2.10    4.60
  -4  -9  -9    4.50    5.90
  -4  -9  -9    5.10    5.20
  -4  -9  -9    2.90    5.70
   4   9   9    3.70    2.50
   4   9   9    2.70    2.70
   4   9   9    5.40    7.00
   1   5 -10   -8.00    5.90
  -1  -5  10    2.80    6.10
   0   5 -10   -3.20    6.10
   0  -5  10   -0.90    5.70
  -1   5 -10    0.30    7.60
   1  -5  10    8.50    6.50
   1  -5  10    2.50    5.90
  -2   5 -10    5.00    5.40
   2  -5  10   12.30    6.50
   2  -5  10    9.30    5.30
  -3   5 -10   -0.60    5.20
  -3   5 -10    3.40    3.20
   3  -5  10   -3.10    6.60
   3  -5  10    0.00    5.10
   3   4 -10    4.40    5.80
   3   4 -10   -2.50    5.20
  -3  -4  10   -1.40    6.10
  -3  -4  10    2.60    3.60
   2   4 -10   -4.30    5.30
  -2  -4  10    4.00    5.50
   1   4 -10   -1.80    4.90
  -1  -4  10   -0.30    4.80
   0   4 -10    1.10    3.70
   0  -4  10    0.50    5.10
  -1   4 -10   -3.90    3.90
  -1   4 -10   -3.90    3.70
   1  -4  10   -1.30    4.30
   1  -4  10   -2.10    4.20
   1  -4  10   -4.30    5.10
  -2   4 -10    5.30    4.00
  -2   4 -10   -2.10    3.50
   2  -4  10   -3.10    4.40
   2  -4  10   -2.40    4.20
   2  -4  10    4.60    4.10
  -3   4 -10    2.00    3.70
  -3   4 -10    0.70    4.30
  -3   4 -10   -1.70    2.30
   3  -4  10    1.60    4.50
   3  -4  10   -3.90    3.90
   3  -4  10    5.50    4.40
  -4   4 -10    3.30    4.90
  -4   4 -10   12.00    2.90
  -4   4 -10   14.90    4.90
   4  -4  10   13.80    5.50
   4  -4  10    4.80    4.50
   4  -4  10    4.40    4.20
  -5   4 -10   10.00    4.90
  -5   4 -10    8.10    3.10
   5  -4  10   13.50    4.20
   5  -4  10    5.60    4.50
   5  -4  10   10.20    4.40
   5  -4  10   -3.10    5.20
   4   3 -10   -2.50    5.40
   4   3 -10   12.10    5.10
   4   3 -10   -3.80    5.20
  -4  -3  10   -0.60    5.90
  -4  -3  10    1.70    2.50
  -4  -3  10   -0.20    3.10
  -4  -3  10    2.30    2.60
   3   3 -10   -5.00    4.70
   3   3 -10    0.50    4.70
   3   3 -10    6.50    4.30
  -3  -3  10    0.30    2.70
  -3  -3  10    0.20    4.50
   2   3 -10   13.70    4.60
   2   3 -10   19.10    5.00
   2   3 -10   12.70    4.30
  -2  -3  10    7.10    2.50
  -2  -3  10   15.20    4.70
  -2  -3  10   11.00    3.40
   1   3 -10    5.10    3.80
   1   3 -10    0.40    3.60
   1   3 -10    4.30    3.50
  -1  -3  10    8.40    4.10
  -1  -3  10    2.70    2.10
  -1  -3  10   -2.00    4.80
  -1  -3  10   -2.70    4.00
   0   3 -10    1.60    3.20
   0   3 -10    0.00    3.70
   0   3 -10   -0.90    3.80
   0   3 -10    4.70    3.60
   0  -3  10   -0.20    3.50
   0  -3  10    9.90    4.40
   0  -3  10    1.90    3.40
   0  -3  10    3.40    2.00
  -1   3 -10    8.90    3.40
  -1   3 -10    2.70    3.70
  -1   3 -10    9.30    4.10
  -1   3 -10   12.80    4.20
   1  -3  10    9.30    3.80
   1  -3  10    7.50    3.90
   1  -3  10    1.40    4.30
  -2   3 -10    0.40    3.10
  -2   3 -10    1.90    2.90
   2  -3  10   -2.50    3.60
   2  -3  10    3.30    3.30
   2  -3  10    0.90    3.50
  -3   3 -10    9.70    4.00
  -3   3 -10   14.70    2.30
  -3   3 -10   14.30    4.50
  -3   3 -10   16.40    4.20
   3  -3  10    1.30    4.00
   3  -3  10    4.40    3.20
   3  -3  10   16.20    4.40
  -4   3 -10   17.40    6.90
  -4   3 -10    8.90    4.20
  -4   3 -10   10.60    2.30
  -4   3 -10    9.30    3.90
   4  -3  10   18.10    4.20
   4  -3  10   12.40    3.60
   4  -3  10    8.00    4.40
  -5   3 -10   -3.00    3.30
  -5   3 -10    1.20    5.00
   5  -3  10    4.70    3.50
   5  -3  10    0.50    3.10
   5  -3  10    0.90    3.40
   5  -3  10    5.90    4.90
  -6   3 -10   -7.50    7.40
  -6   3 -10   -5.90    3.70
   6  -3  10    0.00    3.50
   6  -3  10   -4.40    5.30
   6  -3  10    0.50    3.50
   5   2 -10    4.20    5.40
   5   2 -10   -3.30    4.70
  -5  -2  10    4.10    5.90
  -5  -2  10    0.80    3.10
   4   2 -10    1.30    4.40
   4   2 -10    0.70    4.80
   4   2 -10    6.60    4.40
  -4  -2  10    5.00    5.00
  -4  -2  10   -0.10    2.00
   3   2 -10   12.80    4.20
   3   2 -10   21.60    5.40
   3   2 -10   14.50    4.10
  -3  -2  10    9.00    2.60
  -3  -2  10   25.60    5.20
  -3  -2  10   12.20    2.90
   2   2 -10   -0.60    5.00
   2   2 -10    7.40    3.90
   2   2 -10    1.10    3.30
  -2  -2  10   -4.20    3.90
  -2  -2  10    4.40    3.60
  -2  -2  10   -6.10    4.10
  -2  -2  10   -0.90    2.40
  -2  -2  10    0.80    2.20
   1   2 -10   17.90    3.60
   1   2 -10    6.90    3.60
   1   2 -10   12.00    3.80
   1   2 -10   11.30    3.40
  -1  -2  10   14.40    4.30
  -1  -2  10   11.70    3.60
  -1  -2  10   12.30    4.00
  -1  -2  10   12.50    3.10
  -1  -2  10   17.40    2.70
   0   2 -10   31.20    4.40
   0   2 -10   30.40    4.40
   0   2 -10   33.50    4.90
   0   2 -10   39.80    5.00
   0  -2  10   26.10    4.00
   0  -2  10   36.90    4.80
   0  -2  10   25.60    3.00
   0  -2  10   25.00    4.10
   0  -2  10   41.10    5.40
  -1   2 -10    7.50    2.80
  -1   2 -10    9.30    3.60
  -1   2 -10    1.30    2.70
   1  -2  10    8.00    1.90
   1  -2  10    8.20    3.20
   1  -2  10    6.30    3.50
   1  -2  10    5.80    3.00
  -2   2 -10    8.70    3.20
  -2   2 -10    4.70    3.40
  -2   2 -10   10.30    3.20
  -2   2 -10    8.20    3.10
   2  -2  10    8.20    3.70
   2  -2  10    3.60    2.80
   2  -2  10    7.50    1.80
   2  -2  10   11.50    3.30
  -3   2 -10   -0.30    2.60
  -3   2 -10   -0.10    3.40
  -3   2 -10   -0.60    3.10
  -3   2 -10    1.70    1.30
  -3   2 -10    1.60    2.80
   3  -2  10   -5.00    2.50
   3  -2  10    0.00    2.70
   3  -2  10   -6.00    3.20
   3  -2  10   -0.10    1.60
   3  -2  10   -3.80    2.00
  -4   2 -10   -6.30    2.80
  -4   2 -10    0.60    3.80
  -4   2 -10   -1.00    3.50
   4  -2  10    0.50    3.50
   4  -2  10    0.90    4.50
   4  -2  10    1.70    2.70
   4  -2  10    1.00    2.50
  -5   2 -10   26.80    4.40
  -5   2 -10   23.90    3.80
  -5   2 -10   27.60    4.70
  -5   2 -10   19.90    4.80
   5  -2  10   21.60    4.10
   5  -2  10   34.30    5.50
   5  -2  10   30.80    3.80
  -6   2 -10   -0.70    3.20
  -6   2 -10    1.40    3.50
   6  -2  10    1.20    3.50
   6  -2  10    1.00    3.00
   6  -2  10    6.60    3.30
   6  -2  10    2.80    4.90
  -7   2 -10   15.60    7.90
  -7   2 -10   14.10    4.30
   7  -2  10   19.20    6.50
   7  -2  10   15.00    4.50
   7  -2  10   16.60    4.50
   7  -2  10    9.30    3.70
   5   1 -10   -5.50    4.60
   5   1 -10    4.60    5.00
   5   1 -10    2.40    4.30
  -5  -1  10    0.70    4.90
  -5  -1  10    4.80    3.10
   4   1 -10   24.60    4.70
   4   1 -10   20.80    4.40
   4   1 -10   11.10    4.30
  -4  -1  10   21.00    4.60
  -4  -1  10   19.80    2.50
  -4  -1  10   12.40    3.40
   3   1 -10    2.80    3.80
   3   1 -10    0.80    3.50
   3   1 -10    0.50    3.80
   3   1 -10    4.60    3.50
  -3  -1  10    3.00    4.20
  -3  -1  10   -1.00    3.40
  -3  -1  10    5.10    2.20
  -3  -1  10   -1.70    4.50
  -3  -1  10    0.00    2.40
   2   1 -10   34.40    4.60
   2   1 -10   25.80    4.20
   2   1 -10   24.40    4.10
   2   1 -10   39.10    5.00
  -2  -1  10   33.90    5.30
  -2  -1  10   30.60    3.70
  -2  -1  10   29.10    4.40
  -2  -1  10   39.90    5.30
  -2  -1  10   27.30    3.70
   1   1 -10   49.00    5.50
   1   1 -10   36.20    4.90
   1   1 -10   33.80    4.50
   1   1 -10   44.50    4.60
  -1  -1  10   39.80    4.40
  -1  -1  10   47.00    5.80
  -1  -1  10   35.10    4.70
  -1  -1  10   41.10    3.70
  -1  -1  10   46.90    5.10
   0   1 -10   29.60    4.20
   0   1 -10   30.30    4.10
   0   1 -10   30.90    4.40
   0  -1  10   29.90    3.00
   0  -1  10   29.90    4.10
   0  -1  10   22.90    4.00
   0  -1  10   32.10    4.30
   0  -1  10   29.10    3.70
  -1   1 -10   16.70    3.30
  -1   1 -10   12.40    3.20
  -1   1 -10   10.90    2.70
  -1   1 -10   10.20    3.40
   1  -1  10   12.30    2.10
   1  -1  10   17.30    3.70
   1  -1  10   16.30    3.40
   1  -1  10   16.70    3.50
   1  -1  10    7.00    2.80
  -2   1 -10   13.90    2.90
  -2   1 -10   13.10    2.80
  -2   1 -10   15.80    3.30
  -2   1 -10   17.50    3.80
   2  -1  10   19.10    3.60
   2  -1  10   16.90    2.00
   2  -1  10   12.50    3.00
   2  -1  10   11.50    3.20
   2  -1  10   12.90    3.80
   2  -1  10    9.40    3.30
  -3   1 -10   34.20    4.60
  -3   1 -10   30.00    3.90
  -3   1 -10   30.70    4.20
  -3   1 -10   27.30    4.20
  -3   1 -10   30.60    2.80
   3  -1  10   31.70    4.60
   3  -1  10   30.90    3.80
   3  -1  10   25.30    4.00
   3  -1  10   27.50    3.90
   3  -1  10   26.20    2.30
   3  -1  10   36.10    4.60
  -4   1 -10   10.50    2.70
  -4   1 -10    9.20    2.90
  -4   1 -10   14.60    3.80
  -4   1 -10    9.90    2.40
  -4   1 -10    9.00    3.30
   4  -1  10    9.10    3.00
   4  -1  10    5.80    1.50
   4  -1  10   10.50    2.80
   4  -1  10   17.90    3.90
   4  -1  10   11.30    2.60
   4  -1  10    8.10    3.70
  -5   1 -10    2.90    4.00
  -5   1 -10    8.10    4.10
  -5   1 -10    6.30    2.80
  -5   1 -10    5.40    3.20
   5  -1  10    5.20    3.90
   5  -1  10   13.00    4.10
   5  -1  10    7.10    2.60
   5  -1  10    7.00    1.50
   5  -1  10    8.20    3.50
   5  -1  10    6.00    2.70
  -6   1 -10   50.99    5.90
  -6   1 -10   55.89    7.80
  -6   1 -10   60.49    7.20
  -6   1 -10   55.09    5.70
   6  -1  10   60.09    6.20
   6  -1  10   57.09    7.90
   6  -1  10   60.39    4.90
   6  -1  10   71.39   11.00
   6  -1  10   48.20    2.90
   6  -1  10   60.49    5.90
  -7   1 -10   11.60    4.30
  -7   1 -10    6.50    3.60
  -7   1 -10    8.00    6.90
   7  -1  10    6.80    1.70
   7  -1  10    6.50    2.60
   7  -1  10    4.50    3.40
   7  -1  10    5.60    7.00
   7  -1  10   16.20    4.20
   7  -1  10    6.90    5.30
   5   0 -10    3.60    6.30
   5   0 -10    3.10    4.20
   5   0 -10    0.70    3.90
   5   0 -10    4.60    4.40
  -5   0  10    6.40    4.50
  -5   0  10    3.10    3.00
  -5   0  10   12.20    6.70
   4   0 -10    3.20    3.60
   4   0 -10    5.50    4.40
   4   0 -10   11.00    3.70
   4   0 -10    2.70    3.70
   4   0 -10   -2.70    3.30
  -4   0  10   -1.70    1.80
  -4   0  10   -0.80    4.10
  -4   0  10    3.00    4.80
  -4   0  10   -5.50    2.50
  -4   0  10    0.90    3.60
   3   0 -10    4.90    3.20
   3   0 -10    2.80    2.90
   3   0 -10    2.50    3.20
  -3   0  10    5.40    3.30
  -3   0  10    5.80    2.60
  -3   0  10    3.80    2.20
  -3   0  10    1.00    3.40
  -3   0  10    0.80    4.30
   2   0 -10   10.30    3.00
   2   0 -10   13.20    3.20
   2   0 -10   12.40    3.30
  -2   0  10   19.80    4.00
  -2   0  10   18.80    3.70
  -2   0  10   13.30    4.20
  -2   0  10   21.70    2.90
  -2   0  10   11.50    2.90
   1   0 -10   89.09    5.90
   1   0 -10   98.49    6.30
   1   0 -10   87.29    5.90
  -1   0  10   82.99    6.70
  -1   0  10   86.29    6.60
  -1   0  10   80.69    4.90
  -1   0  10   87.39    5.40
  -1   0  10  102.29    6.30
   0   0 -10  261.77   11.40
   0   0 -10  281.87   10.90
   0   0 -10  269.67   11.60
   0   0 -10  273.77   11.00
   0   0 -10  250.27    9.80
   0   0  10  266.87   11.80
   0   0  10  272.37   11.40
   0   0  10  259.27   10.70
   0   0  10  262.07   10.10
   0   0  10  279.77   11.60
  -1   0 -10   35.70    2.30
  -1   0 -10   30.40    4.10
  -1   0 -10   41.10    4.00
  -1   0 -10   48.20    5.20
  -1   0 -10   40.80    4.50
   1   0  10   35.40    2.80
   1   0  10   39.10    4.10
   1   0  10   43.10    4.90
   1   0  10   35.00    4.50
   1   0  10   36.70    4.30
  -2   0 -10   38.00    5.10
  -2   0 -10   49.50    4.50
  -2   0 -10   47.10    4.10
  -2   0 -10   41.10    2.60
  -2   0 -10   42.00    4.50
   2   0  10   37.40    4.50
   2   0  10   39.30    4.40
   2   0  10   38.40    2.70
   2   0  10   40.70    4.00
   2   0  10   41.10    4.50
   2   0  10   43.30    5.60
  -3   0 -10   23.40    3.10
  -3   0 -10   19.10    3.70
  -3   0 -10   13.10    3.00
  -3   0 -10   22.00    3.50
  -3   0 -10   18.70    2.60
   3   0  10   26.70    3.70
   3   0  10   17.80    2.10
   3   0  10   21.30    3.70
   3   0  10   19.20    3.40
   3   0  10   17.90    3.20
   3   0  10   31.50    4.70
  -4   0 -10   39.00    5.10
  -4   0 -10   47.20    4.90
  -4   0 -10   39.90    4.80
  -4   0 -10   46.00    3.90
  -4   0 -10   51.29    4.20
   4   0  10   46.80    4.50
   4   0  10   53.59    6.10
   4   0  10   44.10    4.90
   4   0  10   39.60    5.30
   4   0  10   49.20    4.50
   4   0  10   38.00    2.70
  -5   0 -10    3.80    2.50
  -5   0 -10    3.50    2.10
  -5   0 -10   -1.70    3.30
  -5   0 -10   -2.10    3.20
  -5   0 -10    4.10    2.70
   5   0  10   -0.40    2.20
   5   0  10    1.90    2.30
   5   0  10    1.50    3.60
   5   0  10   10.60    4.10
   5   0  10    2.00    1.30
   5   0  10    0.80    2.70
  -6   0 -10   12.30    4.40
  -6   0 -10   18.30    4.00
  -6   0 -10   18.50    4.20
  -6   0 -10   17.40    5.10
   6   0  10   18.10    4.10
   6   0  10   22.40    5.30
   6   0  10   16.20    4.10
   6   0  10    9.70    4.60
   6   0  10   21.70    2.30
   6   0  10   24.30    3.10
  -7   0 -10   12.00    4.30
  -7   0 -10   -4.40    3.30
   7   0  10    3.80    5.40
   7   0  10   -2.60    3.30
   7   0  10   -1.10    3.60
   7   0  10    0.40    5.70
  -8   0 -10   -2.80    4.80
  -8   0 -10  -10.80    6.80
  -8   0 -10    3.90    4.10
   8   0  10    7.40    3.80
   8   0  10    3.70    3.90
   8   0  10    1.90    5.90
   8   0  10   14.00    8.20
   5  -1 -10   -3.70    5.50
   5  -1 -10    0.40    3.90
   5  -1 -10    0.10    3.60
   5  -1 -10   -2.80    4.00
  -5   1  10    0.10    4.40
  -5   1  10   -1.30    2.60
  -5   1  10    8.00    5.80
  -5   1  10   -0.20    3.80
   4  -1 -10    1.50    4.50
   4  -1 -10   -7.90    3.40
   4  -1 -10   -6.10    3.10
   4  -1 -10    0.00    3.60
  -4   1  10   -0.10    2.10
  -4   1  10    5.70    5.10
  -4   1  10   -4.00    3.80
  -4   1  10    2.90    5.20
  -4   1  10   -1.00    3.00
  -4   1  10    3.10    4.10
   3  -1 -10   11.40    3.40
   3  -1 -10    1.20    2.80
   3  -1 -10    2.50    3.30
   3  -1 -10    2.20    3.50
   3  -1 -10    1.20    2.60
  -3   1  10    4.20    2.80
  -3   1  10    3.40    3.60
  -3   1  10    5.30    2.40
  -3   1  10    4.10    4.50
  -3   1  10    3.80    2.60
   2  -1 -10   30.60    4.10
   2  -1 -10   35.80    4.50
   2  -1 -10   30.00    4.50
   2  -1 -10   35.80    4.60
  -2   1  10   34.30    4.40
  -2   1  10   39.00    5.20
  -2   1  10   27.10    3.50
  -2   1  10   34.30    3.80
  -2   1  10   34.30    4.50
   1  -1 -10  185.18    6.40
   1  -1 -10  191.28    8.60
   1  -1 -10  203.98    9.10
   1  -1 -10  182.28    8.00
   1  -1 -10  168.68    8.90
   1  -1 -10  191.28    8.90
  -1   1  10  192.48    9.40
  -1   1  10  179.68    8.00
  -1   1  10  202.78    8.90
  -1   1  10  205.28    9.70
  -1   1  10  188.38    8.30
   0  -1 -10    3.60    2.20
   0  -1 -10    5.20    2.90
   0  -1 -10    2.40    2.00
   0  -1 -10    1.50    1.60
   0  -1 -10    2.20    2.30
   0   1  10   -1.10    2.70
   0   1  10    0.70    1.40
   0   1  10    1.90    2.70
   0   1  10    3.20    2.30
   0   1  10    0.30    2.20
  -1  -1 -10    6.20    3.10
  -1  -1 -10    5.20    2.30
  -1  -1 -10    2.40    2.20
  -1  -1 -10    6.50    1.10
  -1  -1 -10    7.40    2.40
   1   1  10    5.70    2.50
   1   1  10    5.20    1.80
   1   1  10    4.60    2.20
   1   1  10    8.20    2.90
   1   1  10    9.10    3.20
  -2  -1 -10   -0.60    2.30
  -2  -1 -10    3.00    2.30
  -2  -1 -10    4.20    2.70
  -2  -1 -10    2.00    1.90
   2   1  10    4.60    2.10
   2   1  10    3.60    1.30
   2   1  10    1.20    2.80
   2   1  10   -0.40    2.40
   2   1  10   -1.70    2.30
   2   1  10    1.00    2.40
  -3  -1 -10   35.00    4.30
  -3  -1 -10   32.50    4.30
  -3  -1 -10   42.40    5.20
  -3  -1 -10   31.50    3.40
   3   1  10   33.50    3.80
   3   1  10   28.00    4.20
   3   1  10   47.10    4.30
   3   1  10   35.00    4.50
   3   1  10   33.50    2.50
   3   1  10   40.20    5.00
  -4  -1 -10   -2.70    2.20
  -4  -1 -10    0.30    2.00
  -4  -1 -10   -2.60    3.00
  -4  -1 -10   -0.90    1.70
  -4  -1 -10    6.50    2.80
   4   1  10    4.30    3.40
   4   1  10   -1.40    2.10
   4   1  10    2.10    1.20
   4   1  10    0.80    2.10
   4   1  10    2.60    2.30
   4   1  10    1.20    3.00
  -5  -1 -10    2.40    2.50
  -5  -1 -10    0.50    3.70
  -5  -1 -10   -2.40    2.30
  -5  -1 -10    3.80    1.90
  -5  -1 -10    4.50    3.50
   5   1  10   -1.70    2.40
   5   1  10   -0.30    2.10
   5   1  10   -0.70    2.00
   5   1  10   -2.30    2.90
   5   1  10   -0.90    3.70
   5   1  10   -0.20    1.40
  -6  -1 -10    2.00    3.10
  -6  -1 -10    9.30    4.30
  -6  -1 -10   -4.00    2.80
  -6  -1 -10    7.30    4.30
   6   1  10   -3.90    3.90
   6   1  10   -2.40    3.90
   6   1  10    0.60    4.00
  -7  -1 -10   -0.10    3.80
  -7  -1 -10    6.00    3.50
   7   1  10   -5.10    5.50
   7   1  10   -4.20    5.20
   7   1  10    4.50    3.40
   7   1  10    1.30    4.50
   7   1  10   -4.40    3.00
  -8  -1 -10    5.40    3.90
  -8  -1 -10    8.40    6.70
  -8  -1 -10    7.70    4.80
   8   1  10   -3.60    3.80
   8   1  10    1.90    6.80
   8   1  10    4.90    3.70
   8   1  10   -3.90    5.80
   5  -2 -10    3.80    3.90
   5  -2 -10   -1.90    3.60
   5  -2 -10   -3.10    5.60
   5  -2 -10    4.40    5.50
   5  -2 -10    0.20    3.30
  -5   2  10    3.80    5.60
  -5   2  10   -3.10    2.90
  -5   2  10   -0.50    3.30
  -5   2  10    6.60    4.50
   4  -2 -10    0.90    2.70
   4  -2 -10    3.00    3.30
   4  -2 -10   -3.90    3.20
   4  -2 -10   -1.10    3.10
   4  -2 -10    3.60    2.90
   4  -2 -10   -0.10    4.20
  -4   2  10   -1.90    2.80
  -4   2  10    5.30    5.00
  -4   2  10    2.50    2.40
  -4   2  10   -1.10    4.50
  -4   2  10   -1.80    3.60
  -4   2  10    3.00    3.90
   3  -2 -10    0.80    2.80
   3  -2 -10   -0.80    2.50
   3  -2 -10    3.80    2.60
   3  -2 -10    3.00    3.40
   3  -2 -10    0.10    2.10
   3  -2 -10   -0.20    3.00
  -3   2  10    0.70    3.50
  -3   2  10   -0.80    2.20
  -3   2  10   -1.40    2.20
  -3   2  10    2.30    4.20
  -3   2  10    1.60    3.70
  -3   2  10   -3.40    2.20
   2  -2 -10   20.50    3.50
   2  -2 -10   22.40    2.60
   2  -2 -10   17.10    3.50
   2  -2 -10   21.40    3.30
   2  -2 -10   24.60    3.40
   2  -2 -10   23.10    3.60
  -2   2  10   22.80    3.50
  -2   2  10   17.50    4.00
  -2   2  10   12.90    2.80
  -2   2  10   23.10    4.20
   1  -2 -10   84.69    5.10
   1  -2 -10   99.29    5.70
   1  -2 -10   92.79    5.80
   1  -2 -10   95.49    6.00
   1  -2 -10   88.49    6.20
   1  -2 -10   82.29    4.30
  -1   2  10   90.59    5.10
  -1   2  10   92.99    6.60
  -1   2  10   93.59    5.50
  -1   2  10   92.99    5.70
  -1   2  10   95.89    7.10
   0  -2 -10    5.30    2.30
   0  -2 -10    1.50    2.60
   0  -2 -10    7.00    2.50
   0  -2 -10    4.20    2.00
   0  -2 -10    1.70    1.60
   0   2  10    3.00    1.50
   0   2  10    3.70    3.10
   0   2  10    9.60    2.40
   0   2  10    8.70    2.50
   0   2  10    7.10    3.10
  -1  -2 -10   16.90    2.80
  -1  -2 -10   15.80    3.20
  -1  -2 -10   20.10    3.70
  -1  -2 -10   21.90    3.10
   1   2  10   23.70    4.10
   1   2  10   19.50    3.20
   1   2  10   20.20    3.30
   1   2  10   22.50    3.60
   1   2  10   19.30    2.30
  -2  -2 -10    2.40    2.80
  -2  -2 -10    1.10    1.80
  -2  -2 -10    3.50    2.20
  -2  -2 -10    3.10    2.30
   2   2  10   -0.90    1.70
   2   2  10    0.10    2.30
   2   2  10    1.90    1.40
   2   2  10    3.00    2.50
   2   2  10    1.10    2.30
   2   2  10   -1.50    3.00
  -3  -2 -10   42.40    3.60
  -3  -2 -10   36.00    5.30
  -3  -2 -10   43.40    4.60
  -3  -2 -10   48.20    4.60
   3   2  10   43.20    5.40
   3   2  10   36.70    4.40
   3   2  10   38.50    2.80
   3   2  10   46.80    4.40
   3   2  10   38.90    3.90
   3   2  10   44.40    4.60
  -4  -2 -10    1.90    2.40
  -4  -2 -10    0.50    3.10
  -4  -2 -10    3.50    1.70
  -4  -2 -10    4.30    3.00
   4   2  10    7.50    3.80
   4   2  10    0.10    2.10
   4   2  10    0.30    2.70
   4   2  10    2.80    1.50
   4   2  10    3.30    2.10
  -5  -2 -10   -5.90    3.70
  -5  -2 -10    1.00    3.40
  -5  -2 -10   -2.90    2.40
  -5  -2 -10    1.00    1.70
   5   2  10   -0.50    1.40
   5   2  10   -0.10    2.70
   5   2  10    1.70    2.30
   5   2  10   -2.00    3.40
   5   2  10    2.80    3.20
  -6  -2 -10   -6.70    4.30
  -6  -2 -10    1.50    2.90
  -6  -2 -10    1.20    1.70
  -6  -2 -10    1.80    4.10
   6   2  10    0.60    2.70
   6   2  10    5.80    3.80
   6   2  10    0.80    3.60
   6   2  10    1.90    3.40
  -7  -2 -10    9.30    4.10
  -7  -2 -10    8.60    4.00
   7   2  10   15.10    3.50
   7   2  10   17.80    5.80
   7   2  10   17.10    5.00
   7   2  10   10.60    4.70
  -8  -2 -10   12.10    6.10
  -8  -2 -10   -9.20    4.70
  -8  -2 -10   -4.10    3.90
   8   2  10    6.10    4.00
   8   2  10    7.80    6.10
   8   2  10    3.20    5.90
   5  -3 -10   10.50    4.00
   5  -3 -10   12.10    4.70
   5  -3 -10    8.20    3.60
   5  -3 -10   -0.90    4.40
   5  -3 -10    8.40    7.00
   5  -3 -10   -0.20    3.90
  -5   3  10    8.20    3.30
  -5   3  10   10.70    6.50
  -5   3  10   11.60    4.30
   4  -3 -10    2.80    3.40
   4  -3 -10    7.20    2.90
   4  -3 -10    5.70    3.40
   4  -3 -10    6.00    3.20
   4  -3 -10    0.70    3.30
   4  -3 -10    9.00    4.90
  -4   3  10    4.10    3.00
  -4   3  10    5.90    4.90
  -4   3  10    7.70    2.90
  -4   3  10    3.30    4.80
  -4   3  10    6.30    4.00
   3  -3 -10    8.80    2.80
   3  -3 -10    6.10    3.00
   3  -3 -10    9.40    2.90
   3  -3 -10    4.00    3.50
   3  -3 -10    8.20    2.90
   3  -3 -10    7.60    3.20
  -3   3  10    9.40    2.80
  -3   3  10    8.40    4.20
  -3   3  10    9.80    3.70
  -3   3  10    6.70    2.60
  -3   3  10    8.70    2.90
   2  -3 -10  150.48    7.30
   2  -3 -10  137.19    6.80
   2  -3 -10  142.99    7.80
   2  -3 -10  144.29    7.70
   2  -3 -10  150.78    7.10
   2  -3 -10  143.69    8.00
   2  -3 -10  142.59    7.50
  -2   3  10  152.28    9.00
  -2   3  10  151.58    7.40
  -2   3  10  153.58    9.10
  -2   3  10  151.68    7.50
  -2   3  10  159.38    8.60
   1  -3 -10   13.60    3.50
   1  -3 -10   13.70    2.80
   1  -3 -10   15.60    2.80
   1  -3 -10   14.30    3.20
   1  -3 -10   13.30    2.50
   1  -3 -10    9.40    2.80
  -1   3  10    9.30    2.20
  -1   3  10   16.40    3.70
  -1   3  10    9.90    3.40
  -1   3  10   20.70    3.30
  -1   3  10   14.10    3.40
  -1   3  10   13.90    3.00
   0  -3 -10   18.10    3.00
   0  -3 -10   23.30    3.40
   0  -3 -10   23.20    4.70
   0  -3 -10   20.50    3.20
   0  -3 -10   20.30    2.90
   0   3  10   19.70    2.70
   0   3  10   16.20    3.60
   0   3  10   19.50    3.20
   0   3  10   22.40    3.60
   0   3  10   11.90    3.30
  -1  -3 -10   39.10    5.00
  -1  -3 -10   34.60    3.90
  -1  -3 -10   32.20    4.10
  -1  -3 -10   31.10    3.80
   1   3  10   31.40    2.90
   1   3  10   36.20    4.10
   1   3  10   33.20    4.00
   1   3  10   36.00    5.20
  -2  -3 -10   31.70    4.70
  -2  -3 -10   20.60    3.20
  -2  -3 -10   18.10    2.80
  -2  -3 -10   26.20    3.80
   2   3  10   15.90    2.50
   2   3  10   25.10    3.40
   2   3  10   25.60    4.20
   2   3  10   24.80    2.50
  -3  -3 -10    2.90    3.20
  -3  -3 -10   -0.10    2.40
  -3  -3 -10    2.00    2.50
  -3  -3 -10    2.30    1.90
   3   3  10    1.80    1.80
   3   3  10   -4.70    2.90
   3   3  10    0.40    2.40
   3   3  10    0.90    1.40
  -4  -3 -10    4.60    2.50
  -4  -3 -10    7.00    3.10
  -4  -3 -10    2.00    3.70
  -4  -3 -10    2.80    1.80
   4   3  10    2.70    2.80
   4   3  10    0.30    1.90
   4   3  10    2.70    1.60
   4   3  10    2.10    2.00
   4   3  10    3.30    3.60
   4   3  10    1.80    2.80
  -5  -3 -10   16.00    3.40
  -5  -3 -10   21.00    5.00
  -5  -3 -10   10.50    2.20
  -5  -3 -10   22.00    4.30
   5   3  10   15.40    3.10
   5   3  10   13.20    2.70
   5   3  10   13.70    3.80
   5   3  10   12.20    3.80
   5   3  10   15.80    4.30
  -6  -3 -10    0.60    4.70
  -6  -3 -10    1.80    1.60
  -6  -3 -10    0.50    2.90
  -6  -3 -10   -0.10    4.60
   6   3  10   -0.20    4.20
   6   3  10   -0.30    2.60
   6   3  10    7.00    6.10
   6   3  10    2.30    3.00
   6   3  10    0.70    3.70
  -7  -3 -10    1.60    1.70
  -7  -3 -10    4.60    3.90
   7   3  10    1.80    4.00
   7   3  10    1.40    3.70
   7   3  10    4.90    4.30
   7   3  10   -5.10    5.20
   7   3  10    1.30    1.60
   7   3  10   -0.50    2.90
  -8  -3 -10   13.10    4.50
  -8  -3 -10   10.90    4.80
  -8  -3 -10    2.90    5.30
   8   3  10   12.70    5.20
   8   3  10   -3.60    4.70
   8   3  10    1.50    2.60
   8   3  10    3.00    4.20
   8   3  10    4.40    6.30
   5  -4 -10  -10.20    5.20
   5  -4 -10    3.70    2.90
   5  -4 -10    8.00    4.30
   5  -4 -10    2.50    3.70
   5  -4 -10   -0.80    4.20
   5  -4 -10    2.40    4.20
  -5   4  10    4.60    6.20
  -5   4  10    5.20    4.30
  -5   4  10    4.10    3.40
   4  -4 -10    2.80    3.70
   4  -4 -10    2.40    3.50
   4  -4 -10   -2.10    2.60
   4  -4 -10    1.70    4.00
   4  -4 -10    3.30    2.90
   4  -4 -10   -2.30    3.20
   4  -4 -10    1.80    5.00
  -4   4  10    2.00    3.50
  -4   4  10   -1.50    4.80
  -4   4  10    3.80    2.90
  -4   4  10   -2.50    2.80
  -4   4  10   -6.50    3.40
   3  -4 -10    2.40    3.20
   3  -4 -10   -3.60    3.60
   3  -4 -10    1.40    2.60
   3  -4 -10    0.00    3.20
   3  -4 -10    1.80    2.60
   3  -4 -10    2.20    2.40
  -3   4  10    4.10    3.50
  -3   4  10   11.40    4.20
  -3   4  10   -2.60    2.10
  -3   4  10    1.30    2.30
  -3   4  10    1.00    3.20
   2  -4 -10   19.80    3.80
   2  -4 -10   20.80    3.10
   2  -4 -10   23.00    3.20
   2  -4 -10   18.20    3.10
   2  -4 -10   16.50    3.60
   2  -4 -10   20.30    3.90
  -2   4  10   23.70    3.40
  -2   4  10   23.30    4.00
  -2   4  10   22.80    4.50
  -2   4  10   17.80    2.90
  -2   4  10   17.10    3.60
   1  -4 -10   70.69    5.70
   1  -4 -10   62.89    5.10
   1  -4 -10   60.39    5.90
   1  -4 -10   61.19    4.90
   1  -4 -10   61.59    4.50
  -1   4  10   56.09    5.20
  -1   4  10   63.79    5.50
  -1   4  10   60.09    5.00
  -1   4  10   56.09    6.00
   0  -4 -10    5.40    2.40
   0  -4 -10    6.30    2.70
   0  -4 -10    4.70    2.40
   0  -4 -10    7.00    2.60
   0  -4 -10    7.30    3.40
   0   4  10    5.20    1.80
   0   4  10    9.10    2.50
   0   4  10    8.90    3.30
   0   4  10    8.30    2.70
   0   4  10    9.50    3.00
  -1  -4 -10  207.48    9.10
  -1  -4 -10  205.78    8.60
  -1  -4 -10  195.98    9.20
  -1  -4 -10  190.58    9.80
  -1  -4 -10  211.68    9.10
   1   4  10  192.88    7.90
   1   4  10  187.38    8.10
   1   4  10  182.28    9.70
   1   4  10  208.38    9.30
  -2  -4 -10    3.40    2.40
  -2  -4 -10    5.30    2.50
  -2  -4 -10   -2.30    2.00
  -2  -4 -10    0.70    3.30
  -2  -4 -10    4.50    2.40
   2   4  10    2.40    2.80
   2   4  10    2.90    1.90
   2   4  10   -1.70    2.40
   2   4  10    3.10    2.70
   2   4  10   -0.50    1.40
  -3  -4 -10  139.99    7.50
  -3  -4 -10  132.49    7.30
  -3  -4 -10  133.79    8.50
  -3  -4 -10  126.69    6.70
  -3  -4 -10  129.69    7.60
   3   4  10  121.09    8.10
   3   4  10  133.09    7.40
   3   4  10  123.99    5.80
   3   4  10  134.29    7.70
   3   4  10  139.79    6.60
   3   4  10  129.89    5.20
  -4  -4 -10   -0.50    1.90
  -4  -4 -10    2.80    3.80
  -4  -4 -10   -1.10    2.60
  -4  -4 -10    1.70    3.00
   4   4  10    0.70    3.10
   4   4  10    2.40    2.00
   4   4  10    1.80    3.00
   4   4  10   -1.70    1.50
   4   4  10    2.00    3.60
  -5  -4 -10    1.90    2.90
  -5  -4 -10    0.30    4.60
  -5  -4 -10    3.30    3.70
  -5  -4 -10    1.10    1.90
   5   4  10    1.50    3.30
   5   4  10    1.70    1.70
   5   4  10   -2.70    3.10
   5   4  10    0.70    2.10
   5   4  10    4.00    4.30
  -6  -4 -10    1.20    5.10
  -6  -4 -10   -4.60    4.50
  -6  -4 -10    5.70    3.50
  -6  -4 -10   -1.10    1.70
   6   4  10    0.10    4.70
   6   4  10   -2.40    2.50
   6   4  10   -4.10    3.70
   6   4  10    6.20    4.50
  -7  -4 -10    0.20    1.60
  -7  -4 -10   -1.70    4.10
   7   4  10    1.40    3.60
   7   4  10    7.40    6.40
   7   4  10    1.00    4.50
   7   4  10    0.70    4.70
  -8  -4 -10   -2.10    4.90
  -8  -4 -10   -0.10    4.60
   8   4  10    0.00    4.80
   8   4  10    3.70    3.20
   8   4  10   -3.90    4.20
   8   4  10    1.70    6.90
   5  -5 -10    6.60    6.50
   5  -5 -10    6.30    3.80
   5  -5 -10   -2.20    4.00
   5  -5 -10    5.80    5.00
   5  -5 -10   -2.10    4.20
   5  -5 -10    5.30    3.60
  -5   5  10    5.70    3.10
  -5   5  10    1.20    3.90
  -5   5  10   -1.20    3.00
  -5   5  10    2.10    6.80
   4  -5 -10   -3.90    4.10
   4  -5 -10    5.00    3.30
   4  -5 -10   -0.40    5.40
   4  -5 -10    4.30    4.10
   4  -5 -10    1.50    3.20
   4  -5 -10    5.30    5.00
   4  -5 -10    2.30    3.30
  -4   5  10   -0.60    2.90
  -4   5  10   -0.20    5.10
  -4   5  10    7.70    4.40
  -4   5  10   -4.00    3.80
  -4   5  10    3.60    3.00
   3  -5 -10   12.80    4.30
   3  -5 -10    9.90    3.00
   3  -5 -10   11.10    3.30
   3  -5 -10   13.60    4.10
   3  -5 -10   15.50    3.20
   3  -5 -10   17.00    4.70
   3  -5 -10   17.30    4.60
  -3   5  10    8.20    3.70
  -3   5  10   10.30    4.20
  -3   5  10    9.60    4.10
  -3   5  10   12.80    2.90
  -3   5  10    8.70    4.60
   2  -5 -10    2.60    3.60
   2  -5 -10    0.30    2.20
   2  -5 -10   -1.70    3.20
   2  -5 -10    3.00    2.60
   2  -5 -10    4.20    2.70
  -2   5  10    1.00    1.90
  -2   5  10    6.60    3.70
  -2   5  10    2.90    3.40
  -2   5  10    4.30    2.40
  -2   5  10    2.10    3.70
   1  -5 -10    0.40    2.70
   1  -5 -10   -1.70    3.40
   1  -5 -10    3.60    2.60
   1  -5 -10    1.00    2.40
   1  -5 -10   -1.40    2.10
  -1   5  10    1.90    3.20
  -1   5  10   -4.60    2.40
  -1   5  10    1.10    2.50
  -1   5  10    1.10    3.50
  -1   5  10    2.10    2.00
   0  -5 -10    2.70    2.70
   0  -5 -10   -1.00    2.30
   0  -5 -10    0.70    2.20
   0  -5 -10    2.00    3.60
   0  -5 -10    1.90    2.30
   0   5  10    1.70    3.30
   0   5  10    3.20    2.00
   0   5  10   -0.90    1.60
   0   5  10    5.50    3.00
  -1  -5 -10    3.60    2.60
  -1  -5 -10   11.90    2.80
  -1  -5 -10    6.00    2.60
  -1  -5 -10    8.60    2.80
  -1  -5 -10    8.80    4.20
   1   5  10   12.80    3.60
   1   5  10    5.90    3.10
   1   5  10    7.70    2.50
   1   5  10    7.60    2.00
   1   5  10   12.40    3.30
  -2  -5 -10   -0.40    2.60
  -2  -5 -10   -5.80    3.40
  -2  -5 -10    4.20    2.50
  -2  -5 -10   -1.40    2.50
  -2  -5 -10    5.60    2.60
   2   5  10    0.60    1.60
   2   5  10    2.40    3.10
   2   5  10   -1.50    3.50
   2   5  10    2.70    2.90
   2   5  10   -0.60    1.90
   2   5  10   -0.30    1.90
  -3  -5 -10   44.70    5.50
  -3  -5 -10   53.69    7.10
  -3  -5 -10   51.49    4.90
  -3  -5 -10   65.99    5.70
  -3  -5 -10   57.59    5.40
   3   5  10   53.49    3.80
   3   5  10   46.60    5.80
   3   5  10   53.29    7.00
   3   5  10   64.99    4.50
   3   5  10   54.69    5.70
   3   5  10   56.59    3.80
  -4  -5 -10   47.50    6.00
  -4  -5 -10   59.79    7.70
  -4  -5 -10   54.69    5.70
  -4  -5 -10   44.50    6.20
  -4  -5 -10   61.39    4.80
   4   5  10   49.70    3.60
   4   5  10   62.09    6.50
   4   5  10   62.59    7.40
   4   5  10   46.20    3.70
   4   5  10   58.99    4.70
   4   5  10   48.10    5.80
  -5  -5 -10   82.79    9.20
  -5  -5 -10   98.89    8.30
  -5  -5 -10   85.69    5.60
  -5  -5 -10  108.19    7.70
   5   5  10   96.89    6.10
   5   5  10   94.89    7.60
   5   5  10  113.39    8.20
   5   5  10   84.89    8.90
  -6  -5 -10   10.70    2.50
  -6  -5 -10   13.00    9.10
  -6  -5 -10    6.70    5.20
  -6  -5 -10    8.40    4.00
   6   5  10    4.00    5.80
   6   5  10   15.50    4.70
   6   5  10   10.30    4.70
   6   5  10    6.60    3.30
  -7  -5 -10   -5.20    4.40
  -7  -5 -10    0.90    2.00
   7   5  10   -3.10    6.60
   7   5  10   -7.70    4.70
   7   5  10   -0.40    3.80
   4  -6 -10    2.00    4.90
   4  -6 -10    1.30    5.90
   4  -6 -10    2.90    3.00
   4  -6 -10   -4.50    4.40
   4  -6 -10   -3.30    3.40
   4  -6 -10   -3.90    3.90
  -4   6  10    0.50    4.30
  -4   6  10    1.70    5.40
   3  -6 -10   19.90    4.20
   3  -6 -10   17.20    5.30
   3  -6 -10   23.90    5.10
   3  -6 -10   16.60    4.80
   3  -6 -10   12.80    3.10
  -3   6  10   17.90    3.40
  -3   6  10   14.10    3.50
  -3   6  10   16.60    4.70
  -3   6  10   20.70    5.30
   2  -6 -10    5.10    4.30
   2  -6 -10    8.20    2.80
   2  -6 -10    8.40    4.00
   2  -6 -10   12.20    3.60
   2  -6 -10    1.50    2.80
  -2   6  10    6.30    3.10
  -2   6  10    2.20    2.20
  -2   6  10    5.70    4.10
  -2   6  10    1.40    4.20
   1  -6 -10   -5.00    4.80
   1  -6 -10    2.70    3.10
   1  -6 -10   -0.90    4.10
   1  -6 -10    1.70    2.70
  -1   6  10   -4.30    3.50
  -1   6  10    1.20    2.80
  -1   6  10   -1.70    3.50
  -1   6  10   -1.60    1.80
  -1   6  10   -2.10    3.90
   0  -6 -10    2.20    2.70
   0  -6 -10    4.90    3.50
   0  -6 -10   -0.40    2.60
   0   6  10   -0.10    3.60
   0   6  10   -1.40    1.80
   0   6  10    2.90    3.30
   0   6  10   -4.80    2.80
   0   6  10   -1.60    3.90
  -1  -6 -10   -0.20    4.20
  -1  -6 -10    0.50    2.80
  -1  -6 -10    1.80    2.60
  -1  -6 -10    2.00    2.90
  -1  -6 -10   -0.60    3.10
   1   6  10   -5.10    3.00
   1   6  10    1.60    3.90
   1   6  10    0.90    1.90
   1   6  10    3.70    2.70
   1   6  10   -1.90    3.30
  -2  -6 -10    5.80    3.00
  -2  -6 -10    3.70    3.00
  -2  -6 -10    0.90    3.00
  -2  -6 -10    5.10    3.00
  -2  -6 -10    0.80    4.20
   2   6  10    2.00    1.80
   2   6  10    1.70    2.00
   2   6  10    1.00    3.50
   2   6  10    6.00    3.70
   2   6  10    0.40    4.30
   2   6  10    5.70    2.60
  -3  -6 -10    0.10    3.40
  -3  -6 -10   -0.10    2.90
  -3  -6 -10   -4.70    3.20
  -3  -6 -10    2.40    3.20
  -3  -6 -10   -0.30    4.30
   3   6  10    5.10    3.80
   3   6  10    3.40    2.00
   3   6  10   -3.90    2.30
   3   6  10    4.10    4.40
   3   6  10    0.50    2.00
   3   6  10    0.20    3.70
  -4  -6 -10    1.10    3.90
  -4  -6 -10    0.70    3.40
  -4  -6 -10   -0.60    2.70
  -4  -6 -10    0.00    4.80
   4   6  10   -2.50    2.20
   4   6  10    2.20    2.30
   4   6  10    3.00    1.80
   4   6  10    3.40    5.00
   4   6  10    2.00    3.80
   4   6  10    5.40    3.90
  -5  -6 -10    1.60    4.70
  -5  -6 -10   10.70    3.00
  -5  -6 -10    8.20    4.80
  -5  -6 -10   10.10    6.30
  -5  -6 -10    9.60    4.10
   5   6  10   16.30    6.30
   5   6  10    9.30    4.40
   5   6  10    3.70    2.80
  -6  -6 -10   -3.00    2.50
   6   6  10   13.20    6.90
   6   6  10    2.70    4.90
  -7  -6 -10    3.80    2.80
  -7  -6 -10    6.60    5.60
   7   6  10    2.70    4.30
   7   6  10    9.00    5.70
   3  -7 -10    1.10    5.00
   3  -7 -10    3.80    3.80
   3  -7 -10   -0.40    4.90
   3  -7 -10    1.90    4.40
   3  -7 -10    1.00    3.20
  -3   7  10    3.50    4.70
  -3   7  10    1.10    2.60
  -3   7  10   -3.40    5.40
   2  -7 -10   -0.80    4.60
   2  -7 -10    6.80    4.60
   2  -7 -10   -4.70    4.00
   2  -7 -10    2.80    3.20
   2  -7 -10    1.00    2.60
  -2   7  10    1.30    5.50
  -2   7  10    3.90    2.60
  -2   7  10   -4.80    4.60
  -2   7  10    3.10    3.20
   1  -7 -10    5.50    3.30
   1  -7 -10   10.30    4.80
   1  -7 -10    2.50    2.60
   1  -7 -10    0.50    4.00
  -1   7  10    6.70    4.70
  -1   7  10   13.40    5.20
  -1   7  10   -1.30    4.40
   0  -7 -10   12.60    4.20
   0  -7 -10   -0.80    2.70
   0  -7 -10    1.70    4.70
   0  -7 -10   -5.10    3.10
   0   7  10    2.20    4.20
   0   7  10    0.30    2.10
   0   7  10   -0.50    3.70
   0   7  10    2.10    3.70
   0   7  10   -3.30    5.00
  -1  -7 -10    0.10    2.90
  -1  -7 -10   -0.30    4.60
  -1  -7 -10    0.50    3.70
  -1  -7 -10    2.90    3.50
  -1  -7 -10    6.40    4.40
   1   7  10    8.90    3.70
   1   7  10    1.20    2.60
   1   7  10   -6.00    5.00
   1   7  10    1.10    3.90
   1   7  10    2.90    4.00
  -2  -7 -10    0.40    3.50
  -2  -7 -10   13.10    3.90
  -2  -7 -10    6.90    3.40
  -2  -7 -10    3.00    4.80
  -2  -7 -10    5.90    3.50
   2   7  10    2.70    5.70
   2   7  10   -0.70    3.00
   2   7  10    0.70    2.10
   2   7  10   10.80    4.30
   2   7  10    6.80    5.20
   2   7  10    3.20    2.80
  -3  -7 -10   34.80    5.40
  -3  -7 -10   19.20    4.20
  -3  -7 -10   20.10    5.80
  -3  -7 -10   24.90    5.00
  -3  -7 -10   28.50    4.90
   3   7  10   27.90    5.20
   3   7  10   14.10    6.20
   3   7  10   27.40    4.20
   3   7  10   28.90    4.00
   3   7  10   22.00    5.00
   3   7  10   23.30    3.40
  -4  -7 -10   21.50    5.30
  -4  -7 -10   16.40    4.70
  -4  -7 -10   17.30    4.80
  -4  -7 -10   28.40    4.50
  -4  -7 -10   24.20    7.10
   4   7  10   25.00    4.00
   4   7  10   16.70    5.60
   4   7  10   20.80    3.20
  -5  -7 -10   -5.30    3.20
  -5  -7 -10    0.20    4.70
  -5  -7 -10   -3.30    4.20
   5   7  10   -1.70    2.60
   5   7  10    1.50    5.40
  -6  -7 -10    2.90    3.50
  -6  -7 -10   -3.60    4.70
  -6  -7 -10   -7.00    5.20
   6   7  10    3.10    3.80
   6   7  10   -0.20    5.70
   2  -8 -10    1.70    4.60
   2  -8 -10    6.90    5.80
   2  -8 -10   -2.20    2.70
   2  -8 -10    5.60    5.80
   2  -8 -10   -7.00    3.60
  -2   8  10    3.80    3.70
  -2   8  10    1.00    2.40
  -2   8  10    3.60    6.30
   1  -8 -10   -3.20    3.50
   1  -8 -10   -1.10    5.00
   1  -8 -10    0.80    2.80
   1  -8 -10    1.30    4.10
   1  -8 -10   13.20    6.70
   1  -8 -10   -5.10   10.30
  -1   8  10   -1.50    2.50
  -1   8  10   -2.30    4.60
  -1   8  10   -2.90    5.40
   0  -8 -10    1.80    4.70
   0  -8 -10   -1.90    3.60
   0  -8 -10    4.10    4.30
   0  -8 -10    5.90    3.00
   0  -8 -10   -2.50    7.00
   0  -8 -10   12.00    5.90
   0   8  10    3.50    2.70
   0   8  10    7.90    4.60
   0   8  10   -0.40    4.60
  -1  -8 -10    0.30    4.20
  -1  -8 -10   -7.00    3.90
  -1  -8 -10    6.30    6.70
  -1  -8 -10   -3.40    3.10
  -1  -8 -10  -10.00    4.20
  -1  -8 -10   -1.30    6.00
   1   8  10   -1.80    2.20
   1   8  10    1.30    4.70
   1   8  10    3.80    4.40
  -2  -8 -10   12.50    4.40
  -2  -8 -10    2.50    4.10
  -2  -8 -10    7.20    6.40
  -2  -8 -10   10.60    4.50
   2   8  10   -0.90    4.20
   2   8  10    2.10    2.30
   2   8  10   11.50    5.30
  -3  -8 -10    6.80    4.60
  -3  -8 -10    9.50    5.40
  -3  -8 -10   13.00    7.20
  -3  -8 -10   -2.20    4.30
   3   8  10    8.10    2.40
   3   8  10    2.70    4.10
   3   8  10    6.80    5.40
   3   8  10    1.60    2.40
  -4  -8 -10   14.20    8.00
  -4  -8 -10    3.10    4.90
  -4  -8 -10    4.20    5.00
  -4  -8 -10   11.20    4.70
   4   8  10    7.20    2.80
   4   8  10    9.40    4.50
   4   8  10   15.60    7.00
   4   8  10    5.60    2.30
  -5  -8 -10   -8.80    5.50
  -5  -8 -10   -0.50    5.00
  -5  -8 -10   -0.80    4.40
   5   8  10  -11.50    6.00
   5   8  10    2.70    2.80
  -1  -9 -10    5.40    5.90
  -1  -9 -10    4.60    8.30
  -1  -9 -10    7.00    4.90
  -1  -9 -10    2.80    8.00
  -1  -9 -10    6.50    5.00
   1   9  10    1.50    2.20
   1   9  10   -1.50    5.80
   1   9  10   -0.50    5.60
  -2  -9 -10   12.10    5.00
  -2  -9 -10   -3.40    5.90
  -2  -9 -10    7.00    5.30
  -2  -9 -10   20.50    8.30
  -2  -9 -10   16.40    7.60
   2   9  10   12.90    3.10
   2   9  10   11.30    6.50
  -3  -9 -10    0.40    5.30
  -3  -9 -10   14.60    8.30
  -3  -9 -10    5.90    5.80
   3   9  10    4.90    2.50
   3   9  10    0.10   10.10
   1   4 -11   24.00    7.30
  -1  -4  11   21.10    6.20
   0   4 -11    0.50    5.70
   0  -4  11   -2.60    5.30
  -1   4 -11    0.90    5.40
   1  -4  11   -4.50    5.10
   2  -4  11    1.50    5.20
   2  -4  11   -3.90    6.00
  -3   4 -11    4.30    2.90
  -3   4 -11   13.50    5.40
   3  -4  11    3.90    6.30
   3  -4  11    0.20    5.00
   4  -4  11    3.30    5.20
   3   3 -11    0.10    6.10
   3   3 -11    3.40    5.30
  -3  -3  11    2.60    6.60
  -3  -3  11    1.90    3.10
  -3  -3  11   -1.90    3.40
   2   3 -11   15.10    6.00
   2   3 -11    7.20    5.90
   2   3 -11    9.50    4.80
  -2  -3  11   -0.20    3.80
  -2  -3  11   -4.70    5.50
  -2  -3  11    5.40    2.80
   1   3 -11   -4.00    4.40
   1   3 -11    3.20    4.10
   1   3 -11   -0.80    4.90
  -1  -3  11    5.10    4.20
  -1  -3  11    0.50    2.50
  -1  -3  11    3.10    4.90
   0   3 -11   -0.40    4.20
   0   3 -11   -2.40    4.50
   0   3 -11   -0.80    4.00
   0  -3  11    4.60    2.40
   0  -3  11   -5.40    4.10
   0  -3  11    3.90    7.80
  -1   3 -11   17.70    4.70
  -1   3 -11    9.70    4.30
  -1   3 -11   17.70    4.90
   1  -3  11   15.30    5.50
   1  -3  11    7.80    4.40
   1  -3  11   18.50    4.90
  -2   3 -11    9.70    4.30
  -2   3 -11    6.20    3.90
   2  -3  11   -0.90    3.80
   2  -3  11   -0.90    5.40
   2  -3  11   -6.70    4.10
  -3   3 -11    6.90    4.60
  -3   3 -11    6.70    2.20
   3  -3  11    9.50    4.30
   3  -3  11    5.20    4.20
   3  -3  11    3.30    4.70
  -4   3 -11    0.30    4.20
   4  -3  11    0.30    4.30
   4  -3  11   -4.90    3.80
   4  -3  11    3.50    3.30
   4  -3  11    1.90    5.60
  -5   3 -11    2.40    4.10
   5  -3  11   -0.20    4.40
   5  -3  11    2.00    5.90
   5  -3  11   -2.80    4.20
   5  -3  11    5.80    3.80
   3   2 -11   -6.10    4.00
   3   2 -11    0.30    5.40
   3   2 -11    0.30    5.00
  -3  -2  11    3.60    4.80
  -3  -2  11   -1.70    2.50
   2   2 -11    9.80    4.80
   2   2 -11    5.30    3.90
   2   2 -11   13.50    4.60
  -2  -2  11   -1.90    3.10
  -2  -2  11    6.20    2.60
  -2  -2  11   12.10    5.10
   1   2 -11    7.80    4.20
   1   2 -11    1.90    3.90
   1   2 -11    1.00    3.60
   1   2 -11    3.40    3.60
  -1  -2  11    2.50    6.30
  -1  -2  11   -9.40    4.90
  -1  -2  11   -0.50    2.40
  -1  -2  11    4.20    4.50
  -1  -2  11    2.10    3.10
   0   2 -11    3.20    3.60
   0   2 -11    7.40    6.10
   0   2 -11    1.40    3.90
   0  -2  11    1.70    2.20
   0  -2  11    0.80    3.80
   0  -2  11    7.20    4.60
   0  -2  11   14.20    3.80
   0  -2  11    2.60    4.30
  -1   2 -11    2.00    3.40
  -1   2 -11   -2.80    3.30
  -1   2 -11   -3.40    3.10
   1  -2  11    5.90    4.00
   1  -2  11    5.20    3.30
   1  -2  11    4.80    3.70
   1  -2  11    3.00    3.90
   1  -2  11    2.60    2.00
  -2   2 -11    0.80    3.30
  -2   2 -11    7.70    4.00
  -2   2 -11    3.60    3.10
  -2   2 -11   -0.90    3.30
   2  -2  11   -1.70    3.90
   2  -2  11    0.50    3.30
   2  -2  11    0.30    1.80
  -3   2 -11    6.80    3.40
  -3   2 -11    4.70    3.20
  -3   2 -11   -1.00    3.80
  -3   2 -11    7.50    4.30
   3  -2  11    3.00    3.20
   3  -2  11    2.10    4.40
   3  -2  11   -3.10    3.20
  -4   2 -11    9.20    4.20
  -4   2 -11   14.70    4.20
   4  -2  11   18.90    3.80
   4  -2  11   26.50    5.10
   4  -2  11   16.50    4.00
   4  -2  11   20.80    5.20
  -5   2 -11   -6.40    3.30
   5  -2  11    2.60    3.10
   5  -2  11    1.70    3.60
   5  -2  11   -6.90    3.30
   5  -2  11   -3.00    4.70
  -6   2 -11   -1.00    3.90
  -6   2 -11    4.60    3.70
   6  -2  11   -0.10    3.90
   6  -2  11    5.00    5.60
   6  -2  11    6.90    4.10
   6  -2  11    9.00    3.90
   4   1 -11   -3.20    4.60
   4   1 -11    2.10    4.30
   4   1 -11    4.00    5.30
  -4  -1  11    6.40    3.60
  -4  -1  11    1.30    2.50
  -4  -1  11   -5.70    4.50
   3   1 -11    3.10    4.00
   3   1 -11   -1.70    4.10
   3   1 -11    5.20    4.70
  -3  -1  11   -0.70    2.60
  -3  -1  11    0.90    4.20
  -3  -1  11    5.50    2.90
   2   1 -11    4.70    3.90
   2   1 -11    6.50    4.30
   2   1 -11    7.90    3.90
   2   1 -11    4.00    3.40
  -2  -1  11    1.30    5.10
  -2  -1  11    9.40    4.10
  -2  -1  11   17.10    5.20
  -2  -1  11    2.70    2.50
  -2  -1  11    5.00    2.90
   1   1 -11   -0.10    3.40
  -1  -1  11    0.60    4.70
  -1  -1  11    1.50    2.20
  -1  -1  11    9.30    4.30
  -1  -1  11    5.70    3.20
  -1  -1  11    3.20    2.80
   0   1 -11   51.29    6.00
   0   1 -11   46.30    5.20
   0   1 -11   40.50    5.70
   0   1 -11   39.00    5.40
   0  -1  11   52.29    6.80
   0  -1  11   34.00    3.50
   0  -1  11   55.49    5.80
   0  -1  11   44.80    4.90
   0  -1  11   42.20    5.30
  -1   1 -11    2.60    3.00
  -1   1 -11   -0.70    2.70
  -1   1 -11   -4.20    3.30
  -1   1 -11    5.20    3.20
   1  -1  11    5.70    3.50
   1  -1  11    3.30    3.00
   1  -1  11    2.30    1.80
   1  -1  11   10.10    4.10
   1  -1  11    3.60    3.20
  -2   1 -11   -1.50    2.90
  -2   1 -11    0.80    2.80
  -2   1 -11    2.90    2.60
  -2   1 -11   -0.60    3.40
   2  -1  11   -3.40    3.30
   2  -1  11   -5.10    2.60
   2  -1  11    6.40    4.20
   2  -1  11    2.50    1.70
   2  -1  11   -2.50    3.20
  -3   1 -11    6.60    3.30
  -3   1 -11    1.70    2.70
  -3   1 -11   -4.90    3.50
  -3   1 -11   -6.30    3.10
   3  -1  11    5.90    2.80
   3  -1  11    2.80    3.90
   3  -1  11   -3.60    2.90
   3  -1  11   -0.20    1.60
   3  -1  11    3.10    3.20
   3  -1  11   -2.60    3.30
  -4   1 -11   -0.60    4.40
  -4   1 -11    7.50    2.50
  -4   1 -11    5.50    3.90
  -4   1 -11    7.50    3.00
  -4   1 -11    7.10    3.40
   4  -1  11   10.60    4.80
   4  -1  11    7.30    1.70
   4  -1  11   11.00    4.30
   4  -1  11    4.40    4.40
   4  -1  11    8.60    3.30
  -5   1 -11    1.50    3.50
  -5   1 -11    1.30    2.90
  -5   1 -11    6.40    6.00
   5  -1  11   -0.80    4.70
   5  -1  11    2.50    2.90
   5  -1  11    7.90    3.70
   5  -1  11    4.90    1.70
   5  -1  11    4.30    3.20
  -6   1 -11   -4.60    3.50
  -6   1 -11    8.00    3.80
   6  -1  11    7.40    3.40
   6  -1  11    6.20    5.20
   6  -1  11    8.80    3.40
   6  -1  11    4.20    4.20
   6  -1  11    3.80    1.70
  -7   1 -11    5.60    5.90
  -7   1 -11    9.00    4.40
   7  -1  11   11.70    4.30
   7  -1  11   12.10    6.20
   7  -1  11   11.50    4.20
   7  -1  11    8.80    3.40
   7  -1  11   15.60    9.10
   4   0 -11   -3.60    4.20
   4   0 -11   -4.30    5.30
   4   0 -11   -0.60    4.10
  -4   0  11    4.30    4.60
  -4   0  11    3.20    3.60
  -4   0  11   -2.20    2.30
   3   0 -11    0.10    3.60
   3   0 -11   -0.40    3.40
   3   0 -11   -0.10    4.10
  -3   0  11    2.00    3.80
  -3   0  11   -1.40    2.60
  -3   0  11    1.80    2.60
   2   0 -11   29.30    4.50
   2   0 -11   24.00    6.90
   2   0 -11   21.10    4.50
   2   0 -11   35.00    5.40
   2   0 -11   25.40    4.30
  -2   0  11   29.30    5.80
  -2   0  11   36.40    4.90
  -2   0  11   29.70    5.30
  -2   0  11   21.70    3.40
  -2   0  11   28.90    3.60
   1   0 -11    2.30    2.90
   1   0 -11    6.20    3.80
   1   0 -11    0.10    2.40
   1   0 -11    3.60    2.70
   1   0 -11    0.90    2.70
  -1   0  11   -1.30    4.00
  -1   0  11    3.60    3.00
  -1   0  11   -2.10    3.80
  -1   0  11    1.60    2.70
  -1   0  11    2.40    2.10
   0   0 -11    2.70    2.50
   0   0 -11    9.20    3.60
   0   0 -11    2.90    1.90
   0   0 -11    5.00    3.10
   0   0 -11    4.70    2.80
   0   0  11    2.90    3.40
   0   0  11    2.90    2.10
   0   0  11    9.60    4.10
   0   0  11    7.90    3.00
   0   0  11    6.50    3.00
  -1   0 -11    7.40    2.80
  -1   0 -11    5.40    2.80
  -1   0 -11    9.90    3.70
  -1   0 -11    5.20    2.80
  -1   0 -11    7.60    1.40
   1   0  11    7.60    4.30
   1   0  11    6.20    3.80
   1   0  11   10.00    3.40
   1   0  11    8.40    3.20
   1   0  11    8.10    2.00
  -2   0 -11    1.60    2.70
  -2   0 -11   -0.10    2.70
  -2   0 -11   -1.70    2.20
  -2   0 -11    2.40    1.30
  -2   0 -11    0.40    3.30
   2   0  11    3.50    2.80
   2   0  11    0.80    3.70
   2   0  11    1.30    1.50
   2   0  11    5.40    3.40
   2   0  11   -1.00    3.00
  -3   0 -11   30.70    4.30
  -3   0 -11   33.70    3.20
  -3   0 -11   39.50    4.90
  -3   0 -11   45.90    5.80
  -3   0 -11   31.10    4.30
   3   0  11   33.60    2.80
   3   0  11   34.80    4.70
   3   0  11   38.00    5.00
   3   0  11   41.90    4.60
   3   0  11   35.20    4.50
   3   0  11   45.70    6.00
  -4   0 -11   10.30    3.40
  -4   0 -11    0.60    3.90
  -4   0 -11    5.00    3.70
  -4   0 -11    6.90    2.50
  -4   0 -11    9.90    2.70
   4   0  11    7.50    1.70
   4   0  11    7.60    3.00
   4   0  11   15.50    3.90
   4   0  11    7.80    4.20
   4   0  11    6.40    2.80
   4   0  11   11.50    3.50
  -5   0 -11    0.10    4.50
  -5   0 -11    2.30    2.50
  -5   0 -11   -2.40    4.60
  -5   0 -11    3.60    2.80
  -5   0 -11   -2.80    3.00
   5   0  11    4.60    4.80
   5   0  11   -0.80    1.50
   5   0  11   -1.00    3.10
   5   0  11   -1.90    2.80
   5   0  11   -0.90    4.40
   5   0  11   -1.30    2.70
  -6   0 -11   -3.50    3.50
  -6   0 -11   11.30    3.70
   6   0  11    7.50    3.70
   6   0  11   -3.40    3.10
   6   0  11    0.30    5.10
   6   0  11    3.40    1.60
   6   0  11    1.80    3.00
  -7   0 -11    9.60    4.20
  -7   0 -11   15.40    4.90
   7   0  11   11.80    4.90
   7   0  11    9.60    6.90
   7   0  11    0.30    6.80
   7   0  11    6.60    2.00
   7   0  11    8.40    3.60
   5  -1 -11   -4.30    4.50
   5  -1 -11   -1.20    5.00
   5  -1 -11    0.60    4.50
  -5   1  11   -4.90    7.00
  -5   1  11   -0.90    2.90
  -5   1  11    0.90    4.60
   4  -1 -11    2.80    5.50
   4  -1 -11    3.70    3.90
   4  -1 -11    2.50    4.30
   4  -1 -11    5.50    4.00
  -4   1  11    0.40    2.90
  -4   1  11    6.90    2.70
  -4   1  11    1.80    5.70
  -4   1  11    3.70    4.10
   3  -1 -11    0.50    3.30
   3  -1 -11    0.80    3.40
   3  -1 -11   -1.00    3.30
   3  -1 -11   -0.90    3.40
   3  -1 -11   -1.70    3.90
  -3   1  11   -0.90    2.70
  -3   1  11   -2.80    2.40
  -3   1  11   -3.00    4.40
  -3   1  11    0.80    3.10
  -3   1  11  -10.00    5.40
   2  -1 -11    0.70    3.10
   2  -1 -11    2.60    2.90
   2  -1 -11    1.50    3.40
   2  -1 -11    5.40    3.30
   2  -1 -11    2.80    3.60
  -2   1  11    2.60    2.20
  -2   1  11    3.60    3.20
  -2   1  11   -0.40    2.60
  -2   1  11    4.80    4.10
  -2   1  11   -1.80    4.70
   1  -1 -11   37.90    4.90
   1  -1 -11   39.70    5.70
   1  -1 -11   36.00    5.00
   1  -1 -11   36.60    4.90
   1  -1 -11   28.40    3.90
  -1   1  11   29.60    3.60
  -1   1  11   32.00    4.00
  -1   1  11   28.20    4.00
  -1   1  11   37.10    5.20
  -1   1  11   28.70    4.90
   0  -1 -11    0.20    2.60
   0  -1 -11    5.20    2.70
   0  -1 -11    5.90    3.20
   0  -1 -11    5.00    2.60
   0  -1 -11    3.40    1.80
   0   1  11    3.10    3.90
   0   1  11    4.00    3.00
   0   1  11    5.30    2.80
   0   1  11    4.90    3.50
   0   1  11    3.80    1.90
  -1  -1 -11    8.60    3.00
  -1  -1 -11   15.50    3.80
  -1  -1 -11    7.30    2.70
  -1  -1 -11    2.40    2.60
   1   1  11    1.10    3.50
   1   1  11    9.00    2.10
   1   1  11   13.20    3.50
   1   1  11    8.30    3.10
   1   1  11   10.50    3.10
  -2  -1 -11   75.29    6.70
  -2  -1 -11   69.69    5.00
  -2  -1 -11   59.09    5.40
  -2  -1 -11   59.49    5.60
   2   1  11   70.39    5.60
   2   1  11   70.79    5.90
   2   1  11   74.39    5.80
   2   1  11   62.19    5.10
   2   1  11   59.39    3.70
   2   1  11   69.39    6.70
  -3  -1 -11    1.70    3.50
  -3  -1 -11    2.00    2.60
  -3  -1 -11    2.70    3.10
  -3  -1 -11    2.00    2.20
  -3  -1 -11    0.30    1.70
   3   1  11   -1.00    3.90
   3   1  11    2.40    3.20
   3   1  11    1.70    2.60
   3   1  11    1.30    2.90
   3   1  11    0.90    1.40
   3   1  11   -1.20    2.10
  -4  -1 -11    0.60    2.50
  -4  -1 -11   -0.50    2.10
  -4  -1 -11    2.10    3.10
  -4  -1 -11   -5.00    1.90
  -4  -1 -11   -0.60    3.40
   4   1  11    1.80    3.00
   4   1  11   -0.10    2.70
   4   1  11    2.20    2.40
   4   1  11    1.50    3.10
   4   1  11    2.20    1.50
   4   1  11    0.20    4.20
  -5  -1 -11    7.80    3.20
  -5  -1 -11    9.90    3.20
  -5  -1 -11    8.20    2.50
  -5  -1 -11   10.90    4.20
  -5  -1 -11   -3.00    4.40
   5   1  11    5.40    4.30
   5   1  11    3.90    3.20
   5   1  11    7.40    4.50
   5   1  11    8.10    1.80
  -6  -1 -11    7.20    3.60
  -6  -1 -11    7.20    3.60
  -6  -1 -11    3.80    2.30
   6   1  11   -0.50    3.00
   6   1  11    1.40    1.70
   6   1  11    9.20    3.50
   6   1  11   -5.20    4.70
   6   1  11   10.70    4.70
  -7  -1 -11   -1.60    3.50
  -7  -1 -11   -1.80    4.20
   7   1  11   -0.80    4.00
   7   1  11    0.50    1.80
   7   1  11    0.80    5.70
   7   1  11   -6.90    5.80
   7   1  11    2.50    3.20
   5  -2 -11    5.00    5.10
   5  -2 -11   -1.30    4.10
   5  -2 -11   -6.90    4.10
  -5   2  11    4.40    3.30
  -5   2  11    5.60    7.50
  -5   2  11   -0.30    4.00
   4  -2 -11    7.70    4.00
   4  -2 -11   -1.00    5.10
   4  -2 -11   11.20    4.00
   4  -2 -11    8.10    4.50
  -4   2  11   -0.10    2.90
  -4   2  11    6.80    3.70
  -4   2  11    3.20    5.00
  -4   2  11  -11.70    8.90
  -4   2  11    2.10    3.10
   3  -2 -11    2.50    4.10
   3  -2 -11    0.50    2.20
   3  -2 -11    5.70    3.20
   3  -2 -11   -0.90    3.10
   3  -2 -11   -1.30    3.40
  -3   2  11    8.60    5.10
  -3   2  11   -0.30    3.00
  -3   2  11   -1.50    4.20
  -3   2  11    5.00    4.30
  -3   2  11    5.50    4.60
  -3   2  11    1.90    2.80
   2  -2 -11    7.50    3.00
   2  -2 -11    7.20    3.60
   2  -2 -11    3.20    3.20
   2  -2 -11    1.00    3.10
   2  -2 -11    7.10    2.00
   2  -2 -11    5.50    3.00
  -2   2  11    7.40    3.20
  -2   2  11    4.30    3.00
  -2   2  11   12.50    4.90
  -2   2  11    1.80    2.40
  -2   2  11    2.00    4.10
   1  -2 -11   68.99    5.70
   1  -2 -11   74.29    5.80
   1  -2 -11   64.49    4.80
   1  -2 -11   73.39    5.50
   1  -2 -11   64.89    3.70
   1  -2 -11   55.89    6.30
  -1   2  11   81.39    7.10
  -1   2  11   62.99    4.60
  -1   2  11   72.79    7.40
  -1   2  11   53.99    5.50
  -1   2  11   61.89    5.30
   0  -2 -11    1.90    3.20
   0  -2 -11    0.90    1.60
   0  -2 -11    0.80    2.50
   0  -2 -11    3.30    2.50
   0  -2 -11    1.00    2.60
   0   2  11   -0.70    3.30
   0   2  11    2.80    2.60
   0   2  11    2.30    2.60
   0   2  11   -0.10    3.70
   0   2  11   -1.20    1.60
  -1  -2 -11   34.80    4.70
  -1  -2 -11   38.40    5.00
  -1  -2 -11   50.19    4.70
  -1  -2 -11   40.00    4.50
   1   2  11   44.70    4.90
   1   2  11   36.60    3.20
   1   2  11   54.49    6.00
   1   2  11   38.80    5.40
   1   2  11   38.40    4.70
  -2  -2 -11    0.50    2.70
  -2  -2 -11    5.50    2.80
  -2  -2 -11    3.60    2.30
  -2  -2 -11    8.10    3.70
   2   2  11    7.50    3.00
   2   2  11    4.40    1.80
   2   2  11    4.30    2.20
   2   2  11    6.30    3.00
   2   2  11   -0.10    2.70
   2   2  11    5.50    3.90
  -3  -2 -11   36.70    4.90
  -3  -2 -11   33.80    5.00
  -3  -2 -11   40.80    4.20
  -3  -2 -11   33.00    4.80
   3   2  11   42.50    4.40
   3   2  11   41.50    4.80
   3   2  11   39.20    3.00
   3   2  11   39.70    5.60
   3   2  11   34.90    4.20
   3   2  11   36.50    4.90
  -4  -2 -11   21.80    3.00
  -4  -2 -11   21.20    4.80
  -4  -2 -11   14.50    3.40
  -4  -2 -11   14.90    4.00
   4   2  11   20.10    2.40
   4   2  11   18.60    3.60
   4   2  11   14.60    3.40
   4   2  11   14.60    3.90
   4   2  11   22.40    5.20
   4   2  11   22.40    3.50
  -5  -2 -11   -1.10    4.20
  -5  -2 -11   -0.60    1.90
  -5  -2 -11    0.40    4.00
  -5  -2 -11    2.10    2.90
   5   2  11    0.60    3.20
   5   2  11    3.50    3.80
   5   2  11    1.70    2.70
   5   2  11   -2.10    4.30
   5   2  11   -1.20    1.60
  -6  -2 -11    9.30    3.60
  -6  -2 -11   -3.60    5.90
  -6  -2 -11    0.00    3.50
  -6  -2 -11    2.10    2.10
   6   2  11   -2.00    2.70
   6   2  11    0.80    1.60
   6   2  11    4.90    3.70
   6   2  11   -3.50    4.30
   6   2  11    5.80    5.60
   6   2  11   -1.90    6.20
  -7  -2 -11    4.30    4.00
   7   2  11   11.90    3.90
   7   2  11   22.00    6.80
   7   2  11    5.80    5.30
   4  -3 -11   -9.30    3.90
   4  -3 -11    1.60    4.20
   4  -3 -11   -7.90    3.60
   4  -3 -11    0.10    3.50
   4  -3 -11    3.90    3.90
   4  -3 -11    3.00    5.40
  -4   3  11    4.50    3.40
  -4   3  11    8.70    4.90
  -4   3  11    0.10    6.00
  -4   3  11    3.00    3.50
  -4   3  11    0.60    2.80
   3  -3 -11    3.70    3.30
   3  -3 -11    3.20    3.40
   3  -3 -11    2.20    3.00
   3  -3 -11    7.80    4.10
   3  -3 -11    2.40    3.50
   3  -3 -11    8.00    4.50
  -3   3  11    5.10    3.40
  -3   3  11    1.60    4.60
  -3   3  11   -0.90    2.70
  -3   3  11    3.50    4.40
  -3   3  11    1.70    3.10
   2  -3 -11   49.60    5.30
   2  -3 -11   49.40    4.40
   2  -3 -11   37.40    5.30
   2  -3 -11   44.10    6.30
   2  -3 -11   58.99    8.10
  -2   3  11   40.50    4.20
  -2   3  11   61.09    7.30
  -2   3  11   51.99    5.30
  -2   3  11   44.20    5.50
  -2   3  11   56.99    7.10
  -2   3  11   50.09    7.20
   1  -3 -11   15.30    4.20
   1  -3 -11   18.40    3.40
   1  -3 -11   20.30    3.40
   1  -3 -11   17.40    3.20
   1  -3 -11   18.30    3.10
  -1   3  11   18.70    3.80
  -1   3  11   21.50    4.70
  -1   3  11   24.30    4.40
  -1   3  11   13.10    4.30
  -1   3  11   16.10    3.20
  -1   3  11   13.80    2.70
   0  -3 -11   -3.70    2.60
   0  -3 -11    1.80    2.30
   0  -3 -11    1.30    3.20
   0  -3 -11    0.90    2.50
   0   3  11    1.30    1.80
   0   3  11    0.50    3.70
   0   3  11    5.10    2.90
   0   3  11    0.50    3.70
   0   3  11   -0.50    2.70
  -1  -3 -11    0.70    2.30
  -1  -3 -11   -1.40    3.00
  -1  -3 -11    1.90    2.60
  -1  -3 -11    0.60    2.30
   1   3  11    1.80    2.60
   1   3  11    6.50    4.00
   1   3  11    1.20    1.70
   1   3  11    0.10    2.80
   1   3  11    0.70    3.30
  -2  -3 -11    6.60    2.90
  -2  -3 -11    6.90    2.80
  -2  -3 -11    3.20    3.70
  -2  -3 -11    4.50    2.40
   2   3  11    5.60    3.10
   2   3  11    4.00    2.90
   2   3  11    4.90    2.20
   2   3  11    5.40    1.80
   2   3  11    4.20    3.80
  -3  -3 -11   22.20    5.00
  -3  -3 -11   13.00    3.60
  -3  -3 -11   17.80    3.00
  -3  -3 -11   15.30    3.50
   3   3  11   14.20    3.60
   3   3  11   15.30    3.00
   3   3  11   15.20    4.50
   3   3  11   10.20    2.00
   3   3  11   12.90    3.50
  -4  -3 -11    0.20    3.00
  -4  -3 -11    3.10    3.80
  -4  -3 -11    2.30    4.20
  -4  -3 -11   -0.90    2.00
   4   3  11    5.10    2.50
   4   3  11   -0.40    1.40
   4   3  11    3.20    3.80
   4   3  11   -0.90    3.10
  -5  -3 -11   -1.90    3.30
  -5  -3 -11    3.50    2.10
  -5  -3 -11    8.20    4.40
  -5  -3 -11   11.40    5.10
   5   3  11    3.10    2.90
   5   3  11    5.40    2.70
   5   3  11    1.60    4.00
   5   3  11    4.10    1.80
   5   3  11   -5.70    3.50
  -6  -3 -11   -3.50    4.50
  -6  -3 -11    5.90    3.70
  -6  -3 -11    6.20    2.10
   6   3  11   10.20    5.20
   6   3  11    4.70    2.70
   6   3  11    4.30    4.30
   6   3  11    4.30    4.80
   6   3  11    3.70    3.40
  -7  -3 -11   -3.50    1.90
  -7  -3 -11    6.30    4.30
   7   3  11    0.20    3.50
   7   3  11    6.20    4.50
   7   3  11    1.60    4.50
   7   3  11   -2.10    6.20
   4  -4 -11    4.60    4.60
   4  -4 -11   -4.60    4.50
   4  -4 -11    4.70    4.00
   4  -4 -11   -3.20    3.00
   4  -4 -11    2.60    3.90
   4  -4 -11    3.50    5.70
   4  -4 -11    1.20    3.40
  -4   4  11   -7.40    4.70
  -4   4  11   -1.80    2.80
  -4   4  11    0.90    6.10
  -4   4  11    6.60    4.20
  -4   4  11    4.50    3.30
   3  -4 -11    9.30    3.30
   3  -4 -11    0.40    3.20
   3  -4 -11    4.70    3.10
   3  -4 -11   -2.60    4.30
   3  -4 -11    4.80    3.90
   3  -4 -11    3.00    4.00
   3  -4 -11   -3.10    3.50
  -3   4  11   -0.50    4.80
  -3   4  11    4.60    3.20
  -3   4  11    7.80    4.30
  -3   4  11    7.40    4.10
   2  -4 -11   40.90    5.20
   2  -4 -11   42.10    4.60
   2  -4 -11   31.60    4.90
   2  -4 -11   42.60    5.40
   2  -4 -11   46.70    5.70
   2  -4 -11   41.40    5.60
   2  -4 -11   35.00    4.10
  -2   4  11   37.00    5.00
  -2   4  11   31.10    5.00
  -2   4  11   48.90    6.80
  -2   4  11   38.90    4.80
  -2   4  11   51.09    7.00
   1  -4 -11    8.60    2.90
   1  -4 -11    9.60    2.70
   1  -4 -11    6.80    2.80
   1  -4 -11   19.00    3.80
  -1   4  11   17.30    3.70
  -1   4  11    4.80    3.90
  -1   4  11    9.10    3.10
  -1   4  11    5.90    2.30
  -1   4  11   12.70    3.60
   0  -4 -11   29.40    5.00
   0  -4 -11   36.20    4.50
   0  -4 -11   35.50    4.80
   0  -4 -11   34.90    4.60
   0  -4 -11   35.40    4.60
   0   4  11   21.60    3.10
   0   4  11   30.40    4.10
   0   4  11   28.80    4.40
   0   4  11   32.10    4.10
   0   4  11   35.20    5.20
  -1  -4 -11   42.70    6.30
  -1  -4 -11   37.70    4.80
  -1  -4 -11   33.80    4.60
  -1  -4 -11   38.90    5.00
  -1  -4 -11   55.99    5.00
   1   4  11   43.10    4.20
   1   4  11   47.40    6.00
   1   4  11   44.90    5.20
   1   4  11   43.00    3.60
   1   4  11   44.60    5.00
  -2  -4 -11   42.60    5.10
  -2  -4 -11   41.00    4.70
  -2  -4 -11   41.40    5.80
  -2  -4 -11   44.50    5.20
   2   4  11   43.10    3.40
   2   4  11   40.70    4.30
   2   4  11   32.50    3.30
   2   4  11   33.10    4.30
   2   4  11   51.39    6.40
  -3  -4 -11   20.60    3.20
  -3  -4 -11   18.80    3.90
  -3  -4 -11   30.50    4.40
  -3  -4 -11   13.60    4.50
   3   4  11   18.30    4.50
   3   4  11   21.20    4.30
   3   4  11   20.80    3.40
   3   4  11   18.60    3.90
   3   4  11   22.50    2.80
  -4  -4 -11   -0.40    3.40
  -4  -4 -11    2.80    4.20
  -4  -4 -11    0.00    3.20
  -4  -4 -11   -0.50    2.20
   4   4  11   -0.80    2.30
   4   4  11   -0.90    1.60
   4   4  11    5.90    4.30
   4   4  11   -4.30    3.60
   4   4  11    1.70    3.50
  -5  -4 -11   12.00    4.20
  -5  -4 -11   15.00    4.80
  -5  -4 -11   12.00    2.70
  -5  -4 -11   11.60    5.70
   5   4  11   12.50    3.00
   5   4  11   11.80    5.20
   5   4  11   14.60    4.20
   5   4  11   14.50    2.40
   5   4  11   15.90    6.40
  -6  -4 -11   -2.30    5.50
  -6  -4 -11   14.80    4.50
  -6  -4 -11    9.70    2.40
   6   4  11   -5.80    5.50
   6   4  11    6.40    3.10
   6   4  11   12.60    4.60
  -7  -4 -11   11.70    2.20
  -7  -4 -11    9.30    4.50
   7   4  11   10.70    4.90
   7   4  11   -2.20    6.40
   7   4  11    4.90    3.70
   4  -5 -11    9.50    5.70
   4  -5 -11   11.00    3.90
   4  -5 -11    7.90    4.70
   4  -5 -11    1.50    3.30
   4  -5 -11    8.40    5.30
   4  -5 -11    3.80    3.80
  -4   5  11   -1.10    5.00
  -4   5  11   19.00    5.30
  -4   5  11    5.30    6.50
  -4   5  11    1.60    2.90
   3  -5 -11   20.40    3.80
   3  -5 -11   40.10    5.40
   3  -5 -11   26.70    4.20
   3  -5 -11   32.70    5.70
   3  -5 -11   25.20    5.10
   3  -5 -11   28.10    5.40
  -3   5  11   22.40    3.90
  -3   5  11   41.70    5.30
  -3   5  11   37.20    6.30
  -3   5  11   30.80    5.30
  -3   5  11   21.40    5.30
   2  -5 -11   19.50    3.30
   2  -5 -11   25.50    4.90
   2  -5 -11   22.10    5.20
   2  -5 -11   18.50    4.00
   2  -5 -11   17.70    3.90
  -2   5  11   20.20    4.70
  -2   5  11   19.80    4.90
  -2   5  11   27.80    5.00
  -2   5  11   23.70    3.80
   1  -5 -11    1.10    6.50
   1  -5 -11    1.20    2.80
   1  -5 -11    5.80    4.90
   1  -5 -11    5.00    3.90
   1  -5 -11    4.40    2.80
  -1   5  11    3.10    4.00
  -1   5  11    1.70    3.20
  -1   5  11   -0.10    2.20
  -1   5  11    4.00    3.00
  -1   5  11    4.30    3.90
   0  -5 -11    7.30    4.40
   0  -5 -11    2.10    2.70
   0  -5 -11   -0.60    2.60
   0  -5 -11    4.40    3.20
   0  -5 -11   -1.50    2.70
   0   5  11    3.30    2.00
   0   5  11    3.40    2.40
   0   5  11   -1.80    3.70
   0   5  11    5.40    3.00
   0   5  11    3.00    3.50
  -1  -5 -11    5.70    2.90
  -1  -5 -11   11.40    4.60
  -1  -5 -11    5.50    3.00
  -1  -5 -11   12.20    3.40
  -1  -5 -11    8.20    3.10
   1   5  11    0.80    3.70
   1   5  11    2.20    3.60
   1   5  11    7.70    2.40
  -2  -5 -11   14.20    4.60
  -2  -5 -11   16.70    3.70
  -2  -5 -11   19.60    3.80
  -2  -5 -11   16.20    3.60
  -2  -5 -11   17.50    3.60
   2   5  11   14.10    4.10
   2   5  11   13.30    2.70
   2   5  11   16.70    4.10
   2   5  11   13.70    4.80
   2   5  11   13.60    2.50
  -3  -5 -11   69.69    6.70
  -3  -5 -11   68.59    8.30
  -3  -5 -11   61.19    5.50
  -3  -5 -11   72.59    6.30
  -3  -5 -11   70.49    6.50
   3   5  11   73.69    5.30
   3   5  11   60.89    6.70
   3   5  11   69.59    8.00
   3   5  11   80.09    6.90
   3   5  11   63.09    4.30
   3   5  11   66.09    4.10
  -4  -5 -11   -4.70    2.50
  -4  -5 -11    5.80    5.40
  -4  -5 -11    4.10    4.00
  -4  -5 -11    2.30    3.70
   4   5  11    0.20    5.00
   4   5  11    0.70    4.10
   4   5  11    2.60    2.40
   4   5  11   -4.80    3.60
   4   5  11    4.00    1.90
   4   5  11    1.80    1.70
  -5  -5 -11   27.90    3.60
  -5  -5 -11   27.60    6.60
  -5  -5 -11   35.00    5.60
  -5  -5 -11   30.10    5.40
   5   5  11   26.80    7.80
   5   5  11   26.40    2.90
   5   5  11   26.60    3.20
   5   5  11   21.20    5.20
   5   5  11   30.20    4.20
   5   5  11   35.20    7.00
  -6  -5 -11    7.70    2.70
  -6  -5 -11   17.20    6.20
  -6  -5 -11   -0.10    5.30
   6   5  11   -0.70    1.80
   6   5  11    0.20    2.80
   6   5  11   -0.40    6.30
   6   5  11    4.70    5.00
  -7  -5 -11    4.50    5.70
  -7  -5 -11    7.90    2.40
   7   5  11    4.10    5.50
   7   5  11    7.90    4.00
   7   5  11   15.30   10.40
   3  -6 -11   -2.60    5.10
   3  -6 -11    1.20    4.30
   3  -6 -11   -1.80    3.20
   3  -6 -11   -6.80    4.50
   3  -6 -11   -2.10    3.20
   3  -6 -11    5.40    5.60
  -3   6  11    6.30    2.80
  -3   6  11   -3.10    5.00
  -3   6  11   -7.80    5.30
  -3   6  11   -5.80    2.90
   2  -6 -11   11.70    3.40
   2  -6 -11    1.60    3.10
   2  -6 -11   12.80    4.20
   2  -6 -11   11.60    4.60
   2  -6 -11   12.30    5.20
  -2   6  11    2.90    3.20
  -2   6  11    3.60    5.00
  -2   6  11    2.90    2.60
  -2   6  11    5.80    5.10
   1  -6 -11    7.10    3.10
   1  -6 -11   -2.30    3.80
   1  -6 -11   11.90    3.50
   1  -6 -11    3.80    3.60
  -1   6  11    3.60    4.60
  -1   6  11   12.80    5.00
  -1   6  11   10.00    3.40
   0  -6 -11   -1.80    4.70
   0  -6 -11   -5.30    2.80
   0  -6 -11   -1.50    2.90
   0  -6 -11    0.90    3.00
   0  -6 -11    3.30    4.00
   0   6  11    1.80    2.40
   0   6  11   -6.10    4.40
   0   6  11    0.50    4.50
  -1  -6 -11   10.90    3.50
  -1  -6 -11   12.10    5.20
  -1  -6 -11    1.00    3.50
  -1  -6 -11    7.10    3.60
  -1  -6 -11   10.80    3.90
   1   6  11   12.50    3.30
   1   6  11   -0.60    3.80
   1   6  11    3.20    5.00
   1   6  11    3.80    3.90
   1   6  11    4.60    3.50
  -2  -6 -11   -1.20    3.60
  -2  -6 -11    2.10    5.30
  -2  -6 -11   -0.30    3.40
  -2  -6 -11   -0.30    3.30
   2   6  11   -0.30    2.70
   2   6  11   -0.70    4.10
   2   6  11    0.30    2.20
   2   6  11   -1.60    1.90
   2   6  11   -2.70    3.70
   2   6  11    6.30    5.00
  -3  -6 -11    1.70    3.90
  -3  -6 -11    3.40    3.90
  -3  -6 -11    5.50    3.80
  -3  -6 -11    7.90    5.40
  -3  -6 -11    2.80    3.20
   3   6  11    1.70    4.60
   3   6  11    5.10    5.80
   3   6  11   -0.10    2.80
   3   6  11    8.60    4.30
   3   6  11    1.40    2.60
   3   6  11    3.30    2.30
  -4  -6 -11    3.70    5.90
  -4  -6 -11   -2.80    3.60
  -4  -6 -11   10.70    3.40
  -4  -6 -11    2.20    3.80
  -4  -6 -11    7.50    4.70
   4   6  11    0.90    5.90
   4   6  11    3.70    4.60
   4   6  11    1.20    2.50
   4   6  11    7.10    2.60
   4   6  11    4.10    2.80
  -5  -6 -11   19.00    6.00
  -5  -6 -11   27.70    5.30
  -5  -6 -11   27.50    5.40
  -5  -6 -11   20.90    3.70
   5   6  11   24.50    3.40
   5   6  11   23.80    3.80
   5   6  11   23.40    5.60
  -6  -6 -11   -3.60    2.90
  -6  -6 -11    6.20    4.80
   6   6  11    5.10    5.60
   6   6  11   -3.00    3.00
   2  -7 -11   -3.20    5.70
   2  -7 -11    7.10    4.50
   2  -7 -11   -3.00    3.50
   2  -7 -11    4.80    5.30
   2  -7 -11    0.70    3.40
  -2   7  11   -1.60    3.50
  -2   7  11   -4.10    2.20
   1  -7 -11    4.50    3.50
   1  -7 -11    1.60    4.30
   1  -7 -11   -1.40    3.20
   1  -7 -11   -1.40    6.00
   1  -7 -11    3.60    4.90
  -1   7  11    2.00    3.60
  -1   7  11   -1.10    2.40
   0  -7 -11   -1.40    3.30
   0  -7 -11    4.30    3.80
   0  -7 -11    0.60    4.50
   0  -7 -11    1.20    3.40
   0  -7 -11    4.60    5.80
   0   7  11    2.70    4.40
   0   7  11   -0.10    2.20
  -1  -7 -11    1.80    3.50
  -1  -7 -11    2.90    3.50
  -1  -7 -11   -2.60    4.00
  -1  -7 -11    1.10    5.40
  -1  -7 -11    1.60    3.70
   1   7  11   -0.50    2.30
   1   7  11    0.30    4.50
   1   7  11   -4.20    3.90
  -2  -7 -11   -4.60    7.20
  -2  -7 -11    4.10    3.70
  -2  -7 -11   -1.50    3.70
  -2  -7 -11   -1.30    3.80
  -2  -7 -11   -7.70    5.90
   2   7  11   -0.30    2.10
   2   7  11   -4.40    2.20
   2   7  11    1.70    4.60
   2   7  11   -0.40    3.40
  -3  -7 -11    4.40    4.30
  -3  -7 -11   11.30    4.30
  -3  -7 -11    5.10    6.50
  -3  -7 -11    1.60    3.70
  -3  -7 -11    2.50    3.80
   3   7  11    8.60    2.60
   3   7  11    7.80    3.50
   3   7  11    5.40    2.40
   3   7  11    6.70    4.80
  -4  -7 -11   -3.30    6.20
  -4  -7 -11    6.60    4.80
  -4  -7 -11    4.50    3.80
  -4  -7 -11    7.20    5.10
  -4  -7 -11    3.90    4.90
   4   7  11    4.00    2.80
   4   7  11   -2.50    3.20
   4   7  11    3.80    2.40
  -5  -7 -11   -2.70    3.50
  -5  -7 -11    6.50    5.20
  -5  -7 -11   -0.50    4.70
  -5  -7 -11    3.90    6.00
   5   7  11    0.80    5.70
   5   7  11    2.20    2.20
   5   7  11   -0.70    3.30
   5   7  11    2.70    3.20
   1  -8 -11    9.30    4.90
   1  -8 -11    1.10    3.60
   1  -8 -11   -2.00    4.00
   1  -8 -11   -0.20    5.50
   1  -8 -11   12.30    6.90
  -1   8  11    3.50    6.20
  -1   8  11   -1.90    2.40
   0  -8 -11    1.10    4.60
   0  -8 -11    5.50    3.80
   0  -8 -11    9.80    5.10
   0  -8 -11    7.50    7.00
   0  -8 -11   -5.10    4.00
   0  -8 -11    2.50    9.10
   0   8  11   -0.50    5.40
   0   8  11   -1.40    5.30
   0   8  11   -0.40    2.30
  -1  -8 -11    1.60    4.20
  -1  -8 -11   11.50    5.20
  -1  -8 -11   12.90    6.90
  -1  -8 -11    2.70    7.20
  -1  -8 -11    9.30    4.60
   1   8  11   -5.10    5.00
   1   8  11   -1.50    4.80
   1   8  11    1.30    2.50
  -2  -8 -11    2.70    4.80
  -2  -8 -11   -2.10    4.50
  -2  -8 -11   11.10    4.60
  -2  -8 -11   -9.00    7.40
  -2  -8 -11   -0.40    4.30
   2   8  11    4.50    5.30
   2   8  11   -0.90    1.90
  -3  -8 -11    7.90    4.60
  -3  -8 -11   -1.00    7.50
  -3  -8 -11    2.00    4.50
  -3  -8 -11    7.60    4.90
  -3  -8 -11    2.00    4.80
   3   8  11    1.40    2.30
   3   8  11   -6.90    5.60
   3   8  11   -5.90    4.30
   3   8  11   -0.80    2.70
  -4  -8 -11    5.00    4.50
  -4  -8 -11    3.20    5.30
  -4  -8 -11    1.60    5.30
   4   8  11   -1.30    2.20
   4   8  11    1.20    3.00
   4   8  11    8.70    6.20
   4   8  11   -0.70    4.50
   1   3 -12    7.40    6.30
   1   3 -12   -4.20    5.10
  -1  -3  12    6.40    5.10
  -1  -3  12    2.40    3.10
  -1  -3  12    3.10    6.40
   0   3 -12    7.40    5.50
   0   3 -12    4.20    5.10
   0  -3  12    6.00    5.30
   0  -3  12    6.00    2.80
   0  -3  12   19.00    6.40
  -1   3 -12   11.10    4.80
  -1   3 -12    5.10    4.90
   1  -3  12   23.10    7.20
   1  -3  12    4.70    5.60
  -2   3 -12   -2.20    4.40
   2  -3  12   -2.20    5.20
  -3   3 -12    4.10    1.90
   3  -3  12   -6.60    6.40
   3  -3  12    2.50    4.70
   2   2 -12   20.50    7.10
   2   2 -12   25.00    5.80
   2   2 -12   19.70    5.40
  -2  -2  12   17.20    3.70
  -2  -2  12   26.30    4.40
  -2  -2  12   24.60   10.70
   1   2 -12    2.70    4.60
   1   2 -12   -1.20    4.30
  -1  -2  12    3.30    4.10
  -1  -2  12   14.30    6.10
  -1  -2  12    4.90    2.60
   0   2 -12   -2.80    4.20
   0   2 -12    6.30    4.20
   0  -2  12    0.50    3.90
   0  -2  12   -1.50    4.20
   0  -2  12   -0.90    2.20
  -1   2 -12    5.80    4.10
  -1   2 -12   -2.30    3.90
   1  -2  12    7.80    2.40
   1  -2  12    9.70    4.90
   1  -2  12    3.10    4.50
  -2   2 -12    2.70    1.70
  -2   2 -12    9.50    4.10
   2  -2  12  -11.70    4.50
   2  -2  12    3.90    2.20
   2  -2  12    7.00    4.90
   2  -2  12    0.80    4.30
  -3   2 -12    3.40    4.30
  -3   2 -12   -0.50    5.90
   3  -2  12    0.20    4.30
   3  -2  12    1.50    2.20
   3  -2  12   -2.50    5.80
   3  -2  12   -2.90    4.70
  -4   2 -12   10.10    4.80
   4  -2  12    9.40    5.20
   4  -2  12    4.00    4.60
   4  -2  12    8.50    6.50
   4  -2  12   11.90    3.80
  -5   2 -12   -2.90    4.30
   5  -2  12    1.00    6.20
   5  -2  12   -8.70    4.30
   5  -2  12    1.30    4.50
   5  -2  12    2.50    3.80
   3   1 -12    1.00    5.20
   3   1 -12   -0.30    4.60
  -3  -1  12    0.70    3.40
  -3  -1  12   11.50    5.60
   2   1 -12    6.20    4.50
   2   1 -12   12.30    4.80
  -2  -1  12   -1.30    2.60
  -2  -1  12    3.90    4.80
  -2  -1  12   -0.20    3.40
   1   1 -12    9.90    5.60
   1   1 -12   -4.90    4.00
   1   1 -12   -3.30    3.50
  -1  -1  12   -2.20    2.50
  -1  -1  12   -0.40    4.70
  -1  -1  12    2.90    3.50
   0   1 -12    1.20    3.40
   0   1 -12    4.30    4.00
   0   1 -12    6.60    4.80
   0  -1  12   -2.40    3.70
   0  -1  12    1.20    3.70
   0  -1  12    2.10    2.40
   0  -1  12   -1.60    4.80
   0  -1  12    1.90    5.50
  -1   1 -12    2.50    4.40
  -1   1 -12    2.20    1.80
  -1   1 -12   -4.10    3.80
   1  -1  12    3.80    3.90
   1  -1  12    2.30    2.20
   1  -1  12    5.40    3.70
   1  -1  12   14.20    4.80
   1  -1  12   -0.20    5.40
  -2   1 -12    2.60    4.00
  -2   1 -12   -5.70    3.40
  -2   1 -12    3.00    4.60
  -2   1 -12    7.50    3.50
   2  -1  12   -0.50    4.80
   2  -1  12    2.50    4.20
   2  -1  12    1.90    2.00
   2  -1  12    9.00    4.30
   2  -1  12   15.20    4.60
  -3   1 -12    1.40    3.80
  -3   1 -12    5.80    3.70
   3  -1  12    4.30    5.20
   3  -1  12    1.20    3.70
   3  -1  12   -5.60    3.20
   3  -1  12   -4.00    4.20
   3  -1  12    2.10    3.00
   3  -1  12    5.30    1.90
  -4   1 -12   -0.80    3.40
  -4   1 -12    5.60    2.50
  -4   1 -12    2.70    3.70
   4  -1  12   -1.20    3.20
   4  -1  12   -0.30    1.80
   4  -1  12   -0.30    3.90
   4  -1  12    1.60    5.20
   4  -1  12   -1.00    3.70
  -5   1 -12    3.30    3.00
  -5   1 -12   -2.60    4.20
   5  -1  12    1.40    3.90
   5  -1  12    1.00    5.50
   5  -1  12    0.00    3.30
   5  -1  12    1.80    1.90
   5  -1  12    8.00    4.30
  -6   1 -12    6.10    4.20
  -6   1 -12    3.90    4.40
   6  -1  12   -1.40    3.50
   6  -1  12    6.00    4.10
   6  -1  12    2.10    6.50
   6  -1  12   -2.60    4.20
   3   0 -12    0.60    5.40
   3   0 -12   -5.50    4.90
   3   0 -12   10.80    4.90
   3   0 -12   13.00    4.90
  -3   0  12   10.20    4.90
  -3   0  12    5.60    3.40
   2   0 -12   -1.30    3.70
   2   0 -12   -2.40    4.10
   2   0 -12   -7.10    4.50
   2   0 -12   -4.50    3.80
  -2   0  12    7.70    3.40
  -2   0  12   -0.40    3.60
  -2   0  12    3.20    2.70
   1   0 -12    1.20    2.90
   1   0 -12    2.10    3.30
   1   0 -12   -4.70    4.80
   1   0 -12   -3.70    3.90
   1   0 -12    1.60    3.90
  -1   0  12    6.30    4.10
  -1   0  12    5.10    3.30
  -1   0  12   -1.70    2.30
  -1   0  12   -3.30    5.80
   0   0 -12   11.30    3.70
   0   0 -12   20.70    4.90
   0   0 -12   19.50    2.80
   0   0 -12   16.70    5.60
   0   0  12   16.90    4.90
   0   0  12   11.70    3.60
   0   0  12   21.00    4.50
   0   0  12   12.20    5.10
   0   0  12   11.00    2.60
  -1   0 -12    2.90    3.30
  -1   0 -12    5.10    1.30
  -1   0 -12   -3.40    3.50
  -1   0 -12    3.30    3.10
  -1   0 -12    7.80    4.60
   1   0  12    0.10    2.90
   1   0  12    3.40    2.00
   1   0  12    2.80    3.30
   1   0  12    1.60    4.60
   1   0  12   -1.50    4.20
  -2   0 -12    2.70    3.50
  -2   0 -12    2.60    2.80
  -2   0 -12   -3.60    3.90
  -2   0 -12   16.10    3.80
   2   0  12    7.90    3.80
   2   0  12    6.70    4.50
   2   0  12    7.10    2.00
   2   0  12    3.60    3.20
   2   0  12    3.50    3.90
  -3   0 -12   24.50    5.80
  -3   0 -12   27.90    4.50
  -3   0 -12   28.00    3.10
  -3   0 -12   23.50    4.90
  -3   0 -12   41.80    5.10
   3   0  12   25.10    2.90
   3   0  12   30.00    4.90
   3   0  12   28.20    4.80
   3   0  12   23.20    3.70
   3   0  12   30.50    6.20
  -4   0 -12   12.50    3.80
  -4   0 -12   15.10    2.90
  -4   0 -12   12.10    6.60
  -4   0 -12    8.10    3.10
   4   0  12   10.10    3.40
   4   0  12    1.40    4.80
   4   0  12    8.60    3.80
   4   0  12   23.90    5.60
   4   0  12    5.30    3.70
   4   0  12   11.20    2.20
  -5   0 -12    1.40    3.10
  -5   0 -12    2.50    2.90
  -5   0 -12    0.70    3.80
   5   0  12    3.80    3.20
   5   0  12    3.00    1.80
   5   0  12   -5.50    3.50
   5   0  12   -1.60    3.50
   5   0  12    3.50    5.80
  -6   0 -12   12.20    4.20
  -6   0 -12   11.80    4.30
   6   0  12   21.30    7.00
   6   0  12   10.10    2.20
   6   0  12   17.60    4.20
   6   0  12   10.60    4.20
   6   0  12   13.80    4.10
   4  -1 -12   -0.20    4.70
   4  -1 -12   -0.20    4.50
   4  -1 -12    3.90    6.30
   4  -1 -12    3.30    5.40
  -4   1  12   -3.10    4.90
  -4   1  12   10.10    6.90
  -4   1  12    4.80    3.50
  -4   1  12    3.80    3.10
   3  -1 -12    8.50    4.20
   3  -1 -12    2.60    4.10
   3  -1 -12    3.20    4.90
   3  -1 -12    4.30    4.90
  -3   1  12    5.50    4.20
  -3   1  12    3.90    3.60
   2  -1 -12    4.00    3.60
   2  -1 -12    0.30    3.40
   2  -1 -12   -2.90    3.40
   2  -1 -12   -8.10    4.20
  -2   1  12    0.20    3.30
  -2   1  12   -4.70    3.30
  -2   1  12    2.30    2.50
   1  -1 -12    3.90    4.00
   1  -1 -12    8.50    3.50
   1  -1 -12    3.70    2.80
   1  -1 -12    0.70    3.30
   1  -1 -12    8.80    3.90
  -1   1  12   12.30    3.50
  -1   1  12    7.10    2.60
  -1   1  12    0.70    4.90
  -1   1  12   10.80    5.40
  -1   1  12    4.00    3.50
   0  -1 -12   26.50    3.20
   0  -1 -12   27.70    5.30
   0  -1 -12   36.80    4.70
   0  -1 -12   21.40    4.00
   0  -1 -12   31.30    8.40
   0   1  12   33.00    5.50
   0   1  12   24.90    4.30
   0   1  12   21.10    3.70
   0   1  12   22.10    3.20
   0   1  12   22.90    5.40
  -1  -1 -12    0.40    3.10
  -1  -1 -12    2.10    2.80
  -1  -1 -12    7.20    4.00
  -1  -1 -12    1.70    3.30
   1   1  12   -4.10    4.30
   1   1  12    2.40    3.90
   1   1  12    9.70    3.60
   1   1  12    2.80    1.90
   1   1  12    0.70    2.90
  -2  -1 -12    3.10    1.70
  -2  -1 -12    0.80    3.20
  -2  -1 -12    4.90    3.40
  -2  -1 -12    4.90    4.20
  -2  -1 -12    2.20    2.60
   2   1  12    3.80    1.90
   2   1  12    6.60    3.70
   2   1  12    6.00    4.80
   2   1  12    0.00    3.40
   2   1  12    1.80    3.10
  -3  -1 -12    3.60    2.10
  -3  -1 -12    6.40    4.50
  -3  -1 -12    3.80    2.70
  -3  -1 -12    4.50    3.10
  -3  -1 -12   -0.50    3.70
   3   1  12    2.90    3.40
   3   1  12    7.60    3.60
   3   1  12    4.50    1.90
   3   1  12    4.60    4.60
   3   1  12    9.60    3.80
  -4  -1 -12    8.10    2.70
  -4  -1 -12    2.10    4.20
  -4  -1 -12    3.80    3.60
  -4  -1 -12   -3.20    4.60
  -4  -1 -12    8.30    2.90
   4   1  12    4.80    3.50
   4   1  12    6.30    3.90
   4   1  12    7.50    3.00
   4   1  12    4.60    4.60
   4   1  12    5.90    1.90
   4   1  12    7.90    5.40
  -5  -1 -12    1.50    2.70
  -5  -1 -12    4.90    3.20
  -5  -1 -12   -1.40    3.60
   5   1  12   -1.60    1.70
   5   1  12   -2.20    5.30
   5   1  12    0.80    3.60
   5   1  12   -0.60    3.40
   5   1  12    2.60    2.90
  -6  -1 -12    8.80    3.10
  -6  -1 -12   -2.80    3.80
  -6  -1 -12    4.50    4.00
   6   1  12    1.70    1.70
   6   1  12   -1.20    4.30
   6   1  12    1.80    3.30
   6   1  12   -6.40    5.90
  -7  -1 -12    9.60    5.90
  -7  -1 -12    0.50    4.30
   7   1  12    3.10    4.10
   7   1  12    7.80    7.10
   7   1  12   -0.60    1.90
   7   1  12    1.10    6.90
   7   1  12    7.60    4.50
   4  -2 -12   -2.10    5.50
   4  -2 -12    2.30    4.70
   4  -2 -12    4.30    4.40
   4  -2 -12   -1.00    6.20
  -4   2  12    2.00    4.50
  -4   2  12    2.10    2.70
  -4   2  12   -8.60    6.80
   3  -2 -12    0.60    4.50
   3  -2 -12   -1.60    3.80
   3  -2 -12   -2.30    3.70
   3  -2 -12    2.20    4.80
  -3   2  12    0.20    5.70
  -3   2  12    8.10    3.90
  -3   2  12   -1.10    3.40
  -3   2  12   -1.00    2.70
   2  -2 -12    1.70    3.60
   2  -2 -12    3.00    1.80
   2  -2 -12    3.30    3.50
   2  -2 -12    4.10    4.40
   2  -2 -12   -1.20    3.50
   2  -2 -12   10.90    3.80
  -2   2  12   -4.30    7.40
  -2   2  12    4.70    3.60
  -2   2  12   -0.90    3.50
  -2   2  12    1.90    3.20
   1  -2 -12    7.40    3.50
   1  -2 -12    9.70    3.60
   1  -2 -12    8.10    3.60
   1  -2 -12   10.80    4.40
   1  -2 -12   10.70    3.20
   1  -2 -12   11.50    1.90
  -1   2  12   15.40    5.40
  -1   2  12   14.20    3.00
  -1   2  12   10.70    4.90
  -1   2  12    6.60    3.40
  -1   2  12   12.10    3.40
   0  -2 -12   -3.80    3.00
   0  -2 -12   -1.50    3.70
   0  -2 -12   -2.00    4.00
   0  -2 -12    0.90    1.80
   0  -2 -12   -1.60    2.70
   0   2  12    5.30    3.40
   0   2  12   -2.40    1.90
   0   2  12    1.70    4.40
   0   2  12    1.40    2.90
   0   2  12   -6.20    4.80
  -1  -2 -12   -1.40    3.00
  -1  -2 -12    1.80    4.30
  -1  -2 -12    3.20    2.80
  -1  -2 -12    4.80    3.20
   1   2  12    1.10    1.90
   1   2  12    6.50    3.20
   1   2  12    9.90    4.80
   1   2  12    3.90    3.90
   1   2  12    5.40    3.40
  -2  -2 -12   51.19    5.70
  -2  -2 -12   48.40    5.10
  -2  -2 -12   44.00    6.10
  -2  -2 -12   40.50    5.60
   2   2  12   59.89    7.10
   2   2  12   53.19    5.80
   2   2  12   46.20    3.60
   2   2  12   39.00    5.60
   2   2  12   49.50    5.70
   2   2  12   43.50    4.90
  -3  -2 -12   21.40    4.30
  -3  -2 -12    8.20    3.90
  -3  -2 -12   21.20    4.90
  -3  -2 -12   16.90    3.10
   3   2  12   13.10    3.90
   3   2  12   12.00    3.00
   3   2  12   12.90    5.20
   3   2  12   17.30    4.10
   3   2  12   15.90    4.30
   3   2  12   12.30    2.20
  -4  -2 -12    6.80    2.60
  -4  -2 -12    8.80    4.50
  -4  -2 -12    8.00    4.70
  -4  -2 -12    1.80    3.40
   4   2  12    4.20    3.40
   4   2  12   -4.70    4.30
   4   2  12    4.20    1.90
   4   2  12   -0.50    4.00
   4   2  12    3.10    4.80
  -5  -2 -12    4.10    2.50
  -5  -2 -12   -0.80    3.40
   5   2  12    1.00    5.20
   5   2  12    3.10    3.60
   5   2  12    1.80    2.90
   5   2  12    2.60    1.80
  -6  -2 -12    9.90    3.80
  -6  -2 -12    4.00    2.70
  -6  -2 -12    2.10    3.90
   6   2  12    6.60    2.00
   6   2  12    5.90    4.80
   6   2  12    6.50    6.60
   6   2  12   -0.50    3.50
   6   2  12    6.80    4.10
  -7  -2 -12   13.20    5.20
  -7  -2 -12   12.70    5.10
   7   2  12   -3.20    6.70
   7   2  12   11.00    6.20
   7   2  12   15.20    5.00
   7   2  12    9.10    4.00
   7   2  12   10.10    2.40
   4  -3 -12    8.60    5.60
   4  -3 -12    9.10    6.40
   4  -3 -12    7.30    4.60
   4  -3 -12    7.60    4.40
   4  -3 -12   -0.80    4.60
  -4   3  12    9.20    4.50
  -4   3  12    9.10    7.30
  -4   3  12    8.10    3.50
  -4   3  12   12.80    4.30
   3  -3 -12   -0.20    4.90
   3  -3 -12   -2.50    3.30
   3  -3 -12   -2.80    4.70
   3  -3 -12    0.30    3.80
   3  -3 -12    5.10    3.60
   3  -3 -12    5.80    4.10
  -3   3  12   -8.20    5.40
  -3   3  12   -6.30    3.60
  -3   3  12   -4.80    2.60
  -3   3  12    1.30    4.00
   2  -3 -12   -2.90    3.50
   2  -3 -12    5.20    3.50
   2  -3 -12   -0.90    3.50
   2  -3 -12   -0.50    2.80
   2  -3 -12    0.10    3.60
   2  -3 -12   -1.50    4.40
  -2   3  12    5.20    3.70
  -2   3  12   -0.10    4.70
  -2   3  12   -0.10    2.50
  -2   3  12    2.80    5.30
  -2   3  12   -0.40    3.10
   1  -3 -12    4.40    3.10
   1  -3 -12    9.40    2.60
   1  -3 -12    9.40    3.70
   1  -3 -12    8.70    3.70
   1  -3 -12    5.20    4.60
  -1   3  12    8.60    4.20
  -1   3  12    7.50    3.90
  -1   3  12    8.10    5.10
  -1   3  12   19.50    5.50
  -1   3  12   10.00    3.30
  -1   3  12   12.10    2.90
   0  -3 -12    2.20    3.10
   0  -3 -12   -0.10    2.90
   0   3  12    3.30    2.90
   0   3  12   -1.90    1.90
   0   3  12   -7.60    3.20
   0   3  12    0.90    4.70
   0   3  12   -6.70    4.50
  -1  -3 -12   15.40    3.80
  -1  -3 -12   21.90    4.50
  -1  -3 -12   11.50    3.30
  -1  -3 -12   20.50    3.90
   1   3  12   13.70    4.90
   1   3  12   20.70    4.10
   1   3  12   12.30    2.50
   1   3  12   18.10    4.10
   1   3  12   23.90    4.40
  -2  -3 -12    2.00    2.80
  -2  -3 -12    4.60    3.60
  -2  -3 -12    7.80    4.30
  -2  -3 -12    3.00    2.70
   2   3  12    6.30    4.90
   2   3  12    5.60    2.70
   2   3  12    4.10    3.30
   2   3  12    2.50    1.90
   2   3  12    5.10    3.40
  -3  -3 -12   -3.20    4.40
  -3  -3 -12   -1.10    2.50
  -3  -3 -12    3.70    3.40
  -3  -3 -12    0.00    3.60
   3   3  12    1.10    1.70
   3   3  12    0.10    2.50
   3   3  12    4.60    4.70
   3   3  12    0.20    3.60
   3   3  12    0.60    3.10
  -4  -3 -12   -0.80    2.40
  -4  -3 -12    3.80    3.70
  -4  -3 -12   -4.90    5.10
  -4  -3 -12   -1.90    4.10
   4   3  12    3.30    3.50
   4   3  12   -2.50    4.10
   4   3  12   -5.60    4.70
   4   3  12   -1.70    1.50
   4   3  12    0.20    3.20
  -5  -3 -12    0.90    4.90
  -5  -3 -12    7.90    2.70
  -5  -3 -12   -1.40    6.70
  -5  -3 -12    6.20    4.10
   5   3  12    3.80    3.30
   5   3  12   18.20    5.90
   5   3  12   10.50    3.20
   5   3  12    7.80    2.20
  -6  -3 -12   14.20    2.90
  -6  -3 -12   12.40    4.40
   6   3  12   13.40    4.20
   6   3  12   13.90    4.00
   6   3  12   14.20    2.50
   6   3  12   10.60    6.10
  -7  -3 -12    4.40    4.90
  -7  -3 -12    4.30    2.60
  -7  -3 -12   -0.20    4.60
   7   3  12   -5.40    5.60
   7   3  12    7.80    7.50
   7   3  12    0.90    3.80
   7   3  12   -0.70    2.00
   3  -4 -12    2.50    4.20
   3  -4 -12    2.60    5.00
   3  -4 -12   -2.20    4.30
   3  -4 -12   -2.00    3.70
   3  -4 -12    1.40    4.20
   3  -4 -12   -2.40    5.00
  -3   4  12    2.60    5.60
  -3   4  12    1.40    2.90
  -3   4  12   -4.90    4.50
  -3   4  12    4.50    3.70
   2  -4 -12   19.40    4.50
   2  -4 -12   14.50    3.80
   2  -4 -12   22.00    5.00
   2  -4 -12   22.90    4.20
   2  -4 -12   21.10    4.70
   2  -4 -12   18.90    4.00
  -2   4  12   22.70    4.20
  -2   4  12   25.40    5.00
  -2   4  12   28.30    5.00
  -2   4  12   14.60    5.40
   1  -4 -12    5.60    3.90
   1  -4 -12    0.30    4.40
   1  -4 -12    5.10    3.50
   1  -4 -12   -3.60    2.90
  -1   4  12   -1.70    3.80
  -1   4  12    3.90    3.20
  -1   4  12    1.80    4.60
  -1   4  12    2.30    3.90
   0  -4 -12    9.00    3.50
   0  -4 -12    8.40    4.80
   0  -4 -12   10.30    3.40
   0   4  12    9.10    2.70
   0   4  12   10.60    4.20
   0   4  12   11.40    3.60
   0   4  12    8.70    5.10
   0   4  12   11.00    3.70
  -1  -4 -12   -0.10    2.80
  -1  -4 -12   -0.70    3.20
  -1  -4 -12   -0.80    4.30
   1   4  12   -1.90    1.70
   1   4  12    2.40    3.30
   1   4  12    2.50    2.80
   1   4  12    6.00    4.70
   1   4  12    2.20    3.50
  -2  -4 -12    7.00    3.10
  -2  -4 -12    8.90    3.60
  -2  -4 -12   15.40    5.10
  -2  -4 -12   10.90    3.80
   2   4  12    7.70    3.70
   2   4  12   13.10    2.60
   2   4  12    7.10    2.80
   2   4  12    7.80    3.50
   2   4  12   13.40    5.20
   2   4  12   10.30    2.50
  -3  -4 -12   41.90    6.60
  -3  -4 -12   52.79    6.00
  -3  -4 -12   50.59    6.70
  -3  -4 -12   41.90    5.00
   3   4  12   42.10    5.10
   3   4  12   45.10    5.70
   3   4  12   37.90    6.30
   3   4  12   45.00    3.70
  -4  -4 -12    4.10    5.60
  -4  -4 -12    2.30    3.40
  -4  -4 -12    3.20    4.10
  -4  -4 -12    0.90    2.60
   4   4  12   -1.90    4.10
   4   4  12   -0.90    4.90
   4   4  12    1.70    1.80
   4   4  12    0.40    2.60
  -5  -4 -12   15.90    4.90
  -5  -4 -12   21.40    3.40
  -5  -4 -12   25.10    5.70
   5   4  12   13.10    6.20
   5   4  12   22.20    3.90
   5   4  12   24.00    3.10
   5   4  12   25.30    5.60
  -6  -4 -12   10.60    2.90
   6   4  12    7.30    2.40
   6   4  12   11.50    5.30
   6   4  12    8.70    3.90
   6   4  12    5.70    6.70
  -7  -4 -12    9.30    5.30
  -7  -4 -12    4.40    2.50
   7   4  12    2.60    3.50
   7   4  12    3.50    5.60
   3  -5 -12   -1.20    4.00
   3  -5 -12    3.70    3.80
   3  -5 -12    5.00    5.80
   3  -5 -12   -0.30    4.90
   3  -5 -12   -0.90    5.00
   3  -5 -12    2.50    3.90
  -3   5  12    7.40    5.30
  -3   5  12    0.10    2.90
  -3   5  12    5.40    3.90
  -3   5  12    4.00    5.90
   2  -5 -12   -1.20    3.60
   2  -5 -12    7.70    4.40
   2  -5 -12    2.70    3.60
   2  -5 -12   -5.20    6.60
   2  -5 -12    8.20    4.70
   2  -5 -12    0.40    3.40
  -2   5  12   -1.90    4.90
  -2   5  12    2.30    3.60
  -2   5  12    3.20    4.70
  -2   5  12    2.80    2.80
   1  -5 -12    7.00    3.50
   1  -5 -12    2.00    3.30
   1  -5 -12   -0.60    5.00
   1  -5 -12    3.30    3.50
   1  -5 -12   -1.50    3.80
  -1   5  12    8.90    4.60
  -1   5  12    6.10    3.90
  -1   5  12    1.20    3.40
   0  -5 -12    2.60    3.50
   0  -5 -12    4.40    3.70
   0  -5 -12    8.90    5.30
   0  -5 -12   11.10    3.80
   0  -5 -12    3.70    3.30
   0   5  12    3.80    3.60
   0   5  12    4.00    3.10
   0   5  12    2.00    2.20
   0   5  12   -5.00    4.20
   0   5  12    4.30    4.20
  -1  -5 -12    9.20    3.70
  -1  -5 -12   15.20    4.30
  -1  -5 -12   12.50    4.60
  -1  -5 -12    3.00    5.00
  -1  -5 -12    8.90    3.60
   1   5  12    3.70    5.10
   1   5  12    4.00    2.60
   1   5  12   12.50    3.70
   1   5  12    6.80    2.20
   1   5  12    5.00    4.20
  -2  -5 -12   -1.20    3.20
  -2  -5 -12    2.70    3.80
  -2  -5 -12    8.20    4.10
  -2  -5 -12    0.70    3.10
  -2  -5 -12    3.60    5.60
   2   5  12    6.70    4.10
   2   5  12   -3.10    4.60
   2   5  12    0.20    1.90
   2   5  12    3.40    2.60
  -3  -5 -12   24.50    4.70
  -3  -5 -12   14.70    3.90
  -3  -5 -12   17.50    4.50
  -3  -5 -12   21.80    6.00
   3   5  12   25.30    5.20
   3   5  12   10.90    5.30
   3   5  12   10.30    4.20
   3   5  12   15.90    2.70
   3   5  12   18.50    3.60
  -4  -5 -12   13.10    4.30
  -4  -5 -12    8.40    3.20
  -4  -5 -12   16.10    6.70
  -4  -5 -12   13.80    5.10
   4   5  12    9.90    2.80
   4   5  12   -4.70    8.60
   4   5  12   12.50    6.10
   4   5  12   12.80    3.30
  -5  -5 -12   29.60    3.90
  -5  -5 -12   27.60    5.10
  -5  -5 -12   13.80    6.20
   5   5  12   40.00    5.50
   5   5  12   28.90    6.20
   5   5  12   30.10    3.50
  -6  -5 -12   18.10    5.10
  -6  -5 -12    2.70    2.80
   6   5  12    2.80    5.40
   6   5  12   -3.90    3.30
   6   5  12    3.50    4.00
   2  -6 -12   27.00    5.80
   2  -6 -12   15.90    4.40
   2  -6 -12   14.50    4.20
   2  -6 -12   15.90    4.60
  -2   6  12   17.30    4.40
  -2   6  12   14.80    3.50
  -2   6  12   22.60    6.30
   1  -6 -12   14.80    4.10
   1  -6 -12   13.70    4.00
   1  -6 -12   10.00    5.00
   1  -6 -12   22.10    6.60
   1  -6 -12    3.30    3.80
  -1   6  12    9.90    4.00
  -1   6  12   10.40    5.60
  -1   6  12    9.50    3.00
   0  -6 -12    5.70    5.80
   0  -6 -12   -0.60    3.70
   0  -6 -12    7.30    3.60
   0  -6 -12   -1.40    3.50
   0  -6 -12    3.30    4.10
   0   6  12    8.10    5.10
   0   6  12    7.60    3.70
   0   6  12    4.50    2.60
  -1  -6 -12   11.70    4.50
  -1  -6 -12   13.10    6.40
  -1  -6 -12    6.40    3.60
  -1  -6 -12   -2.70    3.70
  -1  -6 -12    2.10    3.70
   1   6  12    8.70    5.70
  -2  -6 -12   20.40    4.60
  -2  -6 -12   19.00    4.60
  -2  -6 -12   24.00    6.90
  -2  -6 -12   14.00    4.60
   2   6  12   12.90    5.10
  -3  -6 -12    8.00    3.90
  -3  -6 -12    6.30    6.60
  -3  -6 -12    0.00    3.50
  -3  -6 -12    1.60    4.50
  -3  -6 -12    0.90    3.90
   3   6  12   -2.70    2.50
   3   6  12    1.90    2.70
   3   6  12   -5.20    4.40
  -4  -6 -12    4.90    4.50
  -4  -6 -12   -1.50    3.40
  -4  -6 -12   -4.00    5.00
  -4  -6 -12    0.30    4.10
  -4  -6 -12    7.10    7.20
   4   6  12    9.70    2.60
   4   6  12   -0.30    5.30
   4   6  12    2.80    2.60
   4   6  12    6.00    3.20
  -5  -6 -12   -2.30    6.10
  -5  -6 -12    8.70    3.70
  -5  -6 -12   13.00    5.20
   5   6  12   12.00    2.70
   5   6  12   12.60    2.70
   5   6  12    7.90    3.70
   5   6  12    2.70    5.20
  -6  -6 -12    4.40    3.50
   6   6  12    5.10    5.90
   6   6  12    2.80    2.30
   6   6  12    5.40    3.70
   1  -7 -12    4.60    4.20
   1  -7 -12    4.70    4.90
   1  -7 -12    1.10    4.10
   1  -7 -12   -6.30    4.90
   1  -7 -12    1.00    6.80
  -1   7  12   15.70    4.60
  -1   7  12    2.00    2.40
   0  -7 -12   -4.60    4.50
   0  -7 -12    1.20    4.60
   0  -7 -12   -1.70    6.50
   0  -7 -12   11.40    4.10
   0  -7 -12    2.00    4.10
   0   7  12    2.90    2.20
   0   7  12    5.00    4.30
  -1  -7 -12    8.60    4.40
  -1  -7 -12   10.20    6.60
  -1  -7 -12    0.80    4.30
  -1  -7 -12    9.70    4.70
  -1  -7 -12    9.50    4.20
   1   7  12   21.40    5.70
   1   7  12   14.10    4.70
   1   7  12    5.80    2.60
  -2  -7 -12   12.40    7.30
  -2  -7 -12   -7.10    4.10
  -2  -7 -12   -1.70    4.50
  -2  -7 -12   -0.40    4.40
   2   7  12   -0.10    5.20
   2   7  12    4.30    3.70
   2   7  12   -1.20    2.30
  -3  -7 -12    2.20    4.30
  -3  -7 -12   -2.50    4.60
  -3  -7 -12   -5.20    4.20
  -3  -7 -12    4.90    7.80
  -3  -7 -12    4.30    5.10
   3   7  12    4.40    3.40
   3   7  12   -3.20    5.10
   3   7  12   -0.60    1.90
   3   7  12   -1.50    2.80
  -4  -7 -12    3.40    6.00
  -4  -7 -12    2.10    5.10
  -4  -7 -12   14.40    4.90
   4   7  12    0.00    5.70
   4   7  12   -3.10    3.30
   4   7  12   -3.50    3.20
   4   7  12   -0.20    2.10
   0   2 -13   -2.40    5.00
   0   2 -13    5.30    5.20
   0  -2  13   -5.80    5.60
   0  -2  13    4.50    5.80
   0  -2  13    0.60    2.80
  -1   2 -13   -9.10    4.60
  -1   2 -13    2.30    5.00
   1  -2  13   -2.40    5.20
   1  -2  13    2.20    2.70
  -2   2 -13   32.40    6.10
  -2   2 -13   33.60    5.90
   2  -2  13   30.50    3.80
   2  -2  13   22.10    5.80
  -3   2 -13    6.50    4.90
  -3   2 -13    5.30    5.10
   3  -2  13    1.00    5.40
   1   1 -13    0.80    4.00
   1   1 -13   10.60    4.90
   1   1 -13    2.30    4.70
  -1  -1  13    0.40    4.80
  -1  -1  13    3.70    3.00
  -1  -1  13    0.90    4.40
   0   1 -13    7.70    3.00
   0   1 -13   -1.80    4.60
   0   1 -13    5.10    4.60
   0  -1  13    8.60    5.30
   0  -1  13    0.60    2.60
   0  -1  13    3.10    4.80
  -1   1 -13    1.10    1.90
  -1   1 -13    3.70    4.20
  -1   1 -13    8.00    4.60
   1  -1  13    0.70    4.70
   1  -1  13   -0.20    4.80
   1  -1  13    2.70    2.40
  -2   1 -13   18.40    5.30
  -2   1 -13   10.70    4.20
   2  -1  13   18.60    5.20
   2  -1  13   13.50    2.70
  -3   1 -13   -0.80    4.20
  -3   1 -13  -10.90    4.30
   3  -1  13   -4.80    4.70
   3  -1  13   -2.00    2.20
   3  -1  13    3.40    5.20
  -4   1 -13    7.20    6.20
  -4   1 -13    5.60    4.70
   4  -1  13    0.10    4.30
   4  -1  13   21.80   10.70
   4  -1  13    1.40    4.90
   4  -1  13    2.10    2.20
   4  -1  13   -0.10    3.40
   2   0 -13    8.10    6.30
   2   0 -13   14.00    5.10
   2   0 -13    7.00    4.90
   2   0 -13    2.30    4.90
  -2   0  13    8.90    5.50
  -2   0  13    3.00    4.20
  -2   0  13    6.50    3.80
   1   0 -13   -1.70    4.60
   1   0 -13    7.20    5.70
   1   0 -13   -1.80    5.70
   1   0 -13    4.00    4.00
  -1   0  13   -5.70    4.00
  -1   0  13    1.80    4.30
  -1   0  13   -0.50    2.40
   0   0 -13    3.40    2.50
   0   0 -13   -4.30    5.60
   0   0 -13    1.00    3.70
   0   0 -13    2.60    4.40
   0   0  13    2.70    4.10
   0   0  13   -2.90    4.30
   0   0  13   -0.70    2.40
  -1   0 -13   16.00    5.50
  -1   0 -13   18.00    4.60
  -1   0 -13   23.50    4.70
   1   0  13   14.70    7.70
   1   0  13   15.70    2.90
   1   0  13   25.40    5.30
   1   0  13   31.50    7.40
  -2   0 -13   13.80    4.60
  -2   0 -13   15.90    4.80
   2   0  13   19.40    5.10
   2   0  13   12.00    2.70
   2   0  13    8.30    5.20
   2   0  13   17.40    5.00
  -3   0 -13   -1.70    4.20
  -3   0 -13    0.80    1.90
  -3   0 -13    3.90    3.60
   3   0  13    0.70    2.10
   3   0  13   -5.90    4.30
   3   0  13   -0.90    4.70
   3   0  13   -1.70    6.10
  -4   0 -13    0.00    2.70
  -4   0 -13    0.70    3.60
   4   0  13    2.90    2.10
   4   0  13   13.70    6.20
   4   0  13    3.80    3.90
   4   0  13   -0.50    3.40
   4   0  13    0.20    4.40
  -5   0 -13    8.10    4.90
  -5   0 -13   -2.60    3.40
  -5   0 -13    1.50    3.70
   5   0  13    0.80    4.60
   5   0  13   -1.00    3.80
   5   0  13   -7.90    6.60
   5   0  13    0.40    2.20
   5   0  13    1.70    4.50
   2  -1 -13   -4.10    6.00
   2  -1 -13    8.70    4.50
   2  -1 -13    3.50    4.20
   2  -1 -13   10.40    4.60
  -2   1  13    2.20    4.20
  -2   1  13   -3.40    4.00
   1  -1 -13    9.60    5.40
   1  -1 -13   -1.70    3.70
   1  -1 -13    4.90    4.20
   1  -1 -13    3.80    3.90
  -1   1  13    2.20    4.30
  -1   1  13    2.10    4.20
  -1   1  13    0.40    2.70
   0  -1 -13   -0.80    2.10
   0  -1 -13    6.60    3.60
   0  -1 -13   -0.80    3.70
   0  -1 -13    2.30    4.70
   0   1  13    6.80    3.90
   0   1  13    0.30    2.40
   0   1  13   -0.90    3.90
  -1  -1 -13    7.60    3.70
  -1  -1 -13   10.60    5.20
  -1  -1 -13    8.10    4.30
   1   1  13   11.30    4.50
   1   1  13    0.50    4.10
   1   1  13    2.20    5.20
   1   1  13    9.10    2.50
  -2  -1 -13    9.20    3.50
  -2  -1 -13   -1.90    5.00
  -2  -1 -13    3.70    1.60
  -2  -1 -13    3.80    3.90
   2   1  13    2.60    5.90
   2   1  13   -4.00    4.40
   2   1  13    4.10    2.30
   2   1  13    0.90    4.30
  -3  -1 -13   -1.30    3.10
  -3  -1 -13   -1.70    6.00
  -3  -1 -13   -3.40    2.10
   3   1  13   -0.60    4.40
   3   1  13    2.90    3.90
   3   1  13    1.60    2.00
   3   1  13  -10.20    6.10
   3   1  13    5.40    3.10
  -4  -1 -13    1.20    2.80
  -4  -1 -13    2.30    3.40
   4   1  13    4.40    3.30
   4   1  13    6.10    2.20
   4   1  13   11.90    6.40
   4   1  13   -0.20    4.00
   4   1  13    4.10    4.30
  -5  -1 -13    9.90    3.60
  -5  -1 -13    7.80    5.30
  -5  -1 -13    8.00    3.70
   5   1  13    9.10    4.40
   5   1  13    4.40    7.10
   5   1  13    8.20    3.60
   5   1  13    5.40    2.20
   5   1  13    7.20    4.30
  -6  -1 -13   -5.50    4.10
  -6  -1 -13   -2.10    5.00
  -6  -1 -13    6.90    3.70
   6   1  13   -0.90    3.70
   6   1  13    7.30    4.90
   6   1  13    1.70    2.10
   6   1  13   -6.50    7.30
   2  -2 -13    0.10    4.20
   2  -2 -13    9.10    4.40
   2  -2 -13    5.30    4.40
   2  -2 -13    4.20    5.50
  -2   2  13    0.00    5.70
  -2   2  13    9.30    3.40
  -2   2  13    4.30    4.30
  -2   2  13    1.50    4.40
   1  -2 -13    8.80    5.40
   1  -2 -13    1.00    3.60
   1  -2 -13    8.40    4.20
   1  -2 -13    3.00    5.10
  -1   2  13    7.30    4.40
  -1   2  13    4.20    4.20
   0  -2 -13    1.00    3.60
   0  -2 -13    0.40    4.10
   0  -2 -13    1.00    1.60
   0  -2 -13    9.80    5.30
   0  -2 -13    3.60    3.70
   0   2  13   -2.30    3.90
   0   2  13    1.20    2.20
   0   2  13    6.60    3.90
  -1  -2 -13   -6.60    3.50
  -1  -2 -13    0.90    3.60
  -1  -2 -13   -0.30    4.00
  -1  -2 -13    3.70    5.10
   1   2  13   -3.70    3.70
   1   2  13   -2.00    1.90
   1   2  13   -2.40    4.80
   1   2  13    2.10    3.80
  -2  -2 -13    7.80    5.50
  -2  -2 -13   -2.00    3.60
  -2  -2 -13   -3.50    3.60
  -2  -2 -13    0.00    3.00
   2   2  13    2.50    3.60
   2   2  13   -0.40    5.50
   2   2  13    1.70    2.00
   2   2  13   -2.80    4.30
   2   2  13    1.90    4.50
  -3  -2 -13    9.70    4.20
  -3  -2 -13   18.20    5.50
  -3  -2 -13    2.20    3.00
   3   2  13    2.60    4.30
   3   2  13    0.50    2.00
   3   2  13    5.60    4.50
   3   2  13   -1.50    4.30
   3   2  13    1.50    5.90
   3   2  13    0.90    3.10
  -4  -2 -13    4.90    3.20
  -4  -2 -13   12.10    7.30
   4   2  13    7.90    2.20
   4   2  13    6.30    4.30
   4   2  13   12.70    6.00
   4   2  13    3.10    3.20
   4   2  13    8.50    4.20
  -5  -2 -13    1.10    2.90
  -5  -2 -13   -5.60    3.30
   5   2  13   -4.10    3.10
   5   2  13   -0.90    4.20
   5   2  13    0.00    2.00
   5   2  13   -4.00    6.60
  -6  -2 -13    5.50    4.30
  -6  -2 -13    1.10    3.40
   6   2  13   10.60    8.00
   6   2  13    2.90    4.60
   6   2  13    3.10    3.70
   6   2  13    4.50    5.40
   6   2  13    1.80    2.10
   2  -3 -13    0.80    4.30
   2  -3 -13    6.20    3.10
   2  -3 -13    6.20    5.80
   2  -3 -13   -0.80    4.00
   2  -3 -13    5.20    4.30
  -2   3  13   -1.20    2.70
  -2   3  13   16.30    6.50
  -2   3  13    9.20    4.60
  -2   3  13   10.40    4.60
   1  -3 -13    4.40    4.00
   1  -3 -13   -1.90    3.50
   1  -3 -13   -4.70    5.10
   1  -3 -13    1.40    3.70
   1  -3 -13    1.70    2.80
  -1   3  13   -1.20    4.20
  -1   3  13    6.80    4.90
  -1   3  13    2.70    3.70
   0  -3 -13   14.70    4.40
   0  -3 -13   10.50    3.80
   0  -3 -13   11.00    3.90
   0  -3 -13   16.70    5.40
   0   3  13   13.70    4.30
   0   3  13   11.40    4.30
   0   3  13    8.50    2.80
  -1  -3 -13   -1.20    3.90
  -1  -3 -13   -3.10    3.30
  -1  -3 -13    3.20    3.60
  -1  -3 -13   10.70    4.90
   1   3  13   -0.60    4.20
   1   3  13    7.90    3.80
   1   3  13    0.70    2.10
   1   3  13  -12.40    4.70
  -2  -3 -13    6.00    3.60
  -2  -3 -13    5.50    3.20
  -2  -3 -13   12.60    5.30
  -2  -3 -13   -1.80    4.20
   2   3  13   -0.90    3.70
   2   3  13    9.00    7.10
   2   3  13    6.40    4.10
   2   3  13    1.30    2.00
  -3  -3 -13    2.90    4.30
  -3  -3 -13   -4.70    2.80
  -3  -3 -13   -0.50    3.50
  -3  -3 -13    1.20    5.50
   3   3  13    0.60    6.10
   3   3  13    0.50    3.00
   3   3  13    2.50    5.20
   3   3  13   -0.70    1.80
  -4  -3 -13   12.10    4.60
  -4  -3 -13   14.10    3.60
   4   3  13   13.20    6.80
   4   3  13   13.40    4.40
   4   3  13    9.80    2.40
   4   3  13   14.50    3.80
  -5  -3 -13    8.90    3.10
  -5  -3 -13   -1.90    4.10
   5   3  13   -3.80    9.70
   5   3  13    1.70    2.00
   5   3  13    5.50    4.40
   5   3  13    3.60    3.70
   5   3  13   -0.90    3.40
  -6  -3 -13   -0.50    4.90
  -6  -3 -13    7.20    3.30
   6   3  13   -0.60    4.50
   6   3  13    2.20    2.10
   6   3  13    2.00    3.70
   6   3  13    3.80    4.90
   2  -4 -13   11.10    6.10
   2  -4 -13    7.30    4.10
   2  -4 -13   -6.80    3.80
   2  -4 -13    0.10    5.00
   2  -4 -13    2.00    4.40
  -2   4  13    7.20    5.70
  -2   4  13    2.50    2.70
  -2   4  13   -7.20    4.90
  -2   4  13    2.60    4.20
   1  -4 -13   -0.80    4.40
   1  -4 -13   17.40    5.60
   1  -4 -13    2.00    3.80
   1  -4 -13   14.50    4.60
  -1   4  13    9.40    5.10
  -1   4  13    6.70    2.90
  -1   4  13    3.80    4.10
  -1   4  13    6.40    4.70
   0  -4 -13    3.90    3.70
   0  -4 -13   -5.70    3.70
   0  -4 -13   -1.40    3.50
   0  -4 -13   -5.70    5.40
   0   4  13    1.10    4.70
   0   4  13    7.90    4.00
   0   4  13    5.40    4.00
  -1  -4 -13   -6.30    3.40
  -1  -4 -13    4.60    5.80
  -1  -4 -13    1.00    3.60
  -1  -4 -13   -5.90    3.70
   1   4  13    8.20    4.40
   1   4  13   -3.50    3.20
   1   4  13    4.20    4.10
  -2  -4 -13    2.00    4.30
  -2  -4 -13    7.90    5.70
  -2  -4 -13    3.10    3.70
  -2  -4 -13   11.30    4.00
   2   4  13    6.80    4.10
   2   4  13    2.90    4.40
   2   4  13    9.10    2.90
   2   4  13    7.10    2.30
  -3  -4 -13   -3.30    4.70
  -3  -4 -13    3.20    5.90
  -3  -4 -13    5.00    3.30
  -3  -4 -13   -0.10    3.80
   3   4  13    4.00    4.50
   3   4  13    2.30    3.20
  -4  -4 -13    0.20    4.10
  -4  -4 -13    0.00    3.10
   4   4  13    0.40    1.90
   4   4  13    4.20    3.50
   4   4  13    1.20    2.10
   4   4  13   -5.30    3.90
  -5  -4 -13   -0.90    4.20
  -5  -4 -13    0.10    2.90
   5   4  13    5.70    3.70
  -6  -4 -13   -2.00    3.20
  -6  -4 -13    0.80    5.30
   6   4  13    6.30    3.90
   2  -5 -13   14.30    5.70
  -2   5  13    6.10    2.80
  -2   5  13    7.90    4.40
   1  -5 -13   -5.70    3.60
   1  -5 -13   -1.60    4.30
   1  -5 -13    0.50    6.50
   1  -5 -13   -7.40    4.10
   1  -5 -13    4.80    4.00
  -1   5  13   -0.40    4.20
  -1   5  13   -0.60    2.30
  -1   5  13    7.80    5.60
  -1   5  13    4.10    4.40
   0  -5 -13    3.90    3.80
   0  -5 -13    7.40    4.30
   0  -5 -13   -7.50    4.10
   0  -5 -13   10.20    4.30
   0  -5 -13   -2.90    6.20
   0   5  13   -2.60    2.40
   0   5  13   -2.60    3.50
   0   5  13    0.50    4.70
   0   5  13   -1.70    3.80
  -1  -5 -13    6.30    3.80
  -1  -5 -13    2.20    3.80
  -1  -5 -13   -3.70    4.10
  -1  -5 -13   -4.80    6.10
   1   5  13   -5.60    2.70
   1   5  13    0.10    3.80
  -2  -5 -13    0.70    4.20
  -2  -5 -13    0.50    6.60
  -2  -5 -13   -2.60    3.50
  -2  -5 -13   -3.00    4.60
   2   5  13    1.60    4.00
  -3  -5 -13    3.00    5.00
  -3  -5 -13    4.30    4.00
  -3  -5 -13    5.20    3.80
  -3  -5 -13   -4.70    6.50
  -4  -5 -13    0.00    8.10
  -4  -5 -13    0.70    3.40
  -4  -5 -13   -2.60    4.20
   4   5  13   -5.50    3.10
  -5  -5 -13   10.20    3.70
  -5  -5 -13   12.30    5.10
   5   5  13   14.10    3.10
   5   5  13   17.50    4.20
   5   5  13   16.80    6.20
   1  -6 -13   -7.80    4.30
   1  -6 -13    1.00    7.20
   1  -6 -13   -4.60    5.10
   1  -6 -13   -0.60    4.20
  -1   6  13   -0.70    4.30
  -1   6  13   -4.60    2.10
   0  -6 -13   -6.00    4.40
   0  -6 -13   -4.70    4.00
   0  -6 -13   -5.70    4.80
   0  -6 -13    0.10    6.70
   0  -6 -13    2.20    4.50
   0   6  13   -2.90    4.50
   0   6  13    0.20    2.30
  -1  -6 -13   11.60    4.60
  -1  -6 -13   -1.20    4.60
  -1  -6 -13   -5.60    4.30
  -1  -6 -13    6.40    7.20
  -1  -6 -13    1.50    4.40
   1   6  13    4.20    2.60
   1   6  13   16.90    4.90
  -2  -6 -13    5.00    4.30
  -2  -6 -13    7.50    4.70
  -2  -6 -13   -3.90    4.30
  -2  -6 -13   -3.70    4.90
  -2  -6 -13    3.30    7.20
   2   6  13    0.80    2.40
  -3  -6 -13    1.90    7.60
  -3  -6 -13   -4.60    4.00
  -3  -6 -13   11.80    5.00
  -3  -6 -13   11.70    5.60
  -3  -6 -13    1.60    4.40
   3   6  13    1.00    2.30
   3   6  13   25.10   10.70
   3   6  13    1.70    5.60
  -4  -6 -13    1.50    4.60
  -4  -6 -13   -0.70    7.60
  -4  -6 -13   -9.80    6.10
   4   6  13   11.00    6.10
   4   6  13   -0.10    2.00
   4   6  13   11.30    3.70
  -2  -7 -13    7.00    5.60
  -2  -7 -13    2.40    5.10
  -2  -7 -13    0.00    5.10
  -2  -7 -13   -0.60    8.80
  -2  -7 -13   -6.80    4.80
   2   7  13   -1.90    2.10
   0   0 -14   11.70    5.10
   0   0 -14    8.90    5.40
   0   0  14    5.40    5.60
   0   0  14   -0.80    5.30
   0   0  14   -1.60    2.90
  -1   0 -14   -8.60    4.80
  -1   0 -14    0.70    5.20
   1   0  14   -1.10    5.40
   1   0  14   -0.40    2.60
  -2   0 -14    5.00    4.50
  -2   0 -14    6.20    4.90
   2   0  14    7.20    2.70
   2   0  14    9.50    5.20
  -3   0 -14    5.60    4.40
  -3   0 -14    1.20    4.80
   3   0  14    0.60    2.40
   3   0  14    6.90    5.20
   0  -1 -14   -0.60    4.90
   0  -1 -14   -0.10    2.30
   0  -1 -14   14.10   10.90
   0  -1 -14    5.90    4.60
   0   1  14    2.70    2.90
   0   1  14    1.90    6.60
   0   1  14    5.00    5.10
  -1  -1 -14    9.20    4.90
  -1  -1 -14    7.70    4.20
   1   1  14    0.90    4.80
   1   1  14    0.70    2.60
  -2  -1 -14    9.10    4.70
  -2  -1 -14    8.70    4.30
   2   1  14    6.20    2.60
   2   1  14    8.50    5.20
  -3  -1 -14    5.10    4.60
  -3  -1 -14   -2.00    3.90
  -3  -1 -14    3.10    2.20
   3   1  14   -3.10    4.90
   3   1  14    3.20    2.40
   3   1  14   -5.70    5.20
  -4  -1 -14    3.20    4.80
  -4  -1 -14   -0.70    3.00
   4   1  14   -1.20    2.30
   4   1  14    0.20    4.00
   4   1  14    4.00    4.70
   4   1  14    3.70    5.50
   1  -2 -14   -5.90    5.50
   1  -2 -14   -0.50    6.30
   1  -2 -14   -1.10    4.40
   1  -2 -14    0.90    5.00
  -1   2  14   -0.20    2.90
  -1   2  14   -3.30    5.20
   0  -2 -14   12.80    4.80
   0  -2 -14    8.90    6.50
   0  -2 -14   21.50    5.00
   0   2  14    6.70    5.10
   0   2  14    2.90    2.80
   0   2  14    2.60    4.70
  -1  -2 -14    5.40    2.00
  -1  -2 -14  -10.70    6.20
  -1  -2 -14   13.00    4.50
  -1  -2 -14   -1.50    4.50
   1   2  14    2.00    2.30
  -2  -2 -14    2.50    2.20
  -2  -2 -14    6.40    4.00
  -2  -2 -14    4.60    4.80
   2   2  14    0.50    4.70
   2   2  14    0.40    2.30
  -3  -2 -14    3.50    4.30
  -3  -2 -14    7.00    2.90
  -3  -2 -14   -5.70    3.50
   3   2  14    4.90    3.60
   3   2  14    1.30    2.30
   3   2  14    5.30    5.70
   3   2  14    7.80    4.80
  -4  -2 -14    7.50    5.00
  -4  -2 -14   14.10    3.60
  -4  -2 -14    8.70    3.90
   4   2  14    3.50    2.30
   4   2  14    6.60    4.90
   4   2  14    1.60    5.40
   4   2  14    4.20    4.00
   1  -3 -14   -2.00    4.40
   1  -3 -14    3.90    6.80
   1  -3 -14   -3.20    4.60
   1  -3 -14    2.40    2.80
  -1   3  14   -3.00    4.20
  -1   3  14   11.70    6.10
  -1   3  14    8.60    5.70
  -1   3  14   -0.40    2.80
   0  -3 -14   -0.30    6.80
   0  -3 -14   -3.20    4.20
   0  -3 -14    6.70    4.40
   0  -3 -14    4.60    2.80
   0   3  14   -0.70    4.40
   0   3  14    6.30    4.80
   0   3  14    9.60    5.10
  -1  -3 -14    2.40    4.00
  -1  -3 -14   27.40    7.10
  -1  -3 -14    6.00    4.60
   1   3  14    3.00    2.50
   1   3  14    4.50    4.60
  -2  -3 -14   -2.20    3.80
  -2  -3 -14  -12.40    8.50
  -2  -3 -14   -1.70    4.00
   2   3  14    5.40    4.60
   2   3  14    3.80    2.30
  -3  -3 -14   -1.70    4.00
  -3  -3 -14    6.30    4.30
   3   3  14   -3.00    4.80
   3   3  14   -0.90    3.40
   3   3  14    0.20    2.00
  -4  -3 -14    4.50    4.50
  -4  -3 -14    0.90    3.60
   4   3  14    5.40    3.80
   4   3  14    1.40    2.20
   4   3  14    0.70    4.70
   0  -4 -14   -0.80    6.80
   0  -4 -14    8.20    4.60
   0  -4 -14   -1.60    4.30
   0   4  14    9.10    5.00
   0   4  14    3.60    2.60
   0   4  14    4.60    4.70
  -1  -4 -14    4.30    4.40
  -1  -4 -14    0.00    4.10
  -1  -4 -14    5.60    7.30
   1   4  14   -0.30    4.60
   1   4  14    2.20    2.50
   1   4  14    9.60    4.30
  -2  -4 -14   12.80    4.60
  -2  -4 -14   23.70    5.20
  -2  -4 -14   18.60    7.20
   2   4  14   27.90    4.20
   2   4  14   19.90    8.60
  -3  -4 -14    2.30    3.90
  -3  -4 -14    4.20    4.50
   3   4  14    1.90    4.80
   3   4  14   -0.80    3.50
  -4  -4 -14    0.30    4.30
  -4  -4 -14    1.80    4.60
   4   4  14    4.60    2.80
   4   4  14    4.10    4.00
   4   4  14    8.90    4.90
  -1  -5 -14    4.60    7.80
  -1  -5 -14    7.30    4.40
  -1  -5 -14    1.90    4.90
   1   5  14    1.90    3.30
   1   5  14   -5.10    4.50
   1   5  14   -0.40    2.30
  -2  -5 -14   -3.90    4.30
  -2  -5 -14   -8.80    3.90
  -2  -5 -14    4.00    8.60
   2   5  14    0.30    2.30
  -3  -5 -14    3.00    4.30
  -3  -5 -14   -2.10    4.80
   3   5  14    3.20    3.80
   3   5  14    1.90    5.10
   3   5  14    0.80    2.60
   0   0   0    0.00    0.00

_computing_structure_solution     'SHELXT 2014/5 (Sheldrick, 2014)'
;
_shelx_hkl_checksum              58325
loop_
_space_group_symop_operation_xyz
'x, y, z'
'-x, -y, -z'
loop_
_atom_site_label
_atom_site_type_symbol
_atom_site_fract_x
_atom_site_fract_y
_atom_site_fract_z
_atom_site_U_iso_or_equiv
_atom_site_adp_type
_atom_site_occupancy
_atom_site_site_symmetry_order
_atom_site_calc_flag
_atom_site_refinement_flags_posn
_atom_site_refinement_flags_adp
N1 N 0.5488(2) 0.3020(2) 0.41126(15) 0.0584(5) Uani 1 1 d . .
N2 N 0.3044(2) 0.2613(3) 0.28633(15) 0.0606(6) Uani 1 1 d . .
H6 H 0.405(3) 0.303(3) 0.281(2) 0.073 Uiso 1 1 d . U
N3 N 0.0863(3) 0.0240(3) 0.69015(18) 0.0836(7) Uani 1 1 d . .
C2 C 0.7535(3) 0.3314(3) 0.5269(2) 0.0681(7) Uani 1 1 d . .
H2 H 0.858455 0.369079 0.529484 0.082 Uiso 1 1 calc R U
C1 C 0.6973(3) 0.3525(3) 0.4211(2) 0.0681(7) Uani 1 1 d . .
H1 H 0.767697 0.405881 0.351468 0.082 Uiso 1 1 calc R U
C5 C 0.4467(3) 0.2254(2) 0.51116(17) 0.0445(5) Uani 1 1 d . .
C6 C 0.2841(3) 0.1717(3) 0.49944(16) 0.0468(5) Uani 1 1 d . .
C7 C 0.2259(3) 0.1893(3) 0.39421(18) 0.0507(5) Uani 1 1 d . .
H5 H 0.120494 0.146009 0.399838 0.061 Uiso 1 1 calc R U
C9 C 0.2421(3) 0.2668(3) 0.17623(17) 0.0503(5) Uani 1 1 d . .
H7 H 0.129922 0.217419 0.199429 0.060 Uiso 1 1 calc R U
C10 C 0.2175(2) 0.4455(3) 0.10582(16) 0.0407(5) Uani 1 1 d . .
C15 C 0.2577(2) 0.4905(3) -0.01789(17) 0.0429(5) Uani 1 1 d . .
C14 C 0.2256(3) 0.6541(3) -0.0791(2) 0.0565(6) Uani 1 1 d . .
H11 H 0.251123 0.683370 -0.162035 0.068 Uiso 1 1 calc R U
C13 C 0.1573(3) 0.7729(3) -0.0199(2) 0.0630(6) Uani 1 1 d . .
H10 H 0.136853 0.882090 -0.062637 0.076 Uiso 1 1 calc R U
C3 C 0.6487(4) 0.2524(3) 0.6289(2) 0.0730(7) Uani 1 1 d . .
H3 H 0.681980 0.235263 0.702694 0.088 Uiso 1 1 calc R U
C4 C 0.4959(3) 0.1991(3) 0.62196(19) 0.0604(6) Uani 1 1 d . .
H4 H 0.424428 0.145214 0.690958 0.073 Uiso 1 1 calc R U
C18 C 0.3578(3) 0.1601(3) 0.1041(2) 0.0614(6) Uani 1 1 d . .
H17 H 0.475220 0.188164 0.096500 0.074 Uiso 1 1 calc R U
H16 H 0.347223 0.042852 0.145963 0.074 Uiso 1 1 calc R U
C17 C 0.3142(3) 0.1863(3) -0.0186(2) 0.0595(6) Uani 1 1 d . .
H15 H 0.386383 0.112040 -0.060933 0.071 Uiso 1 1 calc R U
H14 H 0.196500 0.159380 -0.011410 0.071 Uiso 1 1 calc R U
C16 C 0.3394(3) 0.3645(3) -0.08755(19) 0.0622(6) Uani 1 1 d . .
H12 H 0.291640 0.383844 -0.159877 0.075 Uiso 1 1 calc R U
H13 H 0.460687 0.382377 -0.110918 0.075 Uiso 1 1 calc R U
C12 C 0.1187(3) 0.7322(3) 0.1022(2) 0.0658(7) Uani 1 1 d . .
H9 H 0.073964 0.813645 0.142766 0.079 Uiso 1 1 calc R U
C11 C 0.1468(3) 0.5690(3) 0.1644(2) 0.0570(6) Uani 1 1 d . .
H8 H 0.118035 0.540680 0.247245 0.068 Uiso 1 1 calc R U
C8 C 0.1743(3) 0.0891(3) 0.6047(2) 0.0583(6) Uani 1 1 d . .
loop_
_atom_site_aniso_label
_atom_site_aniso_U_11
_atom_site_aniso_U_22
_atom_site_aniso_U_33
_atom_site_aniso_U_23
_atom_site_aniso_U_13
_atom_site_aniso_U_12
N1 0.0569(11) 0.0756(13) 0.0415(10) -0.0037(9) -0.0168(8) -0.0103(10)
N2 0.0547(11) 0.0853(15) 0.0389(10) 0.0043(9) -0.0183(9) -0.0236(10)
N3 0.0883(16) 0.1077(19) 0.0487(12) -0.0084(12) 0.0000(11) -0.0299(14)
C2 0.0667(15) 0.0768(17) 0.0688(16) -0.0145(14) -0.0321(13) -0.0113(13)
C1 0.0637(15) 0.0879(19) 0.0514(14) -0.0053(13) -0.0163(11) -0.0188(14)
C5 0.0542(12) 0.0410(11) 0.0381(11) -0.0077(9) -0.0140(9) 0.0065(9)
C6 0.0526(12) 0.0485(12) 0.0365(11) -0.0057(9) -0.0079(9) -0.0010(10)
C7 0.0474(12) 0.0575(13) 0.0445(12) -0.0051(10) -0.0103(9) -0.0062(10)
C9 0.0460(12) 0.0640(14) 0.0411(11) -0.0047(10) -0.0159(9) -0.0109(10)
C10 0.0318(10) 0.0544(12) 0.0388(10) -0.0110(9) -0.0115(8) -0.0061(9)
C15 0.0394(11) 0.0505(12) 0.0401(11) -0.0088(9) -0.0107(8) -0.0083(9)
C14 0.0600(14) 0.0597(15) 0.0497(12) -0.0050(11) -0.0156(10) -0.0140(11)
C13 0.0641(15) 0.0542(15) 0.0758(17) -0.0140(13) -0.0275(13) -0.0026(12)
C3 0.094(2) 0.0807(18) 0.0534(15) -0.0114(13) -0.0395(14) -0.0097(15)
C4 0.0784(16) 0.0647(15) 0.0397(12) -0.0069(11) -0.0202(11) -0.0069(13)
C18 0.0624(14) 0.0576(15) 0.0665(15) -0.0116(12) -0.0243(12) 0.0031(11)
C17 0.0621(14) 0.0595(15) 0.0658(14) -0.0275(12) -0.0213(11) 0.0079(11)
C16 0.0718(15) 0.0711(17) 0.0462(12) -0.0199(12) -0.0084(11) -0.0037(13)
C12 0.0556(14) 0.0676(17) 0.0876(19) -0.0393(15) -0.0238(13) 0.0114(12)
C11 0.0471(12) 0.0819(18) 0.0496(12) -0.0264(12) -0.0148(10) 0.0002(12)
C8 0.0652(15) 0.0673(15) 0.0419(13) -0.0105(11) -0.0101(11) -0.0074(12)
loop_
_atom_type_symbol
_atom_type_description
_atom_type_scat_dispersion_real
_atom_type_scat_dispersion_imag
_atom_type_scat_source
C C 0.0033 0.0016 'International Tables Vol C Tables 4.2.6.8 and 6.1.1.4'
H H 0.0000 0.0000 'International Tables Vol C Tables 4.2.6.8 and 6.1.1.4'
N N 0.0061 0.0033 'International Tables Vol C Tables 4.2.6.8 and 6.1.1.4'
loop_
_geom_angle_atom_site_label_1
_geom_angle_atom_site_label_2
_geom_angle_atom_site_label_3
_geom_angle
C1 N1 C5 118.09(18)
C7 N2 C9 124.33(19)
C7 N2 H6 116.5(15)
C9 N2 H6 119.1(15)
C1 C2 C3 117.2(2)
C1 C2 H2 121.4
C3 C2 H2 121.4
N1 C1 C2 124.4(2)
N1 C1 H1 117.8
C2 C1 H1 117.8
N1 C5 C4 120.6(2)
N1 C5 C6 117.65(17)
C4 C5 C6 121.71(19)
C7 C6 C8 115.58(19)
C7 C6 C5 125.95(18)
C8 C6 C5 118.45(18)
N2 C7 C6 126.5(2)
N2 C7 H5 116.7
C6 C7 H5 116.7
N2 C9 C10 111.08(18)
N2 C9 C18 110.57(18)
C10 C9 C18 112.91(17)
N2 C9 H7 107.3
C10 C9 H7 107.3
C18 C9 H7 107.3
C15 C10 C11 118.14(19)
C15 C10 C9 121.61(18)
C11 C10 C9 120.21(18)
C14 C15 C10 119.6(2)
C14 C15 C16 119.17(19)
C10 C15 C16 121.18(18)
C13 C14 C15 121.2(2)
C13 C14 H11 119.4
C15 C14 H11 119.4
C14 C13 C12 120.3(2)
C14 C13 H10 119.9
C12 C13 H10 119.9
C4 C3 C2 119.9(2)
C4 C3 H3 120.1
C2 C3 H3 120.1
C3 C4 C5 119.8(2)
C3 C4 H4 120.1
C5 C4 H4 120.1
C17 C18 C9 111.60(18)
C17 C18 H17 109.3
C9 C18 H17 109.3
C17 C18 H16 109.3
C9 C18 H16 109.3
H17 C18 H16 108.0
C16 C17 C18 110.29(19)
C16 C17 H15 109.6
C18 C17 H15 109.6
C16 C17 H14 109.6
C18 C17 H14 109.6
H15 C17 H14 108.1
C17 C16 C15 113.23(18)
C17 C16 H12 108.9
C15 C16 H12 108.9
C17 C16 H13 108.9
C15 C16 H13 108.9
H12 C16 H13 107.7
C13 C12 C11 119.2(2)
C13 C12 H9 120.4
C11 C12 H9 120.4
C12 C11 C10 121.5(2)
C12 C11 H8 119.3
C10 C11 H8 119.3
N3 C8 C6 179.2(3)
loop_
_geom_bond_atom_site_label_1
_geom_bond_atom_site_label_2
_geom_bond_distance
N1 C1 1.329(3)
N1 C5 1.338(3)
N2 C7 1.316(3)
N2 C9 1.465(2)
N2 H6 0.89(2)
N3 C8 1.146(3)
C2 C1 1.369(3)
C2 C3 1.370(3)
C2 H2 0.9300
C1 H1 0.9300
C5 C4 1.393(3)
C5 C6 1.454(3)
C6 C7 1.375(3)
C6 C8 1.423(3)
C7 H5 0.9300
C9 C10 1.511(3)
C9 C18 1.513(3)
C9 H7 0.9800
C10 C15 1.387(3)
C10 C11 1.394(3)
C15 C14 1.385(3)
C15 C16 1.514(3)
C14 C13 1.362(3)
C14 H11 0.9300
C13 C12 1.368(3)
C13 H10 0.9300
C3 C4 1.361(3)
C3 H3 0.9300
C4 H4 0.9300
C18 C17 1.509(3)
C18 H17 0.9700
C18 H16 0.9700
C17 C16 1.497(3)
C17 H15 0.9700
C17 H14 0.9700
C16 H12 0.9700
C16 H13 0.9700
C12 C11 1.380(3)
C12 H9 0.9300
C11 H8 0.9300
loop_
_geom_torsion_atom_site_label_1
_geom_torsion_atom_site_label_2
_geom_torsion_atom_site_label_3
_geom_torsion_atom_site_label_4
_geom_torsion
C5 N1 C1 C2 0.1(4)
C3 C2 C1 N1 0.1(4)
C1 N1 C5 C4 -0.3(3)
C1 N1 C5 C6 179.6(2)
N1 C5 C6 C7 1.4(3)
C4 C5 C6 C7 -178.7(2)
N1 C5 C6 C8 179.6(2)
C4 C5 C6 C8 -0.5(3)
C9 N2 C7 C6 175.7(2)
C8 C6 C7 N2 179.8(2)
C5 C6 C7 N2 -1.9(4)
C7 N2 C9 C10 122.1(2)
C7 N2 C9 C18 -111.7(2)
N2 C9 C10 C15 141.51(18)
C18 C9 C10 C15 16.6(3)
N2 C9 C10 C11 -41.0(2)
C18 C9 C10 C11 -165.86(18)
C11 C10 C15 C14 -0.6(3)
C9 C10 C15 C14 176.96(18)
C11 C10 C15 C16 178.27(19)
C9 C10 C15 C16 -4.2(3)
C10 C15 C14 C13 1.0(3)
C16 C15 C14 C13 -177.9(2)
C15 C14 C13 C12 -0.1(3)
C1 C2 C3 C4 -0.1(4)
C2 C3 C4 C5 -0.1(4)
N1 C5 C4 C3 0.3(3)
C6 C5 C4 C3 -179.6(2)
N2 C9 C18 C17 -170.35(19)
C10 C9 C18 C17 -45.2(3)
C9 C18 C17 C16 62.3(3)
C18 C17 C16 C15 -48.4(3)
C14 C15 C16 C17 -160.73(19)
C10 C15 C16 C17 20.4(3)
C14 C13 C12 C11 -1.2(3)
C13 C12 C11 C10 1.5(3)
C15 C10 C11 C12 -0.7(3)
C9 C10 C11 C12 -178.24(19)
