#------------------------------------------------------------------------------
#$Date: 2020-02-04 05:13:16 +0200 (Tue, 04 Feb 2020) $
#$Revision: 247531 $
#$URL: file:///home/coder/svn-repositories/cod/cif/4/13/39/4133970.cif $
#------------------------------------------------------------------------------
#
# This file is available in the Crystallography Open Database (COD),
# http://www.crystallography.net/
#
# All data on this site have been placed in the public domain by the
# contributors.
#
data_4133970
loop_
_publ_author_name
'Bear, Joseph C.'
'Cockcroft, Jeremy K.'
'Williams, Jeffrey H.'
_publ_section_title
;
 Influence of Solvent in Crystal Engineering: A Significant Change to the
 Order-Disorder Transition in Ferrocene.
;
_journal_issue                   4
_journal_name_full               'Journal of the American Chemical Society'
_journal_page_first              1731
_journal_page_last               1734
_journal_paper_doi               10.1021/jacs.9b11895
_journal_volume                  142
_journal_year                    2020
_chemical_formula_moiety         'C10 H10 Fe, 2(C3 F3)'
_chemical_formula_sum            'C16 H10 F6 Fe'
_chemical_formula_weight         372.09
_chemical_name_systematic        Ferrocene:hexafluorobenzene
_space_group_crystal_system      triclinic
_space_group_IT_number           2
_space_group_name_Hall           '-P 1'
_space_group_name_H-M_alt        'P -1'
_atom_sites_solution_hydrogens   difmap
_atom_sites_solution_primary     dual
_audit_creation_date             2019-04-24
_audit_creation_method
;
Olex2 1.2
(compiled 2018.05.29 svn.r3508 for OlexSys, GUI svn.r5506)
;
_cell_angle_alpha                77.760(5)
_cell_angle_beta                 76.956(5)
_cell_angle_gamma                84.228(5)
_cell_formula_units_Z            2
_cell_length_a                   7.1977(5)
_cell_length_b                   9.1039(5)
_cell_length_c                   11.4700(7)
_cell_measurement_reflns_used    5311
_cell_measurement_temperature    225
_cell_measurement_theta_max      28.4770
_cell_measurement_theta_min      3.5980
_cell_volume                     714.46(8)
_computing_cell_refinement       'CrysAlisPro 1.171.39.46 (Rigaku OD, 2018)'
_computing_data_collection       'CrysAlisPro 1.171.39.46 (Rigaku OD, 2018)'
_computing_data_reduction        'CrysAlisPro 1.171.39.46 (Rigaku OD, 2018)'
_computing_molecular_graphics    'Olex2 (Dolomanov et al., 2009)'
_computing_publication_material  'Olex2 (Dolomanov et al., 2009)'
_computing_structure_refinement  'ShelXL (Sheldrick, 2015)'
_computing_structure_solution    'ShelXT (Sheldrick, 2015)'
_diffrn_ambient_environment      N~2~
_diffrn_ambient_temperature      225
_diffrn_detector                 'CCD plate'
_diffrn_detector_area_resol_mean 5.2031
_diffrn_detector_type            Atlas
_diffrn_measured_fraction_theta_full 0.995
_diffrn_measured_fraction_theta_max 0.996
_diffrn_measurement_details
;
List of Runs (angles in degrees, time in seconds):

  # Type    Start    End  Width  t~exp~   \w     \q     \k     \f   Frames
--------------------------------------------------------------------------
  1  \w    -16.00  78.00   1.00    3.00    --   11.17  57.00 -30.00   94
  2  \w    -12.00  85.00   1.00    3.00    --   11.17  38.00-120.00   97
  3  \w     -3.00  80.00   1.00    3.00    --   11.17  57.00  90.00   83
  4  \w    -62.00  39.00   1.00    3.00    --   11.17 -57.00-180.00  101
  5  \w    -14.00  52.00   1.00    3.00    --   11.17 -99.00  60.00   66
  6  \w    -51.00  44.00   1.00    3.00    --   11.17 -77.00 -60.00   95
  7  \w     12.00  69.00   1.00    3.00    --   11.17-128.00 164.64   57
;
_diffrn_measurement_device       'four-circle diffractometer'
_diffrn_measurement_device_type  'SuperNova, Dual, Cu at home/near, Atlas'
_diffrn_measurement_method       '\w scans'
_diffrn_orient_matrix_type
'CrysAlisPro convention (1999,Acta A55,543-557)'
_diffrn_orient_matrix_UB_11      0.0070831000
_diffrn_orient_matrix_UB_12      0.0782976000
_diffrn_orient_matrix_UB_13      -0.0235437000
_diffrn_orient_matrix_UB_21      -0.0789772000
_diffrn_orient_matrix_UB_22      0.0002006000
_diffrn_orient_matrix_UB_23      -0.0274983000
_diffrn_orient_matrix_UB_31      -0.0630586000
_diffrn_orient_matrix_UB_32      0.0156482000
_diffrn_orient_matrix_UB_33      0.0536536000
_diffrn_radiation_monochromator  mirror
_diffrn_radiation_probe          x-ray
_diffrn_radiation_type           MoK\a
_diffrn_radiation_wavelength     0.71073
_diffrn_reflns_av_R_equivalents  0.0389
_diffrn_reflns_av_unetI/netI     0.0343
_diffrn_reflns_Laue_measured_fraction_full 0.995
_diffrn_reflns_Laue_measured_fraction_max 0.996
_diffrn_reflns_limit_h_max       8
_diffrn_reflns_limit_h_min       -8
_diffrn_reflns_limit_k_max       11
_diffrn_reflns_limit_k_min       -11
_diffrn_reflns_limit_l_max       14
_diffrn_reflns_limit_l_min       -14
_diffrn_reflns_number            10915
_diffrn_reflns_point_group_measured_fraction_full 0.995
_diffrn_reflns_point_group_measured_fraction_max 0.996
_diffrn_reflns_theta_full        25.242
_diffrn_reflns_theta_max         26.371
_diffrn_reflns_theta_min         3.536
_diffrn_source                   'micro-focus sealed X-ray tube'
_diffrn_source_type              'SuperNova (Mo) X-ray Source'
_exptl_absorpt_coefficient_mu    1.117
_exptl_absorpt_correction_T_max  1.00000
_exptl_absorpt_correction_T_min  0.22245
_exptl_absorpt_correction_type   multi-scan
_exptl_absorpt_process_details
;
CrysAlisPro 1.171.39.46 (Rigaku Oxford Diffraction, 2018)
Empirical absorption correction using spherical harmonics,
 implemented in SCALE3 ABSPACK scaling algorithm.
;
_exptl_crystal_colour            'clear dark orange'
_exptl_crystal_colour_lustre     clear
_exptl_crystal_colour_modifier   dark
_exptl_crystal_colour_primary    orange
_exptl_crystal_density_diffrn    1.730
_exptl_crystal_description       block
_exptl_crystal_F_000             372
_exptl_crystal_preparation       'Ferrocene dissolved in hot C6F6'
_exptl_crystal_recrystallization_method
'Crystals grown using C6F6 as soilvent in an NMR tube stood in hot water'
_exptl_crystal_size_max          0.722
_exptl_crystal_size_mid          0.389
_exptl_crystal_size_min          0.2
_refine_diff_density_max         0.289
_refine_diff_density_min         -0.317
_refine_diff_density_rms         0.051
_refine_ls_extinction_method     none
_refine_ls_goodness_of_fit_ref   1.052
_refine_ls_hydrogen_treatment    refall
_refine_ls_matrix_type           full
_refine_ls_number_parameters     248
_refine_ls_number_reflns         2913
_refine_ls_number_restraints     0
_refine_ls_restrained_S_all      1.052
_refine_ls_R_factor_all          0.0404
_refine_ls_R_factor_gt           0.0322
_refine_ls_shift/su_max          0.001
_refine_ls_shift/su_mean         0.000
_refine_ls_structure_factor_coef Fsqd
_refine_ls_weighting_details
'w=1/[\s^2^(Fo^2^)+(0.0335P)^2^+0.1193P] where P=(Fo^2^+2Fc^2^)/3'
_refine_ls_weighting_scheme      calc
_refine_ls_wR_factor_gt          0.0736
_refine_ls_wR_factor_ref         0.0786
_reflns_Friedel_coverage         0.000
_reflns_number_gt                2476
_reflns_number_total             2913
_reflns_threshold_expression     'I > 2\s(I)'
_cod_data_source_file            ja9b11895_si_002.cif
_cod_data_source_block           exp_1369
_cod_depositor_comments
'Adding full bibliography for 4133967--4133980.cif.'
_cod_database_code               4133970
_shelx_shelxl_version_number     2014/7
_chemical_oxdiff_formula         'Fe C16 F6 H10'
_chemical_oxdiff_usercomment     'Same crystal as used 13 Dec in capillary'
_shelx_space_group_comment
;
The symmetry employed for this shelxl refinement is uniquely defined
by the following loop, which should always be used as a source of
symmetry information in preference to the above space-group names.
They are only intended as comments.
;
_shelx_estimated_absorpt_t_max   0.808
_shelx_estimated_absorpt_t_min   0.499
_reflns_odcompleteness_completeness 99.76
_reflns_odcompleteness_iscentric 1
_reflns_odcompleteness_theta     26.32
_olex2_refinement_description
;
;
_shelx_res_file
;
    exp_1369.res created by SHELXL-2014/7

TITL exp_1369 in P-1
REM P-1 (#2 in standard setting)
CELL 0.71073 7.197697 9.103932 11.470046 77.7601 76.9556 84.2275
ZERR 2 0.000481 0.000481 0.000653 0.0047 0.0053 0.0049
LATT 1
SFAC C H F Fe
UNIT 32 20 12 2

L.S. 10 0 0
PLAN  1
SIZE 0.2 0.389 0.722
BOND $H
list 4
fmap 2 53
acta
SHEL 50 0.8
OMIT 2 3 6
OMIT -3 0 3
OMIT 4 2 12
OMIT 4 4 12
OMIT 7 -2 5
OMIT 1 2 3
REM <olex2.extras>
REM <HklSrc "%.\\exp_1369.hkl">
REM </olex2.extras>

WGHT    0.033500    0.119300
FVAR       7.71529
FE1   4    0.239542    0.496063    0.252317    11.00000    0.03230    0.02786 =
         0.02826   -0.00368   -0.00901    0.00205
C7    1    0.316554    0.679249    0.120298    11.00000    0.04757    0.04449 =
         0.05795    0.01525   -0.01352   -0.00761
H7    2    0.438683    0.713173    0.095867    11.00000    0.05874
C8    1    0.243199    0.573002    0.071826    11.00000    0.05963    0.04966 =
         0.02886   -0.00346   -0.01055    0.01124
H8    2    0.309156    0.526999    0.010776    11.00000    0.06846
C9    1    0.056217    0.549340    0.136431    11.00000    0.04913    0.04383 =
         0.04006   -0.00522   -0.02348    0.00291
H9    2   -0.022295    0.483870    0.126595    11.00000    0.05058
C10   1    0.012392    0.641282    0.225276    11.00000    0.04597    0.04430 =
         0.03871   -0.00725   -0.01245    0.01566
H10   2   -0.101908    0.643470    0.282550    11.00000    0.04708
C11   1    0.173506    0.721214    0.214914    11.00000    0.06925    0.02793 =
         0.05178   -0.00803   -0.02735    0.00488
H11   2    0.193448    0.788814    0.263029    11.00000    0.05209
C12   1    0.473944    0.407331    0.319318    11.00000    0.03549    0.05604 =
         0.06102    0.00680   -0.02170    0.00241
H12   2    0.595526    0.451678    0.289826    11.00000    0.06027
C13   1    0.405155    0.301669    0.267381    11.00000    0.04861    0.04489 =
         0.04500   -0.00558   -0.01062    0.02032
H13   2    0.474028    0.264185    0.201713    11.00000    0.05604
C14   1    0.217813    0.274089    0.329738    11.00000    0.05259    0.02844 =
         0.04324   -0.00289   -0.01585    0.00006
H14   2    0.134584    0.212551    0.312614    11.00000    0.04389
C15   1    0.167728    0.362437    0.420921    11.00000    0.04531    0.03768 =
         0.03094   -0.00016   -0.00760    0.00252
H15   2    0.050024    0.371060    0.473651    11.00000    0.04541
C16   1    0.326314    0.445619    0.413742    11.00000    0.05888    0.03982 =
         0.04026   -0.00494   -0.02575    0.00194
H16   2    0.335363    0.515914    0.456120    11.00000    0.05208
F1    3    0.372633    1.000383   -0.114030    11.00000    0.04146    0.07080 =
         0.06934   -0.01521    0.00717   -0.00170
F2    3    0.138906    0.812595   -0.157793    11.00000    0.07077    0.04609 =
         0.04601   -0.02072   -0.00557    0.01009
F3    3   -0.232681    0.811584   -0.043107    11.00000    0.06405    0.06291 =
         0.07972   -0.02592   -0.01556   -0.01728
C1    1    0.188471    1.000808   -0.058268    11.00000    0.03851    0.03816 =
         0.03958   -0.00158   -0.00206    0.00238
C2    1    0.070302    0.905131   -0.079858    11.00000    0.05107    0.03127 =
         0.03144   -0.00449   -0.00628    0.00702
C3    1   -0.117427    0.904684   -0.022410    11.00000    0.04719    0.03410 =
         0.04169   -0.00346   -0.01052   -0.00415
F4    3    0.802000    0.151303    0.503507    11.00000    0.05622    0.07434 =
         0.08926   -0.01752   -0.01807   -0.02453
F5    3    0.456086    0.208129    0.642511    11.00000    0.08881    0.04876 =
         0.05745   -0.02465   -0.01965    0.00348
F6    3    0.153520    0.057490    0.638381    11.00000    0.04685    0.06689 =
         0.05515   -0.00481    0.00750    0.01017
C4    1    0.652834    0.076692    0.501502    11.00000    0.04300    0.03676 =
         0.04501   -0.00047   -0.01436   -0.00578
C5    1    0.478280    0.105202    0.572369    11.00000    0.05610    0.02977 =
         0.03336   -0.00524   -0.01278    0.00374
C6    1    0.325423    0.028543    0.570562    11.00000    0.03906    0.03796 =
         0.03408    0.00166   -0.00344    0.00494
HKLF 4

REM  exp_1369 in P-1
REM R1 =  0.0322 for    2476 Fo > 4sig(Fo)  and  0.0404 for all    2913 data
REM    248 parameters refined using      0 restraints

END

WGHT      0.0328      0.1261

REM Highest difference peak  0.289,  deepest hole -0.317,  1-sigma level  0.051
Q1    1   0.4140  0.4991  0.1984  11.00000  0.05    0.29
;
_shelx_res_checksum              17011
_shelx_hkl_file
;
   0   0   2 6499.09 379.547   2
   0   0   2 6737.20 364.930   4
   0   0  -2 6933.71 341.537   6
   0   0  -2 7200.08 432.925   7
   0   0   2 7249.14 358.106   6
   0   0  -2 7220.05 380.920   2
   0   0   3 16.3876 51.0782   6
   0   0   3-47.8125 92.5291   4
   0   0   3 121.350 75.1007   2
   0   0  -3 69.4648 84.1445   2
   0   0  -3 49.1829 55.9724   6
   0   0  -3 34.1342 69.3051   7
   0   0  -4 10831.6 661.070   2
   0   0  -4 11914.6 784.050   7
   0   0  -4 14241.6 784.444   4
   0   0   4 11052.0 717.075   2
   0   0  -4 11533.1 609.228   6
   0   0   4 11994.7 656.428   6
   0   0   4 13908.3 745.817   4
   0   0   5 13931.6 804.063   4
   0   0  -5 13527.4 718.833   6
   0   0   5 13568.8 782.969   6
   0   0  -5 13687.7 942.874   7
   0   0  -5 13006.1 783.200   2
   0   0   5 13558.7 885.714   2
   0   0   6 55704.2 1952.85   6
   0   0   6 53397.3 1899.53   4
   0   0  -6 54665.2 1787.74   6
   0   0  -6 51039.3 1891.32   3
   0   0   6 54148.4 2134.47   2
   0   0  -6 52449.7 1932.36   2
   0   0   7 1929.11 361.391   4
   0   0  -7 2122.47 367.232   3
   0   0  -7 1799.21 299.538   6
   0   0   7 2296.38 400.185   6
   0   0  -7 1495.26 318.296   2
   0   0  -7 2102.46 453.276   7
   0   0  -7 1925.38 379.545   4
   0   0   8 34521.4 1694.77   6
   0   0  -8 35039.2 1479.97   6
   0   0  -8 36017.5 2029.41   7
   0   0  -8 32503.2 1741.23   4
   0   0  -8 33254.1 1651.12   2
   0   0   8 33933.6 1864.32   2
   0   0   8 34931.0 1592.88   4
   0   0  -8 31243.2 1595.87   3
   0   0   9 329.991 217.633   6
   0   0  -9 255.063 131.127   6
   0   0  -9-13.4027 150.580   2
   0   0  -9 284.088 163.077   3
   0   0   9-29.9622 161.703   4
   0   0   9 11.2066 111.800   2
   0   0  -9 133.106 138.495   7
   0   0  10 24249.1 1748.15   2
   0   0 -10 21540.0 749.507   3
   0   0 -10 24631.2 1292.07   6
   0   0  10 24933.3 1425.51   4
   0   0 -10 24926.2 1564.96   2
   0   0  10 23527.7 1517.53   6
   0   0 -11 2365.76 520.053   2
   0   0 -11 1168.03 237.720   1
   0   0  11 2180.45 482.636   6
   0   0  11 1693.09 374.422   4
   0   0 -11 1934.50 360.132   6
   0   0 -12 14504.1 985.035   1
   0   0  12 17324.6 1377.64   6
   0   0 -12 17706.5 1436.52   2
   0   0  12 19795.7 1336.12   4
   0   0 -13 2159.30 511.209   2
   0   0  13 3224.52 552.534   4
   0   0 -13 1823.51 362.716   1
   0   0  13 1615.85 401.604   6
   0   0 -14-330.035 252.369   2
   0   0 -14-9.53921 84.9143   1
   0   1 -14 4122.61 781.539   2
   0   1 -13 980.576 256.443   1
   0   1 -13 1148.01 405.883   2
   0  -1  13 1760.20 440.539   4
   0   1 -12 6422.97 921.537   2
   0  -1  12 7126.68 857.218   4
   0  -1  12 6052.89 732.032   6
   0  -1  11 202.231 111.882   6
   0  -1  11 10.7757 122.953   4
   0   1 -11 354.765 204.940   2
   0  -1  10 9488.21 943.406   4
   0   1 -10 8676.95 977.057   2
   0  -1  10 9895.66 883.904   6
   0   1  -9 924.523 318.265   2
   0  -1   9 1216.19 352.722   4
   0  -1   9 877.878 262.512   6
   0  -1   9 776.630 328.229   2
   0  -1   8 158.732 122.689   6
   0   1  -8 253.610 152.820   4
   0  -1   8-107.415 207.231   2
   0   1  -8 219.013 222.194   7
   0  -1   8 120.813 116.085   4
   0   1  -8-29.1734 201.886   2
   0  -1   7 122.671 155.380   2
   0   1  -7 97.0003 85.1944   6
   0  -1   7 128.353 113.524   6
   0   1  -7 86.7202 141.288   4
   0   1  -7 34.7175 135.816   2
   0  -1   7 487.152 303.175   4
   0   1  -6 57267.4 2214.29   2
   0   1  -6 56005.2 1637.17   6
   0  -1   6 57586.5 2167.68   4
   0  -1   6 55790.2 1834.25   6
   0   1  -6 58248.7 2265.34   7
   0   1  -5 2357.31 367.103   7
   0  -1   5 2126.38 267.873   6
   0   1  -5 2626.51 407.260   2
   0  -1   5 2347.20 372.035   4
   0   1  -5 2178.89 228.377   6
   0  -1   5 2309.76 397.115   2
   0   1  -4 45106.0 1720.11   2
   0  -1   4 45696.4 1349.16   6
   0  -1   4 42308.4 1753.76   2
   0   1  -4 45358.1 1636.46   7
   0  -1   4 49852.5 1700.39   4
   0   1  -4 45977.7 1231.65   6
   0  -1   3 24.6620 46.3612   6
   0  -1   3 217.681 150.160   4
   0   1  -3-62.5362 66.5326   7
   0   1  -3 80.0251 131.373   2
   0  -1   3 149.511 115.961   2
   0   1  -2 638071. 12604.3   2
   0  -1   2 659991. 12318.3   7
   0  -1   2 626006. 12445.8   4
   0   1   2 488891. 9219.30   1
   0  -1  -2 470697. 9251.37   1
   0   1   2 499746. 9557.66   5
   0  -1  -2 468561. 9571.59   5
   0   1   2 473874. 9526.74   6
   0  -1  -3 1563.07 158.132   2
   0   1   3 1060.58 141.290   4
   0  -1  -3 1006.92 129.655   1
   0  -1  -3 1223.16 200.476   6
   0   1   3 1355.23 164.285   2
   0  -1  -3 1310.93 227.783   5
   0   1   3 1307.70 234.568   6
   0  -1  -3 1123.93 152.537   4
   0  -1  -4 212587. 4396.66   1
   0  -1  -4 209523. 4451.56   2
   0   1   4 215773. 4902.02   6
   0  -1  -4 196255. 4612.37   4
   0   1   4 209450. 4589.14   2
   0   1   4 215837. 4452.87   4
   0  -1  -4 199989. 5000.35   5
   0  -1  -4 206895. 4827.12   6
   0  -1  -5 10353.0 717.564   6
   0   1   5 11084.3 695.837   2
   0  -1  -5 10603.4 703.542   4
   0   1   5 10799.8 774.814   6
   0   1   5 11589.4 613.818   4
   0  -1  -5 10748.2 866.379   5
   0  -1  -5 10983.6 567.524   1
   0  -1  -5 11231.7 622.825   2
   0  -1  -6 130978. 3318.50   2
   0  -1  -6 129896. 3139.22   1
   0   1   6 128499. 3555.88   2
   0  -1  -6 124169. 3496.32   6
   0   1   6 134963. 3758.59   6
   0   1   6 135411. 3270.65   4
   0  -1  -6 122330. 3541.17   4
   0  -1  -7 54010.0 2149.35   4
   0  -1  -7 55601.1 1749.41   1
   0  -1  -7 58810.0 2553.85   7
   0  -1  -7 54373.0 1931.24   2
   0  -1  -7 54463.1 2048.92   6
   0   1   7 53632.8 2130.04   2
   0   1   7 56572.2 2274.29   6
   0   1   7 59158.7 1890.05   4
   0  -1  -8 81900.6 2756.14   6
   0  -1  -8 91793.5 3491.60   7
   0  -1  -8 80867.5 2935.74   4
   0  -1  -8 79134.0 2366.17   1
   0  -1  -8 82613.5 2680.56   2
   0   1   8 86205.3 2575.07   4
   0   1   8 81393.4 3026.13   6
   0  -1  -9 12.9582 100.549   1
   0   1   9-62.8638 98.1519   6
   0  -1  -9-225.588 249.271   5
   0  -1  -9-3.99406 124.471   7
   0  -1  -9 135.979 174.723   2
   0  -1  -9 5.16719 72.0436   6
   0   1   9 92.3086 123.042   2
   0  -1  -9 135.481 104.018   3
   0   1   9 53.7506 94.7674   4
   0  -1 -10 11570.5 951.110   6
   0  -1 -10 11641.3 809.014   1
   0  -1 -10 9437.30 1025.02   3
   0   1  10 11865.9 1120.28   2
   0  -1 -10 15036.0 1858.94   5
   0   1  10 12387.8 1158.67   6
   0   1  10 12048.0 915.020   4
   0  -1 -10 12892.8 1014.07   2
   0  -1 -11 2433.67 464.048   2
   0   1  11 2637.76 460.397   4
   0   1  11 1567.81 421.838   2
   0  -1 -11 2277.11 363.793   1
   0   1  11 1956.30 483.952   6
   0  -1 -11 1995.77 400.625   6
   0   1  12 7165.25 808.732   4
   0   1  12 6637.72 901.606   6
   0  -1 -12 5282.12 601.989   1
   0  -1 -12 7729.23 850.264   2
   0  -1 -13 2861.23 462.668   1
   0   1  13 3827.53 617.978   4
   0   1  13 2796.29 588.387   6
   0  -1 -13 3221.29 568.511   2
   0  -1 -14 4710.86 624.033   1
   0   2 -14 176.571 152.698   2
   0  -2  13 423.368 212.860   4
   0   2 -13 662.813 361.682   2
   0  -2  12 1953.29 484.044   4
   0   2 -12 2561.15 615.827   2
   0  -2  11 1167.45 279.997   6
   0   2 -11 1317.64 454.672   2
   0  -2  11 1928.17 489.086   4
   0  -2  10 12147.4 865.898   6
   0  -2  10 11473.9 1140.05   4
   0   2 -10 12176.2 1241.10   2
   0   2  -9 105.787 178.482   7
   0  -2   9-73.3477 87.6128   6
   0   2  -9 323.243 220.553   2
   0  -2   9 292.278 176.417   4
   0   2  -8 17310.8 1357.28   2
   0   2  -8 17705.0 1321.35   7
   0  -2   8 16990.7 940.750   6
   0  -2   8 16269.0 1266.66   4
   0  -2   8 17093.2 1481.94   2
   0   2  -7 4808.97 642.174   4
   0   2  -7 5083.60 680.971   2
   0  -2   7 5782.98 703.718   4
   0  -2   7 4978.25 446.277   6
   0  -2   7 5496.21 775.050   2
   0  -2   6 75396.6 2680.42   4
   0  -2   6 71920.7 2004.65   6
   0   2  -6 69936.9 2497.24   7
   0  -2   6 77447.0 3015.59   2
   0   2  -6 76729.1 2835.18   2
   0  -2   5 787.294 209.520   4
   0  -2   5 598.868 115.184   6
   0   2  -5 574.683 172.741   7
   0   2  -5 975.510 285.442   2
   0  -2   4 57726.5 1327.71   3
   0   2  -4 58113.5 2174.55   2
   0  -2   4 57386.8 1994.56   4
   0   2  -4 54289.6 1764.57   7
   0  -2   4 56787.3 1410.08   6
   0  -2   3 148.755 84.9818   7
   0   2  -3 187.306 72.7218   7
   0   2  -3 356.907 193.740   2
   0  -2   3 226.476 56.5148   3
   0  -2   3 277.694 143.441   4
   0  -2   3 317.362 72.6064   6
   0  -2   2 413333. 8452.35   4
   0  -2   2 422338. 8020.34   7
   0   2  -2 400105. 7972.64   7
   0   2  -2 419045. 8690.84   2
   0  -2   1 76.6479 67.4783   4
   0  -2   1 99.8412 57.0340   6
   0   2  -1 96.9991 77.3531   2
   0  -2   1 95.7018 93.2878   2
   0  -2   0 191142. 4099.78   6
   0   2   0 190503. 4087.52   6
   0   2   0 188910. 4139.95   2
   0  -2   0 193065. 4203.61   4
   0  -2   0 185155. 4175.77   2
   0  -2   0 190846. 4079.31   1
   0  -2  -1 1709.06 229.326   6
   0   2   1 1380.98 168.910   1
   0   2   1 1497.51 159.134   2
   0  -2  -1 1312.87 166.302   1
   0   2   1 1299.80 202.909   6
   0   2   2 516628. 10210.9   5
   0   2   2 478576. 9966.71   1
   0  -2  -2 492116. 10125.8   5
   0   2   2 505741. 10344.9   6
   0  -2  -2 515783. 10115.6   1
   0   2   3 566.501 200.035   6
   0   2   3 368.593 124.170   5
   0  -2  -3 454.004 143.443   1
   0   2   3 384.592 108.776   1
   0  -2  -3 271.062 88.3537   5
   0   2   4 856.161 129.286   2
   0   2   4 1142.44 263.989   6
   0  -2  -4 992.531 226.855   6
   0  -2  -4 789.599 221.714   5
   0  -2  -4 725.282 128.204   4
   0   2   4 893.850 201.967   5
   0  -2  -4 891.806 94.6383   2
   0   2   4 933.485 166.351   1
   0  -2  -4 1000.20 204.885   1
   0  -2  -5 15696.8 1076.33   5
   0  -2  -5 17068.6 802.080   4
   0   2   5 18739.3 1138.41   6
   0   2   5 17648.2 776.198   2
   0  -2  -5 18546.3 842.991   1
   0  -2  -5 18223.6 1080.04   6
   0  -2  -5 19980.6 697.502   2
   0   2   6 190011. 4463.72   2
   0  -2  -6 184232. 5257.85   5
   0  -2  -6 195118. 4428.72   1
   0  -2  -6 198600. 4242.92   2
   0   2   6 192873. 5145.06   6
   0  -2  -6 195969. 5015.27   6
   0   2   7 159.100 134.553   6
   0  -2  -7 541.180 199.483   6
   0   2   7 470.766 166.223   2
   0  -2  -7 438.257 161.906   4
   0  -2  -7 318.920 129.994   2
   0  -2  -7 462.488 271.895   5
   0  -2  -7 391.120 149.885   1
   0  -2  -8 23322.5 1101.12   1
   0  -2  -8 23662.0 1099.56   2
   0   2   8 21473.7 1205.12   2
   0  -2  -8 23301.6 1656.17   7
   0  -2  -8 22211.5 1353.19   6
   0  -2  -8 21124.7 1298.21   4
   0   2   8 19939.5 1436.09   6
   0  -2  -8 24033.6 1763.61   5
   0  -2  -9 1268.43 255.606   2
   0  -2  -9 942.364 353.443   5
   0  -2  -9 1182.31 273.638   1
   0   2   9 1073.06 347.105   6
   0   2   9 1152.03 292.766   2
   0  -2  -9 1043.42 296.943   6
   0  -2  -9 776.448 268.795   4
   0  -2 -10 5870.21 724.729   6
   0   2  10 4895.46 764.194   6
   0  -2 -10 6335.28 624.829   2
   0  -2 -10 5855.08 1066.58   5
   0  -2 -10 5479.98 574.216   1
   0  -2 -11 440.559 315.177   3
   0   2  11 517.852 300.404   6
   0  -2 -11 384.686 166.232   2
   0   2  11 139.364 129.889   2
   0  -2 -11 458.863 164.950   1
   0  -2 -12 21586.6 1286.39   2
   0   2  12 17733.1 1595.12   6
   0  -2 -12 18105.8 1210.84   1
   0   2  13 111.978 141.828   6
   0  -2 -13 120.856 208.205   1
   0  -2 -13 103.353 145.123   2
   0   2  14 4536.04 834.032   6
   0  -2 -14 4561.43 674.757   1
   0   3 -13 437.393 319.525   2
   0   3 -12 5614.59 943.260   2
   0  -3  12 4661.55 794.889   4
   0   3 -11 390.096 295.533   2
   0  -3  11-304.474 289.747   4
   0  -3  10 15981.3 1416.25   4
   0  -3  10 15459.1 732.440   6
   0   3 -10 17065.5 1399.73   7
   0   3 -10 15654.8 1505.40   2
   0  -3   9 3208.49 605.760   4
   0   3  -9 4194.24 640.644   7
   0  -3   9 3348.67 322.082   6
   0   3  -9 2766.43 607.795   2
   0  -3   8 20755.8 1511.68   4
   0   3  -8 19969.7 1323.06   7
   0   3  -8 21674.2 1616.55   2
   0  -3   8 21335.2 859.425   6
   0  -3   7 1425.65 427.397   2
   0  -3   7 1255.43 177.617   6
   0   3  -7 818.176 266.121   2
   0  -3   7 868.904 328.849   4
   0  -3   6 6837.05 877.851   2
   0   3  -6 6168.05 600.969   7
   0   3  -6 5207.63 676.023   4
   0  -3   6 6187.11 731.880   4
   0  -3   6 7088.30 391.159   6
   0   3  -5 1089.50 340.525   2
   0  -3   5 813.804 247.345   4
   0  -3   5 1094.09 131.691   6
   0   3  -5 968.580 216.862   7
   0  -3   5 1082.81 129.001   3
   0  -3   4 67001.8 1524.46   6
   0  -3   4 65796.1 1630.44   3
   0  -3   4 67494.1 2341.90   4
   0   3  -4 64130.9 1872.81   7
   0   3  -4 65455.1 2545.05   2
   0  -3   3 1134.62 138.081   6
   0  -3   3 1166.58 173.014   7
   0  -3   3 929.474 224.564   4
   0  -3   2 12129.9 780.895   4
   0   3  -2 13081.9 886.334   2
   0  -3   2 13409.9 513.544   7
   0  -3   2 12450.5 564.798   6
   0  -3   1 503.859 156.067   2
   0   3  -1 330.721 121.721   2
   0  -3   1 336.527 136.830   4
   0  -3   1 463.849 123.255   6
   0   3  -1 470.840 159.561   4
   0   3   0 77266.7 2174.63   1
   0  -3   0 79217.8 2329.47   2
   0  -3   0 82279.3 2353.25   4
   0  -3   0 80019.7 2218.70   6
   0   3   0 79141.3 2200.43   6
   0   3   0 80761.6 2265.10   2
   0   3   1 4958.07 470.513   6
   0  -3  -1 4781.12 399.517   1
   0   3   1 4732.42 394.258   1
   0  -3  -1 5105.13 475.955   6
   0   3   1 5134.52 388.963   2
   0  -3  -1 5033.28 402.766   2
   0   3   2 22219.1 911.614   1
   0   3   2 24629.4 1171.77   6
   0   3   2 24199.9 1108.11   5
   0  -3  -2 24591.0 987.739   1
   0   3   2 23606.0 792.099   2
   0  -3  -2 23355.5 1151.85   6
   0   3   3 2978.50 309.475   1
   0  -3  -3 4166.87 416.645   5
   0  -3  -3 3902.87 394.832   1
   0   3   3 4112.06 492.017   6
   0   3   3 3684.78 212.211   2
   0   3   3 3208.96 379.730   5
   0  -3  -4 107124. 3086.49   1
   0   3   4 107417. 2811.90   1
   0  -3  -4 99587.4 2951.11   5
   0   3   4 112385. 3346.40   6
   0  -3  -5 2344.56 264.613   4
   0   3   5 3209.76 353.152   1
   0   3   5 2756.81 410.642   5
   0   3   5 2793.74 459.594   6
   0  -3  -5 1982.49 352.258   5
   0   3   5 2572.53 199.505   2
   0  -3  -5 2940.51 407.112   1
   0  -3  -6 1693.68 392.243   5
   0  -3  -6 2274.21 386.400   1
   0  -3  -6 2532.56 455.446   6
   0   3   6 3100.07 290.389   2
   0   3   6 3677.82 606.607   6
   0  -3  -6 1251.19 211.154   4
   0   3   6 4270.35 584.584   5
   0  -3  -7 840.544 354.129   5
   0  -3  -7 307.754 157.121   6
   0   3   7 487.346 140.220   2
   0  -3  -7 322.381 141.554   4
   0   3   7 1002.03 330.493   6
   0   3   8 22056.7 1081.87   2
   0  -3  -8 21037.7 1245.03   4
   0  -3  -8 25504.1 1751.69   7
   0  -3  -8 24281.1 874.713   2
   0  -3  -8 24173.3 1514.11   6
   0   3   8 21999.7 1595.43   6
   0  -3  -8 22104.7 1193.45   1
   0  -3  -8 21428.7 1574.53   5
   0  -3  -9 16922.7 1299.69   6
   0  -3  -9 17493.2 1110.92   1
   0  -3  -9 20291.8 861.068   2
   0   3   9 16730.3 1449.99   6
   0  -3  -9 16181.8 1466.74   5
   0   3   9 17832.8 1054.92   2
   0  -3  -9 16423.2 1202.57   4
   0   3  10 19707.2 1214.17   2
   0  -3 -10 19424.3 1741.04   5
   0  -3 -10 22662.0 986.310   2
   0  -3 -10 19230.1 1226.08   1
   0   3  10 19159.4 1620.43   6
   0  -3 -11 3331.33 386.481   2
   0  -3 -11 3615.83 537.015   1
   0   3  11 3000.68 645.811   6
   0   3  12 13840.3 1470.28   6
   0  -3 -12 14423.8 848.974   2
   0  -3 -12 13399.1 1121.00   1
   0   3  13 772.290 359.385   6
   0  -3 -13 667.645 241.028   1
   0  -3 -14 2338.19 505.798   1
   0   3  14 2103.38 599.839   6
   0   3  15-61.6285 136.493   6
   0   4 -12 1786.49 564.753   2
   0  -4  11 500.262 304.655   4
   0   4 -11 441.503 339.750   2
   0  -4  10 24008.1 1855.82   4
   0   4 -10 26701.8 2044.91   2
   0   4  -9-247.429 191.930   2
   0   4  -9 231.837 138.459   7
   0  -4   9 146.463 174.310   4
   0  -4   8 11211.7 1139.77   4
   0   4  -8 11669.6 1261.66   2
   0   4  -7-48.0297 94.0994   7
   0  -4   7 442.553 235.377   4
   0   4  -7-230.370 306.396   2
   0  -4   6 28027.9 1939.11   2
   0  -4   6 27540.9 917.886   3
   0   4  -6 26606.7 1194.02   7
   0  -4   6 26554.1 1602.07   4
   0   4  -6 29625.9 1880.09   2
   0  -4   5 82.6687 41.7852   6
   0  -4   5 160.028 42.0781   6
   0   4  -5 135.008 164.886   4
   0  -4   5 265.115 93.1530   3
   0   4  -5 185.252 161.882   2
   0  -4   5 202.162 185.307   2
   0  -4   5 150.881 141.703   4
   0  -4   4 41311.9 1836.71   4
   0   4  -4 41313.5 2023.77   2
   0  -4   4 38435.2 1100.09   6
   0  -4   4 37013.0 1261.31   3
   0  -4   3 485.232 177.480   4
   0  -4   3 718.157 142.196   6
   0   4  -3 531.857 230.268   2
   0  -4   3 604.120 133.629   7
   0  -4   2 116702. 2960.67   6
   0  -4   2 120893. 2624.95   7
   0   4  -2 126684. 3689.90   2
   0  -4   2 123585. 3753.09   2
   0  -4   2 126730. 3523.54   4
   0  -4   1 830.578 214.346   4
   0  -4   1 802.988 242.055   2
   0   4  -1 1063.26 249.354   2
   0  -4   1 590.016 166.647   6
   0  -4   0 89064.6 2725.73   4
   0  -4   0 85854.0 2713.54   2
   0   4   0 88175.0 2530.26   6
   0   4   0 85074.8 2583.62   2
   0  -4   0 84729.6 2546.36   6
   0  -4  -1 61952.0 1983.19   1
   0   4   1 64384.6 2003.16   1
   0   4   1 61590.4 2117.55   6
   0  -4  -1 62855.6 2042.94   2
   0   4   1 60003.2 1932.23   2
   0  -4  -1 61679.9 2130.22   6
   0   4   2 146990. 3944.77   6
   0   4   2 136840. 3497.90   1
   0  -4  -2 139191. 3559.54   1
   0   4   2 141908. 3341.46   2
   0  -4  -2 147735. 3957.74   6
   0   4   3 14345.5 800.003   1
   0   4   3 15076.2 1047.98   6
   0   4   3 14151.8 921.141   5
   0   4   3 14759.0 615.727   2
   0  -4  -3 15759.5 899.347   1
   0   4   4 6070.87 283.946   2
   0   4   4 6534.41 718.911   6
   0   4   4 6505.12 632.189   5
   0  -4  -4 6491.96 622.109   1
   0   4   4 6085.65 509.888   1
   0   4   5 486.975 197.792   5
   0  -4  -5 407.307 203.486   5
   0   4   5 679.923 306.169   6
   0  -4  -5 109.822 105.872   1
   0   4   6 27352.5 1680.80   6
   0  -4  -6 23865.4 1042.01   4
   0  -4  -6 26351.3 1486.58   1
   0  -4  -6 24909.0 1352.60   5
   0   4   6 26326.2 1421.97   5
   0   4   6 28114.9 1272.27   1
   0  -4  -7 10771.1 1007.64   1
   0   4   7 1333.17 436.336   5
   0  -4  -7 1575.33 263.575   4
   0   4   7 1343.52 154.141   2
   0   4   7 1431.69 329.606   1
   0  -4  -7 1159.49 354.002   6
   0  -4  -7 10913.7 1041.96   5
   0  -4  -7 943.734 304.662   7
   0   4   7 1111.66 365.785   6
   0   4   8 54741.3 2755.93   6
   0  -4  -8 48642.4 2310.82   5
   0  -4  -8 51755.1 2225.87   1
   0  -4  -8 49641.4 1915.17   4
   0  -4  -8 57030.8 2615.07   6
   0   4   8 55272.3 1547.14   2
   0  -4  -9 248.978 193.553   5
   0   4   9-152.064 241.821   6
   0  -4  -9 173.042 260.556   1
   0   4   9 25.6379 50.4950   2
   0  -4 -10 10542.9 992.081   1
   0  -4 -10 10240.2 1155.17   5
   0   4  10 10986.6 756.810   2
   0   4  10 10568.0 1245.37   6
   0  -4 -11 638.110 289.308   5
   0  -4 -11 904.303 364.890   1
   0   4  11 535.206 319.109   6
   0   4  12 1245.24 448.573   6
   0  -4 -12 2644.90 557.711   1
   0  -4 -13 377.182 253.458   1
   0   4  13 230.672 235.923   6
   0   4  14 3525.33 813.169   6
   0  -4 -14 3340.10 685.639   1
   0   4  15 452.037 346.540   6
   0  -5  11 4.92831 234.431   4
   0   5 -11 96.6272 192.437   2
   0   5 -10 4459.99 857.434   2
   0  -5  10 4427.62 803.636   4
   0  -5   9 136.016 157.020   4
   0   5  -9 152.794 174.807   2
   0   5  -8 23956.4 1921.77   2
   0  -5   8 26194.5 1829.78   4
   0   5  -7 898.488 330.629   2
   0  -5   7 1343.76 283.761   3
   0  -5   7 777.626 277.936   4
   0  -5   6 16711.1 713.943   3
   0  -5   6 16918.9 1324.68   4
   0   5  -6 16157.1 1439.96   2
   0  -5   5 2712.10 504.257   4
   0  -5   5 2516.58 168.459   6
   0  -5   5 2786.02 310.989   3
   0   5  -5 2765.40 585.703   2
   0  -5   5 2734.74 188.484   6
   0   5  -4 61249.3 2659.44   4
   0  -5   4 58082.2 2442.89   4
   0  -5   4 57052.6 2744.62   2
   0  -5   4 57541.3 1627.12   6
   0   5  -4 58304.4 2667.34   2
   0  -5   3 8574.51 416.712   7
   0  -5   3 7687.81 538.575   6
   0   5  -3 8310.41 863.990   4
   0  -5   3 7195.68 865.560   2
   0   5  -3 9286.84 925.936   2
   0  -5   3 8066.63 797.733   4
   0  -5   2 42898.2 1573.61   6
   0  -5   2 42195.2 2096.57   2
   0   5  -2 43972.4 2045.73   2
   0  -5   2 44287.8 1970.65   4
   0  -5   2 45805.0 1155.10   7
   0  -5   1 1471.31 335.357   2
   0   5  -1 1799.71 349.413   2
   0  -5   1 1637.82 285.837   6
   0  -5   1 1003.38 253.706   4
   0  -5   0 14815.3 961.581   6
   0   5   0 16671.5 996.623   6
   0   5   0 15744.6 1019.24   2
   0  -5   0 16856.9 1132.16   2
   0  -5   0 18144.1 1156.95   4
   0  -5  -1 10363.5 773.467   1
   0  -5  -1 10673.4 845.857   6
   0   5   1 10805.5 855.699   6
   0  -5  -1 11322.3 843.544   2
   0   5   1 9764.57 738.822   2
   0  -5  -2 59532.3 2086.13   1
   0   5   2 64992.5 2418.35   6
   0   5   2 58451.1 1935.35   2
   0   5   3 25261.4 1417.72   5
   0   5   3 25126.8 1473.76   6
   0  -5  -3 24546.7 1245.49   1
   0   5   3 23773.0 983.571   2
   0   5   4 141839. 4012.67   5
   0   5   4 140629. 4375.61   6
   0   5   4 141639. 3147.23   2
   0  -5  -4 142684. 3985.29   1
   0   5   5 2064.44 456.233   6
   0   5   5 2809.69 469.425   5
   0  -5  -5 1967.42 403.025   1
   0   5   5 2140.24 341.324   1
   0   5   6 55431.1 2314.74   5
   0   5   6 54878.2 2007.55   1
   0  -5  -6 60543.0 2703.08   6
   0  -5  -6 55394.1 2420.30   1
   0   5   6 55714.9 2652.51   6
   0  -5  -7 585.632 328.042   1
   0  -5  -7 153.397 95.2936   4
   0   5   7 501.410 307.561   5
   0  -5  -7-35.6577 130.719   6
   0   5   7 793.684 262.109   1
   0   5   7 207.280 245.935   6
   0  -5  -7 21.3502 122.417   7
   0  -5  -8 16208.2 1190.88   5
   0  -5  -8 18237.3 1395.03   1
   0   5   8 20564.1 1685.85   6
   0   5   8 17897.2 1289.56   5
   0  -5  -8 17349.0 959.959   4
   0   5   8 21815.4 1250.36   1
   0  -5  -9-26.1745 132.842   5
   0  -5  -9-86.9778 138.229   1
   0   5   9-26.9070 213.242   6
   0  -5 -10 499.711 251.735   1
   0   5  10 992.507 444.917   6
   0  -5 -10 609.981 279.781   5
   0   5  11 2020.04 582.714   6
   0  -5 -11 1118.38 364.289   1
   0   5  12 7818.47 1198.07   6
   0  -5 -12 5846.94 870.788   1
   0   5  13 117.362 213.498   6
   0  -5 -13-28.4191 135.814   1
   0   5  14 3218.27 837.739   6
   0  -5 -14 4226.47 811.833   1
   0   6 -10 4360.48 878.700   2
   0  -6  10 3557.71 741.397   4
   0   6  -9 1006.82 379.256   2
   0  -6   9 981.950 410.004   4
   0  -6   8 17458.5 1572.94   4
   0   6  -8 16153.5 1622.35   2
   0  -6   7 4844.12 761.905   4
   0   6  -7 5564.86 921.023   2
   0  -6   7 5996.61 434.957   3
   0  -6   6 28744.7 1918.00   4
   0  -6   6 31809.9 1180.02   3
   0   6  -6 34424.6 2262.00   2
   0  -6   5 704.906 102.905   6
   0  -6   5 872.486 317.948   4
   0  -6   5 620.942 182.835   3
   0   6  -5 1204.50 434.997   2
   0  -6   4 7354.22 854.888   4
   0   6  -4 8261.40 987.218   2
   0  -6   4 7393.25 514.723   6
   0  -6   3 959.527 334.850   2
   0   6  -3 1087.64 316.970   1
   0  -6   3 1176.07 357.042   4
   0   6  -3 1312.75 391.082   2
   0  -6   3 1018.05 222.575   6
   0  -6   2 556.926 215.385   4
   0  -6   2 813.108 221.451   6
   0   6  -2 679.538 236.044   1
   0  -6   2 964.656 333.182   2
   0   6  -2 651.955 236.720   2
   0  -6   1 249.169 199.261   4
   0  -6   1 65.5131 104.763   6
   0  -6   1 156.827 146.987   2
   0   6  -1 81.5875 105.759   2
   0   6  -1-69.0858 140.794   1
   0   6   0 43755.4 1968.21   2
   0   6   0 46372.1 1983.56   1
   0  -6   0 42431.1 1879.21   6
   0  -6   0 47300.9 2192.42   2
   0  -6   0 48230.4 2176.28   4
   0   6   1 19593.5 1202.07   1
   0  -6  -1 18970.6 1276.80   4
   0   6   1 19132.7 1152.94   2
   0   6   1 17848.6 1214.56   6
   0   6   2 123598. 3672.76   1
   0   6   2 123196. 3973.55   6
   0  -6  -2 125675. 3655.40   1
   0  -6  -2 127715. 3965.70   6
   0   6   2 125787. 3477.99   2
   0  -6  -3 25150.2 1582.43   6
   0   6   3 23727.1 1295.30   1
   0   6   3 28713.8 1716.77   5
   0   6   3 24972.3 1147.78   2
   0   6   3 23804.9 1551.52   6
   0  -6  -3 25425.7 1362.90   1
   0   6   4 56949.9 2639.52   6
   0   6   4 55908.4 2130.01   1
   0   6   4 59156.9 1747.14   2
   0   6   4 60286.5 2471.01   5
   0  -6  -4 61101.7 2688.99   6
   0  -6  -4 59680.7 2325.26   1
   0   6   5 1512.83 377.201   5
   0   6   5 1061.52 349.867   6
   0  -6  -5 1290.37 367.740   6
   0   6   5 1196.99 261.813   1
   0  -6  -5 1037.56 280.336   1
   0   6   5 1488.51 152.582   2
   0   6   6 12910.9 1280.42   6
   0  -6  -6 13381.7 1155.38   7
   0   6   6 12832.2 1066.26   5
   0  -6  -6 13164.4 1147.65   1
   0   6   6 11050.7 830.632   1
   0   6   7 209.989 219.680   6
   0   6   7 655.756 383.374   5
   0  -6  -7 29.7574 151.022   1
   0   6   7 422.861 295.591   1
   0   6   8 8622.53 1120.78   6
   0   6   8 9431.25 960.686   5
   0  -6  -8 8385.77 1001.82   1
   0   6   9-18.4036 186.708   5
   0  -6  -9-363.586 334.728   1
   0   6   9 29.5412 187.124   6
   0  -6 -10 17988.9 1322.76   5
   0  -6 -10 19361.1 1606.55   1
   0   6  10 18971.1 1838.33   6
   0  -6 -11 69.8836 185.293   1
   0   6  11 232.078 201.819   6
   0   6  12 5768.83 1091.28   6
   0  -6 -12 6049.66 952.838   1
   0  -6 -13-559.189 326.001   1
   0   6  13 51.7640 186.422   6
   0  -6 -14 3683.40 836.729   1
   0  -7   9 75.1808 134.105   4
   0   7  -9 429.013 252.258   2
   0   7  -8 5699.94 998.702   2
   0  -7   8 6673.00 994.554   4
   0  -7   7 918.360 386.552   4
   0   7  -7 1100.83 443.973   2
   0  -7   6 8494.70 1069.48   4
   0   7  -6 7653.07 1103.28   2
   0  -7   6 8328.66 624.067   3
   0  -7   5 149.076 181.065   4
   0  -7   5 47.2442 73.8638   3
   0  -7   5 283.952 75.4531   6
   0   7  -5-94.6930 202.373   2
   0  -7   4 27672.2 1162.83   6
   0   7  -4 28795.7 1988.14   2
   0  -7   4 26708.4 1814.78   4
   0  -7   3 7147.50 636.276   6
   0   7  -3 7072.71 909.908   2
   0  -7   3 7017.76 891.184   4
   0  -7   2 20265.4 1496.62   4
   0  -7   2 18410.9 1122.82   6
   0   7  -2 19085.0 1471.97   2
   0  -7   2 19335.8 1592.41   2
   0  -7   1 2943.66 223.914   7
   0  -7   1 2727.30 567.703   2
   0  -7   1 2616.66 523.219   4
   0   7  -1 2998.64 560.218   2
   0   7   0 21315.7 1386.30   1
   0  -7   0 20381.8 1476.57   4
   0   7   0 21219.9 1399.18   2
   0  -7  -1 1187.63 329.288   6
   0   7   1 770.021 272.988   6
   0   7   1 871.725 258.261   1
   0  -7  -1 1253.52 330.919   4
   0   7   1 963.685 295.665   2
   0  -7  -2 12690.6 1011.88   1
   0   7   2 14242.0 1097.64   1
   0   7   2 12785.4 1135.32   6
   0   7   2 14788.5 1015.24   2
   0  -7  -2 14048.6 1170.09   6
   0  -7  -2 13271.2 1138.14   4
   0   7   3-206.300 207.267   1
   0   7   3 169.269 104.111   2
   0  -7  -3 376.797 221.953   6
   0   7   3 1.28349 220.924   5
   0   7   3 161.279 148.410   6
   0  -7  -3-95.9777 178.764   1
   0   7   4 4695.03 754.340   6
   0   7   4 7144.33 857.819   5
   0   7   4 6144.26 670.715   1
   0  -7  -4 6018.76 704.631   1
   0   7   4 5913.07 513.106   2
   0  -7  -4 7866.42 945.938   6
   0  -7  -5 16779.2 1259.75   1
   0   7   5 14644.4 1032.65   1
   0   7   5 15434.4 1225.76   5
   0   7   5 15961.8 696.923   2
   0   7   5 14971.6 1397.78   6
   0   7   6 7535.51 843.371   5
   0  -7  -6 7529.31 891.538   7
   0  -7  -6 7128.33 874.606   1
   0   7   6 6392.00 946.271   6
   0   7   7 1502.22 536.355   6
   0  -7  -7 872.991 405.573   1
   0  -7  -8 37257.4 2289.71   1
   0   7   8 38403.0 2554.79   6
   0   7   8 34995.3 2033.26   5
   0   7   9-28.8043 159.274   6
   0   7   9 126.617 175.055   5
   0  -7  -9 322.595 255.894   1
   0  -7 -10 16234.2 1570.17   1
   0   7  10 11563.1 1207.68   5
   0   7  10 15203.8 1708.31   6
   0  -7 -11-235.608 220.628   1
   0   7  11 17.0305 240.753   6
   0  -7 -12 2540.30 660.278   1
   0   7  12 4476.52 991.499   6
   0  -7 -13 5.74028 165.305   1
   0  -8   7 341.998 213.151   4
   0   8  -7 246.010 181.507   2
   0  -8   6 17296.9 1618.83   4
   0   8  -6 17402.3 1710.26   2
   0  -8   5 3178.87 490.949   3
   0   8  -5 3764.88 763.867   2
   0  -8   5 3656.53 730.542   4
   0  -8   4 21802.8 1727.23   4
   0  -8   4 18566.1 1276.74   3
   0   8  -4 19328.3 1700.44   2
   0   8  -3 303.564 239.518   2
   0  -8   3 38.2322 209.334   4
   0  -8   3-0.65521 56.3823   6
   0  -8   2 19600.2 1576.64   4
   0   8  -2 19451.8 1561.53   2
   0  -8   1 63.6733 130.064   4
   0  -8   1 346.470 161.101   6
   0   8  -1 85.4261 188.778   2
   0   8   0 4686.73 684.789   2
   0  -8   0 3613.33 576.769   6
   0  -8   0 4767.16 417.568   7
   0  -8   0 4776.06 740.855   4
   0  -8  -1-67.1139 113.659   6
   0   8   1 403.844 208.328   2
   0  -8  -1 420.527 265.290   4
   0   8   2 5491.10 773.517   6
   0  -8  -2 5650.88 773.354   6
   0  -8  -2 5153.75 769.444   4
   0   8   2 5656.01 672.060   2
   0  -8  -3 305.025 189.685   1
   0   8   3 193.267 143.582   2
   0   8   3 225.188 198.928   6
   0   8   3 181.258 340.991   5
   0   8   4 18300.8 1586.24   5
   0   8   4 19473.4 1064.30   2
   0  -8  -4 18110.1 1348.44   1
   0  -8  -4 18862.7 1352.56   7
   0   8   4 18724.7 1588.01   6
   0   8   5 6516.50 972.991   6
   0  -8  -5 7180.49 864.996   7
   0  -8  -5 7752.08 883.480   1
   0   8   5 8330.38 981.676   5
   0   8   5 8032.36 543.469   2
   0   8   6 16722.9 1370.27   5
   0  -8  -6 19052.4 1503.40   1
   0   8   6 17700.0 1667.76   6
   0   8   7 78.7901 151.377   5
   0   8   7-118.313 278.214   6
   0  -8  -7 47.6852 139.696   1
   0   8   8 7742.38 1161.10   6
   0   8   8 5575.76 815.553   5
   0  -8  -8 8298.71 1093.42   1
   0   8   9 515.742 257.020   5
   0  -8  -9 473.626 243.466   1
   0   8   9 472.572 312.342   6
   0   8  10 2414.72 711.441   6
   0   8  10 2242.56 552.381   5
   0  -8 -10 2157.98 584.860   1
   0  -8 -11-103.981 199.409   1
   0   8  11 297.890 389.843   6
   0  -8 -12 2688.88 722.556   1
   0  -9   6 381.287 273.092   4
   0   9  -6 202.285 218.620   2
   0  -9   5 426.823 308.085   4
   0   9  -5-280.176 358.052   2
   0  -9   4 13393.0 1433.39   4
   0   9  -4 14009.1 1485.54   2
   0  -9   4 12517.9 1122.00   3
   0  -9   3 3.01591 141.821   4
   0   9  -3-48.1790 232.274   2
   0  -9   2 12743.4 1340.19   4
   0   9  -2 12324.6 1297.48   2
   0  -9   1 736.196 273.562   4
   0   9  -1 1654.66 464.308   2
   0  -9   1 1117.78 321.085   6
   0  -9   0 4791.59 796.942   4
   0   9   0 4512.05 715.835   2
   0  -9   0 5350.13 739.642   6
   0   9   1 1909.87 434.601   2
   0  -9  -1 2075.14 526.546   4
   0  -9  -1 1828.95 442.474   6
   0   9   2 41039.3 2045.28   2
   0  -9  -2 42500.0 1887.12   7
   0   9   3-30.5594 137.266   2
   0   9   3 285.046 251.855   6
   0  -9  -3 146.932 101.024   7
   0   9   3 132.245 324.483   5
   0  -9  -3 27.7304 132.567   4
   0   9   4 20561.2 1166.69   2
   0   9   4 16069.1 1666.51   5
   0  -9  -4 18923.4 1434.57   7
   0  -9  -4 20043.7 1509.86   1
   0   9   4 19173.2 1701.24   6
   0   9   5-35.5258 218.535   5
   0  -9  -5 271.969 150.439   7
   0   9   5 39.8575 83.7660   2
   0  -9  -5-92.9118 158.825   1
   0   9   5 48.7320 177.440   6
   0  -9  -6 1402.54 419.665   1
   0   9   6 1976.86 568.324   6
   0   9   6 1621.07 492.154   5
   0   9   7 3260.61 642.167   5
   0   9   7 2829.38 737.006   6
   0  -9  -7 3509.23 703.913   1
   0  -9  -8 3759.96 768.611   1
   0   9   8 2232.37 565.185   5
   0   9   8 2257.51 664.836   6
   0   9   9-162.467 343.264   6
   0  -9  -9 357.710 281.915   1
   0   9   9-53.0863 177.040   5
   0   9  10 2756.17 637.262   5
   0   9  10 4692.34 1020.84   6
   0  -9 -10 3753.42 845.607   1
   0  -9 -11-545.739 332.015   1
   0  -9 -12 3673.50 870.912   1
   0  10  -5 936.173 415.802   2
   0 -10   4 3093.49 574.885   3
   0 -10   4 4978.71 920.664   4
   0  10  -4 3048.57 711.016   2
   0 -10   3-42.6076 213.155   4
   0  10  -3-334.961 324.502   2
   0 -10   2 3479.59 723.261   4
   0  10  -2 2973.09 677.302   2
   0  10  -1 89.6382 142.254   2
   0 -10   1 286.351 288.759   4
   0  10   0 14986.8 1381.84   2
   0 -10   0 16605.7 1569.02   4
   0  10   1 6937.44 887.823   2
   0 -10  -1 7879.35 1073.54   4
   0 -10  -2 4623.09 823.210   4
   0  10   2 6417.25 802.730   2
   0  10   3 2840.58 728.101   5
   0  10   3 3857.71 577.890   2
   0 -10  -3 3135.99 678.758   4
   0  10   4 8507.93 1168.67   6
   0  10   4 8924.37 791.137   2
   0 -10  -4 7489.39 1056.92   4
   0  10   4 7067.51 1185.21   5
   0 -10  -4 9241.10 1067.91   1
   0  10   5 210.501 268.001   5
   0  10   5-16.1597 186.041   6
   0 -10  -5 486.824 294.468   1
   0  10   6 6171.17 979.872   5
   0  10   6 7310.13 1167.68   6
   0 -10  -6 8287.51 1085.61   1
   0 -10  -7 66.0963 155.228   1
   0  10   7 20.6119 194.099   6
   0  10   8 5803.07 1109.97   6
   0 -10  -8 6178.92 1024.88   1
   0  10   8 5531.87 922.670   5
   0  10   9-149.991 191.588   5
   0  10   9 293.238 180.085   6
   0 -10  -9-259.343 256.450   1
   0 -10 -10 5706.00 1057.55   1
   0  11  -3 586.604 326.262   2
   0 -11   2 9527.73 1285.27   4
   0  11  -2 7836.05 1121.70   2
   0 -11   1 1205.11 447.607   4
   0  11  -1 1259.62 451.107   2
   0  11   0 69.5227 169.052   2
   0 -11   0 648.011 363.136   4
   0 -11  -1 16.9213 104.025   4
   0  11   1-70.9603 164.053   2
   0  11   2 2016.17 475.292   2
   0  11   2 3349.95 885.262   5
   0 -11  -2 2621.03 660.896   4
   0  11   3-90.5096 232.455   5
   0 -11  -3 230.832 206.516   4
   0 -11  -4 8167.33 1185.07   4
   0  11   4 7071.95 1257.73   5
   0  11   5-88.7930 206.484   5
   0 -11  -5-91.9313 234.076   4
   0 -11  -6 2746.80 737.376   4
   0  11   6 3309.56 819.269   6
   0 -11  -6 3447.38 732.283   1
   0  11   6 2421.85 683.573   5
   0 -11  -7 321.719 307.649   1
   0  11   7 312.702 155.351   6
   0  11   7 274.201 357.353   5
   0 -11  -8 7222.27 1134.24   1
   0  12  -1-60.1530 194.930   2
   0  12   0 2517.30 616.563   2
   0  12   2 1037.96 577.743   5
   0  12   3 1640.98 660.474   5
   0 -12  -3 1554.71 569.136   4
   0 -12  -4 1853.44 601.585   4
   0  12   4 733.862 486.098   5
   0  12   5-959.290 478.037   5
   0 -12  -5-153.441 194.110   4
  -1  12   6-14.4362 346.961   5
  -1  12   5 805.575 521.748   5
   1 -12  -5 1214.75 469.079   4
  -1  12   4-6.42575 180.351   5
   1 -12  -4 460.876 305.563   4
   1 -12  -3 1603.91 532.366   4
  -1  12   3 1330.74 667.161   5
   1 -12  -2 1930.77 567.683   4
   1 -12  -1 501.632 326.345   4
   1 -11  -9 2559.12 647.518   1
  -1  11   8 416.358 375.475   5
   1 -11  -8 212.882 246.991   1
  -1  11   7 3177.59 854.217   5
   1 -11  -7 2993.37 666.909   1
   1 -11  -6-10.6501 229.299   4
   1 -11  -6 228.540 123.108   1
  -1  11   6 468.225 391.498   5
  -1  11   5 2288.20 784.151   5
   1 -11  -5 3107.77 727.940   4
   1 -11  -4 296.792 258.861   4
  -1  11   4-44.0449 220.201   5
  -1  11   3 1359.36 655.741   5
   1 -11  -3 1541.07 498.551   4
   1 -11  -2 986.883 415.536   4
  -1  11   2 1796.44 679.957   5
  -1  11   1 2848.37 810.226   5
  -1  11   1 1948.24 466.970   2
   1 -11  -1 1623.08 509.698   4
  -1  11   0 5741.70 852.533   2
   1 -11   0 4526.16 842.501   4
   1 -11   1 6921.48 1051.29   4
   1 -11   1 4783.24 880.243   3
  -1  11  -1 7399.68 986.128   2
   1 -11   2 414.450 280.728   4
  -1  11  -2-6.18942 133.276   2
   1 -11   2 110.892 205.478   3
   1 -11   3 726.218 327.538   3
  -1  11  -3 915.819 352.294   2
   1 -10 -10 37.0995 129.370   1
   1 -10  -9 1844.87 528.259   1
  -1  10   9 1338.90 473.372   5
  -1  10   8-13.5422 141.435   5
   1 -10  -8-43.4138 200.363   1
  -1  10   8 219.346 309.104   6
  -1  10   7 2961.80 718.245   5
   1 -10  -7 2918.62 624.920   1
   1 -10  -6 419.926 260.146   1
  -1  10   6 685.975 521.649   5
   1 -10  -5 8969.75 1041.05   1
  -1  10   5 7081.62 1270.48   5
   1 -10  -5 8259.09 1097.13   4
   1 -10  -4 1116.06 403.013   4
  -1  10   4 3582.05 1000.70   5
  -1  10   3 21468.5 1235.90   2
   1 -10  -3 18156.3 1606.96   4
   1 -10  -2 767.856 345.498   4
  -1  10   2 1162.80 333.806   2
  -1  10   2 1047.03 556.048   5
  -1  10   1 8429.49 1355.75   5
   1 -10  -1 6909.73 962.013   4
  -1  10   1 6550.28 834.333   2
  -1  10   0 2175.31 499.469   2
   1 -10   0 1882.94 514.306   4
  -1  10  -1 1685.65 460.581   2
   1 -10   1 2285.95 580.444   4
   1 -10   2 1305.72 431.116   3
  -1  10  -2 1502.90 434.842   2
   1 -10   2 1953.43 527.112   4
  -1  10  -3 3890.96 759.040   2
   1 -10   3 4434.26 741.077   3
   1 -10   3 4191.53 797.677   4
  -1  10  -4-29.3292 119.824   2
   1 -10   4-40.6412 112.184   4
   1 -10   4-66.3508 210.006   3
  -1  10  -5 1181.31 422.670   2
   1 -10   5 1276.93 481.671   4
   1  -9 -12-132.255 173.158   1
  -1   9  11 1646.62 537.447   5
   1  -9 -11 1017.07 438.287   1
  -1   9  10 366.615 328.526   5
   1  -9 -10-215.976 264.078   1
   1  -9  -9 2824.06 646.156   1
  -1   9   9 1847.15 654.910   6
  -1   9   9 2417.51 603.987   5
   1  -9  -8-111.990 143.046   1
  -1   9   8-685.478 357.246   5
  -1   9   7 7217.82 1089.99   5
   1  -9  -7 8072.47 1005.10   1
  -1   9   7 7950.26 1209.40   6
  -1   9   6 383.913 293.510   5
  -1   9   6 110.741 129.238   6
   1  -9  -6 121.408 102.029   1
  -1   9   5 22700.3 1947.26   6
  -1   9   5 18650.1 1870.24   5
   1  -9  -5 22663.9 1598.67   1
   1  -9  -4 405.675 280.540   1
   1  -9  -4 278.695 312.512   4
  -1   9   3 7456.20 1267.05   5
   1  -9  -3 7972.93 991.753   4
  -1   9   3 9250.83 752.719   2
  -1   9   2 877.453 274.733   2
  -1   9   2 625.123 539.507   5
   1  -9  -2 529.689 278.341   4
  -1   9   1 5418.38 696.492   2
   1  -9  -1 4847.69 770.923   4
  -1   9   0 427.749 156.308   2
   1  -9   0 574.555 287.634   4
   1  -9   1 14754.0 1299.81   6
  -1   9  -1 12845.2 1214.83   2
   1  -9   1 13875.6 1348.15   4
   1  -9   2 1027.92 388.265   4
  -1   9  -2 307.722 137.404   2
   1  -9   3 22317.5 1773.19   4
   1  -9   3 20457.1 1539.93   3
  -1   9  -3 20206.6 1667.47   2
   1  -9   4 651.169 264.458   3
  -1   9  -4 695.238 325.098   2
   1  -9   4 597.352 305.125   4
   1  -9   5 4687.90 837.302   4
  -1   9  -5 4082.87 792.950   2
   1  -9   5 5471.74 689.153   3
  -1   9  -6 1343.25 467.820   2
   1  -9   6 456.914 269.255   4
   1  -8 -13 2810.71 712.050   1
   1  -8 -12 1393.48 474.981   1
  -1   8  11 6223.49 1164.26   6
   1  -8 -11 5987.97 978.468   1
  -1   8  10 147.813 152.967   5
  -1   8  10 14.9255 190.273   6
   1  -8 -10 218.787 207.590   1
   1  -8  -9 9514.70 1140.23   1
  -1   8   9 8932.53 1311.15   6
  -1   8   9 7123.92 1039.29   5
  -1   8   8 545.268 295.758   6
   1  -8  -8 167.016 186.452   1
  -1   8   8 214.938 230.816   5
  -1   8   7 7422.83 1009.71   5
  -1   8   7 7989.30 1152.39   6
   1  -8  -7 9313.62 1020.75   1
  -1   8   6 321.837 280.733   5
  -1   8   6 7.97579 162.544   6
   1  -8  -6-134.795 174.722   1
  -1   8   5 360.660 228.719   6
  -1   8   5 1025.73 410.125   5
   1  -8  -5 663.316 244.223   1
   1  -8  -5 980.262 346.172   7
   1  -8  -4 29.6148 129.333   7
   1  -8  -4 64.7385 188.749   1
  -1   8   4 70.2411 77.5878   2
  -1   8   4-33.9229 183.797   6
   1  -8  -3 7411.42 805.888   1
  -1   8   3 8947.32 671.156   2
   1  -8  -3 7327.55 883.729   4
  -1   8   3 6285.47 1078.68   5
   1  -8  -3 7694.87 793.194   7
  -1   8   2 6227.23 1057.91   5
  -1   8   2 6255.16 645.751   2
   1  -8  -2 6522.94 830.222   4
   1  -8  -2 6728.08 664.806   7
  -1   8   1 14469.2 1087.38   2
   1  -8  -1 15441.9 1298.98   2
   1  -8  -1 15770.5 871.361   7
   1  -8  -1 14039.0 1232.51   4
   1  -8  -1 14015.5 1288.15   6
   1  -8   0-68.7117 146.767   6
   1  -8   0 141.092 172.951   4
  -1   8   0-56.9475 134.687   2
   1  -8   0 140.438 160.480   2
   1  -8   0 54.4167 29.7234   7
   1  -8   1 32032.1 1877.37   6
  -1   8  -1 33719.7 1904.10   2
   1  -8   1 32767.0 1979.74   4
   1  -8   2 5720.02 800.516   4
   1  -8   2 4059.03 616.064   6
  -1   8  -2 3810.75 637.176   2
   1  -8   3 22326.0 1655.42   4
  -1   8  -3 21821.9 1636.61   2
   1  -8   3 20749.0 1440.89   3
   1  -8   3 17164.2 1256.04   6
  -1   8  -4 2.65679 142.843   2
   1  -8   4 37.8036 82.6213   3
   1  -8   4-170.358 167.101   4
  -1   8  -5 9712.79 1172.11   2
   1  -8   5 8868.08 1074.95   4
   1  -8   5 9509.47 867.955   3
  -1   8  -6-1.58699 187.184   2
   1  -8   6-101.227 88.3261   3
   1  -8   6-326.505 259.850   4
   1  -8   7 2545.86 591.405   4
  -1   8  -7 2959.76 724.632   2
   1  -8   8 386.557 270.428   4
   1  -7 -13 5125.63 948.270   1
  -1   7  12 450.759 281.360   6
   1  -7 -12 411.338 280.047   1
   1  -7 -11 3338.00 705.064   1
  -1   7  11 4440.57 938.796   6
   1  -7 -10 9.96578 122.198   1
  -1   7  10 117.936 225.320   5
  -1   7  10 133.394 201.657   6
  -1   7   9 13502.4 1549.12   6
  -1   7   9 11740.4 1281.48   5
   1  -7  -9 12928.7 1282.18   1
   1  -7  -8 1356.66 411.210   1
  -1   7   8 859.472 385.810   6
  -1   7   8 678.603 285.743   5
  -1   7   7 1125.64 391.410   5
   1  -7  -7 596.527 247.696   1
  -1   7   7 418.010 215.956   6
  -1   7   6-166.174 230.553   6
  -1   7   6 214.108 217.256   5
   1  -7  -6 120.777 157.453   7
   1  -7  -6 129.190 157.995   1
  -1   7   6-82.3065 115.954   1
  -1   7   5 13487.3 1345.27   6
   1  -7  -5 13187.1 1050.98   1
  -1   7   5 14258.7 1341.72   5
  -1   7   5 13928.2 1017.60   1
   1  -7  -5 12840.4 1161.66   7
  -1   7   4 1441.21 362.994   1
   1  -7  -4 1112.35 290.395   1
   1  -7  -4 1692.40 393.332   7
  -1   7   4 1233.15 178.181   2
  -1   7   4 896.848 347.662   6
  -1   7   4 1030.86 503.531   5
   1  -7  -3 41707.3 2342.80   6
   1  -7  -3 40253.8 1863.40   1
   1  -7  -3 42017.8 1917.77   7
  -1   7   3 46555.1 2725.63   5
  -1   7   3 39512.6 1438.22   2
  -1   7   3 38979.4 1872.59   1
  -1   7   3 39410.0 2244.28   6
  -1   7   2 112.940 322.864   5
   1  -7  -2 5.92665 105.278   6
   1  -7  -2 209.096 134.910   4
  -1   7   2 223.722 124.462   2
   1  -7  -2 148.399 100.637   2
   1  -7  -2 119.514 132.904   7
  -1   7   2 93.2072 77.7235   1
  -1   7   1 24506.0 1334.86   2
   1  -7  -1 23745.9 1620.84   6
  -1   7   1 24264.7 1475.60   1
   1  -7  -1 22835.4 1481.56   2
   1  -7  -1 24655.5 1132.04   7
   1  -7  -1 24472.4 1546.99   4
   1  -7   0 657.322 266.200   2
   1  -7   0 289.163 75.1914   7
   1  -7   0 278.158 171.501   6
  -1   7   0 264.725 112.230   2
   1  -7   0 706.442 269.603   4
  -1   7   0 836.429 276.116   1
   1  -7   1 1694.95 394.951   6
  -1   7  -1 1256.19 343.308   1
   1  -7   1 1888.31 446.506   2
  -1   7  -1 902.830 276.691   2
   1  -7   1 1438.68 381.823   4
   1  -7   2 3476.39 573.989   4
   1  -7   2 2514.66 557.662   2
  -1   7  -2 3227.38 542.893   2
  -1   7  -3 13848.0 1231.79   2
   1  -7   3 13818.3 1067.20   3
   1  -7   3 12750.1 1162.21   4
   1  -7   4 571.395 203.689   3
   1  -7   4 506.936 192.276   6
  -1   7  -4 794.259 308.504   2
   1  -7   4 887.919 329.246   4
   1  -7   5 16146.4 1384.86   4
   1  -7   5 15368.4 1011.71   3
   1  -7   5 15597.2 995.599   6
  -1   7  -5 15216.8 1415.72   2
   1  -7   6 1996.88 335.074   3
  -1   7  -6 1215.30 395.604   2
   1  -7   6 1844.94 473.629   4
  -1   7  -7 12542.1 1379.22   2
   1  -7   7 12804.9 1308.29   4
   1  -7   7 12590.8 826.153   3
  -1   7  -8 380.706 291.165   2
   1  -7   8 135.641 179.776   4
  -1   7  -9 2039.88 588.200   2
   1  -7   9 2306.58 596.083   4
   1  -6 -14 74.8255 144.952   1
   1  -6 -13 3027.50 725.561   1
  -1   6  13 3223.25 829.026   6
   1  -6 -12-67.3009 239.579   1
  -1   6  12-2.10741 202.208   6
  -1   6  11 7148.52 1168.84   6
   1  -6 -11 5318.87 831.894   1
  -1   6  10-181.631 227.948   6
   1  -6 -10-24.5213 153.082   1
   1  -6  -9 6838.38 880.098   1
  -1   6   9 5810.05 865.559   5
  -1   6   9 7535.72 1102.05   6
   1  -6  -8 2852.68 572.525   5
  -1   6   8 3204.25 626.220   5
  -1   6   8 2683.02 630.503   6
   1  -6  -8 3870.91 638.716   1
   1  -6  -8 2910.93 392.353   4
  -1   6   7 34627.8 1600.23   1
  -1   6   7 33183.6 2191.42   6
   1  -6  -7 28211.0 1260.73   4
  -1   6   7 31836.6 2015.56   5
   1  -6  -7 33725.8 1865.46   1
   1  -6  -6 400.939 215.565   7
   1  -6  -6 526.829 208.620   1
  -1   6   6 346.834 155.390   1
  -1   6   6 363.532 251.616   6
  -1   6   6 379.697 205.562   5
   1  -6  -5 73644.3 3231.22   6
  -1   6   5 67166.6 2959.18   5
  -1   6   5 64136.8 2990.96   6
   1  -6  -5 68880.1 2537.91   1
  -1   6   5 61843.7 2265.99   1
   1  -6  -5 69901.6 2834.27   7
  -1   6   4 2639.62 588.787   5
   1  -6  -4 2136.81 503.635   6
  -1   6   4 2163.07 509.938   6
  -1   6   4 2317.41 462.711   1
   1  -6  -4 1593.54 328.753   1
  -1   6   4 2752.88 196.053   2
   1  -6  -4 2330.50 426.743   7
  -1   6   3 59227.4 2657.90   6
  -1   6   3 56861.8 2166.63   1
  -1   6   3 57141.3 1664.53   2
   1  -6  -3 64381.0 2833.84   6
   1  -6  -3 59553.5 2289.05   7
   1  -6  -3 57856.9 2157.20   1
  -1   6   3 65296.0 2994.00   5
   1  -6  -2 236.704 142.011   1
   1  -6  -2 137.111 93.8819   7
  -1   6   2 179.234 93.2219   2
  -1   6   2 85.2971 72.1371   1
  -1   6   2 480.108 183.211   6
   1  -6  -2 111.132 57.0338   2
   1  -6  -2 122.243 115.294   6
  -1   6   2 427.024 338.882   5
   1  -6  -1 113.969 80.5243   7
  -1   6   1 68.4639 90.0776   2
  -1   6   1 104.359 66.3907   1
   1  -6  -1 120.564 127.327   6
   1  -6  -1-138.524 177.650   4
   1  -6  -1 59.3519 79.5325   2
  -1   6   0 6032.89 632.098   2
  -1   6   0 5914.17 648.949   1
   1  -6   0 6010.34 395.690   7
   1  -6   0 5887.76 694.243   2
   1  -6   0 5678.06 668.897   4
   1  -6   1 28775.1 1682.53   2
   1  -6   1 30508.1 1616.99   4
  -1   6  -1 28583.4 1527.38   1
  -1   6  -1 27139.0 1516.66   2
  -1   6  -2 8144.26 804.934   1
   1  -6   2 8424.59 929.074   2
   1  -6   2 8694.10 799.479   6
   1  -6   2 8394.10 834.707   4
  -1   6  -2 8365.05 854.803   2
   1  -6   3 26021.7 1775.24   2
  -1   6  -3 25377.7 1616.06   2
  -1   6  -3 24404.0 1504.50   1
   1  -6   3 25189.6 1522.33   4
   1  -6   3 23778.7 1329.15   6
  -1   6  -3 26473.4 1696.89   4
   1  -6   3 23485.8 1326.21   3
   1  -6   4 374.408 133.004   3
  -1   6  -4 506.906 244.843   2
   1  -6   4 309.168 179.684   4
   1  -6   4 228.154 135.896   6
   1  -6   5 14981.8 898.503   3
   1  -6   5 16135.6 1297.16   4
   1  -6   5 14473.9 910.960   6
  -1   6  -5 14081.0 1305.23   2
   1  -6   6 1.12289 211.740   4
  -1   6  -6-85.2326 229.062   2
   1  -6   6-15.8894 95.4600   3
   1  -6   6 279.691 127.327   6
  -1   6  -7 12328.1 1320.02   2
   1  -6   7 12213.6 787.426   3
   1  -6   7 12676.3 713.200   6
   1  -6   7 11357.8 1177.67   4
   1  -6   8 510.966 303.096   4
  -1   6  -8 108.516 196.950   2
   1  -6   9 6219.52 937.880   4
  -1   6  -9 6958.56 1061.02   2
  -1   6 -10 434.499 266.214   2
   1  -6  10 576.221 312.935   4
   1  -5 -14-61.9500 183.578   1
  -1   5  14 504.677 356.891   6
   1  -5 -13 5727.31 949.523   1
  -1   5  13 6148.29 1093.14   6
   1  -5 -12 124.990 121.820   1
  -1   5  12 251.462 237.385   6
  -1   5  11 3992.38 839.312   6
   1  -5 -11 3321.75 655.364   1
   1  -5 -10 652.184 273.303   1
  -1   5  10 700.069 376.331   6
  -1   5   9 27675.3 2076.07   6
   1  -5  -9 25547.1 1830.31   5
   1  -5  -9 29770.2 1811.31   1
   1  -5  -8 772.653 212.945   4
  -1   5   8 363.185 203.247   5
   1  -5  -8 523.631 220.164   1
  -1   5   8 760.578 379.394   6
   1  -5  -8 840.773 335.396   5
  -1   5   7 49548.6 2617.62   6
   1  -5  -7 42793.5 2242.08   5
   1  -5  -7 51859.9 2274.02   1
  -1   5   7 47105.5 2439.17   5
   1  -5  -7 45747.6 1652.83   4
   1  -5  -7 50943.1 2585.03   7
   1  -5  -6 4852.89 681.188   5
  -1   5   6 3752.49 652.509   5
   1  -5  -6 4194.15 703.170   6
  -1   5   6 3707.38 647.072   6
   1  -5  -6 3876.74 392.949   4
   1  -5  -6 4136.35 551.038   1
  -1   5   6 4862.49 522.475   1
   1  -5  -6 4159.41 641.946   7
   1  -5  -5 19947.8 1179.94   1
   1  -5  -5 19909.4 1379.43   7
  -1   5   5 18910.2 1423.22   6
  -1   5   5 19633.6 1420.96   5
   1  -5  -5 21122.2 1559.93   6
  -1   5   4 1948.72 441.110   6
   1  -5  -4 2227.73 419.417   7
   1  -5  -4 1825.19 327.176   1
  -1   5   4 2082.58 503.729   5
   1  -5  -3 26118.5 1380.83   7
  -1   5   3 26297.4 1649.04   5
  -1   5   3 25114.2 1550.11   6
   1  -5  -3 26085.7 1224.76   1
  -1   5   3 26038.5 824.767   2
   1  -5  -2 4121.28 435.257   2
  -1   5   2 4936.87 661.500   6
  -1   5   2 4268.69 383.880   2
   1  -5  -2 4195.70 466.530   7
   1  -5  -2 4244.83 464.614   1
  -1   5   2 3200.50 611.552   5
   1  -5  -1 195328. 4976.36   4
   1  -5  -1 192032. 4501.28   7
   1  -5  -1 189207. 4796.53   2
  -1   5   1 199820. 4645.46   2
  -1   5   0 2727.48 385.586   2
   1  -5   0 2729.60 416.051   4
   1  -5   0 2016.47 380.640   6
   1  -5   0 2154.47 369.065   2
   1  -5   0 2485.89 244.945   7
   1  -5   1 20625.9 1289.44   2
   1  -5   1 23745.8 1311.99   6
   1  -5   1 22920.1 1261.24   4
  -1   5  -1 22958.5 1277.30   2
   1  -5   2 506.143 199.310   4
  -1   5  -2 700.898 212.671   2
   1  -5   2 738.772 210.269   6
  -1   5  -2 952.232 267.616   4
   1  -5   2 747.591 276.176   2
  -1   5  -2 741.301 225.522   1
   1  -5   3 110925. 3220.68   3
   1  -5   3 109891. 3880.46   2
  -1   5  -3 110590. 3666.25   2
   1  -5   3 115954. 3556.61   4
   1  -5   3 114743. 3287.12   6
  -1   5  -3 118165. 3781.33   4
   1  -5   4 279.474 129.051   3
   1  -5   4 151.820 144.011   4
   1  -5   4 294.370 129.905   6
  -1   5  -4 395.615 235.909   2
   1  -5   4 293.600 195.309   2
  -1   5  -4 283.317 168.080   4
   1  -5   5 31815.7 1755.55   4
  -1   5  -5 32835.3 1931.34   4
   1  -5   5 32110.9 1260.52   3
   1  -5   5 33230.0 1394.29   6
  -1   5  -5 30213.8 1833.37   2
   1  -5   6 452.631 135.823   3
  -1   5  -6-160.961 248.446   2
   1  -5   6 245.834 204.292   4
   1  -5   6 265.958 116.420   6
   1  -5   7 3910.66 466.809   3
   1  -5   7 4745.91 728.865   4
   1  -5   7 4115.67 414.378   6
   1  -5   7 4546.74 431.832   6
  -1   5  -7 4102.89 733.517   2
   1  -5   8 154.738 161.176   4
   1  -5   8 122.669 74.8018   6
  -1   5  -8 258.791 109.426   7
  -1   5  -8-175.358 237.197   2
   1  -5   8 110.629 73.8598   6
  -1   5  -9 11898.0 1335.71   2
   1  -5   9 10948.0 1221.36   4
   1  -5  10 424.451 278.925   4
  -1   5 -10 251.665 252.947   2
   1  -5  11 3938.29 775.957   4
  -1   5 -11 4739.79 889.441   2
   1  -4 -14 823.897 391.758   1
  -1   4  14 47.8465 136.038   6
  -1   4  13 5154.31 989.055   6
   1  -4 -13 7808.53 1065.69   1
  -1   4  12 394.611 231.829   6
   1  -4 -12 858.272 364.495   1
  -1   4  11 7963.04 1123.94   6
   1  -4 -11 6483.02 853.895   1
  -1   4  10 11406.5 1306.09   6
   1  -4 -10 11329.0 1033.05   1
  -1   4   9 22049.5 1746.75   6
   1  -4  -9 20633.6 1335.02   4
   1  -4  -9 17892.7 1574.54   5
   1  -4  -9 20653.2 1357.65   1
   1  -4  -8 2670.17 556.523   5
  -1   4   8 3499.60 664.362   6
   1  -4  -8 3782.17 490.959   4
   1  -4  -8 3687.05 547.204   1
  -1   4   7 5434.82 792.019   6
   1  -4  -7 5794.18 657.856   1
   1  -4  -7 4833.11 697.331   5
  -1   4   7 6277.84 810.907   5
   1  -4  -7 7121.48 869.183   6
   1  -4  -7 5229.71 501.172   4
   1  -4  -7 6481.90 874.448   7
   1  -4  -6 27055.4 1685.64   7
   1  -4  -6 24620.9 1018.15   4
   1  -4  -6 27018.2 1695.45   6
   1  -4  -6 26069.8 1399.63   1
  -1   4   6 24730.0 1625.04   6
   1  -4  -6 21512.4 1457.47   5
  -1   4   6 23506.8 1586.22   5
   1  -4  -5 4830.67 531.534   1
  -1   4   5 4634.02 653.537   5
   1  -4  -5 4656.93 637.759   7
   1  -4  -5 3751.47 557.286   5
  -1   4   5 4876.77 670.595   6
  -1   4   4 6611.35 680.435   1
  -1   4   4 2018.80 418.742   6
   1  -4  -4 2983.58 476.647   7
   1  -4  -4 2280.64 358.905   1
  -1   4   4 5244.71 774.668   5
   1  -4  -3 241795. 5419.76   1
  -1   4   3 245210. 6187.87   6
   1  -4  -3 245515. 5856.92   7
  -1   4   3 233673. 5382.77   1
  -1   4   3 238803. 6238.92   5
  -1   4   2 29227.6 923.322   2
  -1   4   2 26445.2 1118.30   1
   1  -4  -2 29533.8 1057.10   2
   1  -4  -2 29379.8 1281.51   7
   1  -4  -2 28439.6 1160.62   1
  -1   4   2 28892.2 1495.57   6
  -1   4   2 27308.6 1574.67   5
   1  -4  -1 45174.2 1564.47   2
  -1   4   1 45020.4 1594.91   1
   1  -4  -1 44680.7 1519.46   7
   1  -4  -1 47832.7 1969.64   6
  -1   4   1 47635.9 1492.59   2
   1  -4  -1 48079.0 1613.00   1
   1  -4   0 1436.19 170.542   7
   1  -4   0 1664.71 294.204   4
   1  -4   0 1601.04 315.069   6
   1  -4   0 1336.19 247.706   2
  -1   4   0 1560.31 254.097   1
  -1   4   0 1418.48 233.780   2
   1  -4   1 161033. 4093.68   4
   1  -4   1 156217. 4248.91   2
   1  -4   1 169142. 4277.82   6
  -1   4  -1 154051. 4004.36   1
  -1   4  -1 170358. 4204.80   2
   1  -4   2 729.681 184.877   4
  -1   4  -2 969.249 229.304   4
   1  -4   2 828.733 204.779   6
  -1   4  -2 1097.90 238.660   2
   1  -4   2 968.182 247.044   2
   1  -4   3 225428. 5269.03   3
   1  -4   3 235705. 6091.88   2
  -1   4  -3 234409. 5875.27   2
   1  -4   3 227258. 5615.84   4
  -1   4  -4 2149.56 408.518   2
  -1   4  -4 3417.69 524.128   4
   1  -4   4 3113.40 341.588   3
   1  -4   4 2817.41 446.777   4
   1  -4   5 11869.9 1143.61   2
   1  -4   5 11480.1 631.248   3
  -1   4  -5 11662.8 563.652   7
  -1   4  -5 13337.0 1093.34   4
  -1   4  -5 11663.5 1038.94   2
   1  -4   5 11558.1 946.639   4
  -1   4  -6 60.3941 119.584   4
  -1   4  -6-52.4140 235.080   2
   1  -4   6 87.7703 69.1378   6
   1  -4   6 284.394 225.879   2
   1  -4   6 522.438 274.890   4
   1  -4   6 103.511 114.302   3
  -1   4  -6 361.351 111.634   7
  -1   4  -7 27033.7 1274.87   7
   1  -4   7 32060.7 1274.42   6
  -1   4  -7 30456.6 1888.67   2
   1  -4   7 30182.3 1796.06   4
   1  -4   7 31725.9 1754.28   3
   1  -4   8 151.292 183.563   3
  -1   4  -8 330.643 265.782   2
   1  -4   8 122.752 213.063   4
   1  -4   8 193.201 117.240   6
  -1   4  -8 270.759 139.488   7
   1  -4   9 28812.2 1941.11   4
  -1   4  -9 29304.7 2048.86   2
   1  -4   9 28514.0 1203.76   6
   1  -4  10 857.129 321.828   4
  -1   4 -10 973.594 421.687   2
   1  -4  11 7295.13 1007.64   4
  -1   4 -11 6910.84 1067.32   2
   1  -4  12-285.428 260.507   4
  -1   4 -12 77.1712 160.550   2
   1  -3 -14 571.421 305.372   1
  -1   3  14 1158.80 441.180   6
  -1   3  13 5063.77 913.244   6
   1  -3 -13 9928.73 1095.98   1
  -1   3  12 2732.51 650.169   6
   1  -3 -12 1571.20 412.327   1
   1  -3 -11 7395.13 816.757   1
   1  -3 -11 6915.22 569.243   2
  -1   3  11 6819.27 993.213   6
   1  -3 -10-29.9701 71.0722   2
   1  -3 -10 123.825 127.313   1
  -1   3  10 180.542 118.584   6
  -1   3   9 365.565 191.758   6
   1  -3  -9 546.231 353.812   5
   1  -3  -9 681.859 282.253   6
   1  -3  -9 729.809 163.436   2
   1  -3  -9 563.588 205.849   1
  -1   3   8 2948.51 571.831   6
   1  -3  -8 3220.68 681.779   5
   1  -3  -8 3243.85 458.910   1
   1  -3  -8 3252.95 301.931   2
   1  -3  -8 3295.37 494.826   4
   1  -3  -8 3501.85 588.786   6
   1  -3  -7 23144.5 1240.14   4
   1  -3  -7 24707.0 1570.94   6
   1  -3  -7 26718.5 865.258   2
   1  -3  -7 22951.5 1196.28   1
  -1   3   7 24890.0 1623.33   6
   1  -3  -7 26784.6 1760.25   7
   1  -3  -7 21020.7 1617.72   5
   1  -3  -6 6347.65 742.091   6
   1  -3  -6 5457.08 267.706   2
   1  -3  -6 5221.19 725.140   5
   1  -3  -6 4897.87 470.134   4
  -1   3   6 5006.31 682.326   6
   1  -3  -6 5517.05 552.568   1
  -1   3   6 4825.09 666.068   5
  -1   3   5 55036.2 2397.88   5
  -1   3   5 55866.7 2321.16   6
   1  -3  -5 56147.9 2343.28   6
   1  -3  -5 53344.8 1891.69   1
  -1   3   5 61419.4 1736.82   1
   1  -3  -5 53638.4 1628.12   4
   1  -3  -5 52367.0 2323.20   5
   1  -3  -4 14042.1 1037.14   5
   1  -3  -4 13187.4 614.979   4
  -1   3   4 14896.9 1056.84   6
   1  -3  -4 16089.6 877.631   1
  -1   3   4 16711.7 1188.73   5
  -1   3   4 15399.6 750.894   1
   1  -3  -4 15120.3 1048.48   7
  -1   3   3 50802.1 1612.27   1
   1  -3  -3 55760.6 1686.96   1
  -1   3   3 55497.9 2129.69   6
   1  -3  -3 49827.5 2002.69   5
   1  -3  -3 54562.6 2008.02   7
  -1   3   2 35050.7 1684.65   5
   1  -3  -2 38281.9 1062.09   2
  -1   3   2 37344.1 1260.44   1
  -1   3   2 41687.6 1694.37   6
   1  -3  -2 40739.8 1517.59   7
  -1   3   2 43135.4 984.473   2
   1  -3  -2 37677.3 1257.26   1
  -1   3   1 137814. 4059.83   5
   1  -3  -1 159738. 3534.56   1
   1  -3  -1 161021. 4093.98   6
  -1   3   1 148733. 3477.46   1
   1  -3  -1 148786. 3444.81   2
   1  -3  -1 159948. 3612.67   7
  -1   3   1 153220. 3332.86   2
  -1   3   0 2201.25 263.247   1
   1  -3   0 2428.73 214.446   7
   1  -3   0 2514.16 355.844   6
   1  -3   0 2397.60 288.331   4
  -1   3   0 3362.06 404.551   2
   1  -3   0 2730.91 326.680   2
  -1   3  -1 9802.27 641.762   2
   1  -3   1 7980.36 614.184   2
   1  -3   1 8688.54 573.793   4
   1  -3   1 9128.42 648.805   6
  -1   3  -1 8018.30 585.016   4
   1  -3   2 57.9666 68.9924   4
  -1   3  -2-182.089 170.521   2
   1  -3   2 18.1450 69.4467   3
   1  -3   2 25.9742 69.3827   2
  -1   3  -2 123.012 110.399   4
  -1   3  -3 4038.46 495.195   2
   1  -3   3 3746.40 345.995   3
  -1   3  -3 3883.56 209.305   7
   1  -3   3 3748.87 436.499   4
  -1   3  -3 3528.79 441.796   4
   1  -3   4 108.086 153.169   4
  -1   3  -4 367.305 97.9095   7
  -1   3  -4 490.544 174.657   2
   1  -3   4 565.292 132.656   3
  -1   3  -5 569689. 12563.2   2
  -1   3  -5 584128. 12516.3   4
  -1   3  -5 568639. 11600.3   7
   1  -3   5 589598. 11470.0   3
   1  -3   5 591393. 12405.7   4
   1  -3   6 1932.66 412.499   4
  -1   3  -6 1371.26 378.419   2
   1  -3   6 954.573 314.328   2
  -1   3  -6 1777.12 404.634   4
   1  -3   6 1536.80 267.586   6
   1  -3   6 1809.28 399.565   3
  -1   3  -6 1303.63 245.957   7
   1  -3   7 26416.7 1174.53   6
  -1   3  -7 25366.3 1346.14   7
  -1   3  -7 27186.6 1658.08   4
   1  -3   7 29174.3 1808.38   3
   1  -3   7 26704.9 1845.06   2
  -1   3  -7 25462.3 1629.72   2
   1  -3   7 26259.4 1587.32   4
   1  -3   8 796.700 316.893   4
   1  -3   8 407.795 153.563   6
  -1   3  -8 487.503 286.126   2
   1  -3   9 17126.7 1003.16   6
  -1   3  -9 18657.3 1519.88   2
  -1   3  -9 17703.9 1315.82   7
   1  -3   9 19894.6 1503.71   4
   1  -3  10 185.389 155.820   4
  -1   3 -10 1489.51 444.450   2
  -1   3 -10 979.700 328.768   7
   1  -3  10 557.717 191.816   6
  -1   3 -11 9339.43 1161.39   2
   1  -3  11 9064.63 1084.93   4
   1  -3  12 386.224 225.052   4
  -1   3 -12 154.060 143.731   2
  -1   3 -13 2045.75 584.832   2
   1  -2 -14-128.750 153.452   1
   1  -2 -13 8212.30 919.169   1
  -1   2  13 7151.57 1018.40   6
  -1   2  12 2318.94 572.938   6
   1  -2 -12 2904.88 472.230   1
   1  -2 -12 2721.76 457.346   2
  -1   2  11 693.801 285.109   6
   1  -2 -11 658.513 250.440   1
   1  -2 -11 852.915 287.992   2
   1  -2 -10 19103.6 1395.83   6
  -1   2  10 20030.4 1586.82   6
   1  -2 -10 22416.8 1258.54   2
   1  -2 -10 19636.0 1174.34   1
   1  -2  -9 23235.1 1211.99   2
  -1   2   9 22459.4 1598.28   6
   1  -2  -9 24765.2 2110.13   5
   1  -2  -9 22807.8 1180.91   1
   1  -2  -9 22683.4 1500.11   6
   1  -2  -9 24267.0 1525.26   4
   1  -2  -8 9137.45 690.831   2
   1  -2  -8 10673.4 1149.56   7
   1  -2  -8 8864.83 840.168   4
   1  -2  -8 8420.76 861.706   6
  -1   2   8 7425.04 863.514   6
   1  -2  -8 8580.05 1121.45   5
   1  -2  -8 8472.57 640.231   1
   1  -2  -7 91910.1 2991.01   4
   1  -2  -7 100802. 3704.35   7
  -1   2   7 90539.7 3297.87   6
   1  -2  -7 96084.8 2639.89   1
   1  -2  -7 95352.1 2611.40   2
   1  -2  -7 94412.2 3238.61   6
   1  -2  -7 91727.3 3785.20   5
   1  -2  -6 6902.31 610.414   4
   1  -2  -6 6841.82 475.926   2
  -1   2   6 6680.95 728.277   6
   1  -2  -6 6597.22 820.507   5
   1  -2  -6 6957.76 718.190   6
   1  -2  -6 6960.33 508.197   1
   1  -2  -5 43231.8 1405.00   1
   1  -2  -5 42649.0 2079.76   5
  -1   2   5 42373.0 2019.11   5
   1  -2  -5 42912.4 1279.34   2
   1  -2  -5 43704.2 1872.77   6
   1  -2  -5 42323.0 1517.59   4
  -1   2   5 43857.2 1875.17   6
   1  -2  -4 67295.7 1923.99   4
   1  -2  -4 70309.5 1756.58   2
   1  -2  -4 97536.7 3134.39   5
  -1   2   4 79930.2 2846.90   5
   1  -2  -4 67393.4 2464.10   6
  -1   2   4 71746.0 2481.40   6
   1  -2  -3 120.085 109.878   7
   1  -2  -3 192.586 138.970   1
  -1   2   3 100.616 89.3840   6
   1  -2  -3 168.982 55.0462   4
  -1   2   3 309.000 164.323   7
  -1   2   3 180.258 71.5897   1
  -1   2   3 445.557 241.489   5
   1  -2  -3 452.130 238.218   5
   1  -2  -3 391.740 152.857   6
   1  -2  -2 9007.33 299.100   2
   1  -2  -2 10166.7 673.697   7
   1  -2  -2 10040.2 475.707   1
  -1   2   2 9978.89 700.793   6
  -1   2   2 9514.65 612.656   7
  -1   2   2 9111.37 777.023   5
  -1   2   2 9514.16 474.026   1
   1  -2  -2 8549.01 680.718   5
  -1   2   1 28819.2 1016.85   7
   1  -2  -1 28832.7 869.320   1
  -1   2   1 27053.8 844.784   1
   1  -2  -1 28733.2 1037.62   7
  -1   2   1 29513.0 760.086   2
   1  -2  -1 27103.6 812.900   2
   1  -2   0 240.065 72.5587   4
  -1   2   0 189.014 66.4495   1
   1  -2   0-103.693 111.394   2
  -1   2   0 285.984 113.005   2
  -1   2   0 47.8548 49.9928   7
   1  -2   0 39.4859 34.7776   7
   1  -2   1 294006. 6347.94   2
   1  -2   1 295252. 6231.93   3
  -1   2  -1 291397. 6205.03   4
  -1   2  -1 306119. 6313.94   2
   1  -2   1 305238. 6162.97   4
  -1   2  -2-62.5051 110.969   2
   1  -2   2 15.1343 77.2674   4
   1  -2   2-14.5096 60.2958   2
   1  -2   2 77.2188 61.0944   3
  -1   2  -2 24.9813 61.1428   4
  -1   2  -3 561278. 11861.3   4
   1  -2   3 587287. 11381.1   3
   1  -2   3 596036. 11842.3   4
  -1   2  -3 589419. 11997.2   2
  -1   2  -4 444.899 120.502   7
   1  -2   4 273.508 149.604   4
  -1   2  -4 498.080 205.598   2
   1  -2   4 576.377 161.678   3
   1  -2   5 6704.11 667.132   3
  -1   2  -5 6353.59 664.925   2
  -1   2  -5 6528.01 563.000   7
   1  -2   5 7649.94 540.849   6
   1  -2   5 6552.56 646.052   4
  -1   2  -6 295.255 153.715   7
   1  -2   6 578.839 239.426   2
   1  -2   6 380.637 141.956   6
   1  -2   6 203.323 190.495   3
  -1   2  -6 252.364 167.421   2
   1  -2   6 110.420 123.502   4
  -1   2  -7 13142.0 1060.85   2
  -1   2  -7 12965.6 1064.59   4
   1  -2   7 13255.9 1041.09   4
   1  -2   7 13878.5 1214.15   2
   1  -2   7 14066.4 854.053   6
  -1   2  -7 13480.9 1003.44   7
  -1   2  -8 273.162 266.912   2
   1  -2   8-67.1097 99.7621   6
   1  -2   8 101.481 179.376   4
   1  -2   8 198.626 167.519   2
  -1   2  -9 15318.3 1262.05   7
  -1   2  -9 14698.6 1247.42   2
   1  -2   9 14376.2 1203.60   4
   1  -2   9 13717.1 968.442   6
   1  -2  10 123.231 138.214   6
  -1   2 -10 362.603 243.776   2
   1  -2  10-175.260 257.352   4
  -1   2 -10 85.8793 103.159   7
  -1   2 -11 16552.8 1463.16   2
   1  -2  11 16626.5 1170.31   6
   1  -2  11 18093.1 1425.96   4
  -1   2 -12 4270.28 766.180   2
   1  -2  12 4017.40 684.570   4
   1  -2  13 4545.50 730.660   4
  -1   2 -13 4705.26 848.087   2
  -1   2 -14 75.5629 174.976   2
   1  -1 -14 395.653 264.170   1
  -1   1  13 2977.07 616.648   6
   1  -1 -13 3994.19 651.068   2
  -1   1  13 4421.12 720.700   4
   1  -1 -13 3760.98 605.800   1
   1  -1 -12 426.696 164.964   1
  -1   1  12 244.002 189.064   6
  -1   1  12 686.937 278.166   4
   1  -1 -12 601.593 258.429   2
   1  -1 -11 43662.2 2125.73   2
  -1   1  11 43946.3 1959.82   4
   1  -1 -11 40289.6 1313.36   3
   1  -1 -11 42208.3 1797.79   1
  -1   1  11 40928.3 2268.87   6
  -1   1  10 104.309 115.626   4
  -1   1  10 65.4449 125.219   6
   1  -1 -10 29.5553 102.918   2
   1  -1 -10-44.0195 93.3154   6
   1  -1 -10 28.5758 89.8224   1
   1  -1 -10-32.5177 63.4394   3
  -1   1  10-12.0832 109.628   2
   1  -1  -9 16188.6 872.705   3
   1  -1  -9 15711.7 921.245   1
   1  -1  -9 16406.4 1150.85   6
  -1   1   9 18103.3 1076.14   4
   1  -1  -9 20209.3 1980.04   5
  -1   1   9 16322.3 1273.46   6
   1  -1  -9 16523.2 1141.69   2
   1  -1  -8 10611.4 934.455   4
   1  -1  -8 9687.09 802.877   2
  -1   1   8 11532.4 795.077   4
   1  -1  -8 9316.98 649.895   1
   1  -1  -8 12219.3 1401.35   5
  -1   1   8 9482.14 915.246   6
   1  -1  -8 10548.1 1135.46   7
   1  -1  -8 10189.8 876.903   6
  -1   1   7 34794.4 1652.18   2
   1  -1  -7 41380.0 2184.52   7
   1  -1  -7 38121.5 1636.74   2
  -1   1   7 39196.5 1501.25   4
  -1   1   7 35465.8 1763.44   6
   1  -1  -7 38030.4 1367.40   1
   1  -1  -7 38573.8 1759.24   4
   1  -1  -7 37740.3 1729.92   6
   1  -1  -7 41653.9 2414.92   5
   1  -1  -6 2036.23 354.988   6
  -1   1   6 3403.38 373.103   4
   1  -1  -6 2969.14 415.997   4
   1  -1  -6 2666.01 371.375   2
  -1   1   6 2696.81 434.556   6
  -1   1   6 2047.93 325.365   2
   1  -1  -6 2652.70 546.262   5
   1  -1  -6 2796.26 323.765   1
   1  -1  -5 1732.76 317.703   6
  -1   1   5 2319.75 267.587   4
  -1   1   5 1765.06 279.026   2
   1  -1  -5 2154.87 302.397   2
   1  -1  -5 2056.84 316.520   4
   1  -1  -5 1931.48 379.664   5
  -1   1   5 1754.10 329.202   6
   1  -1  -5 2016.55 229.131   1
   1  -1  -4 72.1969 75.5982   4
  -1   1   4 87.6839 66.3273   4
  -1   1   4 94.5093 91.0800   7
   1  -1  -4 235.171 130.573   6
  -1   1   4-65.1832 71.6448   6
   1  -1  -4-14.8889 60.3177   2
  -1   1   3 123317. 2661.89   4
   1  -1  -3 121903. 2637.88   1
  -1   1   3 131447. 3627.48   5
   1  -1  -3 117654. 2835.08   4
   1  -1  -3 123710. 2830.82   2
  -1   1   3 122407. 3172.86   6
   1  -1  -3 117504. 3165.77   6
   1  -1  -3 125965. 3551.31   5
  -1   1   3 119556. 3273.26   7
  -1   1   2 2501.89 371.829   5
   1  -1  -2 3179.31 218.877   4
  -1   1   2 3278.39 408.475   7
  -1   1   2 3141.38 186.676   4
   1  -1  -2 3570.12 213.295   1
   1  -1  -2 3414.72 358.788   6
  -1   1   2 3659.18 366.211   6
   1  -1  -1 515633. 10089.5   7
  -1   1   1 499403. 10471.6   5
   1  -1  -1 507986. 9971.03   3
  -1   1   1 538086. 10112.0   7
  -1   1   0 258.598 129.901   5
  -1   1   0 86.6372 29.3830   1
   1  -1   0 118.121 47.4437   2
  -1   1   0 148.684 41.9188   2
   1  -1   0 134.311 54.9949   7
  -1   1   0 147.903 52.1708   7
   1  -1   0 98.1060 120.716   3
  -1   1  -1 517476. 10445.5   3
  -1   1  -1 518926. 10439.5   2
   1  -1   1 530832. 10341.5   4
  -1   1  -1 516824. 10363.5   4
   1  -1   1 541142. 10416.3   3
  -1   1  -2 55.5036 54.3936   4
   1  -1   2-49.8065 61.6531   3
   1  -1   2 30.8418 60.3707   4
  -1   1  -2 34.1488 83.9105   2
  -1   1  -2 12.0162 41.3240   3
   1  -1   3 965878. 18705.7   4
   1  -1   3 983111. 18734.8   3
  -1   1  -3 957069. 18316.1   3
  -1   1  -3 999999. 18844.2   2
  -1   1  -4 121.927 60.5008   3
   1  -1   4-73.4021 125.432   4
   1  -1   4 116.116 134.642   3
   1  -1   4 36.8915 70.8366   6
  -1   1  -4 207.530 130.711   2
  -1   1  -5 56759.8 2016.11   2
   1  -1   5 61884.8 1855.61   6
  -1   1  -5 57548.3 1500.42   3
   1  -1   5 58580.5 2016.30   4
   1  -1   5 55319.2 2269.84   3
  -1   1  -6 320.231 168.230   2
   1  -1   6 18.3733 197.083   4
  -1   1  -6 322.592 136.269   7
   1  -1   6 131.070 89.1221   6
  -1   1  -6 396.209 93.4946   3
  -1   1  -7 56937.4 2224.16   2
   1  -1   7 59089.9 2500.75   2
   1  -1   7 58667.6 2091.37   6
   1  -1   7 56951.4 2213.73   4
  -1   1  -7 56897.4 1507.78   3
  -1   1  -8 4114.00 583.286   2
  -1   1  -8 5073.06 667.829   4
   1  -1   8 4000.54 643.141   2
   1  -1   8 3512.49 508.080   4
   1  -1   8 3876.80 502.185   6
  -1   1  -8 4038.05 298.056   3
  -1   1  -8 5289.45 698.337   7
  -1   1  -9 6539.96 376.019   3
   1  -1   9 8347.01 809.281   4
  -1   1  -9 7369.58 814.041   2
   1  -1   9 6943.25 718.670   6
   1  -1   9 7437.49 930.554   2
  -1   1  -9 7667.01 905.855   7
   1  -1  10 954.404 339.667   4
   1  -1  10 1420.98 349.699   6
  -1   1 -10 1277.69 145.554   3
  -1   1 -10 1522.43 402.316   2
  -1   1 -10 1333.13 391.959   7
  -1   1 -11 20424.3 1553.12   2
   1  -1  11 20031.2 1395.95   6
   1  -1  11 22457.1 1459.89   4
   1  -1  12 1104.65 324.377   6
  -1   1 -12 2061.22 518.433   2
   1  -1  12 2454.12 497.723   4
   1  -1  13 3009.28 551.114   4
  -1   1 -13 2400.20 556.105   2
  -1   1 -13 1900.62 361.014   1
  -1   1 -14 2502.18 609.459   2
  -1   1 -15 338.208 288.019   2
   1   0 -14 353.968 181.032   1
   1   0 -13 17923.2 1526.13   2
  -1   0  13 16745.5 1304.76   4
   1   0 -13 14457.3 1063.48   1
  -1   0  12 45.5523 91.4674   6
  -1   0  12 352.021 211.956   4
   1   0 -12 88.8068 201.320   2
   1   0 -12-59.6460 101.537   1
   1   0 -11 6091.47 606.265   1
   1   0 -11 7412.12 902.930   2
  -1   0  11 6602.29 793.724   6
  -1   0  11 7482.87 805.295   4
  -1   0  10 380.284 226.802   4
   1   0 -10 74.0012 62.1133   6
  -1   0  10 227.744 203.249   2
  -1   0  10 56.3991 108.141   6
   1   0 -10-133.976 207.969   2
   1   0  -9 5746.80 725.655   2
   1   0  -9 4880.67 429.050   3
   1   0  -9 5266.09 240.705   3
   1   0  -9 6003.99 603.018   6
  -1   0   9 6076.38 695.712   6
  -1   0   9 5562.56 650.789   4
  -1   0   9 6081.61 809.261   2
   1   0  -8 2357.78 457.656   4
   1   0  -8 2294.86 601.002   5
   1   0  -8 3231.84 604.871   7
   1   0  -8 2645.19 394.091   6
  -1   0   8 2849.33 453.447   6
   1   0  -8 2547.83 468.639   2
   1   0  -8 2465.42 194.821   3
  -1   0   8 2297.03 403.631   4
  -1   0   8 2569.86 494.381   2
   1   0  -7 41609.3 1882.53   4
  -1   0   7 41386.8 1765.14   4
   1   0  -7 45976.7 2250.75   7
   1   0  -7 42730.5 1928.11   2
  -1   0   7 40660.7 1743.98   6
   1   0  -7 41768.8 1151.32   3
   1   0  -7 46155.2 2674.44   5
   1   0  -7 39822.6 1632.93   6
   1   0  -6 1172.24 272.965   2
   1   0  -6 1716.02 287.171   6
   1   0  -6 1478.50 327.116   4
  -1   0   6 1499.74 290.308   6
   1   0  -6 1614.25 181.279   3
  -1   0   6 1279.49 292.868   2
  -1   0   6 1545.25 294.896   4
   1   0  -6 1836.16 485.310   5
   1   0  -5 260024. 6060.00   4
   1   0  -5 278608. 7016.92   5
   1   0  -5 265182. 5357.27   3
  -1   0   5 269689. 6048.01   4
   1   0  -5 263048. 5919.05   6
  -1   0   5 249805. 6207.48   2
   1   0  -5 273127. 6574.48   7
  -1   0   5 258666. 5952.81   6
   1   0  -5 270963. 6230.01   2
  -1   0   5 274543. 6495.67   7
   1   0  -4 26828.9 1105.10   6
  -1   0   4 27344.0 1330.55   7
   1   0  -4 28976.7 1166.15   4
  -1   0   4 28462.8 1153.27   4
  -1   0   4 26539.2 1219.85   2
   1   0  -4 27638.1 824.787   3
   1   0  -4 28481.2 1257.60   2
  -1   0   4 28307.8 1117.94   6
  -1   0   3 208339. 4465.87   4
   1   0  -3 200683. 4781.70   7
  -1   0   3 199344. 4780.66   7
   1   0  -3 201474. 4088.41   3
   1   0  -3 196554. 4422.42   4
   1   0  -3 203330. 4626.70   2
  -1   0   3 205965. 4455.27   6
   1   0  -3 196950. 4470.10   6
   1   0  -2 670.661 93.4847   3
  -1   0   2 591.281 152.588   7
  -1   0   2 634.698 118.055   4
   1   0  -2 725.459 137.366   6
   1   0  -2 593.899 134.435   2
   1   0  -2 554.786 107.804   4
  -1   0   1 616432. 11942.8   7
  -1   0   1 607270. 11634.3   3
   1   0  -1 598887. 11614.3   3
   1   0  -1 585579. 11599.0   4
  -1   0   1 612284. 11592.0   4
  -1   0   1 614499. 12244.7   5
  -1   0  -2 48.9205 29.9680   4
   1   0   2 21.8952 37.0044   4
  -1   0  -2-40.9736 48.8643   2
  -1   0  -3 54340.9 2033.57   3
  -1   0  -3 55065.0 1530.02   2
   1   0   3 53948.3 2100.08   3
   1   0   3 56690.6 1558.22   6
   1   0   3 53005.9 1463.67   4
   1   0   3 49208.4 1540.85   2
   1   0   4 253.059 104.816   6
  -1   0  -4 577.711 303.916   3
   1   0   4 545.228 165.770   2
   1   0   5 171686. 4012.57   4
  -1   0  -5 172631. 3980.57   6
  -1   0  -5 160309. 4696.38   3
   1   0   5 159799. 4215.77   2
  -1   0  -5 167655. 4091.91   2
   1   0   5 178238. 4191.21   6
   1   0   6 323.293 153.001   6
   1   0   6 849.238 248.320   2
  -1   0  -6 645.935 194.347   2
  -1   0  -6 433.386 259.913   3
  -1   0  -6 550.757 162.461   6
   1   0   6 537.684 159.226   4
   1   0   7 13446.3 854.905   4
  -1   0  -7 13262.3 899.215   2
  -1   0  -7 13367.2 829.072   6
  -1   0  -7 14446.8 1125.48   3
   1   0   7 14455.0 1007.41   6
   1   0   8 770.036 260.526   6
   1   0   8 1003.68 313.752   2
  -1   0  -8 1087.33 343.121   7
  -1   0  -8 1197.75 336.635   3
  -1   0  -8 1349.58 325.389   2
   1   0   8 991.939 247.313   4
  -1   0  -8 1109.09 246.330   6
  -1   0  -8 1103.56 307.712   4
  -1   0  -9 24802.2 1422.32   2
   1   0   9 21224.8 1517.17   2
   1   0   9 22974.6 1439.26   6
  -1   0  -9 22842.7 1232.64   3
   1   0   9 24511.6 1313.43   4
  -1   0  -9 27270.4 1812.16   7
  -1   0 -10 5882.14 738.788   2
  -1   0 -10 5151.00 515.824   1
   1   0  10 5654.50 811.431   2
  -1   0 -10 5841.93 508.552   3
   1   0  10 5397.50 717.804   6
   1   0  10 6198.12 659.681   4
  -1   0 -11 3258.92 424.421   1
  -1   0 -11 4276.62 635.785   2
   1   0  11 4023.90 561.129   4
   1   0  11 4082.31 649.195   6
   1   0  12 236.541 202.818   4
  -1   0 -12-0.63930 99.7442   1
  -1   0 -12-172.229 217.619   2
   1   0  12-73.3392 160.686   6
   1   0  13 1822.67 475.644   6
   1   0  13 2390.39 500.466   4
  -1   0 -13 2257.17 393.257   1
  -1   0 -13 1899.50 463.877   2
   1   0  14 1912.08 470.762   4
  -1   0 -14 1627.17 368.475   1
  -1   0 -14 1879.54 501.099   2
  -1   0 -15 2085.87 519.845   2
   1   1 -14 1612.00 512.972   2
   1   1 -13-134.337 209.436   2
  -1  -1  13-246.698 191.592   4
   1   1 -13-20.4003 124.953   1
   1   1 -12 21.2325 141.455   2
  -1  -1  12 105.951 140.030   4
  -1  -1  11 17081.4 1342.29   4
  -1  -1  11 20347.6 1243.63   6
   1   1 -11 18627.3 1571.27   2
   1   1 -10 1230.15 369.028   2
  -1  -1  10 1659.12 412.600   4
   1   1 -10 1243.90 251.130   6
  -1  -1  10 1195.38 296.416   6
  -1  -1   9 22460.2 1217.69   6
  -1  -1   9 23237.8 1752.53   2
   1   1  -9 22142.5 1594.71   2
  -1  -1   9 20704.7 1450.68   4
   1   1  -9 21745.4 1048.97   6
  -1  -1   8 161.147 142.340   4
  -1  -1   8 187.344 126.482   6
   1   1  -8 533.155 268.046   7
  -1  -1   8 287.282 170.711   2
   1   1  -8 341.161 222.443   2
   1   1  -8 513.317 246.700   4
   1   1  -8 232.755 112.716   6
   1   1  -7 33996.8 1739.72   4
  -1  -1   7 34632.5 1719.65   4
  -1  -1   7 34884.9 1941.19   2
   1   1  -7 34524.4 1853.59   2
  -1  -1   7 32655.3 1363.08   6
   1   1  -7 34606.5 1284.92   6
   1   1  -7 34977.6 1901.31   7
   1   1  -6 21331.8 911.174   6
  -1  -1   6 21810.9 982.283   6
   1   1  -6 22378.6 1266.02   4
  -1  -1   6 21066.0 1325.63   7
  -1  -1   6 20825.8 1227.57   4
   1   1  -6 21081.7 1334.57   2
   1   1  -5 143239. 3870.63   4
   1   1  -5 151261. 4173.50   2
   1   1  -5 147024. 3344.38   6
  -1  -1   5 146076. 4192.65   2
  -1  -1   5 143499. 4043.88   7
  -1  -1   5 139587. 3363.56   6
   1   1  -5 143747. 4031.94   7
  -1  -1   5 146305. 3911.56   4
  -1  -1   4 2249.97 227.197   6
   1   1  -4 1640.27 288.946   2
  -1  -1   4 2173.51 318.906   4
  -1  -1   4 2315.25 362.186   7
   1   1  -4 1974.45 213.850   6
   1   1  -4 2158.43 311.805   4
  -1  -1   4 2131.22 356.398   2
   1   1  -4 1995.36 326.035   7
  -1  -1   3 3729.22 365.465   4
   1   1  -3 3218.26 354.538   4
   1   1  -3 3888.59 443.242   2
   1   1  -3 3387.72 251.843   6
   1   1  -3 3691.16 392.190   7
  -1  -1   3 3522.39 399.084   7
  -1  -1   3 3380.64 420.100   2
   1   1  -2 40.0563 32.2181   6
   1   1  -2-85.7098 82.0767   3
   1   1  -2 153.398 116.825   2
   1   1  -2-10.9775 64.6118   4
  -1  -1   2 130.397 93.8816   7
   1   1  -2 117.297 72.3627   7
  -1  -1   2 109.073 55.9985   3
  -1  -1   2 34.1202 75.2043   4
   1   1  -1 313391. 6646.99   3
  -1  -1   1 315067. 6380.85   4
   1   1  -1 311254. 6406.49   4
  -1  -1   1 322042. 6395.67   7
  -1  -1   1 300041. 6810.58   3
  -1  -1   0 4323.68 257.783   1
   1   1   0 4503.28 263.493   1
  -1  -1   0 4547.86 449.922   3
  -1  -1  -1 791864. 15201.4   1
   1   1   1 793976. 15116.1   1
  -1  -1  -2 1692.24 254.616   1
   1   1   2 623.116 134.937   6
   1   1   3 264699. 5464.01   2
   1   1   3 263296. 5692.65   6
  -1  -1  -4 1772.94 202.830   1
   1   1   4 1852.15 241.892   2
   1   1   4 2034.73 306.123   6
  -1  -1  -4 1751.53 204.836   2
  -1  -1  -5 54068.5 1558.46   1
  -1  -1  -5 51368.8 2303.27   3
   1   1   5 59790.8 2060.28   6
   1   1   5 49946.9 1713.92   2
   1   1   5 58640.0 1661.43   4
  -1  -1  -5 54021.8 1813.33   6
  -1  -1  -5 54748.3 1638.44   2
   1   1   6 6789.48 523.905   4
   1   1   6 7026.70 687.026   6
  -1  -1  -6 6701.61 580.138   6
  -1  -1  -6 6626.23 528.035   2
   1   1   6 6021.65 558.674   2
  -1  -1  -6 7239.36 499.287   1
  -1  -1  -6 6935.40 814.421   3
   1   1   7 183620. 4985.94   6
   1   1   7 195541. 4386.98   4
  -1  -1  -7 180901. 4589.87   6
  -1  -1  -7 186040. 4243.32   1
  -1  -1  -7 173968. 5470.82   3
  -1  -1  -7 185271. 4471.19   2
  -1  -1  -8-51.7612 72.0485   4
  -1  -1  -8-102.103 220.922   3
  -1  -1  -8 175.809 82.5543   1
   1   1   8 21.6975 105.839   6
   1   1   8 145.043 117.154   4
  -1  -1  -8-170.197 161.878   2
  -1  -1  -8 185.294 139.462   6
  -1  -1  -9 294.398 163.070   6
   1   1   9 397.354 187.399   4
  -1  -1  -9 598.173 280.023   3
  -1  -1  -9 475.425 307.925   5
  -1  -1  -9 458.232 147.376   2
   1   1   9 377.153 189.823   6
  -1  -1  -9 350.172 130.135   1
  -1  -1  -9 699.384 307.256   7
   1   1   9 467.364 211.726   2
   1   1  10 2102.60 387.663   4
  -1  -1 -10 1571.91 345.578   6
  -1  -1 -10 1499.93 528.788   3
  -1  -1 -10 1450.00 335.457   2
  -1  -1 -10 1584.12 369.439   1
   1   1  10 1203.88 349.825   6
   1   1  10 1354.21 375.497   2
  -1  -1 -10 1936.86 678.110   5
  -1  -1 -11 12808.4 1036.46   2
  -1  -1 -11 9992.21 1169.31   3
   1   1  11 11381.6 1158.90   2
   1   1  11 12150.7 987.756   4
  -1  -1 -11 12939.7 1741.65   5
   1   1  11 11353.0 1170.59   6
  -1  -1 -11 12067.1 852.801   1
  -1  -1 -11 10719.6 951.915   6
  -1  -1 -12 195.684 150.139   1
   1   1  12 455.653 258.471   4
  -1  -1 -12-102.753 141.429   2
   1   1  12-246.784 207.195   6
  -1  -1 -13 11951.6 1080.62   2
   1   1  13 8543.91 1090.08   6
  -1  -1 -13 9492.91 831.791   1
  -1  -1 -14 1626.67 369.000   1
   1   1  14 1008.26 390.597   6
  -1  -1 -14 1624.90 406.853   2
   1   2 -14 386.550 286.282   2
   1   2 -13 4867.98 879.665   2
  -1  -2  12 25.4911 111.913   4
   1   2 -12 211.630 187.439   2
   1   2 -11 7147.40 1001.49   2
  -1  -2  11 8762.31 1017.76   4
   1   2 -10 963.144 323.214   2
  -1  -2  10 716.145 271.040   4
  -1  -2   9 2530.33 538.736   4
   1   2  -9 2725.00 558.250   7
   1   2  -9 2911.41 597.266   2
  -1  -2   8 14114.3 1181.12   4
   1   2  -8 14328.2 1305.91   2
  -1  -2   8 13808.7 1359.15   2
   1   2  -8 16038.4 1278.07   7
  -1  -2   7 24720.1 1518.37   4
  -1  -2   7 26015.5 1782.14   2
   1   2  -7 24830.6 1528.03   4
   1   2  -7 25557.7 1666.73   2
   1   2  -7 22525.4 1423.74   7
  -1  -2   6-3.03649 125.159   4
  -1  -2   6 117.474 121.518   7
   1   2  -6 230.427 160.656   4
  -1  -2   6-92.6067 123.590   2
   1   2  -6-181.074 144.582   2
  -1  -2   5 21828.5 1230.54   4
   1   2  -5 21274.2 1358.95   2
   1   2  -5 18994.2 1117.88   7
   1   2  -5 21421.7 1234.15   4
  -1  -2   5 20813.7 1192.74   7
  -1  -2   4 1510.71 301.491   4
   1   2  -4 1404.18 258.910   7
  -1  -2   4 1291.40 269.608   7
   1   2  -4 1086.55 305.893   2
  -1  -2   3 161394. 3959.83   4
   1   2  -3 161443. 4287.27   2
  -1  -2   3 151892. 3846.40   7
   1   2  -3 155091. 3762.91   7
  -1  -2   3 156956. 3804.53   3
   1   2  -2 1441.06 249.044   4
  -1  -2   2 1347.22 204.261   7
   1   2  -2 1524.05 298.163   2
  -1  -2   2 1359.07 222.809   4
   1   2  -1 13727.9 464.161   6
  -1  -2   1 13489.1 726.383   4
   1   2  -1 13421.2 815.090   2
   1   2  -1 11963.9 694.356   4
  -1  -2   0 2495.46 209.097   6
  -1  -2   0 2173.88 239.395   1
   1   2   0 2496.92 228.318   6
   1   2   0 2370.06 247.512   1
  -1  -2  -1 479290. 9786.19   1
   1   2   1 510316. 9883.31   6
  -1  -2  -1 493395. 9794.67   6
   1   2   2 5298.91 445.885   6
  -1  -2  -2 4152.66 365.739   6
  -1  -2  -2 4588.30 405.685   1
   1   2   3 112559. 3885.96   6
   1   2   3 132446. 3444.95   5
  -1  -2  -4 26353.3 1069.99   1
   1   2   4 28561.4 1345.90   6
   1   2   4 29247.3 1000.69   2
   1   2   5 92417.3 2409.70   2
  -1  -2  -5 87128.6 2612.46   5
  -1  -2  -5 92437.1 2477.46   1
  -1  -2  -6 8710.23 612.995   1
   1   2   6 8338.02 793.493   6
  -1  -2  -6 7796.66 686.542   6
  -1  -2  -6 7646.78 689.676   5
   1   2   6 7731.93 564.777   2
  -1  -2  -6 8442.06 481.898   2
  -1  -2  -7 22109.9 933.079   2
  -1  -2  -7 20873.7 1017.43   1
   1   2   7 19325.6 1054.67   2
   1   2   7 22370.3 1425.56   6
  -1  -2  -7 21527.9 1228.17   6
  -1  -2  -7 20934.6 1343.52   5
   1   2   8 27.6223 154.901   6
  -1  -2  -8 312.813 166.914   1
   1   2   8-104.351 153.811   2
  -1  -2  -8-17.4690 90.7005   4
  -1  -2  -8-19.9650 86.5880   2
  -1  -2  -8-54.9928 123.066   6
  -1  -2  -8-125.021 206.518   5
  -1  -2  -9 54658.2 1882.93   2
  -1  -2  -9 55885.2 2815.94   7
  -1  -2  -9 51104.7 2180.56   6
  -1  -2  -9 43186.4 2645.95   3
  -1  -2  -9 50291.1 2741.22   5
   1   2   9 46495.4 2400.86   6
  -1  -2  -9 49243.2 1849.06   1
  -1  -2 -10 292.522 398.899   5
  -1  -2 -10 229.708 185.776   3
  -1  -2 -10 186.459 131.645   2
   1   2  10 321.164 203.495   2
   1   2  10 418.384 279.930   6
  -1  -2 -10 253.521 177.567   6
  -1  -2 -11 30291.7 1459.53   2
  -1  -2 -11 26085.5 1375.52   1
   1   2  11 23239.4 1592.01   2
  -1  -2 -11 28061.4 2363.56   5
  -1  -2 -11 22898.2 2033.21   3
   1   2  11 24178.2 1827.18   6
  -1  -2 -12 2749.67 463.363   1
  -1  -2 -12 3022.01 459.823   2
   1   2  12 2166.98 487.857   2
   1   2  12 1852.24 500.387   6
  -1  -2 -13 9422.58 885.649   1
   1   2  13 8722.84 1171.46   6
  -1  -2 -14 470.088 249.862   1
   1   2  14 339.239 231.118   6
   1   2  15 624.287 335.506   6
   1   3 -13 318.937 256.327   2
  -1  -3  12 282.925 178.592   4
   1   3 -12 395.458 341.967   2
  -1  -3  11 4180.15 743.640   4
   1   3 -11 3735.79 774.355   2
   1   3 -10 186.456 146.396   2
  -1  -3  10 787.328 378.500   4
   1   3  -9 22152.4 1547.10   7
  -1  -3   9 23571.4 1698.03   4
   1   3  -9 23670.0 1837.30   2
  -1  -3   8 2142.52 507.812   4
   1   3  -8 2013.97 408.419   7
   1   3  -8 2700.59 613.788   2
   1   3  -7 121.781 65.5345   7
   1   3  -7 119.465 137.345   2
  -1  -3   7 103.303 149.337   4
  -1  -3   6 69.7212 126.112   2
  -1  -3   6 82.6909 115.492   4
   1   3  -6 96.7250 129.269   2
   1   3  -6 90.0839 66.1562   4
  -1  -3   6 164.688 121.554   7
   1   3  -5 31687.0 1668.37   4
  -1  -3   5 31262.1 1595.18   4
  -1  -3   5 29397.8 1445.91   7
   1   3  -5 32056.4 1817.41   2
  -1  -3   5 29497.6 1831.56   2
   1   3  -5 30262.2 1383.13   7
  -1  -3   4 7409.82 696.002   4
   1   3  -4 6976.36 767.928   2
  -1  -3   4 7860.16 643.887   7
   1   3  -4 7776.22 600.639   7
  -1  -3   4 8125.71 607.343   3
   1   3  -3 61225.8 2439.73   2
  -1  -3   3 63316.4 2206.50   4
  -1  -3   3 63310.3 1996.50   7
   1   3  -2 20259.8 1210.07   2
  -1  -3   2 21764.4 1128.10   4
  -1  -3   2 20620.9 907.116   7
   1   3  -1 236292. 5663.97   2
  -1  -3   1 229532. 4739.58   6
   1   3  -1 234911. 4828.18   6
  -1  -3   1 232011. 5466.21   4
  -1  -3   0 12822.8 800.822   4
  -1  -3   0 12785.5 610.872   6
  -1  -3   0 12624.1 708.527   1
   1   3   0 12825.5 833.580   2
   1   3   0 12334.5 636.451   6
  -1  -3  -1 76221.7 2160.36   1
  -1  -3  -1 76923.8 2122.19   6
   1   3   1 78313.6 2223.70   6
  -1  -3  -2 79.7650 80.2716   1
  -1  -3  -2-16.9991 54.3743   6
   1   3   2-21.5959 75.1483   6
  -1  -3  -3 6116.43 582.508   1
   1   3   3 6083.96 588.056   6
   1   3   4 93920.3 2368.03   5
   1   3   4 97039.6 3014.04   6
  -1  -3  -5 10801.5 790.579   1
  -1  -3  -5 11124.2 630.279   5
   1   3   5 12845.5 653.749   2
   1   3   5 11167.2 655.976   5
   1   3   6 11594.9 1008.61   6
  -1  -3  -6 11332.0 822.254   1
  -1  -3  -6 9842.24 728.977   5
   1   3   6 9880.03 603.427   2
  -1  -3  -7 125012. 3388.91   4
   1   3   7 130368. 3340.60   2
   1   3   7 147602. 4482.88   6
  -1  -3  -7 132421. 3640.92   1
  -1  -3  -7 145731. 4071.18   6
  -1  -3  -7 129161. 3777.43   5
  -1  -3  -8 4231.09 498.491   4
   1   3   8 4291.82 465.982   2
  -1  -3  -8 3973.76 567.522   6
  -1  -3  -8 4608.68 536.160   1
  -1  -3  -8 3777.93 567.038   5
   1   3   8 3681.71 641.808   6
  -1  -3  -9 43838.9 1849.58   1
   1   3   9 44550.9 2431.69   6
  -1  -3  -9 43597.0 2098.57   6
   1   3   9 42037.1 1775.34   2
  -1  -3  -9 41080.1 2191.69   5
  -1  -3 -10 245.712 208.845   5
   1   3  10 148.164 169.261   6
  -1  -3 -10 446.262 219.148   1
   1   3  11 8736.22 874.767   2
  -1  -3 -11 7788.25 1209.98   3
   1   3  11 8656.05 1128.16   6
  -1  -3 -11 8689.34 837.534   1
  -1  -3 -11 7933.05 1095.15   5
  -1  -3 -12 441.709 238.333   1
   1   3  12 329.128 303.309   6
   1   3  13 2948.08 705.939   6
  -1  -3 -13 2831.47 499.395   1
  -1  -3 -14 279.189 211.400   1
   1   3  14 291.462 233.469   6
   1   3  15 3716.23 848.558   6
   1   4 -12-39.0224 170.383   2
  -1  -4  11 8894.06 1147.49   4
   1   4 -11 7924.32 1139.29   2
   1   4 -10-207.259 296.410   2
  -1  -4  10 1045.87 409.009   4
  -1  -4   9 3878.78 702.272   4
   1   4  -9 3533.42 564.915   7
   1   4  -9 3875.72 769.426   2
  -1  -4   8-30.6269 166.316   4
   1   4  -8 95.8010 105.016   7
   1   4  -8 379.030 289.421   2
  -1  -4   7 12224.1 1141.33   4
   1   4  -7 13151.0 966.500   7
   1   4  -7 12925.7 1324.86   2
   1   4  -6 8498.69 1011.79   2
  -1  -4   6 6776.85 786.118   4
  -1  -4   6 7988.81 757.173   7
   1   4  -5 32369.1 1822.92   4
  -1  -4   5 27965.9 1600.51   4
  -1  -4   5 27686.6 1382.71   7
  -1  -4   5 30723.0 1983.24   2
  -1  -4   5 28441.2 848.330   3
  -1  -4   5 30841.5 1396.14   3
   1   4  -5 28997.4 1851.23   2
   1   4  -4 6109.96 776.147   2
  -1  -4   4 5368.24 645.316   4
  -1  -4   4 5319.08 525.095   7
  -1  -4   3 57189.9 1890.47   7
  -1  -4   3 58619.7 2275.34   4
   1   4  -3 58150.5 2517.46   2
  -1  -4   2 207.966 99.1199   7
  -1  -4   2 188.262 137.301   4
   1   4  -2 140.105 163.330   2
  -1  -4   2 297.841 66.0104   6
   1   4  -1 38171.2 1770.37   2
  -1  -4   1 36357.4 1173.80   6
  -1  -4   1 38197.9 1686.75   4
   1   4  -1 35484.1 1227.43   6
  -1  -4   0 27296.9 1371.77   4
   1   4   0 26840.1 1136.38   6
  -1  -4   0 25286.7 1058.81   6
   1   4   0 26291.4 1371.33   2
   1   4   1 19974.9 1035.85   6
   1   4   1 19760.6 1096.52   2
  -1  -4  -1 18460.3 973.345   1
  -1  -4  -1 19218.0 967.819   6
   1   4   2 694.332 194.038   2
  -1  -4  -2 926.023 231.108   1
  -1  -4  -2 1134.53 248.113   6
   1   4   2 1017.68 289.537   6
  -1  -4  -3 138075. 4172.91   1
   1   4   3 128870. 4251.13   6
  -1  -4  -4 5419.18 599.443   1
   1   4   4 6086.16 686.493   6
   1   4   4 4883.43 416.168   5
   1   4   5 58766.3 1892.67   5
  -1  -4  -5 54678.5 2312.31   1
  -1  -4  -6 1305.99 232.351   5
   1   4   6 1020.41 184.926   2
  -1  -4  -6 1319.85 351.903   1
   1   4   6 893.230 301.609   6
   1   4   6 902.897 217.747   5
   1   4   7 24696.0 1011.00   2
   1   4   7 28125.0 1313.78   1
  -1  -4  -7 23619.7 1417.38   1
  -1  -4  -7 23308.6 1087.46   4
   1   4   7 28324.3 1806.61   6
  -1  -4  -7 21326.2 1112.60   5
  -1  -4  -7 27797.6 1580.42   6
   1   4   8 2085.14 301.037   2
  -1  -4  -8 2232.43 340.180   4
   1   4   8 1843.35 482.902   6
   1   4   8 2220.25 372.752   1
  -1  -4  -8 2114.06 355.460   5
  -1  -4  -8 2742.23 488.724   1
  -1  -4  -8 2625.02 498.509   6
   1   4   9 4490.04 482.126   2
  -1  -4  -9 5153.42 666.163   1
   1   4   9 5730.00 894.692   6
  -1  -4  -9 4048.02 569.767   5
   1   4  10 214.734 187.078   6
   1   4  10 484.044 154.556   2
  -1  -4 -11 1373.69 403.787   5
  -1  -4 -11 1740.18 436.552   1
   1   4  11 1198.67 436.943   6
   1   4  11 1591.75 336.699   2
  -1  -4 -12 908.254 363.641   1
   1   4  12 205.486 263.790   6
   1   4  13 15053.2 1682.18   6
  -1  -4 -13 14062.6 1280.25   1
   1   4  14 200.709 231.177   6
  -1  -4 -14 455.271 281.629   1
   1   4  15 3115.98 805.362   6
   1   5 -11 1680.85 551.117   2
  -1  -5  10-227.830 196.156   4
   1   5 -10-139.396 144.494   2
  -1  -5   9 21329.5 1746.00   4
   1   5  -9 20860.2 1891.34   2
  -1  -5   8 4497.50 750.017   4
   1   5  -8 5961.89 966.635   2
  -1  -5   7 19449.5 1525.62   4
   1   5  -7 21285.4 1780.62   2
  -1  -5   6 576.640 200.138   3
  -1  -5   6 544.837 283.486   4
   1   5  -6 328.727 292.466   2
  -1  -5   6 412.034 185.564   7
  -1  -5   6 506.012 80.9590   3
  -1  -5   5 2776.50 402.769   7
  -1  -5   5 2865.70 528.078   4
   1   5  -5 2361.64 563.032   2
   1   5  -4 10325.1 1056.51   4
   1   5  -4 9172.09 1036.79   2
  -1  -5   4 9790.04 948.891   4
  -1  -5   4 9210.67 1078.56   2
  -1  -5   4 9644.34 711.856   7
  -1  -5   3 429.870 215.769   2
   1   5  -3 1188.58 311.450   1
  -1  -5   3 993.008 302.329   4
  -1  -5   3 1052.59 219.292   7
   1   5  -3 1326.64 363.873   2
  -1  -5   3 1190.42 112.641   6
  -1  -5   2 111.009 92.6648   7
  -1  -5   2-30.6783 183.553   4
  -1  -5   2 161.627 78.9541   6
   1   5  -2 150.434 150.513   2
  -1  -5   1 77452.2 2794.87   4
   1   5  -1 75171.8 2857.30   2
   1   5  -1 69690.7 2150.11   6
  -1  -5   1 74842.5 2133.93   6
  -1  -5   0 29905.1 1299.02   6
  -1  -5   0 29856.3 1579.67   4
   1   5   0 29423.9 1586.18   2
   1   5   0 29538.6 1335.00   6
  -1  -5  -1 220082. 5470.71   1
   1   5   1 224766. 5692.44   2
   1   5   1 222234. 5573.30   6
  -1  -5  -1 234490. 5497.37   6
   1   5   2 9610.58 777.573   2
   1   5   2 8740.40 798.523   6
  -1  -5  -2 9080.58 767.209   6
  -1  -5  -2 8538.68 716.459   1
   1   5   3 93003.9 2801.11   2
  -1  -5  -3 94387.5 2998.39   1
   1   5   3 92651.1 3182.34   6
   1   5   4 1304.40 241.644   5
  -1  -5  -4 1545.30 349.798   1
   1   5   4 1273.00 323.502   6
  -1  -5  -4 1373.46 323.005   6
   1   5   5 6814.67 818.848   6
   1   5   5 6619.92 584.367   1
  -1  -5  -5 6429.33 749.780   1
   1   5   5 7158.04 608.562   5
   1   5   6 25786.4 979.505   2
  -1  -5  -6 23605.9 1566.37   1
   1   5   6 24650.3 1241.80   5
   1   5   6 24491.4 1219.87   1
  -1  -5  -6 26843.2 1611.82   6
   1   5   6 24567.4 1713.89   6
   1   5   7 7642.58 497.004   2
  -1  -5  -7 8025.13 885.813   1
  -1  -5  -7 8217.05 897.866   6
   1   5   7 8563.26 1034.80   6
   1   5   7 6678.69 640.752   5
   1   5   7 7631.26 660.554   1
  -1  -5  -8 1301.21 309.929   5
  -1  -5  -8 724.241 245.108   1
   1   5   8 949.141 365.260   6
   1   5   8 1021.21 176.461   2
  -1  -5  -9 11246.6 860.704   5
   1   5   9 10516.0 659.098   2
   1   5   9 9992.91 1239.65   6
  -1  -5  -9 11267.1 1094.81   1
  -1  -5 -10 1082.12 330.621   5
   1   5  10 572.877 155.833   2
   1   5  10 523.119 316.931   6
  -1  -5 -10 1205.39 441.199   1
   1   5  11 15163.2 1658.46   6
  -1  -5 -11 15885.5 1385.89   1
   1   5  12 295.153 263.405   6
  -1  -5 -12 204.637 244.001   1
   1   5  13 5580.71 1066.50   6
  -1  -5 -13 4944.97 849.148   1
  -1  -5 -14 181.031 190.709   1
   1   5  14 9.02580 138.719   6
   1   6 -10 990.653 369.758   2
  -1  -6   9 5081.64 881.722   4
   1   6  -9 5618.94 1010.06   2
   1   6  -8 1039.99 436.697   2
  -1  -6   8 1214.78 376.835   4
  -1  -6   7 9668.28 1127.20   4
   1   6  -7 11044.1 1344.12   2
  -1  -6   6 286.405 104.339   3
  -1  -6   6 433.120 271.753   4
   1   6  -6 150.832 161.622   2
  -1  -6   6 753.565 273.887   3
  -1  -6   5 7450.93 931.028   4
   1   6  -5 9333.59 1146.89   2
  -1  -6   5 9248.55 725.085   7
  -1  -6   4 2199.50 495.881   4
   1   6  -4 1905.54 503.872   2
  -1  -6   4 2113.11 322.400   7
   1   6  -3 29505.8 1943.01   2
  -1  -6   3 30814.7 1844.93   4
  -1  -6   3 31417.3 951.321   6
  -1  -6   3 32562.7 1328.46   7
   1   6  -2 17856.7 1245.56   1
  -1  -6   2 18871.8 921.192   7
  -1  -6   2 18467.7 1370.92   4
  -1  -6   2 17521.2 828.411   6
   1   6  -2 17063.3 1399.87   2
   1   6  -1 10457.4 728.372   6
   1   6  -1 9465.85 874.776   1
   1   6  -1 9460.77 978.687   2
  -1  -6   1 10626.4 1016.10   4
  -1  -6   1 10196.0 710.401   6
  -1  -6   0 1879.07 328.163   6
   1   6   0 1495.36 313.376   6
   1   6   0 2074.42 376.761   1
  -1  -6   0 1886.76 414.476   4
   1   6   0 1739.43 390.341   2
  -1  -6  -1 66499.5 2732.81   4
  -1  -6  -1 75345.3 2579.77   6
   1   6   1 73237.8 2745.08   2
   1   6   1 73384.3 2638.51   6
  -1  -6  -1 69316.3 2546.80   1
   1   6   2 2511.82 461.028   6
   1   6   2 2347.16 398.709   1
  -1  -6  -2 1959.64 365.834   1
   1   6   2 2236.03 415.512   2
  -1  -6  -3 20841.9 1288.96   1
   1   6   3 19637.2 1170.12   2
   1   6   3 22036.8 1255.67   1
  -1  -6  -3 22495.5 1402.47   6
   1   6   3 21036.3 1431.09   6
   1   6   4 8344.45 704.403   2
  -1  -6  -4 8440.97 855.346   1
   1   6   4 8465.68 744.464   1
  -1  -6  -4 9860.19 937.902   6
   1   6   4 8725.27 755.944   5
   1   6   4 8092.89 921.163   6
   1   6   5 13884.9 1279.87   6
   1   6   5 13916.4 921.744   5
  -1  -6  -5 13881.5 1177.12   1
   1   6   5 14583.1 869.103   2
  -1  -6  -5 15009.3 1218.79   6
   1   6   5 13647.6 921.507   1
   1   6   6 1028.65 264.690   1
   1   6   6 846.426 257.669   5
  -1  -6  -6 597.709 220.119   1
   1   6   6 623.725 295.500   6
   1   6   6 955.669 204.395   2
  -1  -6  -6 532.707 238.936   6
   1   6   7 52070.2 2830.39   6
  -1  -6  -7 46032.2 2532.41   1
   1   6   7 49738.1 2068.19   5
  -1  -6  -8 1026.35 331.717   1
   1   6   8 1023.31 153.297   2
   1   6   8 907.653 261.678   5
   1   6   8 1011.22 430.906   6
  -1  -6  -9 36661.6 2272.72   1
   1   6   9 40262.6 2677.51   6
   1   6   9 38841.8 1163.56   2
  -1  -6 -10 7.07229 230.167   1
   1   6  10 428.041 321.592   6
   1   6  10 157.663 56.9905   2
  -1  -6 -11 3301.36 673.588   1
   1   6  11 5226.84 1016.35   6
  -1  -6 -12 388.505 249.662   1
   1   6  12 254.656 301.981   6
  -1  -6 -13 1022.48 479.299   1
   1   6  13 1730.44 637.090   6
   1   6  14 410.378 384.859   6
  -1  -7   8 970.139 382.163   4
   1   7  -8 1240.90 466.990   2
  -1  -7   7 8078.07 1076.58   4
   1   7  -7 8012.56 1182.25   2
  -1  -7   6 9953.08 1179.49   4
   1   7  -6 11000.4 1379.70   2
  -1  -7   6 10131.3 642.150   3
   1   7  -5 38742.6 2527.32   2
  -1  -7   5 35327.6 2231.06   4
  -1  -7   4 1784.99 275.722   7
  -1  -7   4 1992.38 508.735   4
   1   7  -4 2012.19 518.229   2
  -1  -7   3 889.261 322.799   4
  -1  -7   3 827.069 183.119   7
   1   7  -3 1120.72 378.351   2
  -1  -7   3 837.463 155.080   6
  -1  -7   2 214.996 98.0266   7
  -1  -7   2 338.545 110.026   6
   1   7  -2 291.916 207.876   2
  -1  -7   2 93.8076 154.914   4
  -1  -7   1 10950.5 804.380   6
   1   7  -1 10919.9 1114.78   2
  -1  -7   1 9276.66 1019.87   4
  -1  -7   0 5169.82 740.902   4
   1   7   0 5972.43 790.250   2
   1   7   0 5375.63 618.605   6
   1   7   1 6528.80 742.058   6
   1   7   1 6717.88 776.031   2
  -1  -7  -1 6920.39 834.769   4
   1   7   1 6518.03 740.843   1
   1   7   2 3012.77 512.022   2
   1   7   2 2839.74 482.732   1
  -1  -7  -2 3773.41 570.838   6
  -1  -7  -2 3443.81 540.620   1
   1   7   2 3056.90 532.626   6
   1   7   3 19310.6 1242.43   2
  -1  -7  -3 18067.0 1277.69   1
   1   7   3 17855.9 1393.97   6
   1   7   3 19934.7 1284.34   1
  -1  -7  -3 20522.0 1427.85   6
  -1  -7  -4 1963.62 413.829   1
   1   7   4 1667.73 375.999   5
  -1  -7  -4 1651.08 417.593   6
   1   7   4 2064.19 508.343   6
   1   7   4 1602.42 324.876   2
   1   7   5 43682.8 1943.09   5
  -1  -7  -5 50520.0 2448.86   1
   1   7   5 44644.2 2521.66   6
   1   7   5 47503.0 1827.18   2
  -1  -7  -6 13072.4 1268.28   1
   1   7   6 14081.5 831.214   2
   1   7   6 13626.8 1014.27   5
   1   7   6 11986.6 1324.93   6
   1   7   7 24434.4 973.708   2
  -1  -7  -7 23172.5 1816.29   1
   1   7   7 25086.3 1011.68   2
   1   7   7 25217.0 1988.42   6
   1   7   7 23321.4 1403.19   5
   1   7   8 4444.76 285.792   2
  -1  -7  -8 3631.71 711.754   1
   1   7   8 3802.54 565.215   5
   1   7   8 4268.70 256.338   2
   1   7   8 4651.73 881.133   6
   1   7   9 7050.30 1122.20   6
  -1  -7  -9 7312.31 1062.84   1
   1   7   9 7632.68 823.275   5
  -1  -7 -10 432.378 286.569   1
   1   7  10 364.367 301.060   6
  -1  -7 -11 3632.31 762.709   1
   1   7  11 2705.29 772.430   6
  -1  -7 -12-812.034 386.246   1
   1   7  12 204.082 283.986   6
   1   7  13 4105.16 1001.70   6
  -1  -7 -13 4117.47 847.945   1
  -1  -8   7 6141.75 1005.84   4
   1   8  -7 6523.65 1122.77   2
  -1  -8   6 2651.96 648.208   4
   1   8  -6 2382.03 685.459   2
   1   8  -5 4751.88 912.494   2
  -1  -8   5 3635.38 497.311   3
  -1  -8   5 4709.41 840.397   4
  -1  -8   4 176.724 127.405   4
   1   8  -4 730.526 392.145   2
  -1  -8   3 24039.9 978.178   7
  -1  -8   3 24220.3 1838.53   4
  -1  -8   3 20567.3 901.527   6
   1   8  -3 23688.4 1915.16   2
  -1  -8   2 2478.20 308.295   7
   1   8  -2 2177.75 567.149   2
  -1  -8   2 2369.91 344.257   6
  -1  -8   2 1880.28 487.677   4
  -1  -8   1 3796.70 691.229   4
  -1  -8   1 4020.73 391.378   7
   1   8  -1 4214.67 756.814   2
   1   8   0 2279.53 508.155   2
  -1  -8   0 1970.71 517.271   4
   1   8   0 2056.59 412.752   6
  -1  -8   0 1969.93 387.387   6
   1   8   1 9499.68 1004.16   2
  -1  -8  -1 9678.75 1092.13   4
  -1  -8  -1 9908.52 945.174   6
   1   8   1 9228.32 940.437   6
  -1  -8  -2 432.981 254.738   4
   1   8   2 293.539 141.880   2
   1   8   2 92.4058 204.526   6
  -1  -8  -2-4.05539 75.0204   6
  -1  -8  -2 375.656 245.762   1
  -1  -8  -3 50323.5 2374.81   1
   1   8   3 46695.3 2512.70   6
   1   8   3 50034.9 2235.24   2
  -1  -8  -3 49246.0 2416.01   6
  -1  -8  -4 33554.0 1938.62   1
   1   8   4 33286.4 1680.30   2
   1   8   4 31473.6 2081.66   6
  -1  -8  -5 107.950 175.586   1
   1   8   5 205.792 144.705   2
   1   8   5 102.204 172.779   5
   1   8   5 541.792 301.281   6
  -1  -8  -6 292.035 207.582   1
   1   8   6 390.696 212.907   5
   1   8   6 213.775 124.523   2
   1   8   6-122.371 201.966   6
  -1  -8  -7 3439.39 714.306   1
   1   8   7 2536.39 469.554   5
   1   8   7 2132.50 602.242   6
   1   8   7 2374.47 289.590   2
  -1  -8  -8 710.753 296.466   1
   1   8   8 462.511 248.307   6
   1   8   8 270.357 180.165   5
  -1  -8  -9 9529.25 1277.40   1
   1   8   9 11891.9 1537.12   6
   1   8   9 10295.3 1018.75   5
   1   8  10-28.8759 94.3776   5
   1   8  10 193.955 283.663   6
  -1  -8 -10 439.875 343.049   1
  -1  -8 -11 4162.46 875.877   1
   1   8  11 5819.06 1156.55   6
  -1  -8 -12 718.606 405.819   1
   1   8  12 496.629 436.799   6
   1   9  -6 331.340 312.419   2
  -1  -9   5 6922.41 1078.31   4
   1   9  -5 6688.62 1124.57   2
  -1  -9   4-205.937 277.934   4
   1   9  -4 62.3522 243.700   2
  -1  -9   3 13669.4 1442.21   4
   1   9  -3 14583.7 1575.39   2
   1   9  -2 57.1112 145.305   2
  -1  -9   2 33.3493 149.415   4
  -1  -9   1 4839.56 821.404   4
   1   9  -1 4323.68 773.442   2
  -1  -9   0 6071.12 723.598   6
  -1  -9   0 5422.53 860.150   4
   1   9   0 6271.71 904.533   2
   1   9   1 33931.6 1971.99   6
  -1  -9  -1 33505.7 1905.19   6
  -1  -9  -1 34614.3 2245.47   4
   1   9   1 34994.8 2114.96   2
   1   9   2 5220.29 752.897   2
  -1  -9  -2 4034.64 744.145   4
   1   9   2 3886.29 695.280   6
  -1  -9  -3 3319.71 618.838   1
  -1  -9  -3 4039.64 773.159   4
   1   9   3 3300.39 649.942   6
   1   9   3 2745.04 529.197   2
   1   9   4 3216.44 672.527   5
  -1  -9  -4 5020.81 779.251   1
   1   9   4 4229.68 593.933   2
   1   9   4 3387.67 705.871   6
  -1  -9  -5 6384.87 903.643   1
   1   9   5 6008.30 656.232   2
   1   9   5 6127.59 978.728   6
   1   9   5 5025.88 767.052   5
   1   9   6 5448.22 569.369   2
   1   9   6 4646.56 883.191   6
  -1  -9  -6 5019.50 849.250   1
   1   9   6 4272.00 661.687   5
  -1  -9  -7 7363.00 1094.19   1
   1   9   7 6325.55 815.026   5
   1   9   7 5044.34 957.364   6
   1   9   8 1258.57 481.863   6
   1   9   8 985.028 351.248   5
  -1  -9  -8 1434.43 477.716   1
  -1  -9  -9 5134.37 1043.65   1
   1   9   9 6219.82 1128.63   6
   1   9   9 4553.92 715.495   5
  -1  -9 -10-17.0440 127.464   1
   1   9  10 723.138 435.198   6
  -1  -9 -11 3083.76 791.047   1
   1  10  -4 212.943 186.285   2
  -1 -10   4 49.8318 159.677   4
  -1 -10   3 3993.59 828.147   4
   1  10  -3 3018.60 728.802   2
   1  10  -2 52.6705 185.850   2
  -1 -10   2 178.659 203.483   4
   1  10  -1 13446.0 1473.59   2
  -1 -10   1 14791.0 1526.46   4
   1  10   0-184.328 226.680   2
  -1 -10   0 80.4641 173.855   4
  -1 -10  -1 208.134 130.266   4
   1  10   1 738.351 325.038   2
  -1 -10  -2 88.9658 232.420   4
   1  10   2 322.613 248.325   6
   1  10   2 284.403 242.646   2
   1  10   3 23752.2 1869.05   6
  -1 -10  -3 23659.5 1955.12   4
   1  10   3 25790.7 1722.07   2
   1  10   4-367.135 283.123   5
   1  10   4 314.421 206.354   2
  -1 -10  -4 493.304 244.389   1
   1  10   4-1.62984 157.078   6
  -1 -10  -4-257.145 275.817   4
  -1 -10  -5 10515.6 1230.62   1
   1  10   5 11415.5 980.513   2
   1  10   5 10159.6 1319.29   6
   1  10   5 7723.43 1067.09   5
   1  10   6 1804.26 573.262   6
  -1 -10  -6 2408.93 605.966   1
   1  10   6 2171.96 522.958   5
  -1 -10  -7 6200.34 1038.39   1
   1  10   7 4956.83 1008.17   6
   1  10   7 6034.93 849.130   5
   1  10   8 106.022 240.340   6
  -1 -10  -8-63.1774 365.722   1
   1  10   8 112.683 215.126   5
   1  10   9 9388.17 1465.96   6
  -1 -10  -9 9791.20 1439.01   1
  -1 -10 -10 541.816 342.941   1
   1  11  -2 2230.16 649.309   2
  -1 -11   1 504.997 327.669   4
   1  11  -1 217.511 261.956   2
   1  11   0 183.858 187.757   2
  -1 -11   0 184.442 229.757   4
  -1 -11  -1 3896.69 828.653   4
   1  11   1 4431.21 794.986   2
  -1 -11  -2 1263.62 460.836   4
   1  11   2 1566.71 490.528   2
   1  11   3 7448.20 1072.84   6
   1  11   3 7569.00 956.323   2
  -1 -11  -3 8142.89 1200.58   4
   1  11   4 427.010 254.807   6
   1  11   4 159.419 191.491   5
  -1 -11  -4 367.423 305.158   4
  -1 -11  -5 5820.30 964.637   1
  -1 -11  -5 5640.01 1072.98   4
   1  11   5 4091.91 823.239   5
   1  11   5 5457.82 990.063   6
  -1 -11  -6-173.765 199.090   1
   1  11   6-12.5892 127.521   6
  -1 -11  -7 5162.35 987.101   1
   1  11   7 4616.99 1008.41   6
  -1 -11  -8 114.739 266.233   1
   1  12  -1 4042.94 861.651   2
   1  12   0-340.415 328.545   2
   1  12   1 789.776 366.452   2
   1  12   3 2986.22 773.130   5
   1  12   4 215.696 304.413   5
   1  12   5 1843.68 607.404   6
   1  12   6-6.79058 210.949   6
  -2  11   8 1925.63 737.186   5
  -2  11   7-84.4897 177.509   5
  -2  11   6 3059.98 962.502   5
  -2  11   5-143.420 231.952   5
   2 -11  -5 89.2874 151.328   4
  -2  11   4 3918.52 1181.89   5
   2 -11  -4 4104.41 767.443   4
  -2  11   3 89.6668 225.356   5
   2 -11  -3 214.880 215.022   4
   2 -11  -2 4087.95 770.640   4
   2 -11  -2 3811.80 853.348   3
  -2  11   2 3737.76 1084.93   5
   2 -11  -1 1711.51 601.548   3
   2 -11  -1 1649.91 487.472   4
  -2  11   1 2386.99 862.306   5
   2 -11   0 460.584 206.504   3
  -2  11   0 1261.88 553.808   5
   2 -11   0 742.126 333.825   4
  -2  11  -1 72.1894 133.323   2
   2 -11   1-132.877 179.763   4
   2 -11   2 1409.84 457.233   3
  -2  11  -2 1321.99 435.091   2
   2 -11   2 1020.91 415.489   4
   2 -11   3 198.215 181.700   3
   2 -11   3-92.9300 203.686   4
  -2  11  -3 94.6118 152.263   2
   2 -10  -9 121.152 137.334   1
  -2  10   9-9.38307 244.004   5
   2 -10  -8 5061.86 829.418   1
  -2  10   8 5813.31 1171.69   5
   2 -10  -7-47.0018 146.132   1
  -2  10   7 47.1044 396.267   5
   2 -10  -6 7329.52 938.962   1
   2 -10  -6 6786.19 977.115   4
  -2  10   6 6363.44 1281.18   5
  -2  10   5-282.755 372.756   5
   2 -10  -5 187.437 237.189   4
  -2  10   4 8510.56 1560.65   5
   2 -10  -4 10567.9 1191.76   4
   2 -10  -3 221.939 210.634   4
  -2  10   3 1557.27 779.409   5
   2 -10  -2 851.570 336.421   4
  -2  10   2 1229.19 279.593   2
   2 -10  -1 1795.34 517.789   3
  -2  10   1 1133.00 671.280   5
   2 -10  -1 1027.93 377.561   4
  -2  10   1 1054.89 295.463   2
   2 -10   0 4503.02 850.352   3
  -2  10   0 4922.27 1060.22   5
   2 -10   0 5165.10 831.489   4
  -2  10   0 5329.03 720.567   2
  -2  10  -1 1316.11 397.096   2
   2 -10   1 1320.95 415.340   4
   2 -10   1 789.837 364.901   3
   2 -10   2 7028.67 993.219   4
   2 -10   2 6483.01 948.753   3
  -2  10  -2 5978.42 875.201   2
   2 -10   3 57.6085 192.684   3
   2 -10   3-71.1032 125.762   4
  -2  10  -3 267.365 212.147   2
  -2  10  -4 3842.57 755.436   2
   2 -10   4 3371.00 710.398   4
   2 -10   4 4210.06 691.187   3
   2 -10   5 258.184 246.893   4
  -2  10  -5 227.303 253.868   2
  -2   9  11 332.921 345.244   5
   2  -9 -10 5328.06 861.566   1
  -2   9  10 5055.80 1017.97   5
   2  -9  -9 324.764 236.930   1
  -2   9   9 445.498 384.629   5
  -2   9   8 2897.29 769.642   5
   2  -9  -8 4269.90 708.111   1
   2  -9  -7 104.261 138.502   1
  -2   9   7-411.543 296.266   5
  -2   9   6 8227.42 1351.56   5
   2  -9  -6 8903.07 984.731   1
  -2   9   5 533.366 507.495   5
   2  -9  -5 219.773 184.174   1
   2  -9  -5-9.86909 145.348   4
  -2   9   4 3829.86 1011.03   5
   2  -9  -4 3588.36 647.782   4
  -2   9   3-36.5941 429.190   5
   2  -9  -3 4.71442 127.712   4
  -2   9   3 43.7289 69.8820   2
  -2   9   2 16290.8 1006.09   2
   2  -9  -2 14276.0 1291.58   4
  -2   9   2 13791.1 1856.90   5
   2  -9  -1 581.008 253.144   4
  -2   9   1 418.662 216.627   2
  -2   9   0 21590.9 1429.48   2
   2  -9   0 20697.4 1566.56   4
   2  -9   0 19907.0 1701.24   3
  -2   9   0 21041.4 2077.30   5
   2  -9   1 2430.76 552.255   3
   2  -9   1 3549.70 630.079   4
  -2   9  -1 2723.50 532.319   2
  -2   9  -2 19476.9 1525.73   2
   2  -9   2 20448.3 1597.17   4
   2  -9   2 18791.4 1556.06   3
   2  -9   3 892.887 321.193   4
  -2   9  -3 444.085 230.810   2
   2  -9   3 556.951 259.297   3
   2  -9   4 1608.63 394.072   3
  -2   9  -4 1735.72 500.703   2
   2  -9   4 1238.80 427.048   4
   2  -9   5-143.546 228.052   4
  -2   9  -5 346.412 286.327   2
   2  -9   5 53.5964 124.004   3
  -2   9  -6 2736.90 652.315   2
   2  -9   6 3065.70 676.166   4
   2  -8 -11-533.656 273.397   1
  -2   8  11-289.650 363.747   5
   2  -8 -10 2097.86 517.425   1
  -2   8  10 1848.93 582.754   5
   2  -8  -9-153.122 168.429   1
  -2   8   9-210.906 262.256   5
   2  -8  -8 5952.06 807.268   1
  -2   8   8 3472.11 790.881   5
   2  -8  -7 1061.81 334.607   1
  -2   8   7 925.078 399.577   5
  -2   8   6 2083.30 637.331   5
   2  -8  -6 1887.90 429.001   1
  -2   8   5 2400.89 693.912   5
   2  -8  -5 1570.46 433.383   7
   2  -8  -5 1240.32 324.174   1
  -2   8   4 24060.0 2244.49   5
   2  -8  -4 23129.7 1457.48   1
   2  -8  -4 22983.4 1562.77   4
   2  -8  -4 23096.4 1600.52   7
  -2   8   3 659.759 517.990   5
   2  -8  -3 158.556 162.284   4
   2  -8  -3 436.727 186.969   7
  -2   8   3 747.158 173.927   2
  -2   8   2 21412.0 1099.60   2
   2  -8  -2 20234.0 1440.44   4
   2  -8  -2 21461.0 1423.49   2
   2  -8  -2 21277.2 1217.58   7
  -2   8   2 17545.1 1972.64   5
   2  -8  -1 1125.70 375.820   4
   2  -8  -1 1050.74 201.877   7
  -2   8   1 1130.24 293.569   2
   2  -8  -1 1189.00 379.826   2
  -2   8   0 14527.9 1105.49   2
   2  -8   0 15050.1 1232.19   4
   2  -8   0 15979.0 1397.06   2
   2  -8   1 361.445 183.436   3
   2  -8   1 250.313 140.830   4
  -2   8  -1 382.809 250.856   2
  -2   8  -2 9552.12 996.449   2
   2  -8   2 9330.57 991.418   4
   2  -8   2 9039.50 1081.38   6
   2  -8   2 9956.88 1023.11   3
   2  -8   3 132.594 116.779   3
  -2   8  -3 711.619 310.252   2
   2  -8   3 311.086 214.247   6
   2  -8   3 335.773 236.342   4
   2  -8   4 20623.2 1582.40   4
   2  -8   4 20017.8 1379.08   3
  -2   8  -4 18639.4 1538.61   2
  -2   8  -5 1083.57 403.375   2
   2  -8   5 1397.47 425.480   4
   2  -8   5 1469.80 338.798   3
  -2   8  -6 8203.14 1100.06   2
   2  -8   6 7794.70 1020.12   4
   2  -8   6 8101.26 784.702   3
   2  -8   7-64.9664 313.701   4
  -2   8  -7 312.154 299.015   2
   2  -8   8 5182.63 891.341   4
   2  -7 -12 111.635 100.304   1
   2  -7 -11 891.371 320.519   1
  -2   7  10 4427.42 933.696   6
   2  -7 -10 3471.45 631.719   1
  -2   7  10 2971.40 744.024   5
  -2   7   9 120.505 176.513   5
   2  -7  -9-131.375 215.674   1
   2  -7  -8 4627.66 674.775   1
  -2   7   8 4422.94 859.253   6
  -2   7   8 3536.94 779.723   5
  -2   7   7 78.7320 247.989   5
   2  -7  -7 448.348 214.190   1
   2  -7  -7 220.610 113.366   4
  -2   7   6 14267.2 1524.46   5
  -2   7   6 13352.0 1018.93   1
   2  -7  -6 14091.0 1091.82   1
  -2   7   5 6199.33 1025.65   5
   2  -7  -5 7026.99 723.858   1
   2  -7  -5 6016.37 817.275   7
  -2   7   5 6355.32 688.632   1
   2  -7  -4 23279.1 1352.98   1
   2  -7  -4 24232.4 1589.81   7
  -2   7   4 23178.1 1391.45   1
  -2   7   4 24862.6 2115.27   5
   2  -7  -3 790.990 279.775   4
  -2   7   3 1571.10 663.460   5
   2  -7  -3 518.976 174.523   2
   2  -7  -3 1032.32 287.062   1
  -2   7   3 994.382 186.650   2
   2  -7  -3 900.674 267.624   7
  -2   7   3 384.609 164.412   1
  -2   7   2 1795.24 624.490   5
   2  -7  -2 2454.55 395.527   7
   2  -7  -2 2540.54 452.732   4
   2  -7  -2 2594.74 438.118   2
  -2   7   2 2338.73 316.419   2
  -2   7   2 1657.01 374.686   1
   2  -7  -1 1741.79 274.974   7
  -2   7   1 1365.04 601.091   5
  -2   7   1 1474.99 286.367   2
   2  -7  -1 1640.50 388.999   4
  -2   7   1 1326.47 348.711   1
   2  -7  -1 1903.08 492.712   6
   2  -7  -1 1664.05 402.043   2
  -2   7   0 662.599 237.393   1
   2  -7   0 723.863 298.028   6
  -2   7   0 916.421 275.534   2
   2  -7   0 696.928 251.769   4
   2  -7   0 871.832 301.740   2
   2  -7   1 659.344 265.864   6
  -2   7  -1 602.493 260.912   2
  -2   7  -1 413.019 191.604   1
   2  -7   1 655.784 253.589   3
   2  -7   1 290.752 156.848   4
   2  -7   1 619.769 256.207   2
  -2   7  -2 48233.8 2290.52   2
   2  -7   2 46553.5 2197.72   4
   2  -7   2 47456.3 2569.37   2
   2  -7   2 48314.3 2440.81   6
   2  -7   2 47975.1 2261.47   3
   2  -7   3 746.985 253.199   3
   2  -7   3 725.341 264.914   4
   2  -7   3 689.625 285.626   6
  -2   7  -3 1187.23 361.489   2
   2  -7   4 6260.57 692.584   3
  -2   7  -4 5748.55 810.634   2
   2  -7   4 7310.63 858.061   4
   2  -7   4 6521.12 800.105   6
   2  -7   5-2.24608 125.912   4
   2  -7   5-29.5614 85.0628   6
   2  -7   5-74.8289 88.1861   3
  -2   7  -5-65.4749 158.618   2
   2  -7   6 11323.6 1169.55   4
   2  -7   6 11813.9 903.471   3
  -2   7  -6 11553.7 1242.56   2
   2  -7   7 301.706 213.824   4
  -2   7  -7 71.7203 151.803   2
   2  -7   7 58.0912 142.180   3
  -2   7  -8 16611.1 1630.03   2
   2  -7   8 17417.1 1589.52   4
   2  -7   9 858.478 369.456   4
  -2   7  -9 170.983 251.213   2
   2  -6 -13-743.264 348.084   1
   2  -6 -12 2305.49 592.017   1
   2  -6 -12 2891.79 631.949   3
   2  -6 -11-283.213 318.320   1
  -2   6  11-50.3611 228.061   6
   2  -6 -10 5565.77 791.199   1
  -2   6  10 6882.67 1102.25   6
   2  -6  -9 52.6636 123.111   1
  -2   6   9-182.242 213.701   5
  -2   6   9 262.566 245.523   6
   2  -6  -8 18103.3 1310.08   1
   2  -6  -8 17248.3 1085.26   4
  -2   6   8 16392.7 1607.05   6
  -2   6   8 17235.6 1678.89   5
  -2   6   7 10011.0 807.571   1
   2  -6  -7 9085.78 677.015   4
   2  -6  -7 10685.2 947.501   1
  -2   6   7 9168.02 1159.48   6
  -2   6   7 7653.77 1090.32   5
   2  -6  -6 17435.6 1153.11   1
  -2   6   6 16385.1 1591.09   5
   2  -6  -6 16290.6 866.640   4
  -2   6   6 16363.0 1043.71   1
  -2   6   6 17133.1 1548.40   6
  -2   6   5 1627.47 476.505   5
  -2   6   5 1476.03 299.436   1
   2  -6  -5 2169.36 375.151   1
   2  -6  -5 2237.62 491.935   7
   2  -6  -4 6885.75 649.616   1
   2  -6  -4 7197.27 817.310   7
  -2   6   4 8223.65 1108.25   5
  -2   6   4 7307.93 678.798   1
  -2   6   3 833.360 383.611   5
   2  -6  -3 1319.03 286.669   1
   2  -6  -3 1118.99 229.807   2
   2  -6  -3 1100.02 396.303   6
   2  -6  -3 1473.73 338.262   7
   2  -6  -2 11753.7 1200.57   6
  -2   6   2 9817.11 1275.45   5
   2  -6  -2 9940.46 774.260   2
   2  -6  -2 10980.4 846.792   7
  -2   6   2 11509.0 639.848   2
   2  -6  -2 11038.5 880.698   4
   2  -6  -1 1134.28 217.850   7
  -2   6   1 2243.93 716.608   5
  -2   6   1 1032.55 216.704   2
   2  -6  -1 1374.30 318.188   4
   2  -6  -1 1172.27 348.256   6
   2  -6  -1 1278.96 301.412   2
  -2   6   1 1416.26 319.762   1
  -2   6   0 32655.3 1506.85   2
   2  -6   0 31395.6 1566.07   4
   2  -6   0 33844.9 1760.42   2
   2  -6   0 34703.5 2002.12   6
  -2   6   0 34602.0 1702.52   1
  -2   6  -1 5924.10 662.347   2
  -2   6  -1 4844.16 602.185   1
   2  -6   1 4576.38 565.809   4
   2  -6   1 4441.93 646.406   2
   2  -6   1 4604.98 615.879   3
   2  -6   1 3880.03 624.493   6
  -2   6  -2 11208.9 993.217   2
   2  -6   2 11722.7 948.435   4
   2  -6   2 11005.4 1091.97   2
   2  -6   2 11907.5 1073.04   6
   2  -6   2 11317.6 960.331   3
  -2   6  -2 11494.6 966.094   1
   2  -6   3 112.105 100.197   4
  -2   6  -3 578.589 259.368   4
  -2   6  -3 511.529 286.474   2
   2  -6   3 318.877 175.849   6
   2  -6   3 241.183 172.889   2
  -2   6  -3 500.639 194.284   1
   2  -6   3 40.3464 113.818   3
  -2   6  -4 17997.7 1385.28   2
   2  -6   4 18169.6 1298.40   4
   2  -6   4 16790.9 1069.15   3
  -2   6  -4 20481.9 1526.53   4
  -2   6  -5 101.872 161.682   2
   2  -6   5 92.2914 113.700   4
   2  -6   5 239.782 174.108   3
   2  -6   6 2192.98 474.229   4
  -2   6  -6 2874.97 626.275   2
   2  -6   6 2574.97 383.522   3
  -2   6  -7 607.342 291.409   2
   2  -6   7 548.810 291.312   4
   2  -6   7-6.85031 77.6676   3
   2  -6   8 845.019 263.075   6
   2  -6   8 1467.14 428.009   4
   2  -6   8 1021.44 378.605   3
  -2   6  -8 1447.30 455.540   2
   2  -6   9 245.471 198.966   4
  -2   6  -9 525.416 364.350   2
  -2   6 -10 11832.1 1394.44   2
   2  -6  10 10307.9 1251.12   4
   2  -5 -13 396.405 313.328   1
   2  -5 -12 6062.35 901.708   1
   2  -5 -12 5433.26 838.721   3
  -2   5  12 6983.42 1153.24   6
   2  -5 -11 2353.08 530.438   1
  -2   5  11 2535.01 676.327   6
  -2   5  10 9693.18 1274.31   6
   2  -5 -10 8056.21 941.100   1
  -2   5   9 102.158 164.125   6
   2  -5  -9-147.571 216.066   1
   2  -5  -9 390.971 179.632   4
  -2   5   9-152.832 270.037   5
   2  -5  -8 29105.1 1622.30   1
   2  -5  -8 27218.8 1483.28   4
  -2   5   8 28696.4 2064.34   6
  -2   5   8 26197.5 2005.60   5
   2  -5  -7 24530.5 1407.47   1
   2  -5  -7 23106.4 1167.13   4
  -2   5   7 25161.0 1846.12   6
  -2   5   7 22836.0 1854.87   5
   2  -5  -6 2476.76 540.166   7
   2  -5  -6 2373.31 511.314   5
  -2   5   6 3007.63 628.659   6
  -2   5   6 3287.74 402.354   1
   2  -5  -6 2792.17 321.712   4
   2  -5  -6 2633.59 424.179   1
  -2   5   6 2727.81 638.057   5
   2  -5  -5 10632.5 1063.65   5
   2  -5  -5 12136.0 841.062   1
   2  -5  -5 11907.6 657.348   4
   2  -5  -5 13340.5 1173.91   7
   2  -5  -5 12874.9 1271.26   6
  -2   5   5 10978.1 1235.16   5
  -2   5   4 53883.2 2841.27   5
   2  -5  -4 58549.9 2812.45   6
   2  -5  -4 51103.9 1858.40   1
   2  -5  -4 56183.5 2437.91   7
   2  -5  -3 10818.6 728.466   1
   2  -5  -3 11578.3 948.410   7
   2  -5  -3 12547.9 1188.69   6
  -2   5   3 9846.82 726.823   1
   2  -5  -3 12311.7 648.319   2
  -2   5   2 138623. 3064.20   2
   2  -5  -2 128076. 3440.39   1
   2  -5  -2 129247. 3570.79   4
   2  -5  -2 130521. 3381.87   2
   2  -5  -2 139570. 4494.24   6
  -2   5   2 123583. 3458.29   1
   2  -5  -2 132136. 3708.50   7
   2  -5  -1 16417.1 1281.87   6
  -2   5   1 14400.5 912.821   1
   2  -5  -1 15749.2 948.483   4
   2  -5  -1 14480.7 935.765   2
  -2   5   1 17014.3 1470.58   5
  -2   5   1 15931.0 796.872   2
   2  -5  -1 15553.7 856.076   7
  -2   5   0 25073.1 1191.03   2
   2  -5   0 26205.5 1387.90   2
   2  -5   0 26375.3 955.167   7
   2  -5   0 27315.7 1627.80   6
   2  -5   0 25167.1 1238.98   4
   2  -5   0 25937.8 1465.01   3
  -2   5  -1 13936.1 946.408   2
   2  -5   1 13432.6 891.984   4
   2  -5   1 14053.2 1056.65   2
   2  -5   1 13988.9 1027.40   3
  -2   5  -2 82893.6 2787.24   2
   2  -5   2 72439.8 2495.97   4
   2  -5   2 74032.5 2590.15   3
   2  -5   2 76773.8 2922.72   2
  -2   5  -2 72382.9 2555.87   1
  -2   5  -3 121.439 106.148   4
   2  -5   3 101.555 113.104   4
   2  -5   3 35.6042 140.336   2
   2  -5   3 88.7218 103.811   3
  -2   5  -3 430.980 268.961   2
  -2   5  -4 16395.1 1263.74   2
   2  -5   4 16607.4 1148.94   4
  -2   5  -4 18114.6 1317.39   4
   2  -5   4 16891.3 992.892   3
   2  -5   4 16715.8 1388.66   2
   2  -5   5-282.910 241.764   4
  -2   5  -5-77.3023 150.002   4
   2  -5   5-86.6606 150.876   3
  -2   5  -5 62.5985 156.272   2
   2  -5   6 15796.8 1236.21   4
  -2   5  -6 14705.0 1285.19   2
   2  -5   6 15118.0 924.160   3
   2  -5   7-264.466 265.544   4
  -2   5  -7 217.410 189.236   2
   2  -5   7 68.7326 147.843   3
   2  -5   8 31891.9 1790.00   6
   2  -5   8 35743.2 2140.76   4
  -2   5  -8 37105.4 2273.99   2
   2  -5   8 38246.0 2322.74   3
   2  -5   9 120.805 88.2566   6
   2  -5   9 393.012 252.253   4
  -2   5  -9 188.816 235.934   2
  -2   5 -10 5473.15 926.583   2
   2  -5  10 4197.99 764.981   4
   2  -5  11-80.6244 217.069   4
  -2   5 -11 622.398 337.657   2
   2  -4 -14 3127.53 739.069   1
   2  -4 -13 119.406 252.655   1
   2  -4 -12 6517.01 926.278   1
  -2   4  12 6831.30 1090.96   6
   2  -4 -11-22.1480 132.027   3
  -2   4  11-156.176 195.505   6
   2  -4 -11 8.74546 148.495   1
  -2   4  10 6976.79 1026.53   6
   2  -4 -10 7478.31 843.627   1
   2  -4  -9 7544.95 824.412   4
  -2   4   9 6759.15 981.082   6
   2  -4  -9 6917.22 748.580   1
   2  -4  -8 7940.95 790.169   4
   2  -4  -8 8878.32 832.659   1
  -2   4   8 7364.42 1026.45   5
  -2   4   8 8603.54 1057.77   6
   2  -4  -7 1196.91 371.090   5
   2  -4  -7 2334.64 372.134   4
   2  -4  -7 2248.72 374.914   1
  -2   4   7 2244.23 506.317   6
  -2   4   7 2541.92 592.208   5
  -2   4   6 57955.3 2761.11   6
   2  -4  -6 64666.0 2921.87   6
   2  -4  -6 66648.9 2276.90   1
  -2   4   6 61840.8 3065.29   5
   2  -4  -6 60222.3 1969.20   4
   2  -4  -6 67292.8 2965.60   7
  -2   4   5 1179.40 203.265   1
  -2   4   5 1642.10 421.165   6
   2  -4  -5 910.877 316.014   5
   2  -4  -5 895.523 205.259   1
   2  -4  -5 1115.49 184.040   4
   2  -4  -5 1371.04 372.238   7
   2  -4  -5 1239.47 348.348   6
  -2   4   5 932.810 361.713   5
   2  -4  -4 110821. 2887.85   1
  -2   4   4 108717. 2853.43   1
  -2   4   4 111577. 4201.51   5
   2  -4  -4 113585. 3663.02   7
   2  -4  -3 27457.3 912.713   2
   2  -4  -3 26369.9 1069.60   1
  -2   4   3 25320.0 1789.30   5
   2  -4  -3 26858.6 1456.61   7
   2  -4  -3 24598.9 1576.86   5
  -2   4   3 23310.2 1059.75   1
  -2   4   2 123189. 3090.06   1
   2  -4  -2 122994. 3071.73   1
   2  -4  -2 125533. 3488.79   7
   2  -4  -2 124846. 3020.72   2
  -2   4   1 8471.55 508.536   2
   2  -4  -1 7065.46 558.708   2
   2  -4  -1 6861.09 527.348   4
  -2   4   1 6816.53 521.697   1
  -2   4   1 5818.06 521.048   7
   2  -4  -1 6642.19 540.138   7
   2  -4   0 13763.2 660.803   7
  -2   4   0 13467.8 702.604   7
  -2   4   0 13941.2 757.157   2
   2  -4   0 15026.0 914.204   2
   2  -4   0 14519.1 781.505   4
  -2   4   0 13960.8 809.697   1
   2  -4   0 13425.7 947.874   3
  -2   4   0 15392.7 1234.91   5
  -2   4  -1 5479.34 519.394   2
   2  -4   1 5349.03 578.233   2
  -2   4  -1 5048.98 484.500   1
   2  -4   1 5197.87 472.187   4
   2  -4   1 5595.62 575.857   3
  -2   4  -1 5015.09 335.602   7
  -2   4  -2 86326.1 2713.21   2
   2  -4   2 82382.3 2485.94   4
   2  -4   2 80087.6 2831.92   2
  -2   4  -2 76690.5 2579.79   4
   2  -4   2 84196.9 2590.40   3
   2  -4   3 207.950 138.959   4
  -2   4  -3 178.675 163.823   2
   2  -4   3-48.5008 161.460   2
   2  -4   3 192.005 180.459   3
  -2   4  -4 131189. 3960.91   2
   2  -4   4 123964. 3657.59   4
  -2   4  -4 131215. 3936.26   4
   2  -4   4 125132. 4150.68   2
   2  -4   4 130930. 3375.93   3
   2  -4   5 108.266 158.207   4
  -2   4  -5 138.211 55.8876   7
  -2   4  -5 310.057 218.691   2
  -2   4  -5 44.8628 115.270   4
   2  -4   5 256.496 134.553   3
   2  -4   5 82.6464 145.134   2
  -2   4  -6 133092. 3213.43   7
  -2   4  -6 131768. 4340.37   2
  -2   4  -6 139086. 4388.78   4
   2  -4   6 135181. 3648.21   3
   2  -4   6 131423. 4149.12   4
   2  -4   7 443.056 277.698   3
   2  -4   7 46.9296 143.419   4
  -2   4  -7 125.587 102.802   7
   2  -4   7-202.418 197.515   6
  -2   4  -7 223.127 281.928   2
  -2   4  -8 2464.65 378.035   7
   2  -4   8 2146.26 623.160   3
   2  -4   8 2883.83 559.479   4
  -2   4  -8 2580.05 557.156   2
   2  -4   8 2492.52 465.516   6
   2  -4   9 283.832 167.417   4
  -2   4  -9 73.7144 74.7240   7
  -2   4  -9 350.519 222.518   2
   2  -4   9 85.4953 352.651   3
   2  -4   9 32.2786 124.298   6
   2  -4  10 8821.09 1039.42   4
  -2   4 -10 9934.77 1174.02   2
   2  -4  10 9322.07 882.271   6
   2  -4  11-267.461 287.521   4
  -2   4 -11 298.354 275.236   2
   2  -4  12 2551.41 596.254   4
  -2   4 -12 3357.20 723.694   2
   2  -3 -14 3459.55 732.109   1
   2  -3 -13 521.678 250.642   1
   2  -3 -12 3754.06 655.119   1
   2  -3 -11 871.414 300.467   3
  -2   3  11 549.318 282.639   6
   2  -3 -11 685.455 288.741   1
   2  -3 -10 174.957 168.531   3
   2  -3 -10 586.559 187.508   2
  -2   3  10 915.989 372.790   6
   2  -3  -9 14675.9 814.749   2
  -2   3   9 12736.7 1277.82   6
   2  -3  -9 15241.2 1131.48   3
   2  -3  -9 12720.5 972.750   1
   2  -3  -9 15084.6 1196.14   4
   2  -3  -8 75161.0 2761.58   4
   2  -3  -8 66925.9 3019.27   6
   2  -3  -8 69688.7 2453.65   1
  -2   3   8 69549.6 3145.25   6
   2  -3  -7 9442.65 790.875   4
   2  -3  -7 9098.50 552.157   2
  -2   3   7 7674.36 1016.30   5
  -2   3   7 8995.13 989.747   6
   2  -3  -7 7408.87 1003.95   5
   2  -3  -7 8655.72 686.473   1
   2  -3  -7 9192.47 995.243   6
   2  -3  -6 36946.0 1168.48   2
   2  -3  -6 35646.5 1507.40   4
   2  -3  -6 35608.2 1968.20   6
  -2   3   6 35609.3 2200.83   5
  -2   3   6 33578.4 1911.00   6
   2  -3  -6 38142.7 2129.01   7
   2  -3  -6 33736.9 2118.52   5
   2  -3  -6 31703.0 1385.31   1
   2  -3  -5 604.518 236.598   5
   2  -3  -5 1361.68 175.404   2
   2  -3  -5 1222.75 215.481   4
  -2   3   5 1048.33 317.970   6
   2  -3  -5 1529.54 378.865   7
   2  -3  -5 1443.46 358.560   6
   2  -3  -5 1311.73 232.790   1
  -2   3   5 1257.00 426.582   5
   2  -3  -4 5439.75 455.639   1
  -2   3   4 5153.92 807.797   5
  -2   3   4 6441.01 388.832   1
   2  -3  -4 5774.22 714.753   6
   2  -3  -4 5448.05 380.676   4
  -2   3   4 5675.33 652.231   7
   2  -3  -4 5269.19 661.147   7
   2  -3  -4 4612.85 669.427   5
  -2   3   3-104.467 189.881   5
   2  -3  -3 66.8136 42.4452   4
  -2   3   3-1.28247 104.007   7
   2  -3  -3-10.0869 30.1770   2
  -2   3   3 190.576 90.8387   1
   2  -3  -3 81.3502 87.9771   7
   2  -3  -3 47.5094 70.3993   1
   2  -3  -2 16059.0 680.124   1
   2  -3  -2 14166.4 611.488   2
  -2   3   2 14433.6 910.106   7
   2  -3  -2 16035.9 964.097   7
  -2   3   2 14582.0 679.795   1
   2  -3  -2 14660.8 940.545   3
  -2   3   2 13581.4 1187.87   5
   2  -3  -1 1974.00 325.949   3
   2  -3  -1 2547.33 256.078   4
   2  -3  -1 2258.95 264.074   2
  -2   3   1 2378.43 245.101   1
  -2   3   1 2303.09 312.857   7
   2  -3  -1 2705.85 330.587   7
   2  -3   0 135704. 3557.74   3
  -2   3   0 134233. 3081.93   2
  -2   3   0 132651. 3155.40   1
   2  -3   0 132619. 3049.17   4
  -2   3   0 129690. 3193.22   7
   2  -3   0 127083. 3269.50   2
  -2   3   0 128835. 3956.12   5
   2  -3   1 1082.49 226.806   3
  -2   3  -1 1325.83 182.554   7
   2  -3   1 1273.92 249.102   2
  -2   3  -1 1618.45 245.680   4
  -2   3  -1 1060.86 188.667   2
   2  -3   1 1096.08 190.900   4
   2  -3   2 151128. 3663.18   4
   2  -3   2 143000. 3961.33   2
  -2   3  -2 145717. 3750.05   4
  -2   3  -2 150796. 3850.51   2
  -2   3  -2 151112. 3222.86   7
   2  -3   2 155691. 3749.15   3
   2  -3   3-133.365 124.841   4
  -2   3  -3 233.115 175.548   2
  -2   3  -3-102.674 92.1781   4
   2  -3   3 88.5098 89.5201   3
   2  -3   4 675249. 13284.4   3
  -2   3  -4 650988. 13876.9   2
   2  -3   4 648350. 13630.3   4
  -2   3  -5-36.6483 108.474   4
   2  -3   5-19.8857 137.469   4
  -2   3  -5 168.005 208.184   2
   2  -3   5 81.6858 136.479   3
  -2   3  -6 127.934 111.082   4
   2  -3   6 599.436 232.947   4
  -2   3  -6 398.562 155.377   7
  -2   3  -6 500.911 247.386   2
   2  -3   6 313.843 163.272   2
   2  -3   7-88.2327 153.747   6
  -2   3  -7 61.0178 95.2485   7
  -2   3  -7-7.92960 169.035   4
  -2   3  -7 257.782 242.589   2
   2  -3   7-273.738 259.216   4
   2  -3   7 470.895 371.558   3
  -2   3  -8 20979.7 1514.38   2
   2  -3   8 23110.7 1442.69   6
  -2   3  -8 24623.4 1392.30   7
   2  -3   8 27121.2 2217.16   3
   2  -3   8 24949.5 1590.95   4
   2  -3   9-151.418 234.607   4
   2  -3   9 150.799 186.393   6
  -2   3  -9 520.775 319.636   2
   2  -3  10 26343.7 1779.35   4
  -2   3 -10 30451.7 1969.83   2
   2  -3  10 29303.4 1709.81   6
  -2   3 -10 27436.9 1726.60   7
   2  -3  11 473.886 256.193   4
  -2   3 -11 537.976 302.565   2
   2  -3  11 225.713 149.019   6
   2  -3  12 3523.05 651.744   4
  -2   3 -12 3349.81 683.923   2
  -2   3 -13 67.4569 156.524   2
   2  -2 -14 573.528 283.533   1
   2  -2 -13 612.308 311.507   1
   2  -2 -12 5401.35 739.767   1
   2  -2 -11 2177.57 353.551   3
   2  -2 -11 2022.60 398.590   2
   2  -2 -11 2145.41 416.626   1
   2  -2 -10 16215.5 1109.90   2
  -2   2  10 15254.3 1381.77   6
   2  -2 -10 16842.5 1046.72   3
   2  -2 -10 16627.3 1125.70   1
   2  -2  -9 3671.82 580.478   4
   2  -2  -9 3852.68 508.093   2
   2  -2  -9 3220.43 572.176   6
  -2   2   9 3576.26 631.115   6
   2  -2  -9 3566.58 472.425   3
   2  -2  -9 4314.43 524.987   1
   2  -2  -8 618.620 250.312   6
   2  -2  -8 549.132 197.967   3
  -2   2   8 700.432 303.754   6
   2  -2  -8 390.851 178.736   4
   2  -2  -8 465.447 181.092   2
   2  -2  -8 525.509 175.607   1
   2  -2  -7 419.445 274.772   5
   2  -2  -7 547.135 178.584   3
   2  -2  -7 543.881 196.938   4
   2  -2  -7 302.479 140.434   7
  -2   2   7 303.906 187.084   6
   2  -2  -7 452.371 169.750   2
   2  -2  -7 526.802 243.688   6
   2  -2  -7 625.261 173.963   1
   2  -2  -6 8428.91 694.546   4
   2  -2  -6 8859.17 652.364   2
   2  -2  -6 7235.92 791.093   6
   2  -2  -6 9190.35 993.258   7
  -2   2   6 8090.60 834.779   6
   2  -2  -6 8307.60 686.611   3
  -2   2   6 8778.54 935.486   7
   2  -2  -6 7891.88 548.542   1
   2  -2  -6 9621.21 1071.65   5
   2  -2  -5 255.923 111.947   1
   2  -2  -5-87.5806 117.503   3
   2  -2  -5 51.9178 80.9683   2
  -2   2   5-18.9353 132.456   7
   2  -2  -5 77.8651 92.5105   4
   2  -2  -5 120.478 193.843   5
   2  -2  -5 102.502 78.2948   6
  -2   2   5 75.4231 174.235   5
   2  -2  -4 12092.1 670.699   4
   2  -2  -4 11931.5 663.002   2
  -2   2   4 12474.4 975.315   7
   2  -2  -4 12394.4 619.754   1
   2  -2  -4 11833.4 952.012   6
  -2   2   4 12977.4 1180.89   5
   2  -2  -4 12325.6 801.876   3
   2  -2  -3 16180.8 1070.29   6
  -2   2   3 16007.2 1310.82   5
   2  -2  -3 16434.6 667.458   4
   2  -2  -3 14636.2 882.325   3
  -2   2   3 14982.6 1003.30   7
   2  -2  -3 16327.0 672.421   1
   2  -2  -3 15569.4 1032.30   7
   2  -2  -2 231189. 4522.83   4
  -2   2   2 226291. 5462.06   7
   2  -2  -2 220592. 4621.51   1
   2  -2  -2 229026. 5283.09   3
  -2   2   2 232849. 6273.81   5
  -2   2   2 233595. 4561.28   1
   2  -2  -2 230428. 5426.51   7
   2  -2  -1 36118.7 1344.21   7
   2  -2  -1 34908.9 1074.97   2
   2  -2  -1 39558.9 992.464   1
  -2   2   1 36785.6 1006.58   1
   2  -2  -1 36568.1 1387.40   3
  -2   2   1 37446.4 1854.89   5
  -2   2   1 39068.2 1457.41   7
  -2   2   0 99065.4 2224.96   1
   2  -2   0 98764.6 2136.33   4
   2  -2   0 103342. 2657.26   3
  -2   2   0 102055. 2589.18   7
  -2   2   0 95285.1 3100.34   5
  -2   2  -1 1470.92 183.235   4
   2  -2   1 1327.08 160.469   4
  -2   2  -1 1382.51 242.927   3
   2  -2   1 1316.07 221.258   2
   2  -2   1 1602.16 243.791   3
  -2   2  -1 1455.56 191.688   7
  -2   2  -1 1619.12 209.247   2
   2  -2   2 2629.85 284.218   4
   2  -2   2 1968.94 312.266   2
  -2   2  -2 2206.10 294.428   4
  -2   2  -2 1685.15 273.125   2
  -2   2  -2 1794.16 324.766   3
   2  -2   2 1775.87 248.694   3
   2  -2   3 374.402 145.277   4
  -2   2  -3 190.091 77.3305   4
  -2   2  -3 459.218 162.111   2
   2  -2   3 264.977 127.528   3
  -2   2  -3 468.156 146.873   3
  -2   2  -4 29609.0 1378.13   2
   2  -2   4 28093.8 1246.35   4
  -2   2  -4 27666.5 1296.86   4
   2  -2   4 30156.5 1287.86   3
  -2   2  -5 48.7856 84.7754   3
  -2   2  -5-98.4600 119.153   2
   2  -2   5 180.795 160.328   3
   2  -2   6 217947. 5426.19   6
   2  -2   6 215490. 5400.57   4
  -2   2  -6 218261. 5548.83   2
  -2   2  -6 221222. 5587.80   4
   2  -2   6 216257. 6503.46   3
  -2   2  -6 203770. 4861.84   3
  -2   2  -7 26.2806 97.6704   3
   2  -2   7-129.196 201.164   4
  -2   2  -7 224.197 172.699   4
  -2   2  -7 0.79174 160.729   2
   2  -2   7-266.849 356.279   3
   2  -2   7 248.575 220.722   2
   2  -2   7 111.357 127.809   6
   2  -2   8 36979.5 1839.46   4
  -2   2  -8 36606.1 1878.45   2
   2  -2   8 37581.8 2429.21   3
  -2   2  -8 33187.3 1331.88   3
   2  -2   8 37466.1 1847.21   6
   2  -2   9 327.674 237.939   6
   2  -2   9-15.7360 143.930   4
  -2   2  -9 521.227 231.320   7
  -2   2  -9 192.655 93.2106   3
  -2   2  -9 301.034 217.265   2
   2  -2  10 15733.0 1231.92   4
  -2   2 -10 15842.3 1308.61   2
   2  -2  10 17556.3 1328.80   6
  -2   2 -10 16627.4 1371.41   7
  -2   2 -11 1122.24 360.451   2
   2  -2  11 1839.85 420.666   4
   2  -2  11 1439.73 397.100   6
  -2   2 -12 18379.5 1577.95   2
   2  -2  12 18914.3 1462.55   6
   2  -2  12 19254.1 1426.35   4
   2  -2  13 228.761 183.563   4
  -2   2 -13-294.169 293.067   2
  -2   2 -14 1395.51 434.758   2
   2  -1 -14 3022.55 578.716   1
  -2   1  13 517.768 247.202   4
   2  -1 -13 17.3271 142.353   1
   2  -1 -12 13116.4 1093.71   1
  -2   1  12 12555.8 1080.83   4
   2  -1 -12 12312.0 1145.60   2
  -2   1  11 2370.39 439.114   4
   2  -1 -11 2558.46 451.290   1
   2  -1 -11 2074.03 445.784   2
   2  -1 -10 1069.90 327.424   1
   2  -1 -10 373.113 171.240   2
  -2   1  10 776.981 238.071   4
   2  -1 -10 527.706 244.438   6
   2  -1 -10 632.379 140.115   3
  -2   1   9 366.030 176.509   4
   2  -1  -9 619.765 258.409   2
   2  -1  -9 68.8150 85.1758   1
   2  -1  -9 270.165 173.530   6
   2  -1  -9 347.974 127.243   3
  -2   1   8 21338.3 1146.18   4
   2  -1  -8 20056.6 1342.79   4
   2  -1  -8 19668.7 1319.11   6
   2  -1  -8 20961.7 1332.90   2
   2  -1  -8 22108.3 1076.38   1
   2  -1  -8 21824.4 980.740   3
   2  -1  -7 4147.65 774.571   5
   2  -1  -7 3843.65 383.763   1
   2  -1  -7 3310.04 481.055   2
  -2   1   7 3096.98 584.836   7
   2  -1  -7 3444.21 373.002   3
   2  -1  -7 3449.19 629.269   7
   2  -1  -7 3612.74 533.981   6
  -2   1   7 3644.42 418.440   4
   2  -1  -7 3680.03 501.018   4
   2  -1  -6 95014.4 2460.82   1
   2  -1  -6 94992.7 2869.96   4
   2  -1  -6 90027.9 2897.71   2
   2  -1  -6 86787.2 3005.78   6
  -2   1   6 93669.8 2601.43   4
  -2   1   6 89339.1 3340.03   7
   2  -1  -6 93834.7 2548.48   3
   2  -1  -6 97840.6 3824.29   5
   2  -1  -5 2528.86 262.885   1
  -2   1   5 2225.60 280.478   4
   2  -1  -5 2161.61 376.743   6
   2  -1  -5 2223.76 345.570   2
  -2   1   5 2269.00 452.334   7
   2  -1  -5 2433.39 303.384   3
   2  -1  -5 2101.18 304.729   4
  -2   1   4 21534.6 839.063   4
   2  -1  -4 21898.0 766.711   1
   2  -1  -4 20791.5 918.158   4
   2  -1  -4 20479.3 923.767   3
  -2   1   4 20954.8 1284.20   7
   2  -1  -4 20180.0 1026.82   2
   2  -1  -4 20222.8 1152.94   6
  -2   1   4 22254.4 1566.20   5
   2  -1  -3 108183. 2297.95   1
   2  -1  -3 100035. 2470.53   4
  -2   1   3 105605. 3192.83   7
  -2   1   3 108049. 2374.44   4
   2  -1  -3 104109. 3071.12   6
   2  -1  -3 102245. 2650.58   3
  -2   1   3 101087. 3648.86   5
   2  -1  -2 46383.1 1077.81   1
   2  -1  -2 43682.1 1653.17   7
   2  -1  -2 43069.0 1136.34   4
  -2   1   2 46468.7 1066.44   4
  -2   1   2 47827.4 1780.65   7
   2  -1  -2 44890.1 1420.80   3
   2  -1  -2 46787.6 1735.35   6
  -2   1   2 43509.0 2091.60   5
  -2   1   1 3136.95 368.392   7
   2  -1  -1 2803.05 321.525   7
   2  -1  -1 2955.43 302.903   3
  -2   1   1 2731.99 312.915   3
  -2   1   0 1854.89 391.206   5
   2  -1   0 1799.17 328.162   5
   2  -1   0 2495.37 344.610   3
  -2   1   0 1234.32 192.712   7
  -2   1  -1 564.850 167.504   5
  -2   1  -1 832.774 127.383   4
   2  -1   1 551.447 83.2063   4
   2  -1   1 465.775 139.525   2
   2  -1   2 194.404 109.838   3
   2  -1   2 524.072 111.317   4
  -2   1  -2 244.530 77.4041   4
  -2   1  -2 210.953 87.8057   2
   2  -1   2 371.916 101.953   2
  -2   1  -2 317.321 107.173   3
  -2   1  -3 603.083 178.167   2
   2  -1   3 637.239 149.587   4
  -2   1  -3 655.172 161.596   4
  -2   1  -3 323.256 100.261   3
   2  -1   3 791.933 284.451   3
   2  -1   4 44151.1 1504.81   4
  -2   1  -4 45000.4 1610.16   2
  -2   1  -4 44532.0 1621.20   4
   2  -1   4 46182.5 2186.96   3
  -2   1  -4 42301.9 1418.86   3
   2  -1   5-36.8578 93.5826   4
  -2   1  -5 15.7103 153.200   2
   2  -1   5 299.934 279.851   3
   2  -1   5 104.655 132.141   6
  -2   1  -5 24.7748 52.7448   3
   2  -1   6 112920. 4369.13   3
   2  -1   6 111534. 3071.85   4
  -2   1  -6 109415. 3205.91   2
   2  -1   6 106035. 3428.44   2
  -2   1  -6 109147. 3298.50   4
  -2   1  -6 102346. 2760.26   3
   2  -1   6 106147. 3188.83   6
  -2   1  -7 421.050 192.960   4
  -2   1  -7 109.803 160.363   2
   2  -1   7 382.735 187.684   4
   2  -1   7 573.135 232.217   2
   2  -1   7 14.5515 209.203   3
   2  -1   7 560.656 243.220   6
  -2   1  -7 294.452 116.502   3
   2  -1   8 6104.28 709.853   6
   2  -1   8 6540.23 647.759   4
  -2   1  -8 5598.83 666.286   2
  -2   1  -8 6644.89 761.528   4
   2  -1   8 6352.59 804.466   2
  -2   1  -8 5635.39 472.757   3
   2  -1   9 827.543 248.539   4
  -2   1  -9 561.858 232.231   7
  -2   1  -9 510.769 219.761   2
   2  -1   9 389.014 205.588   6
  -2   1  -9 876.295 180.168   3
   2  -1  10 34260.3 1706.93   4
  -2   1 -10 32321.8 1824.53   2
  -2   1 -10 29656.2 1178.67   3
  -2   1 -10 33551.5 2054.22   7
   2  -1  10 34136.1 1984.49   6
   2  -1  11 279.587 205.844   4
   2  -1  11 525.422 298.074   6
  -2   1 -11 395.302 211.379   2
   2  -1  12 5222.94 690.423   4
  -2   1 -12 5296.05 768.500   2
  -2   1 -12 4468.36 553.603   1
   2  -1  12 5005.51 775.697   6
  -2   1 -13 1675.95 457.273   2
   2  -1  13 1836.58 429.503   4
  -2   1 -13 1916.20 376.663   1
   2  -1  13 1686.55 469.613   6
  -2   1 -14 4175.82 758.167   2
  -2   1 -15 94.7805 156.911   2
  -2   0  13 1222.77 338.915   4
   2   0 -13 941.039 263.641   1
   2   0 -12 3441.78 517.141   1
   2   0 -12 2867.50 604.244   2
  -2   0  12 3869.90 599.871   4
   2   0 -11 339.937 133.570   1
   2   0 -11 406.865 204.860   2
   2   0 -10 35717.1 2064.76   2
  -2   0  10 34908.0 1768.76   4
  -2   0   9 3360.20 516.679   4
   2   0  -9 3118.80 301.689   3
   2   0  -9 2986.19 455.504   6
   2   0  -9 3361.50 595.780   2
  -2   0   8 14597.8 1052.70   4
   2   0  -8 14902.2 1158.73   4
   2   0  -8 13942.8 1160.51   2
   2   0  -8 14187.0 634.869   3
   2   0  -8 14192.7 1014.55   6
  -2   0   7-286.175 184.643   4
   2   0  -7 28.3466 135.325   7
   2   0  -7 444.983 203.530   4
  -2   0   7-35.0988 182.260   7
   2   0  -7-58.0187 100.645   6
   2   0  -7-15.3084 95.7085   2
   2   0  -7-35.3119 66.2265   3
   2   0  -7 248.378 229.856   5
   2   0  -6 25099.6 1299.45   4
   2   0  -6 24423.4 1406.39   2
  -2   0   6 25078.4 1579.80   7
   2   0  -6 22483.3 1218.14   6
   2   0  -6 23746.0 864.802   3
   2   0  -6 25961.8 1850.61   5
   2   0  -6 25102.6 1576.36   7
  -2   0   6 23784.6 1254.92   4
  -2   0   5 18095.8 1011.34   4
   2   0  -5 18251.3 1029.61   6
  -2   0   5 18437.5 1262.50   7
   2   0  -5 17666.7 989.148   4
   2   0  -5 18484.2 1134.80   2
   2   0  -5 19207.7 752.456   3
   2   0  -4 114756. 3002.57   4
  -2   0   4 120605. 3065.20   4
   2   0  -4 115296. 3336.13   2
   2   0  -4 111520. 3135.08   6
  -2   0   4 111938. 3533.61   7
   2   0  -4 117584. 2721.10   3
  -2   0   3 333.628 155.859   7
  -2   0   3 291.190 95.8083   3
  -2   0   3 599.519 165.198   4
   2   0  -3 483.867 128.477   4
   2   0  -3 365.873 128.815   6
   2   0  -3 423.993 112.899   3
  -2   0   2 264.913 48.4948   4
  -2   0   2 373.718 104.374   3
   2   0  -2 324.017 100.759   3
   2   0  -2 441.412 107.867   4
  -2   0   1 1461.35 144.215   4
   2   0  -1 1501.32 304.687   5
  -2   0   1 1258.38 180.537   3
   2   0  -1 1237.21 139.544   4
  -2   0   1 1067.12 216.423   7
   2   0  -1 1103.72 210.999   3
  -2   0   1 1245.07 304.226   5
  -2   0   0 293599. 6204.60   3
   2   0   0 296843. 6455.28   3
  -2   0   0 287650. 6869.19   5
  -2   0  -1 2543.36 184.523   1
   2   0   1 2428.48 375.895   3
  -2   0  -1 2957.93 375.117   5
   2   0   1 2807.43 323.551   5
  -2   0  -2 586.928 201.062   5
  -2   0  -2 458.477 91.4998   4
   2   0   2 410.338 292.989   3
  -2   0  -2 717.804 99.2043   1
  -2   0  -2 622.227 165.245   3
   2   0   3 413.800 91.7007   4
  -2   0  -3 187.996 72.5677   4
  -2   0  -3 196.587 121.892   3
  -2   0  -3 199.475 56.6653   1
  -2   0  -4 104864. 2632.19   2
  -2   0  -4 103631. 3214.43   3
   2   0   4 105818. 2912.27   6
   2   0   4 112650. 2564.43   4
   2   0   4 105526. 4030.14   3
   2   0   5 3374.68 454.172   2
  -2   0  -5 4009.20 408.480   2
   2   0   5 4375.10 383.203   4
  -2   0  -5 3988.53 549.550   3
   2   0   5 3965.96 488.697   6
   2   0   5 3166.38 585.061   3
   2   0   6 65312.2 1954.27   4
  -2   0  -6 62367.9 2093.19   2
   2   0   6 59912.3 2218.19   6
  -2   0  -6 56405.0 2392.35   3
   2   0   7 2134.35 315.346   4
  -2   0  -7 2232.24 367.429   2
   2   0   7 1796.59 346.967   6
   2   0   7 1868.12 368.660   2
  -2   0  -7 1908.29 396.880   3
   2   0   8 10559.4 760.171   4
  -2   0  -8 9925.81 822.133   2
  -2   0  -8 8988.96 866.472   4
   2   0   8 10150.4 968.469   2
  -2   0  -8 9276.79 863.425   3
   2   0   8 10541.1 951.751   6
   2   0   9 4978.82 541.831   4
  -2   0  -9 4319.48 483.166   1
   2   0   9 4497.47 679.928   2
  -2   0  -9 4489.88 578.343   2
   2   0   9 3825.39 619.985   6
  -2   0  -9 4974.40 578.971   3
  -2   0 -10 225.578 170.192   7
  -2   0 -10 392.467 187.173   3
   2   0  10 276.240 153.434   4
   2   0  10 305.425 190.140   6
  -2   0 -10 169.020 138.018   2
  -2   0 -10 496.748 169.527   1
  -2   0 -11 80.0507 83.1783   1
   2   0  11-21.9578 80.7062   4
  -2   0 -11-76.3006 154.680   2
  -2   0 -11 34.4971 74.0000   3
  -2   0 -12 18895.3 1390.18   2
   2   0  12 18532.4 1276.77   4
   2   0  12 16507.8 1485.82   6
  -2   0 -12 16376.2 1068.35   1
  -2   0 -13 797.463 241.603   1
   2   0  13 794.511 281.711   4
  -2   0 -13 896.532 307.173   2
   2   0  13 702.469 340.527   6
  -2   0 -14 3934.20 663.350   2
   2   0  14 4422.31 843.541   6
   2   0  14 5695.76 788.716   4
  -2   0 -14 2718.41 482.202   1
  -2   0 -15 228.264 208.773   2
  -2  -1  13 236.520 193.482   4
   2   1 -13-38.1339 158.825   2
   2   1 -13-20.4504 84.3686   1
  -2  -1  12 11212.4 1100.39   4
   2   1 -12 12471.8 1334.28   2
  -2  -1  11 9844.01 1021.46   4
   2   1 -11 9195.14 1118.25   2
  -2  -1  10 4990.18 712.361   4
   2   1 -10 4195.84 754.639   2
   2   1  -9 5821.24 825.399   2
   2   1  -9 4348.87 466.952   6
  -2  -1   9 5746.44 733.132   4
  -2  -1   8 9674.33 940.849   4
   2   1  -8 10116.2 986.779   4
   2   1  -8 9641.93 1014.56   2
  -2  -1   8 8546.16 998.072   7
   2   1  -8 9529.99 689.663   6
  -2  -1   7 17.8363 131.643   4
   2   1  -7 66.9409 78.1164   4
  -2  -1   7 330.982 227.837   7
   2   1  -7 4.97834 64.8707   6
   2   1  -7-62.5311 151.078   7
   2   1  -7 92.5746 129.985   2
   2   1  -7 66.8705 129.477   5
  -2  -1   6 142231. 4142.22   4
   2   1  -6 143687. 4131.61   4
   2   1  -6 143957. 4454.34   2
  -2  -1   6 139084. 4444.79   7
   2   1  -6 141376. 3674.34   6
   2   1  -6 158223. 5348.63   5
   2   1  -6 155827. 3772.98   3
   2   1  -6 151262. 4459.99   7
  -2  -1   5 3722.25 475.664   4
   2   1  -5 3564.19 459.425   4
   2   1  -5 4263.76 568.436   2
   2   1  -5 4107.35 547.512   7
   2   1  -5 3703.51 479.082   3
   2   1  -5 3323.63 368.173   6
  -2  -1   5 3869.26 559.944   7
  -2  -1   4 20563.3 1047.94   4
   2   1  -4 19291.0 1040.52   4
   2   1  -4 21389.0 1277.98   2
   2   1  -4 18774.3 892.091   6
   2   1  -4 20658.4 1217.16   3
  -2  -1   4 19019.7 1206.59   7
   2   1  -3 6400.26 463.198   6
  -2  -1   3 6327.13 509.053   4
   2   1  -3 5503.09 542.479   7
   2   1  -3 5910.10 505.204   4
   2   1  -3 6719.92 695.907   3
   2   1  -3 6105.94 633.187   2
  -2  -1   3 5856.36 602.987   7
  -2  -1   3 6066.42 368.070   3
  -2  -1   2 63462.5 2124.37   7
  -2  -1   2 65249.6 1868.86   4
   2   1  -2 64826.8 1916.53   4
  -2  -1   2 67216.3 1717.05   3
   2   1  -2 65452.1 2531.74   3
   2   1  -2 60220.8 2236.55   5
   2   1  -1 19039.2 698.424   1
  -2  -1   1 18707.5 793.672   4
  -2  -1   1 19050.7 924.515   7
   2   1  -1 17831.4 1282.27   3
  -2  -1   1 18710.8 894.379   3
   2   1  -1 18427.4 993.323   5
  -2  -1   0 103388. 2379.90   1
   2   1   0 106541. 2362.16   1
  -2  -1   0 102412. 3189.88   3
   2   1   0 109246. 3774.61   3
   2   1   0 107319. 2796.48   5
  -2  -1  -1 19696.8 743.289   1
   2   1   1 18585.9 643.568   1
  -2  -1  -1 16474.4 832.999   5
   2   1   1 19970.4 801.288   5
   2   1   1 18979.5 1385.70   3
   2   1   2 297519. 6167.04   1
   2   1   2 324302. 8010.54   3
  -2  -1  -2 296465. 6373.67   1
  -2  -1  -2 297153. 6244.00   5
   2   1   2 323783. 6100.49   5
   2   1   3 7376.23 539.829   6
   2   1   3 7141.50 410.661   1
   2   1   3 8551.70 547.953   2
  -2  -1  -3 6658.26 880.567   3
  -2  -1  -3 6535.89 416.508   1
   2   1   3 5860.82 846.662   3
  -2  -1  -3 7200.13 343.150   5
  -2  -1  -4 61185.5 1659.61   1
   2   1   4 66346.0 2045.70   2
  -2  -1  -4 64384.1 3000.06   3
   2   1   4 68177.5 2114.75   6
   2   1   5-56.6629 133.421   2
  -2  -1  -5-79.4663 89.5160   1
  -2  -1  -5 21.5110 236.604   3
   2   1   5-12.5835 111.204   6
   2   1   6 24890.9 1319.05   2
  -2  -1  -6 28092.5 1144.61   2
   2   1   6 25762.8 1398.02   6
  -2  -1  -7 6117.51 505.711   1
  -2  -1  -7 6236.41 534.264   2
  -2  -1  -7 4650.43 941.566   3
   2   1   7 5775.12 690.382   6
  -2  -1  -8 19123.1 986.385   1
  -2  -1  -8 18030.3 1030.20   2
   2   1   8 20627.0 1084.96   4
  -2  -1  -8 15101.3 1119.18   4
   2   1   8 16930.0 1192.29   2
  -2  -1  -8 18528.9 1770.14   3
   2   1   8 19652.1 1378.82   6
   2   1   9 1159.21 274.829   4
  -2  -1  -9 995.181 261.109   2
   2   1   9 429.410 220.561   2
   2   1   9 1014.31 380.742   6
  -2  -1  -9 1071.65 250.824   1
  -2  -1  -9 945.389 429.392   3
  -2  -1 -10 23659.5 1222.77   1
   2   1  10 23255.8 1615.84   2
  -2  -1 -10 20627.5 1826.01   3
  -2  -1 -10 24019.3 1349.69   2
   2   1  10 24875.4 1747.03   6
   2   1  10 25709.4 1417.38   4
  -2  -1 -11 286.414 160.765   2
  -2  -1 -11 24.4209 84.3907   1
   2   1  11 81.3084 171.786   6
  -2  -1 -11 167.393 202.795   3
  -2  -1 -12 10832.1 872.625   1
   2   1  12 11917.7 1312.19   6
  -2  -1 -12 12917.5 1050.89   2
   2   1  13 141.413 154.373   6
  -2  -1 -13 99.0752 150.534   1
  -2  -1 -13 60.7532 141.556   2
  -2  -1 -14 2036.12 406.894   1
   2   1  14 1884.52 558.116   6
  -2  -1 -14 2284.94 465.895   2
  -2  -1 -15 872.364 295.400   2
   2   2 -13 776.031 372.796   2
  -2  -2  12 1241.61 381.997   4
   2   2 -12 1106.67 414.484   2
  -2  -2  11 730.124 291.255   4
   2   2 -11 636.643 362.823   2
  -2  -2  10 13733.6 1294.37   4
   2   2 -10 12910.7 1363.02   2
  -2  -2   9 5313.23 775.436   4
   2   2  -9 5375.78 823.376   2
  -2  -2   8 12620.4 1151.97   4
   2   2  -8 13403.2 1280.13   2
  -2  -2   8 12639.8 1215.16   7
   2   2  -8 14821.4 663.121   6
   2   2  -7 1776.53 209.775   6
  -2  -2   7 2002.91 428.967   4
   2   2  -7 1721.83 396.064   7
  -2  -2   7 1976.80 466.499   7
   2   2  -7 1948.73 420.729   4
   2   2  -7 1830.25 422.111   2
   2   2  -6 3029.12 481.563   7
  -2  -2   6 3158.17 496.748   4
   2   2  -6 2748.16 476.011   4
   2   2  -6 2854.22 264.907   6
  -2  -2   6 2548.01 479.374   7
   2   2  -6 2064.10 471.766   2
   2   2  -5 1931.09 367.501   4
  -2  -2   5 2049.56 366.129   4
   2   2  -5 1657.69 343.174   7
   2   2  -5 2027.99 218.690   6
  -2  -2   5 1993.56 413.424   7
   2   2  -5 1595.71 371.408   2
  -2  -2   4 156381. 4116.61   4
   2   2  -4 157687. 4236.88   4
   2   2  -4 157213. 4583.32   2
  -2  -2   4 155173. 4338.58   7
   2   2  -4 155374. 3404.85   6
  -2  -2   4 151758. 3235.64   3
  -2  -2   3 67384.3 2215.57   4
  -2  -2   3 72578.1 2420.51   7
   2   2  -3 70244.5 2336.55   4
   2   2  -3 69140.2 2607.48   2
   2   2  -3 67411.4 1744.19   6
  -2  -2   3 68694.2 1836.13   3
  -2  -2   2 232112. 5381.19   4
   2   2  -2 231146. 5477.35   4
  -2  -2   2 228137. 5834.16   3
   2   2  -2 248759. 5966.70   2
  -2  -2   2 234086. 5490.34   7
   2   2  -1 12742.3 660.330   1
  -2  -2   1 12904.0 773.396   4
  -2  -2   1 12993.3 1138.49   3
  -2  -2   0 57721.2 2609.13   3
  -2  -2   0 55759.9 1658.00   1
   2   2   0 59077.2 1679.12   1
   2   2   0 58008.8 1611.18   6
  -2  -2  -1 2434.09 273.119   1
  -2  -2  -1 1519.86 411.392   3
   2   2   1 2298.92 263.819   6
   2   2   1 2081.31 232.718   1
  -2  -2  -2 1266.75 228.801   1
   2   2   2 1511.45 192.578   1
   2   2   2 1274.22 221.761   6
   2   2   2 1633.17 159.263   5
   2   2   3 18075.6 949.609   6
  -2  -2  -3 17617.4 965.780   1
   2   2   3 17295.7 747.920   1
  -2  -2  -4 14954.4 1389.20   3
  -2  -2  -4 15425.2 858.554   1
   2   2   4 17703.9 1012.08   6
   2   2   5 10721.0 753.021   2
   2   2   5 10258.7 827.733   6
  -2  -2  -5 9587.71 1175.77   3
  -2  -2  -5 10447.4 663.126   1
  -2  -2  -5 9000.86 481.686   5
   2   2   6 266073. 6786.78   2
  -2  -2  -6 263549. 6457.75   5
   2   2   6 258241. 7066.69   6
   2   2   7 46217.5 1901.80   2
  -2  -2  -7 41127.6 2674.15   3
   2   2   7 45940.9 2177.72   6
  -2  -2  -7 44519.5 1856.42   5
  -2  -2  -7 44897.6 1638.20   1
  -2  -2  -7 44595.9 1866.25   6
  -2  -2  -8 76779.3 2751.26   4
  -2  -2  -8 82066.4 3101.91   5
   2   2   8 88507.5 3372.17   6
  -2  -2  -8 87735.4 2923.88   6
  -2  -2  -8 82314.0 4112.20   3
  -2  -2  -8 84986.1 2585.50   1
  -2  -2  -9 58.2549 127.611   6
  -2  -2  -9 156.356 124.293   2
   2   2   9-24.2668 81.1712   2
   2   2   9 163.691 191.450   6
  -2  -2  -9 450.254 393.811   3
  -2  -2  -9-101.967 141.676   1
  -2  -2  -9 23.9907 148.294   5
  -2  -2 -10 13522.0 880.573   2
   2   2  10 9879.03 984.308   2
  -2  -2 -10 10612.1 1222.67   5
   2   2  10 9984.35 1138.11   6
  -2  -2 -10 9556.40 1423.43   3
  -2  -2 -10 10911.8 984.602   6
  -2  -2 -10 10928.0 846.421   1
  -2  -2 -11 2674.56 417.305   2
   2   2  11 2403.98 556.535   6
  -2  -2 -11 1364.06 623.257   3
  -2  -2 -11 2008.14 364.266   1
   2   2  11 1316.08 379.196   2
  -2  -2 -11 2483.08 635.576   5
   2   2  12 5108.21 881.182   6
  -2  -2 -12 6034.91 687.319   1
  -2  -2 -13 126.747 142.596   2
  -2  -2 -13-104.625 105.876   1
   2   2  13 312.554 265.114   6
   2   2  14 2040.58 645.899   6
  -2  -2 -14 2348.73 467.232   1
   2   2  15 224.635 278.411   6
  -2  -3  12 2029.42 561.323   4
   2   3 -12 2447.24 649.943   2
  -2  -3  11-128.593 251.698   4
   2   3 -11 35.9196 173.658   2
  -2  -3  10 5126.04 825.860   4
   2   3 -10 3207.47 710.816   2
  -2  -3   9 5148.27 795.283   4
   2   3  -9 5146.39 854.458   2
  -2  -3   8 2050.96 466.749   4
  -2  -3   8 1604.68 434.802   7
   2   3  -8 1467.76 474.327   2
  -2  -3   7 6475.37 795.308   4
   2   3  -7 6927.31 926.825   2
  -2  -3   7 6538.18 814.773   7
   2   3  -7 7143.19 781.797   7
  -2  -3   6 38351.6 1926.15   4
   2   3  -6 41648.1 2092.12   4
   2   3  -6 37884.2 2196.49   2
  -2  -3   6 35828.1 1919.74   7
   2   3  -6 39732.7 1839.94   7
  -2  -3   5 22140.0 1346.52   4
   2   3  -5 25435.9 1509.12   4
   2   3  -5 23012.1 1605.68   2
  -2  -3   5 21925.2 603.127   3
  -2  -3   5 21407.8 1357.52   7
  -2  -3   4 101492. 3241.76   4
   2   3  -4 106543. 3425.60   4
   2   3  -4 101901. 3637.33   2
  -2  -3   4 104935. 2617.14   3
  -2  -3   4 100503. 3263.98   7
  -2  -3   3 9847.03 793.348   4
   2   3  -3 9428.79 835.441   4
   2   3  -3 10706.1 976.739   2
  -2  -3   3 9320.82 762.171   7
  -2  -3   3 10065.6 999.199   3
   2   3  -2 20863.3 696.450   6
  -2  -3   2 19670.8 1127.50   4
   2   3  -2 19443.7 1165.50   4
   2   3  -2 20419.6 1340.33   2
   2   3  -2 20302.9 1035.91   1
  -2  -3   2 18784.4 1037.42   7
  -2  -3   2 21364.0 1507.03   3
   2   3  -1 10264.7 679.976   1
  -2  -3   1 10750.7 785.611   4
  -2  -3   1 10110.0 1019.99   3
   2   3  -1 10498.2 527.184   6
   2   3  -1 11454.9 937.808   2
  -2  -3   0 24985.3 1100.34   1
   2   3   0 25336.3 1109.21   1
  -2  -3   0 25381.0 1256.13   4
   2   3   0 26170.5 1005.07   6
  -2  -3   0 25576.0 1663.15   3
  -2  -3  -1 665.359 164.985   1
   2   3   1 872.062 179.950   1
   2   3   1 910.534 181.446   6
  -2  -3  -1 893.227 178.609   6
  -2  -3  -2 43689.6 1625.37   1
   2   3   2 41430.1 1441.11   1
   2   3   2 45500.5 1648.78   6
  -2  -3  -2 44922.9 1557.87   6
  -2  -3  -3 86396.8 2848.57   1
   2   3   3 98278.6 2858.98   6
   2   3   4 118753. 3451.88   6
  -2  -3  -4 106248. 3358.05   1
   2   3   5 634.797 177.207   2
  -2  -3  -5 798.988 259.776   1
   2   3   5 1058.75 287.906   6
  -2  -3  -6 153595. 3855.18   1
  -2  -3  -6 168488. 3058.33   5
   2   3   7 5627.44 605.648   2
   2   3   7 5423.34 744.270   6
  -2  -3  -7 5442.19 590.591   1
  -2  -3  -7 4430.97 412.071   5
  -2  -3  -7 5339.23 621.726   6
  -2  -3  -8 19453.9 1113.57   4
  -2  -3  -8 22108.2 1356.71   6
  -2  -3  -8 19880.2 1925.31   3
   2   3   8 21687.0 1616.70   6
  -2  -3  -8 22171.7 1228.85   1
  -2  -3  -8 22358.1 1167.37   5
  -2  -3  -9 931.935 262.707   5
  -2  -3  -9 1211.87 332.592   1
  -2  -3  -9 913.749 286.427   6
  -2  -3  -9 545.981 395.709   3
   2   3   9 757.906 331.700   6
   2   3  10 7332.46 796.476   2
   2   3  10 7930.52 1037.93   6
  -2  -3 -10 6362.03 1183.28   3
  -2  -3 -10 6463.64 679.997   1
  -2  -3 -10 6228.38 751.902   5
  -2  -3 -11 3.44648 141.694   5
  -2  -3 -11 96.7755 183.422   1
   2   3  11 160.272 293.407   6
   2   3  11-72.0350 111.366   2
  -2  -3 -11-320.328 395.324   3
   2   3  12 15210.6 1307.85   2
  -2  -3 -12 14151.4 1136.51   1
   2   3  12 13400.8 1514.78   6
  -2  -3 -13 1689.98 618.611   1
   2   3  13 137.418 210.082   6
   2   3  14 10735.2 1445.37   6
  -2  -3 -14 10808.1 1078.24   1
   2   3  15 356.588 295.332   6
  -2  -4  11 507.906 253.511   4
   2   4 -11-275.323 327.501   2
  -2  -4  10 7433.15 1032.04   4
   2   4 -10 6348.94 1039.39   2
  -2  -4   9 1675.29 487.479   4
   2   4  -9 1990.53 563.301   2
  -2  -4   8 11733.5 1202.53   4
   2   4  -8 11259.2 1322.79   2
  -2  -4   8 14286.4 1277.59   7
  -2  -4   7 4982.09 726.958   4
  -2  -4   7 4822.44 692.818   7
   2   4  -7 4665.59 806.884   2
  -2  -4   6 2188.90 489.858   4
  -2  -4   6 2638.73 496.351   7
   2   4  -6 1954.78 505.000   2
   2   4  -5 1692.68 410.566   4
  -2  -4   5 1922.14 456.274   4
  -2  -4   5 1501.32 196.218   3
   2   4  -5 1381.27 411.833   2
  -2  -4   5 1899.41 401.417   7
  -2  -4   4 4529.63 621.681   4
   2   4  -4 5074.26 687.906   4
   2   4  -4 5402.63 777.015   2
  -2  -4   4 5285.78 820.592   3
  -2  -4   4 5410.50 623.397   7
  -2  -4   3-106.726 137.187   7
   2   4  -3 12.8607 64.3460   1
  -2  -4   3-113.360 171.763   3
   2   4  -3 209.236 148.027   4
  -2  -4   3 90.9066 99.4113   4
   2   4  -3-30.5169 186.232   2
   2   4  -2 76649.3 2590.17   1
  -2  -4   2 80895.6 2820.39   4
   2   4  -2 81766.2 3123.30   2
  -2  -4   2 77856.6 2482.69   7
   2   4  -2 80887.1 1965.46   6
  -2  -4   2 79440.5 3226.05   3
   2   4  -1 48641.3 1860.99   1
  -2  -4   1 51850.4 2113.72   4
   2   4  -1 50167.0 2262.71   2
   2   4  -1 51574.9 1589.76   6
  -2  -4   0 292677. 7072.61   4
  -2  -4   0 295498. 6329.42   6
   2   4   0 295351. 7288.41   2
   2   4   0 308604. 6587.67   6
   2   4   1 36138.7 1491.48   6
  -2  -4  -1 34849.1 1317.52   6
  -2  -4  -1 33136.8 1422.63   1
  -2  -4  -2 14805.3 938.921   1
   2   4   2 15827.4 1002.48   6
  -2  -4  -2 14301.9 855.828   6
  -2  -4  -3 6516.96 664.285   1
  -2  -4  -3 6436.81 589.301   6
   2   4   3 6870.68 691.634   6
  -2  -4  -4 18383.8 1257.27   1
   2   4   4 19641.1 674.143   5
  -2  -4  -5 1312.48 327.680   1
   2   4   5 1485.28 160.827   5
   2   4   5 1138.88 309.537   6
   2   4   6 7932.70 608.361   2
  -2  -4  -6 9579.69 892.486   1
   2   4   6 7364.95 872.486   6
   2   4   7 3234.83 410.178   1
  -2  -4  -7 3521.22 415.899   4
  -2  -4  -7 3698.36 568.291   6
   2   4   7 4417.18 714.772   6
  -2  -4  -7 3312.84 547.493   1
   2   4   7 3062.15 426.688   2
  -2  -4  -8 14698.1 913.175   4
   2   4   8 15981.7 1013.58   1
   2   4   8 18902.9 1172.32   2
   2   4   8 16863.1 1468.72   6
  -2  -4  -8 16846.5 1188.89   1
  -2  -4  -8 17909.7 1271.36   6
  -2  -4  -8 14500.6 749.107   5
   2   4   9 9099.61 1122.14   6
  -2  -4  -9 7617.36 611.205   5
  -2  -4  -9 8988.81 874.401   1
  -2  -4 -10 18411.6 1324.03   1
   2   4  10 19091.2 1728.52   6
  -2  -4 -10 16875.1 1065.21   5
  -2  -4 -11 1124.72 309.646   5
   2   4  11 1246.22 330.437   2
  -2  -4 -11 2501.66 546.185   1
   2   4  11 1912.18 578.795   6
  -2  -4 -12 19396.1 1456.11   1
   2   4  12 15706.1 1702.29   6
  -2  -4 -13 1473.14 482.656   1
   2   4  13 93.7708 266.510   6
  -2  -4 -14 3370.46 660.633   1
   2   4  14 3717.60 877.593   6
   2   4  15 559.123 413.152   6
  -2  -5  10 2627.05 668.208   4
   2   5 -10 3148.54 754.676   2
  -2  -5   9 39.1617 163.765   4
   2   5  -9 9.28112 253.120   2
  -2  -5   8 3186.89 640.582   4
   2   5  -8 4428.05 864.812   2
  -2  -5   7 112.648 150.528   4
   2   5  -7 370.658 330.040   2
  -2  -5   7 297.407 177.118   7
  -2  -5   6 11984.1 1176.18   4
   2   5  -6 11422.1 1293.21   2
  -2  -5   6 11202.4 1017.58   7
  -2  -5   5 1345.05 459.844   3
  -2  -5   5 619.322 294.953   4
  -2  -5   5 979.539 294.207   7
   2   5  -5 732.750 327.917   2
  -2  -5   4 10985.7 1042.45   4
   2   5  -4 9741.52 1124.74   2
  -2  -5   4 10521.6 1200.73   3
   2   5  -4 9625.92 916.171   1
  -2  -5   4 10965.1 920.784   7
  -2  -5   3 8504.19 893.333   4
   2   5  -3 9909.99 891.192   1
   2   5  -3 9415.60 1081.52   2
  -2  -5   3 10725.7 858.074   7
  -2  -5   3 10316.9 1106.72   3
   2   5  -2 87947.4 2993.84   1
  -2  -5   2 91261.7 3237.71   4
   2   5  -2 86597.8 3465.19   2
   2   5  -2 88093.7 2216.41   6
  -2  -5   2 89238.8 2737.83   7
  -2  -5   1 1820.05 393.180   4
   2   5  -1 2154.67 296.710   6
   2   5  -1 2215.41 382.009   1
   2   5  -1 2189.21 482.316   2
  -2  -5   0 19832.3 1314.81   4
   2   5   0 21089.0 1424.58   2
   2   5   0 22123.4 1126.80   6
  -2  -5   0 21486.4 975.966   6
  -2  -5  -1 8173.11 717.587   1
   2   5   1 7896.21 704.384   6
  -2  -5  -1 8295.30 632.852   6
   2   5   1 8687.30 866.793   2
   2   5   2 130030. 3853.47   6
  -2  -5  -2 130764. 3754.02   1
  -2  -5  -2 129824. 3576.42   6
  -2  -5  -3 8274.76 811.967   1
   2   5   3 8250.26 818.098   6
  -2  -5  -4 1396.76 362.798   1
   2   5   4 1657.74 370.133   6
  -2  -5  -4 1249.87 272.958   6
   2   5   4 1462.78 233.754   5
   2   5   5 462.243 130.396   5
  -2  -5  -5 345.185 175.578   1
   2   5   5 238.561 156.138   6
  -2  -5  -5 262.485 146.316   6
  -2  -5  -6 35035.4 2064.45   1
  -2  -5  -6 35025.7 1855.09   6
   2   5   6 36104.4 2142.78   6
   2   5   6 39212.7 1319.66   5
   2   5   7 7066.93 610.353   2
  -2  -5  -7 6231.59 805.111   1
  -2  -5  -7 6921.75 799.251   6
   2   5   7 8172.63 1018.92   6
   2   5   7 6417.66 590.498   1
   2   5   8 60163.7 2257.83   2
   2   5   8 56730.4 2993.77   6
  -2  -5  -8 53572.0 2595.49   1
   2   5   9 20342.4 1217.58   2
   2   5   9 17714.2 1665.45   6
  -2  -5  -9 16416.0 1379.48   1
   2   5  10 4303.12 860.399   6
   2   5  10 4845.08 576.293   2
  -2  -5 -10 4589.13 720.198   1
  -2  -5 -10 4353.27 456.623   5
   2   5  11 450.488 284.772   6
  -2  -5 -11 526.087 277.932   1
   2   5  12 1676.78 604.105   6
  -2  -5 -12 1562.86 444.599   1
  -2  -5 -13 266.287 243.492   1
   2   5  13 222.527 204.587   6
   2   5  14 4765.89 1024.73   6
  -2  -5 -14 3331.05 706.503   1
  -2  -6   9 109.196 234.256   4
   2   6  -9 143.469 215.627   2
  -2  -6   8 5690.39 911.003   4
   2   6  -8 4183.47 901.986   2
  -2  -6   7 3221.23 669.389   4
  -2  -6   7 3550.30 598.278   7
   2   6  -7 2575.18 680.616   2
  -2  -6   6 7254.29 988.534   4
  -2  -6   6 8648.16 872.601   7
   2   6  -6 7787.58 1119.84   2
  -2  -6   6 7764.22 418.965   3
  -2  -6   5 742.525 314.792   4
   2   6  -5 1103.19 422.030   2
  -2  -6   5 533.985 246.073   3
  -2  -6   5 778.755 242.975   7
  -2  -6   4 21172.6 1305.61   7
  -2  -6   4 22100.2 1611.74   4
   2   6  -4 22221.1 1805.19   2
  -2  -6   4 20177.1 1694.94   3
  -2  -6   3 180.852 97.8015   7
  -2  -6   3-14.3579 220.383   4
   2   6  -3 209.140 233.831   2
  -2  -6   2-178.006 167.935   4
  -2  -6   2 289.385 144.516   7
   2   6  -2 140.986 83.5764   6
   2   6  -2-112.462 225.397   2
   2   6  -1 1763.41 455.350   2
  -2  -6   1 1697.15 451.601   4
  -2  -6   1 1898.15 262.562   6
   2   6  -1 1947.25 304.801   6
   2   6  -1 2482.44 440.075   1
  -2  -6   0 84683.9 3272.35   4
   2   6   0 93286.0 3112.34   1
   2   6   0 86636.8 3413.64   2
   2   6   0 88699.9 2824.07   6
  -2  -6   0 85808.2 2529.44   6
  -2  -6  -1 232.544 169.976   1
  -2  -6  -1-29.1897 179.948   4
   2   6   1 243.162 188.558   6
   2   6   1 186.024 154.128   2
  -2  -6  -1 100.755 78.1608   6
   2   6   1 189.196 150.504   1
  -2  -6  -2 28709.4 1560.62   1
   2   6   2 27482.6 1669.59   2
   2   6   2 28941.0 1642.74   6
   2   6   2 30855.4 1582.77   1
   2   6   3-36.8745 166.518   2
   2   6   3-7.91439 126.245   1
   2   6   3 38.8457 114.389   6
  -2  -6  -3 84.2801 135.032   1
  -2  -6  -3 29.9314 113.331   6
  -2  -6  -4 31730.0 1855.21   1
   2   6   4 31751.1 1564.90   1
  -2  -6  -4 32242.4 1682.54   6
   2   6   4 32085.9 1910.02   6
   2   6   5 446.483 204.230   1
  -2  -6  -5-13.0555 177.468   1
   2   6   5 147.241 105.279   5
   2   6   5 88.2549 130.708   6
  -2  -6  -5 469.510 212.013   6
  -2  -6  -6 89879.0 3938.57   1
   2   6   6 90291.8 3982.98   6
  -2  -6  -6 94802.0 3639.67   6
   2   6   7 4654.29 440.558   2
  -2  -6  -7 3540.70 674.716   1
   2   6   7 4363.76 786.725   6
   2   6   7 4699.58 465.845   5
   2   6   8 8608.50 748.680   2
  -2  -6  -8 8662.61 1056.87   1
   2   6   8 9742.29 1229.11   6
   2   6   9 5998.13 1013.21   6
   2   6   9 5942.24 639.611   2
  -2  -6  -9 4281.77 725.956   1
   2   6  10 4149.14 508.237   2
  -2  -6 -10 3021.30 606.469   1
   2   6  10 2964.92 710.878   6
  -2  -6 -11 1555.59 420.699   1
   2   6  11 2052.91 664.396   6
   2   6  12 7252.78 1225.39   6
  -2  -6 -12 5789.97 920.346   1
  -2  -6 -13 508.186 278.883   1
   2   6  13-110.092 285.950   6
   2   6  14 3322.17 902.811   6
  -2  -7   8 2452.62 617.552   4
   2   7  -8 2744.82 740.890   2
  -2  -7   7 6727.83 1028.59   4
   2   7  -7 6464.31 1106.94   2
  -2  -7   6 7090.48 770.253   7
  -2  -7   6 7126.07 1019.19   4
   2   7  -6 5589.62 988.308   2
  -2  -7   5 1819.32 505.297   4
   2   7  -5 1492.47 500.419   2
  -2  -7   5 1975.83 397.111   7
  -2  -7   4 6236.91 902.765   4
  -2  -7   4 6541.59 708.311   7
   2   7  -4 7383.71 1075.63   2
  -2  -7   3 512.217 203.596   7
   2   7  -3 386.435 253.091   2
  -2  -7   3 213.677 185.633   4
  -2  -7   2 11073.7 1157.37   4
   2   7  -2 11097.5 1255.21   2
  -2  -7   2 10495.5 826.855   7
   2   7  -1 1502.22 303.017   6
  -2  -7   1 1183.05 352.045   4
  -2  -7   1 1178.61 213.266   6
   2   7  -1 846.011 335.674   2
  -2  -7   0 10176.3 1072.11   4
   2   7   0 11459.6 1189.08   2
  -2  -7   0 10732.0 776.958   6
   2   7   0 11891.5 916.313   6
  -2  -7  -1 683.580 264.970   4
   2   7   1 689.191 241.822   6
   2   7   1 652.135 323.884   2
   2   7   2 20386.5 1503.18   2
   2   7   2 22244.2 1511.52   6
  -2  -7  -2 22218.0 1331.12   6
  -2  -7  -2 22057.6 1448.10   1
  -2  -7  -3 4014.06 617.243   1
   2   7   3 4078.14 641.504   2
   2   7   3 3125.97 586.884   6
  -2  -7  -3 3802.54 558.338   6
  -2  -7  -4 46896.2 2399.65   1
   2   7   4 46897.9 2205.92   2
   2   7   4 46559.7 2476.77   6
  -2  -7  -4 44567.9 2158.14   6
  -2  -7  -5 13658.4 1316.13   1
   2   7   5 13299.9 1316.83   6
  -2  -7  -5 12601.8 1123.77   6
   2   7   5 12910.9 1054.15   2
   2   7   5 12006.4 836.610   5
   2   7   6 1613.34 322.361   5
  -2  -7  -6 1146.01 426.420   1
   2   7   6 1234.77 465.350   6
   2   7   7 17776.7 1039.86   5
  -2  -7  -7 19178.5 1717.15   1
   2   7   7 20804.1 1818.82   6
   2   7   8 28257.7 1342.39   2
  -2  -7  -8 26631.2 2067.02   1
   2   7   8 30886.2 2338.84   6
   2   7   8 27973.4 1348.23   5
  -2  -7  -9 70.4158 144.523   1
   2   7   9 20.2172 105.989   2
   2   7   9-37.6062 200.356   6
  -2  -7 -10 12194.8 1409.04   1
   2   7  10 13565.9 1658.79   6
  -2  -7 -11 429.333 220.610   1
   2   7  11 368.861 308.057   6
  -2  -7 -12 4153.67 834.242   1
   2   7  12 4671.58 1009.66   6
  -2  -7 -13-188.050 342.619   1
   2   7  13 328.791 251.235   6
   2   8  -7 1444.22 566.328   2
  -2  -8   6 3244.63 723.069   4
   2   8  -6 3298.30 824.745   2
   2   8  -5 2563.50 703.417   2
  -2  -8   5 2798.54 658.028   4
  -2  -8   4 10082.2 1209.69   4
   2   8  -4 8071.97 1175.70   2
  -2  -8   4 9035.99 799.670   7
   2   8  -3 778.698 378.829   2
  -2  -8   3 72.4314 149.139   4
  -2  -8   3 976.570 261.625   7
  -2  -8   2 9757.33 1152.60   4
   2   8  -2 12696.6 1407.30   2
  -2  -8   2 10638.2 834.649   7
  -2  -8   1 14036.1 1366.36   4
   2   8  -1 16039.7 1534.38   2
  -2  -8   1 14490.7 938.761   7
   2   8  -1 16334.7 1050.65   6
  -2  -8   1 13946.7 848.841   6
   2   8   0 2060.23 402.022   6
  -2  -8   0 2142.45 530.521   4
   2   8   0 2124.12 543.370   2
  -2  -8  -1 14072.5 1354.11   4
   2   8   1 15659.9 1428.16   2
   2   8   1 15434.0 1216.85   6
  -2  -8  -1 13753.2 1030.28   6
  -2  -8  -2 37929.6 2075.43   1
  -2  -8  -2 35844.2 2275.34   4
   2   8   2 42409.0 2331.59   2
   2   8   2 39881.2 2173.22   6
  -2  -8  -2 40053.1 1961.10   6
  -2  -8  -3 649.288 307.608   1
   2   8   3 605.282 290.403   6
  -2  -8  -3 879.327 288.427   6
   2   8   3 1329.03 393.689   2
  -2  -8  -4 1656.95 454.195   1
   2   8   4 1614.36 480.931   6
   2   8   4 2456.25 509.271   2
   2   8   5 19.1472 167.618   5
   2   8   5 20.1352 107.010   2
   2   8   5 122.561 148.283   6
  -2  -8  -5-51.4148 259.806   1
  -2  -8  -6 13109.3 1423.36   1
   2   8   6 12713.5 1075.19   2
   2   8   6 12952.8 1443.03   6
   2   8   7 3609.41 530.305   2
  -2  -8  -7 2824.04 667.848   1
   2   8   7 4145.77 845.680   6
   2   8   7 3246.72 470.773   5
  -2  -8  -8 13813.6 1576.23   1
   2   8   8 14919.3 1026.91   2
   2   8   8 12833.2 1532.57   6
   2   8   8 13886.4 998.487   5
   2   8   9 994.153 487.815   6
  -2  -8  -9 492.668 308.860   1
   2   8   9 368.554 165.417   5
  -2  -8 -10 4746.53 955.669   1
   2   8  10 4410.99 981.286   6
  -2  -8 -11 220.405 315.469   1
   2   8  11 459.272 358.183   6
  -2  -8 -12 5401.99 1022.25   1
   2   8  12 5394.23 1142.41   6
   2   9  -5 1865.57 625.780   2
  -2  -9   5 1836.18 595.569   4
   2   9  -4 4133.35 895.086   2
  -2  -9   4 3915.98 803.364   4
  -2  -9   3 607.129 324.647   4
   2   9  -3 559.624 315.278   2
  -2  -9   2 4873.46 854.267   4
   2   9  -2 5775.43 999.239   2
   2   9  -1 5747.75 976.673   2
  -2  -9   1 5591.24 908.098   4
  -2  -9   1 5677.73 579.149   7
  -2  -9   0 15827.2 1534.61   4
   2   9   0 16092.9 1586.32   2
   2   9   0 16539.1 1227.14   6
  -2  -9   0 14667.5 1022.65   6
  -2  -9  -1-98.7422 159.909   4
   2   9   1 172.197 161.121   6
  -2  -9  -1 277.299 149.493   6
   2   9   1 200.247 217.320   2
  -2  -9  -2 2706.65 657.860   4
   2   9   2 2041.56 488.821   6
  -2  -9  -2 1483.83 374.291   6
   2   9   2 1893.62 488.880   2
  -2  -9  -3 3359.22 660.032   1
   2   9   3 3742.03 705.955   6
   2   9   3 3379.31 654.357   2
  -2  -9  -3 3285.14 729.226   4
  -2  -9  -4 13600.2 1362.59   1
   2   9   4 14687.4 1292.72   2
   2   9   4 14934.7 1481.15   6
   2   9   5 2742.76 525.471   5
  -2  -9  -5 4121.51 788.583   1
   2   9   5 4514.89 853.146   6
   2   9   5 3363.16 584.200   2
   2   9   6 2165.76 607.698   6
  -2  -9  -6 2783.06 649.285   1
   2   9   6 2851.79 515.681   2
   2   9   7 4543.52 606.569   5
   2   9   7 4114.24 569.222   2
  -2  -9  -7 4603.99 936.661   1
   2   9   7 3748.39 823.282   6
   2   9   8 6939.32 1166.10   6
   2   9   8 5578.48 675.774   5
  -2  -9  -8 6150.83 1106.92   1
  -2  -9  -9-8.83456 210.406   1
   2   9   9 214.324 218.591   6
   2   9  10 2678.83 792.298   6
  -2  -9 -10 2200.22 687.786   1
   2   9  11 1718.18 634.412   6
  -2  -9 -11 2122.48 649.779   1
  -2 -10   3 186.004 295.355   4
   2  10  -3-237.180 264.858   2
  -2 -10   2 6935.36 1067.13   4
   2  10  -2 6313.69 1091.46   2
  -2 -10   1 1334.23 479.102   4
   2  10  -1 1512.56 505.432   2
  -2 -10   0 1554.57 513.936   4
   2  10   0 1488.55 509.031   2
  -2 -10  -1 14070.1 1522.10   4
   2  10   1 13720.3 1462.71   2
   2  10   1 12740.8 1193.31   6
  -2 -10  -2 16527.0 1690.82   4
   2  10   2 16668.2 1566.92   2
   2  10   2 16881.6 1461.23   6
   2  10   3 970.367 354.662   6
  -2 -10  -3 1375.40 508.783   4
   2  10   3 1207.97 401.831   2
  -2 -10  -4 11574.8 1328.24   1
  -2 -10  -4 12884.3 1568.05   4
   2  10   4 11402.1 1194.71   2
   2  10   4 11671.9 1354.65   6
   2  10   4 8486.82 1068.29   5
   2  10   5 652.851 256.050   5
  -2 -10  -5 1015.84 402.466   1
   2  10   5 307.853 297.638   6
   2  10   5 974.531 333.471   2
  -2 -10  -6 2897.82 745.478   1
   2  10   6 3304.42 781.782   6
   2  10   6 2442.73 497.979   2
   2  10   7-78.5953 229.058   6
  -2 -10  -7-476.792 326.624   1
  -2 -10  -8 5309.06 1068.38   1
   2  10   8 4799.64 1019.19   6
  -2 -10  -9-68.4776 203.173   1
   2  10   9 154.447 219.832   6
   2  11  -2 1663.50 579.979   2
   2  11  -1 309.589 291.321   2
  -2 -11   0 3865.94 848.287   4
   2  11   0 3855.82 833.848   2
  -2 -11  -1 165.241 268.165   4
   2  11   1 8.93964 229.978   2
   2  11   2 4442.67 766.894   6
   2  11   2 5013.24 870.029   2
  -2 -11  -2 4364.22 900.906   4
   2  11   3 450.932 279.097   2
  -2 -11  -3 995.056 484.958   4
   2  11   3 1110.55 415.736   6
   2  11   4 2535.93 576.601   5
  -2 -11  -4 3338.08 861.922   4
   2  11   4 3578.17 676.363   2
   2  11   4 3641.94 782.044   6
   2  11   5 109.469 131.641   5
  -2 -11  -5 51.8763 216.004   1
   2  11   5 21.2577 146.771   6
  -2 -11  -6 4509.01 945.418   1
   2  11   6 3700.18 851.999   6
  -2 -11  -7 319.400 361.949   1
   2  11   7 146.063 166.240   6
   2  11   8 5217.38 1084.56   6
   2  12   0 1527.64 550.184   2
   2  12   1-342.507 284.918   2
   2  12   2 466.097 275.692   2
   2  12   3 657.673 407.301   5
   2  12   4 4555.63 884.671   6
   2  12   5-88.3462 163.842   6
   2  12   6 1417.65 623.539   6
  -3  11  -2-29.6697 166.472   2
  -3  10   7 1696.71 736.740   5
  -3  10   6-581.049 524.367   5
  -3  10   5 6385.62 1489.36   5
  -3  10   4-84.0107 438.810   5
   3 -10  -4 169.156 277.529   3
   3 -10  -3 1321.53 476.388   3
  -3  10   3 1725.25 925.955   5
   3 -10  -2-85.8760 233.925   3
  -3  10   2-35.2837 321.696   5
   3 -10  -2-195.278 152.611   4
  -3  10   1 5751.96 1294.28   5
   3 -10  -1 6158.21 839.781   4
   3 -10  -1 5590.07 1017.72   3
   3 -10   0-150.816 235.736   3
  -3  10   0-65.8642 114.021   2
   3 -10   0-37.4791 131.396   4
  -3  10  -1 5379.41 1150.60   5
  -3  10  -1 5595.91 747.201   2
   3 -10   1 6297.50 884.849   4
   3 -10   1 6468.59 989.384   3
   3 -10   2-237.195 213.571   3
  -3  10  -2 204.919 340.817   5
   3 -10   2 151.858 156.446   4
  -3  10  -2-62.3649 183.127   2
  -3  10  -3 1442.46 434.911   2
   3 -10   3 1426.63 442.469   4
   3 -10   3 1117.76 387.455   3
   3 -10   4 16.3974 165.015   4
  -3  10  -4 189.504 213.167   2
   3 -10   4 369.838 232.297   3
   3 -10   5-151.181 178.556   4
  -3   9   9 2817.25 830.871   5
  -3   9   8 247.722 288.077   5
   3  -9  -8-154.283 291.652   3
  -3   9   7 5391.59 1230.58   5
   3  -9  -7 5540.15 786.858   1
   3  -9  -7 5261.00 969.461   3
   3  -9  -6 1098.22 397.608   3
   3  -9  -6 855.262 303.296   1
  -3   9   6 1002.29 575.079   5
  -3   9   5 8743.81 1629.68   5
   3  -9  -5 7180.50 886.014   4
   3  -9  -5 6919.84 1114.97   3
   3  -9  -4 2324.66 634.723   3
  -3   9   4 1393.83 847.344   5
   3  -9  -4 1128.99 350.969   4
   3  -9  -3 15910.5 1299.31   4
   3  -9  -3 16975.6 1699.25   3
  -3   9   3 13593.6 2082.85   5
   3  -9  -2 2292.65 590.611   3
  -3   9   2 1446.97 631.338   5
   3  -9  -2 2180.40 483.421   4
  -3   9   1 12676.0 887.186   2
   3  -9  -1 11452.0 1090.08   4
   3  -9  -1 12723.9 1398.98   3
  -3   9   1 10999.1 1733.72   5
   3  -9   0 171.669 138.502   3
  -3   9   0 113.909 137.265   2
   3  -9   0 87.4119 114.365   4
  -3   9   0 105.454 383.590   5
  -3   9  -1 7847.37 848.177   2
   3  -9   1 8103.06 930.392   4
   3  -9   1 8039.33 1038.14   3
  -3   9  -1 7813.19 1259.55   5
   3  -9   2 137.880 195.303   3
  -3   9  -2 254.915 129.304   2
   3  -9   3 2792.59 575.323   4
  -3   9  -3 2405.79 536.928   2
   3  -9   3 2774.06 567.444   3
   3  -9   4-382.881 284.433   4
  -3   9  -4-115.948 149.962   2
   3  -9   4 351.651 262.099   3
   3  -9   5 6653.06 824.878   3
  -3   9  -5 7299.45 1011.40   2
   3  -9   5 6990.26 960.641   4
  -3   9  -6-111.114 257.640   2
   3  -9   6-110.657 109.140   4
   3  -9   6 226.664 175.085   3
   3  -9   7 1971.40 557.118   4
   3  -8 -10 160.201 176.745   3
  -3   8  10 212.749 246.155   5
   3  -8  -9 7762.96 1133.92   3
  -3   8   9 7431.41 1290.96   5
   3  -8  -8-259.798 265.378   3
   3  -8  -8 223.345 149.153   1
  -3   8   8-151.880 319.482   5
   3  -8  -7 7088.10 832.881   1
  -3   8   7 8054.23 1390.55   5
   3  -8  -7 7147.64 1063.53   3
   3  -8  -6 1029.77 392.014   3
   3  -8  -6 1143.54 315.693   1
  -3   8   6 886.517 455.174   5
   3  -8  -5 14862.0 1145.91   1
   3  -8  -5 14622.9 1209.47   4
   3  -8  -5 14133.9 1498.86   3
  -3   8   5 16812.1 2045.37   5
  -3   8   4 191.462 471.309   5
   3  -8  -4-256.287 334.421   3
   3  -8  -4 103.795 150.082   4
  -3   8   4-198.897 107.808   1
  -3   8   3 15981.8 1375.40   1
   3  -8  -3 16755.6 1227.79   4
   3  -8  -3 16384.3 1568.90   3
  -3   8   3 15737.4 2042.83   5
  -3   8   2 5241.63 1158.41   5
  -3   8   2 3249.82 629.493   1
   3  -8  -2 5937.35 717.476   4
   3  -8  -2 6315.54 943.938   3
   3  -8  -1 5123.61 814.261   3
  -3   8   1 4069.12 958.760   5
   3  -8  -1 3941.41 579.969   4
   3  -8  -1 4369.79 677.792   2
  -3   8   1 3698.76 666.106   1
  -3   8   1 4250.89 476.380   2
   3  -8   0-158.816 177.007   3
  -3   8   0 410.845 455.909   5
   3  -8   0-171.283 120.600   4
  -3   8   0 193.987 156.555   2
   3  -8   0-250.513 185.064   2
  -3   8  -1 22210.0 1398.87   2
   3  -8   1 21534.8 1428.64   4
   3  -8   1 20853.4 1617.20   3
  -3   8  -1 22848.2 2056.00   5
   3  -8   2-51.9456 122.681   3
  -3   8  -2 164.193 168.535   2
   3  -8   2 199.813 206.389   4
  -3   8  -3 26234.6 1750.11   2
   3  -8   3 26389.9 1697.84   4
   3  -8   3 28016.9 1725.74   3
   3  -8   4 236.079 202.475   4
  -3   8  -4 248.704 162.259   2
   3  -8   4 559.320 266.974   3
   3  -8   5 5454.28 800.245   4
   3  -8   5 4886.14 661.958   3
  -3   8  -5 4915.77 785.027   2
   3  -8   6 289.932 220.432   4
  -3   8  -6-291.834 321.196   2
   3  -8   6 44.2035 146.916   3
  -3   8  -7 16936.7 1599.24   2
   3  -8   7 14755.5 1448.02   4
   3  -8   8 422.659 234.696   4
   3  -7 -11 1235.14 412.414   3
   3  -7 -10 758.611 311.946   3
  -3   7  10 589.222 360.484   5
   3  -7  -9 7417.56 844.790   1
  -3   7   9 6567.51 1201.58   5
   3  -7  -9 6682.21 1017.71   3
   3  -7  -8 3712.92 737.161   3
   3  -7  -8 3801.43 591.395   1
  -3   7   8 2929.42 773.005   5
   3  -7  -7 3966.96 752.019   3
   3  -7  -7 4440.07 608.745   1
  -3   7   6 3219.30 828.366   5
   3  -7  -6 3291.39 670.242   3
   3  -7  -6 3002.81 481.332   1
  -3   7   6 2946.10 444.381   1
   3  -7  -5 9821.50 857.946   1
   3  -7  -5 9726.46 1146.86   3
  -3   7   5 9154.46 824.475   1
  -3   7   5 12455.0 1640.85   5
   3  -7  -4 13349.3 985.665   1
   3  -7  -4 13347.2 1019.20   4
   3  -7  -4 12900.9 708.702   2
  -3   7   4 10829.1 964.513   1
   3  -7  -4 13096.1 1330.34   3
   3  -7  -4 12883.1 1172.89   7
  -3   7   4 14347.5 1789.52   5
  -3   7   3 2409.13 693.004   5
   3  -7  -3 2746.80 570.944   3
   3  -7  -3 3089.64 490.708   4
   3  -7  -3 3368.22 449.489   2
  -3   7   3 3379.61 542.052   1
   3  -7  -3 2942.83 504.789   7
   3  -7  -2 364.883 206.540   3
  -3   7   2 46.6382 414.076   5
   3  -7  -2 549.256 214.679   4
  -3   7   2-110.787 253.537   1
   3  -7  -2 589.806 216.692   2
   3  -7  -2 455.057 174.534   7
  -3   7   1 15619.0 884.124   2
   3  -7  -1 14937.3 1038.36   4
   3  -7  -1 14729.6 1190.25   2
  -3   7   1 10836.6 1072.57   1
   3  -7  -1 17153.8 1429.93   3
  -3   7   1 12213.9 1617.80   5
   3  -7   0-6.99277 188.646   3
  -3   7   0 421.043 490.009   5
  -3   7   0 50.5086 78.4810   2
   3  -7   0-59.3226 84.7987   4
  -3   7   0-179.444 189.560   1
   3  -7   0 99.4661 108.376   2
  -3   7  -1 38685.2 1804.64   2
   3  -7   1 36616.9 1783.60   4
  -3   7  -1 40843.2 2127.88   1
   3  -7   1 37407.7 2229.21   2
   3  -7   1 42081.4 2182.70   3
  -3   7  -1 42183.0 2653.53   5
  -3   7  -2 2331.80 448.432   2
   3  -7   2 1600.31 375.494   4
  -3   7  -2 1425.45 374.667   1
   3  -7   2 2161.35 459.625   3
  -3   7  -3 17761.2 1340.88   2
   3  -7   3 17122.4 1255.80   4
   3  -7   3 14989.9 1371.43   6
   3  -7   3 17240.9 1254.03   3
   3  -7   4 1062.14 334.071   4
  -3   7  -4 1027.82 340.738   2
   3  -7   4 1009.98 353.258   6
   3  -7   4 996.007 287.896   3
  -3   7  -5 10981.6 1161.02   2
   3  -7   5 10169.5 1047.39   4
   3  -7   5 10883.0 943.802   3
   3  -7   5 12463.7 1216.09   6
   3  -7   6-154.679 184.347   4
  -3   7  -6-158.549 225.648   2
   3  -7   6-49.8721 96.6940   3
  -3   7  -7 17943.0 1587.41   2
   3  -7   7 18172.3 1538.41   4
   3  -7   7 17708.1 1311.76   3
   3  -7   8 599.136 320.700   4
  -3   7  -8 332.761 224.599   2
   3  -7   9 7462.41 1072.60   4
   3  -6 -11 269.086 188.456   3
   3  -6 -10 630.711 321.725   3
   3  -6 -10 451.699 187.354   1
  -3   6  10 100.638 215.576   5
   3  -6  -9 4751.23 835.257   3
   3  -6  -9 4988.29 669.818   1
  -3   6   9 4533.31 958.118   5
   3  -6  -8 258.832 192.415   3
   3  -6  -8 18.1900 94.3655   1
   3  -6  -7 4667.42 546.624   4
   3  -6  -7 4975.50 603.644   1
   3  -6  -7 5689.66 832.168   3
  -3   6   7 5811.28 1077.34   5
  -3   6   6 441.200 342.564   5
   3  -6  -6 152.277 207.168   3
   3  -6  -6 341.757 142.232   4
  -3   6   6 497.075 172.353   1
   3  -6  -6 136.069 85.6830   1
   3  -6  -5-25.1627 263.266   3
  -3   6   5 430.243 397.852   5
   3  -6  -5 303.608 100.336   4
   3  -6  -5 346.970 173.497   1
   3  -6  -4 31062.2 1137.09   2
   3  -6  -4 30680.3 1943.34   3
   3  -6  -4 29736.3 1810.98   7
   3  -6  -4 31686.3 1444.42   1
  -3   6   4 27766.8 2382.23   5
   3  -6  -3 51692.9 1925.16   4
   3  -6  -3 49190.8 1780.42   2
   3  -6  -3 47546.3 2460.34   3
   3  -6  -3 45311.6 2120.41   7
   3  -6  -2 3970.99 633.697   3
   3  -6  -2 4718.28 520.477   4
   3  -6  -2 4983.58 571.708   2
   3  -6  -2 4631.69 554.438   7
  -3   6   1 19507.9 953.737   2
   3  -6  -1 18142.3 1045.73   4
   3  -6  -1 19338.2 1265.67   2
   3  -6  -1 18701.2 1410.48   3
  -3   6   1 15740.7 1685.15   5
   3  -6   0 81.6194 139.872   3
  -3   6   0 843.001 479.899   5
   3  -6   0 106.548 96.1011   4
  -3   6   0 193.828 122.648   2
  -3   6   0 182.826 83.9483   1
   3  -6   0 291.815 224.657   6
   3  -6   0 620.256 290.900   2
  -3   6  -1 8179.31 730.010   2
  -3   6  -1 8582.48 842.780   1
   3  -6   1 8153.93 718.675   4
   3  -6   1 8821.77 935.846   2
   3  -6   1 8531.70 972.861   6
   3  -6   1 7579.65 832.419   3
  -3   6  -1 8521.26 1136.01   5
   3  -6   2 2829.45 491.375   3
  -3   6  -2 2242.68 437.092   1
   3  -6   2 2429.20 403.621   4
  -3   6  -2 2639.59 424.134   2
   3  -6   2 2863.43 553.243   6
   3  -6   2 3008.17 567.116   2
   3  -6   3 10858.6 915.140   3
  -3   6  -3 9588.88 931.242   1
  -3   6  -3 9485.91 929.770   2
   3  -6   3 10987.5 914.138   4
  -3   6  -3 9964.32 1005.73   4
   3  -6   3 8783.23 950.110   6
   3  -6   4 212.201 159.022   4
   3  -6   4 291.010 150.088   6
  -3   6  -4 14.9651 227.629   2
  -3   6  -4 444.567 245.142   4
   3  -6   4 403.434 191.168   3
   3  -6   5 114.198 130.773   4
  -3   6  -5 170.388 158.710   2
   3  -6   5 237.676 151.843   3
   3  -6   6 377.976 245.380   4
   3  -6   6 78.7156 90.6553   3
  -3   6  -6 199.039 196.810   2
  -3   6  -7 8420.13 1040.11   2
   3  -6   7 7066.56 914.702   4
   3  -6   7 7692.18 846.312   3
   3  -6   8-35.5339 177.017   3
  -3   6  -8-491.572 356.594   2
  -3   6  -9 59648.3 3101.93   2
   3  -6   9 50677.5 2768.98   4
   3  -6  10 281.326 230.049   4
   3  -5 -11 3524.33 656.649   3
   3  -5 -11 3097.74 562.634   1
   3  -5 -10-76.5157 205.520   3
   3  -5 -10-268.734 172.370   1
   3  -5  -9 5920.03 689.042   1
   3  -5  -9 6244.15 872.462   3
   3  -5  -8 51.6840 160.827   3
   3  -5  -8 85.1691 111.825   1
   3  -5  -8 99.4465 70.1829   4
  -3   5   8-156.424 371.094   5
   3  -5  -7 7117.54 693.500   4
   3  -5  -7 7136.77 730.971   1
   3  -5  -7 8200.07 976.685   3
   3  -5  -6 20348.6 1071.62   4
   3  -5  -6 20763.2 1137.99   1
   3  -5  -6 19446.4 1480.01   3
  -3   5   6 18687.3 1900.86   5
  -3   5   5 52384.6 1655.75   1
   3  -5  -5 52885.6 1626.95   4
   3  -5  -5 49988.0 1827.70   1
   3  -5  -5 50261.9 2465.39   3
   3  -5  -5 49998.2 2549.88   7
  -3   5   5 50145.5 3179.26   5
  -3   5   4 1075.49 590.782   5
   3  -5  -4 1426.87 398.467   3
   3  -5  -4 1473.84 197.346   4
   3  -5  -4 961.144 211.242   1
   3  -5  -4 1401.71 350.603   7
   3  -5  -4 1229.95 200.583   2
  -3   5   4 1411.30 240.371   1
   3  -5  -3 26662.8 1163.14   1
   3  -5  -3 27204.2 1164.40   2
   3  -5  -3 25879.0 1859.60   6
  -3   5   3 21535.0 1105.22   1
   3  -5  -3 28313.1 1706.70   3
  -3   5   3 25321.2 2148.07   5
   3  -5  -3 25276.4 1482.31   7
   3  -5  -2 1770.39 415.719   3
  -3   5   2 825.643 340.609   5
   3  -5  -2 1842.64 336.677   7
  -3   5   2 2048.90 330.915   1
  -3   5   2 2203.88 386.624   7
   3  -5  -2 1714.34 274.939   4
   3  -5  -2 1968.42 320.375   2
   3  -5  -2 1423.74 412.775   6
  -3   5   1 3887.39 782.029   5
   3  -5  -1 3793.60 499.323   2
   3  -5  -1 3524.13 376.999   4
   3  -5  -1 4277.60 615.683   3
  -3   5   1 3838.42 473.684   1
   3  -5  -1 3158.01 575.747   6
  -3   5   1 3402.69 439.493   7
   3  -5  -1 3271.89 405.173   7
   3  -5   0 1291.66 320.100   3
  -3   5   0 2026.56 312.678   2
  -3   5   0 1461.53 273.199   7
   3  -5   0 1415.99 252.365   4
   3  -5   0 2010.55 395.124   2
  -3   5   0 1041.70 257.308   1
   3  -5   0 1534.28 390.024   6
  -3   5   0 2135.76 1188.86   5
   3  -5   1 2247.84 410.555   3
  -3   5  -1 2193.27 285.210   7
  -3   5  -1 3037.64 662.341   5
   3  -5   1 2128.93 320.274   4
   3  -5   1 2275.75 452.725   6
   3  -5   1 2361.22 436.446   2
  -3   5  -1 2466.44 341.110   2
   3  -5   2 246.265 146.114   4
  -3   5  -2 70.4547 65.2062   7
  -3   5  -2 286.540 194.613   2
   3  -5   2 160.258 141.825   2
   3  -5   2 110.228 141.765   3
   3  -5   3 44274.2 1894.38   3
  -3   5  -3 49207.9 2110.30   2
   3  -5   3 44896.1 1862.08   4
   3  -5   3 44588.3 2274.47   2
  -3   5  -3 45738.8 2077.43   4
  -3   5  -4-272.300 256.035   2
   3  -5   4-105.408 119.026   4
  -3   5  -4 78.9475 134.718   4
   3  -5   4-1.97900 137.280   3
   3  -5   5 2173.51 425.537   4
  -3   5  -5 2814.46 532.057   4
  -3   5  -5 2029.58 442.093   2
   3  -5   5 2382.65 394.244   3
   3  -5   6 111.306 125.487   4
  -3   5  -6-42.5276 167.318   2
   3  -5   6 55.5515 117.636   3
  -3   5  -7 5671.83 804.870   2
   3  -5   7 4830.34 694.131   4
  -3   5  -7 4829.18 255.144   7
   3  -5   7 4612.49 674.143   3
   3  -5   8 158.985 212.955   4
   3  -5   8 36.3975 110.674   6
  -3   5  -8-206.969 222.370   2
   3  -5   9 698.196 310.852   4
  -3   5  -9 814.147 324.602   2
   3  -5   9 1564.75 634.622   3
   3  -5   9 1061.79 403.503   6
   3  -5  10-168.122 239.616   4
  -3   5 -10 46.0490 156.305   2
  -3   5 -11 12149.6 1386.00   2
   3  -5  11 9841.20 1148.92   4
   3  -4 -12 247.724 188.084   1
   3  -4 -11 2532.90 503.617   3
   3  -4 -11 1842.29 417.648   1
   3  -4 -10 361.355 217.602   3
   3  -4 -10 468.635 210.883   1
   3  -4  -9 18287.7 1221.86   1
   3  -4  -9 19770.0 1448.92   3
   3  -4  -8-46.0398 101.015   3
   3  -4  -8 112.226 123.477   4
   3  -4  -8-87.4317 161.471   1
   3  -4  -8-15.6043 37.6224   2
  -3   4   8-143.817 306.948   5
   3  -4  -7 68683.6 2429.00   4
   3  -4  -7 69690.3 1710.46   2
   3  -4  -7 68671.6 2348.01   1
   3  -4  -7 69528.5 2858.87   3
  -3   4   7 64846.3 3610.03   5
   3  -4  -7 66426.3 1528.30   2
   3  -4  -6-28.2716 129.728   3
   3  -4  -6 3.11653 104.968   1
   3  -4  -6 193.959 122.077   4
   3  -4  -6 11.5326 46.5811   2
   3  -4  -6-30.1608 66.7430   2
  -3   4   6-82.1640 275.722   5
   3  -4  -5 109.096 133.878   3
   3  -4  -5 378.469 125.529   2
  -3   4   5 182.503 233.404   5
   3  -4  -5 333.950 115.683   4
  -3   4   5 736.905 305.545   7
   3  -4  -5 556.797 104.724   2
   3  -4  -5 362.472 209.232   7
   3  -4  -5 120.028 115.243   6
   3  -4  -5 339.536 130.597   1
  -3   4   4 4352.08 324.186   1
   3  -4  -4 3912.65 732.047   5
   3  -4  -4 4182.66 341.051   4
   3  -4  -4 4193.36 332.672   2
   3  -4  -4 4244.07 398.520   1
  -3   4   4 4786.72 676.220   7
   3  -4  -4 4801.48 748.350   6
   3  -4  -4 4623.62 625.500   3
  -3   4   4 3507.59 740.300   5
   3  -4  -4 3572.70 578.522   7
   3  -4  -3 26935.1 1513.02   7
   3  -4  -3 26626.7 813.497   4
   3  -4  -3 24227.0 997.845   2
   3  -4  -3 23888.1 1010.61   1
   3  -4  -3 25852.1 1515.71   3
  -3   4   3 24543.9 1476.11   7
   3  -4  -3 25480.9 1737.60   6
  -3   4   3 26845.0 1005.84   1
  -3   4   3 24372.3 2038.61   5
   3  -4  -3 23085.4 1640.38   5
  -3   4   2 5556.94 890.541   5
   3  -4  -2 5941.12 492.232   2
   3  -4  -2 6356.78 429.458   4
   3  -4  -2 6210.62 625.260   7
  -3   4   2 5324.83 443.707   1
   3  -4  -2 5848.82 660.188   3
  -3   4   2 5113.69 605.364   7
   3  -4  -1 67422.0 2223.13   2
   3  -4  -1 72736.1 1908.45   4
  -3   4   1 78113.2 2164.79   1
   3  -4  -1 75294.2 2661.96   3
  -3   4   1 68135.3 2404.69   7
  -3   4   1 60988.7 3108.14   5
   3  -4  -1 71410.1 2281.02   7
  -3   4   0 4108.88 728.755   5
   3  -4   0 3802.24 456.229   2
   3  -4   0 3632.50 331.920   4
  -3   4   0 3652.22 400.397   1
  -3   4   0 3428.02 423.830   7
   3  -4   0 4275.72 537.677   3
  -3   4  -1 78961.9 2306.72   2
  -3   4  -1 81608.7 2442.89   1
   3  -4   1 79139.0 2218.96   4
   3  -4   1 74081.5 2602.32   2
  -3   4  -1 75383.4 2293.57   7
   3  -4   1 81250.1 2674.34   3
  -3   4  -1 82325.1 3243.40   5
  -3   4  -2 9888.34 748.904   2
   3  -4   2 9323.81 645.875   4
   3  -4   2 9527.75 840.797   2
  -3   4  -2 8839.02 712.977   4
   3  -4   2 9824.47 779.267   3
  -3   4  -2 8223.54 549.999   7
  -3   4  -3 94126.0 2960.31   2
   3  -4   3 88182.4 2716.51   4
   3  -4   3 85684.4 3151.75   2
  -3   4  -3 91403.5 2305.11   7
   3  -4   3 95422.6 2858.09   3
   3  -4   4-84.1593 149.608   4
  -3   4  -4 86.8103 58.9297   7
   3  -4   4 140.270 129.499   2
  -3   4  -4 67.5651 120.302   4
  -3   4  -4-3.06602 136.931   2
   3  -4   4 80.6875 102.788   3
  -3   4  -5 11951.0 1023.38   2
   3  -4   5 11890.2 936.104   4
  -3   4  -5 12231.3 1028.15   4
   3  -4   5 10693.6 1083.10   2
   3  -4   5 11652.9 874.819   3
   3  -4   6 312.379 212.619   4
  -3   4  -6-43.9576 147.920   4
  -3   4  -6-172.486 238.306   2
   3  -4   6 124.823 159.140   3
  -3   4  -7 9523.96 980.776   2
   3  -4   7 11235.2 1017.61   4
   3  -4   7 10441.1 1108.43   3
  -3   4  -7 10154.6 710.218   7
   3  -4   8 14.3657 166.682   4
  -3   4  -8 82.5899 110.520   7
  -3   4  -8-15.6482 169.495   2
   3  -4   8 80.0135 175.642   3
   3  -4   8-78.5895 93.5495   6
  -3   4  -9 22613.3 1678.89   2
   3  -4   9 20819.6 1536.71   4
   3  -4   9 24141.0 2431.20   3
   3  -4   9 18466.1 1592.99   6
   3  -4  10-218.248 287.544   4
   3  -4  10-19.7098 359.668   3
  -3   4 -10 91.9293 143.915   2
   3  -4  10 7.78207 181.257   6
  -3   4 -11 5593.28 887.424   2
   3  -4  11 5302.29 809.952   4
   3  -4  12-46.3840 172.620   4
  -3   4 -12-57.8277 230.946   2
   3  -3 -12 524.186 314.615   1
   3  -3 -11 8948.59 945.911   1
   3  -3 -10 1018.13 295.985   1
   3  -3 -10 914.984 284.573   3
   3  -3  -9 15245.6 1191.05   4
   3  -3  -9 14540.4 907.545   2
   3  -3  -9 15117.1 1131.67   3
   3  -3  -9 13450.0 985.331   1
   3  -3  -8 3917.07 450.929   2
   3  -3  -8 3101.35 479.024   4
   3  -3  -8 3518.83 546.599   3
   3  -3  -8 3693.27 475.030   1
   3  -3  -7 4283.93 518.861   4
   3  -3  -7 4006.47 443.601   2
   3  -3  -7 3698.63 446.304   1
   3  -3  -7 4027.27 573.309   3
  -3   3   7 3697.06 772.999   5
   3  -3  -6 5111.12 520.060   4
   3  -3  -6 5161.35 492.854   2
   3  -3  -6 4968.96 479.476   1
   3  -3  -6 4959.87 769.631   6
  -3   3   6 6560.95 1058.77   5
   3  -3  -6 5638.78 665.990   3
  -3   3   6 4397.31 752.202   7
   3  -3  -5 58916.1 1847.90   4
   3  -3  -5 56587.4 1787.23   1
  -3   3   5 50591.5 2515.27   7
   3  -3  -5 60106.1 2691.84   7
   3  -3  -5 58586.9 2702.16   6
   3  -3  -5 55904.0 2232.88   3
   3  -3  -5 54955.5 1869.70   2
  -3   3   5 53619.4 3139.93   5
   3  -3  -5 48108.7 2668.02   5
  -3   3   4 3315.88 714.706   5
   3  -3  -4 3435.80 490.205   3
   3  -3  -4 3557.25 335.353   4
   3  -3  -4 3809.62 336.490   1
   3  -3  -4 3530.62 567.116   7
   3  -3  -4 3324.95 604.180   5
  -3   3   4 3223.29 555.701   7
   3  -3  -4 3281.39 580.986   6
   3  -3  -3 116109. 2807.15   2
   3  -3  -3 125322. 2744.29   4
   3  -3  -3 123370. 2788.03   1
  -3   3   3 118987. 3828.27   7
   3  -3  -3 121368. 4045.38   6
   3  -3  -3 122035. 3598.41   3
   3  -3  -3 121838. 3734.76   7
  -3   3   3 110188. 4682.18   5
   3  -3  -2 1530.36 315.131   3
  -3   3   2 2268.92 620.368   5
   3  -3  -2 1701.30 226.023   2
   3  -3  -2 1691.34 130.126   4
   3  -3  -2 1605.36 160.140   4
   3  -3  -2 1861.99 334.868   7
  -3   3   2 1785.74 378.087   7
  -3   3   2 1454.06 160.588   1
   3  -3  -1 90948.8 2568.49   2
   3  -3  -1 100318. 2125.55   4
  -3   3   1 100792. 3096.28   7
  -3   3   1 98891.5 2375.36   1
   3  -3  -1 101174. 3003.68   3
  -3   3   1 95890.2 3843.51   5
   3  -3   0 34356.8 1391.70   2
   3  -3   0 38614.5 1060.26   4
  -3   3   0 36515.4 1230.29   1
  -3   3   0 39218.5 1594.86   7
   3  -3   0 40234.7 1619.00   3
  -3   3   0 38146.2 2128.04   5
   3  -3   1 52522.7 1935.22   2
   3  -3   1 57057.3 1584.37   4
  -3   3  -1 57438.4 1743.53   4
  -3   3  -1 58771.5 1925.98   7
   3  -3   1 60541.0 2053.27   3
  -3   3  -1 59567.5 2527.76   5
   3  -3   2 1256.10 209.223   4
  -3   3  -2 1763.50 289.408   2
   3  -3   2 1168.09 276.487   2
  -3   3  -2 1254.17 229.608   4
  -3   3  -2 1010.75 188.924   7
   3  -3   2 1175.75 246.469   3
  -3   3  -3 54960.8 1921.39   2
   3  -3   3 51931.8 1768.60   4
   3  -3   3 48402.2 2044.29   2
  -3   3  -3 54022.9 1910.69   4
   3  -3   3 57984.5 1986.68   3
  -3   3  -3 49058.7 2023.25   3
  -3   3  -4 90.4481 89.8354   3
   3  -3   4 266.381 153.063   4
  -3   3  -4 104.713 128.291   2
   3  -3   4 179.694 125.187   2
   3  -3   4 242.583 161.269   3
  -3   3  -5 108963. 3325.73   2
   3  -3   5 98958.6 3051.85   4
  -3   3  -5 100110. 3251.24   4
   3  -3   5 98596.7 3519.45   2
   3  -3   5 103785. 3267.49   3
  -3   3  -5 93372.0 3092.67   3
  -3   3  -6-158.094 151.754   3
   3  -3   6 360.789 201.558   4
  -3   3  -6-162.679 137.704   4
   3  -3   6-97.0406 176.304   2
  -3   3  -6-123.528 188.321   2
   3  -3   6 9.18836 172.222   3
  -3   3  -7 15616.7 1197.61   2
   3  -3   7 14622.5 1095.01   4
  -3   3  -7 14495.9 1198.45   4
  -3   3  -7 13279.6 966.870   3
   3  -3   7 15433.7 1539.86   3
  -3   3  -8-123.082 172.671   3
   3  -3   8-99.1122 190.575   4
  -3   3  -8-59.0534 214.162   2
   3  -3   8-14.9012 251.108   3
   3  -3   8-92.8711 170.969   6
  -3   3  -9 12095.7 1143.93   2
   3  -3   9 12380.3 1096.88   4
   3  -3   9 10937.0 1194.63   6
   3  -3   9 12624.4 1699.01   3
   3  -3  10-33.7723 154.576   4
   3  -3  10-27.3755 143.485   6
  -3   3 -10-34.9641 180.847   2
  -3   3 -11 7561.64 971.034   2
   3  -3  11 6783.48 832.515   4
   3  -3  11 6694.22 1037.44   6
   3  -3  12 84.4523 101.442   4
  -3   3 -12-209.865 209.799   2
   3  -2 -13 4582.24 790.464   1
   3  -2 -12 655.343 276.303   1
   3  -2 -11 2119.15 459.504   1
   3  -2 -10 1892.31 381.761   1
   3  -2 -10 1243.56 313.279   2
   3  -2 -10 1390.45 287.433   3
   3  -2  -9 489.706 189.676   1
   3  -2  -9 519.147 204.990   4
   3  -2  -9 583.901 193.021   3
   3  -2  -9 333.508 183.950   2
   3  -2  -8 5662.13 585.240   3
   3  -2  -8 4700.39 607.150   4
   3  -2  -8 5905.90 656.706   2
   3  -2  -8 5214.56 761.574   6
   3  -2  -8 5998.78 578.541   1
   3  -2  -7 82114.2 2758.74   4
   3  -2  -7 84225.2 2833.12   2
  -3   2   7 81940.6 3573.47   7
   3  -2  -7 87452.2 2724.13   3
   3  -2  -7 77268.5 3231.00   6
   3  -2  -7 85014.2 2464.89   1
   3  -2  -6 17724.1 1008.55   4
   3  -2  -6 16495.4 1059.33   2
  -3   2   6 17980.2 1478.25   7
   3  -2  -6 19575.2 1520.75   7
   3  -2  -6 18135.9 1059.11   3
   3  -2  -6 17786.3 852.019   1
  -3   2   6 16837.4 1702.76   5
   3  -2  -6 17355.7 1539.28   5
   3  -2  -6 18739.7 1396.52   6
   3  -2  -5 19501.8 949.011   4
   3  -2  -5 20791.7 1161.64   2
   3  -2  -5 20657.7 1429.55   6
   3  -2  -5 20818.9 1127.92   3
   3  -2  -5 20255.9 858.345   1
  -3   2   5 20238.4 1483.69   7
   3  -2  -5 23179.6 1557.12   7
  -3   2   5 21359.6 1875.74   5
   3  -2  -5 21534.3 1653.73   5
   3  -2  -4 6208.22 409.214   1
   3  -2  -4 7197.58 461.069   4
  -3   2   4 6134.24 756.505   7
   3  -2  -4 6068.80 715.566   7
   3  -2  -4 6988.61 794.912   6
   3  -2  -4 6814.04 603.420   3
  -3   2   4 6582.59 981.258   5
  -3   2   3 3261.76 660.856   5
  -3   2   3 2823.86 493.479   7
   3  -2  -3 3318.31 247.792   4
   3  -2  -3 3414.20 419.001   3
   3  -2  -3 3675.79 514.970   7
   3  -2  -3 3119.20 506.341   6
   3  -2  -3 3460.64 240.536   1
   3  -2  -2 21291.5 585.516   1
   3  -2  -2 21920.9 1080.60   3
  -3   2   2 21171.5 1281.65   7
   3  -2  -2 20506.4 1153.84   7
  -3   2   2 22217.8 1737.89   5
   3  -2  -1 238662. 5171.70   2
   3  -2  -1 234370. 5451.53   3
  -3   2   1 234278. 5790.43   7
  -3   2   1 231827. 6786.11   5
   3  -2   0 14318.7 766.393   2
  -3   2   0 16028.0 535.182   1
  -3   2   0 15266.6 920.350   7
   3  -2   0 15251.7 868.939   3
  -3   2   0 14114.5 1308.93   5
   3  -2   1 23653.4 1109.18   3
   3  -2   1 21784.0 1064.99   2
   3  -2   1 23522.3 726.030   4
  -3   2  -1 22793.6 792.508   4
  -3   2  -1 23882.8 1080.82   7
  -3   2  -1 23907.6 1463.00   5
  -3   2  -2 755.900 271.974   5
   3  -2   2 998.577 161.851   4
  -3   2  -2 1444.02 214.819   4
   3  -2   2 1193.90 259.136   3
   3  -2   2 773.690 196.913   2
  -3   2  -3 137415. 3425.13   2
   3  -2   3 134947. 3249.04   4
  -3   2  -3 128748. 3358.66   4
   3  -2   3 139674. 3693.40   3
  -3   2  -3 126776. 3587.64   3
  -3   2  -4 2039.82 333.322   3
  -3   2  -4 1888.75 305.493   2
   3  -2   4 2123.49 295.618   4
  -3   2  -4 1628.53 299.792   4
   3  -2   4 1908.34 378.751   3
  -3   2  -5 96940.1 2904.60   2
   3  -2   5 93302.1 2721.54   4
   3  -2   5 89976.1 3428.28   3
  -3   2  -5 90451.3 2795.67   3
  -3   2  -6 1574.00 292.294   3
   3  -2   6 1368.40 287.176   4
  -3   2  -6 1474.78 349.762   2
  -3   2  -6 1747.42 356.924   4
   3  -2   6 1706.38 395.966   2
   3  -2   6 1360.08 537.163   3
  -3   2  -7 46855.8 2085.88   2
   3  -2   7 47161.4 1929.80   4
  -3   2  -7 47767.8 2201.17   4
   3  -2   7 44384.7 2343.54   2
   3  -2   7 49188.1 3219.55   3
   3  -2   7 53307.7 2330.59   6
  -3   2  -7 46137.4 1817.58   3
  -3   2  -8 597.066 174.921   3
   3  -2   8 801.129 243.803   4
  -3   2  -8 283.329 164.036   2
   3  -2   8 466.710 363.555   3
   3  -2   8 669.833 246.802   6
  -3   2  -9 21586.3 1444.22   2
   3  -2   9 20862.9 1283.07   4
   3  -2   9 18259.2 2033.52   3
  -3   2  -9 17141.2 1054.60   3
   3  -2   9 17839.1 1502.17   6
   3  -2  10 202.551 169.395   4
  -3   2 -10 322.127 215.524   7
  -3   2 -10 268.659 217.971   2
   3  -2  10 258.956 210.223   6
  -3   2 -10 266.239 135.267   3
  -3   2 -11 20590.5 1543.68   2
   3  -2  11 21495.9 1431.67   4
   3  -2  11 23605.9 1945.95   6
   3  -2  12 410.836 205.390   4
  -3   2 -12 35.6874 135.915   2
   3  -2  12 714.120 359.175   6
   3  -2  13 1459.93 403.588   4
  -3   2 -13 1257.49 435.920   2
  -3   2 -13 1568.37 359.850   1
   3  -1 -13 2367.12 525.125   1
   3  -1 -12 373.566 201.419   1
  -3   1  12 186.514 135.196   4
  -3   1  11 3949.25 573.654   4
   3  -1 -11 4419.08 690.131   2
   3  -1 -11 4487.99 636.315   1
  -3   1  10 1207.42 294.340   4
   3  -1 -10 1400.51 339.466   1
   3  -1 -10 1714.72 406.752   2
   3  -1  -9 12563.3 923.743   1
  -3   1   9 11514.4 872.445   4
   3  -1  -9 10879.4 1042.36   2
   3  -1  -9 10451.4 1049.26   6
   3  -1  -9 11247.4 737.723   3
   3  -1  -8 9277.80 720.661   1
  -3   1   8 9768.06 751.323   4
   3  -1  -8 8738.33 863.170   4
   3  -1  -8 9337.27 919.978   2
  -3   1   8 9558.69 1174.98   7
   3  -1  -8 8529.33 921.733   6
   3  -1  -8 9572.80 670.028   3
   3  -1  -7 1930.16 284.815   1
  -3   1   7 1596.73 278.636   4
  -3   1   7 1999.69 516.592   7
   3  -1  -7 2341.32 445.294   6
   3  -1  -7 1864.37 395.654   2
   3  -1  -7 1835.32 353.200   4
   3  -1  -7 1996.50 299.326   3
   3  -1  -6 7659.57 1033.88   5
   3  -1  -6 7112.22 499.009   1
  -3   1   6 6714.59 536.701   4
   3  -1  -6 6556.57 608.139   4
   3  -1  -6 5819.17 711.572   6
  -3   1   6 5642.62 796.011   7
   3  -1  -6 6751.03 723.264   2
   3  -1  -6 6537.55 844.897   7
   3  -1  -6 6235.33 526.692   3
   3  -1  -5 16104.8 710.730   1
  -3   1   5 17180.0 810.118   4
   3  -1  -5 15807.2 869.663   4
   3  -1  -5 16270.0 1169.33   6
   3  -1  -5 14942.0 1069.84   2
  -3   1   5 14773.7 1244.95   7
   3  -1  -5 16903.0 886.252   3
   3  -1  -5 15957.0 1399.41   5
   3  -1  -4 8152.01 409.835   1
  -3   1   4 7165.75 445.303   4
  -3   1   4 6391.97 767.536   7
   3  -1  -4 6312.23 475.504   4
   3  -1  -4 6960.62 731.457   6
   3  -1  -4 6454.08 525.308   3
  -3   1   4 6127.45 953.517   5
  -3   1   3 81487.2 1920.66   4
   3  -1  -3 78905.0 2034.88   4
  -3   1   3 83945.3 2980.22   7
   3  -1  -3 81000.5 2815.71   6
   3  -1  -3 82988.6 2348.79   3
   3  -1  -3 81653.0 1811.94   1
  -3   1   2 294.058 109.947   3
  -3   1   2 191.306 198.788   5
  -3   1   2 184.046 128.135   7
   3  -1  -2 350.859 56.8989   1
   3  -1  -2 240.904 58.0565   4
   3  -1  -2 197.649 96.9045   3
  -3   1   1 2651.12 545.278   5
  -3   1   1 2197.86 329.450   3
  -3   1   1 2605.48 382.858   7
   3  -1  -1 2103.85 296.817   3
  -3   1   0 5359.51 518.604   7
   3  -1   0 6163.24 531.805   3
  -3   1   0 6112.50 771.991   5
   3  -1   0 4670.23 546.160   5
  -3   1  -1 131621. 2666.42   1
   3  -1   1 141045. 3398.40   2
  -3   1  -1 131282. 2828.34   4
   3  -1   1 142174. 3596.70   3
  -3   1  -1 137683. 4001.85   5
  -3   1  -2 33647.3 1106.82   4
   3  -1   2 33207.3 1529.55   3
  -3   1  -2 34710.4 1573.59   5
   3  -1   3 71153.3 1753.10   4
  -3   1  -3 62175.8 1933.05   4
   3  -1   3 68502.5 2628.40   3
  -3   1  -3 64581.9 2110.72   3
  -3   1  -4 7485.29 559.781   2
   3  -1   4 7865.57 493.550   4
  -3   1  -4 6785.85 571.727   4
   3  -1   4 7898.83 981.137   3
  -3   1  -4 6870.06 586.289   3
  -3   1  -5 138160. 3561.91   2
   3  -1   5 133105. 3344.19   4
   3  -1   5 126836. 5028.19   3
  -3   1  -5 133527. 3560.17   3
   3  -1   6 1518.66 269.804   4
  -3   1  -6 1263.81 297.366   4
   3  -1   6 231.397 263.778   3
   3  -1   6 1338.01 343.010   6
  -3   1  -6 1239.47 254.683   2
  -3   1  -6 1097.08 247.760   3
  -3   1  -7 14290.6 986.548   2
   3  -1   7 14016.1 872.827   4
  -3   1  -7 13842.7 1058.44   4
   3  -1   7 15247.1 1229.43   2
  -3   1  -7 13587.0 881.593   3
   3  -1   7 13613.8 1096.45   6
   3  -1   7 12385.8 1573.43   3
   3  -1   8 1032.60 277.683   4
  -3   1  -8 1284.38 347.860   4
   3  -1   8 980.932 315.222   2
  -3   1  -8 1066.85 300.943   2
   3  -1   8 1041.41 325.443   6
   3  -1   8 2264.74 640.444   3
  -3   1  -8 1098.17 243.912   3
  -3   1  -9 10197.1 929.257   2
   3  -1   9 10383.6 834.932   4
   3  -1   9 11039.8 1151.06   6
  -3   1  -9 9734.65 745.299   3
   3  -1  10 277.169 158.939   4
  -3   1 -10-70.4828 140.119   2
   3  -1  10 206.622 214.969   6
  -3   1 -10 252.401 137.822   3
  -3   1 -11 19090.3 1376.42   2
   3  -1  11 20028.8 1279.81   4
  -3   1 -11 19993.7 1202.37   1
   3  -1  11 20729.3 1825.77   6
  -3   1 -12 699.715 235.645   1
   3  -1  12 1393.62 377.981   4
  -3   1 -12 400.068 215.841   2
   3  -1  12 801.379 410.547   6
  -3   1 -13 12914.2 1208.98   2
   3  -1  13 13950.4 1170.21   4
  -3   1 -13 11982.6 997.559   1
   3  -1  13 14547.9 1628.47   6
  -3   1 -14 264.562 192.962   2
  -3   0  13 2400.41 493.962   4
   3   0 -13 2803.81 520.968   1
   3   0 -12 522.229 222.739   1
  -3   0  12 919.360 294.252   4
  -3   0  11 6735.80 780.552   4
   3   0 -11 7203.80 760.033   1
   3   0 -11 6219.55 905.303   2
  -3   0  10 7176.98 780.538   4
   3   0 -10 7667.57 758.495   1
   3   0 -10 8451.25 1017.87   2
  -3   0   9 1988.84 406.899   4
  -3   0   9 3287.99 716.820   7
   3   0  -9 2132.19 483.649   2
   3   0  -9 1830.55 391.844   6
   3   0  -9 1528.10 366.046   3
  -3   0   8 1994.22 379.622   4
  -3   0   8 2810.56 626.932   7
   3   0  -8 1947.59 400.122   6
   3   0  -8 2441.89 464.248   4
   3   0  -8 2486.58 494.141   2
   3   0  -8 2085.45 365.407   3
  -3   0   7 33560.9 1625.24   4
   3   0  -7 36570.3 1762.13   4
   3   0  -7 34151.6 1895.43   2
  -3   0   7 32777.6 2099.19   7
   3   0  -7 31903.4 1406.16   3
   3   0  -7 32568.5 1699.28   6
   3   0  -6 7780.53 875.400   7
  -3   0   6 7035.25 661.463   4
   3   0  -6 6583.64 648.647   4
   3   0  -6 5894.73 734.377   2
  -3   0   6 7171.74 896.950   7
   3   0  -6 6303.03 691.147   6
   3   0  -6 6468.67 554.563   3
   3   0  -6 5169.66 848.884   5
  -3   0   5 40858.4 1637.84   4
   3   0  -5 38431.7 1604.80   4
   3   0  -5 42802.0 2036.21   2
  -3   0   5 41693.2 2161.21   7
   3   0  -5 45094.8 2110.68   7
   3   0  -5 40841.4 1820.45   6
   3   0  -5 41303.2 1536.98   3
  -3   0   4 10986.4 712.541   4
   3   0  -4 10854.6 705.603   4
   3   0  -4 10850.7 857.481   6
   3   0  -4 11477.6 978.346   2
  -3   0   4 10542.7 968.392   7
   3   0  -4 10984.8 713.413   3
  -3   0   3 22361.0 960.511   4
   3   0  -3 23320.8 995.914   4
   3   0  -3 23646.5 1104.92   3
  -3   0   3 22302.9 1061.01   3
  -3   0   3 23932.6 1430.13   7
  -3   0   2 82.3579 73.4504   3
  -3   0   2 177.630 61.7570   4
   3   0  -2 251.795 81.5230   4
  -3   0   2 238.467 124.369   7
   3   0  -2 117.924 92.8705   3
  -3   0   2 225.606 182.794   5
  -3   0   1 86319.0 2690.76   7
  -3   0   1 81523.7 1966.38   4
   3   0  -1 85190.7 1799.64   1
   3   0  -1 86024.7 2663.65   3
  -3   0   1 84791.0 2371.08   3
   3   0  -1 91214.8 2934.02   5
   3   0   0 83291.3 2761.78   3
  -3   0   0 84178.0 2344.67   3
   3   0   0 79421.5 1661.32   1
  -3   0   0 81210.8 2987.30   5
   3   0   0 81132.7 2574.83   5
   3   0   1 257112. 6521.52   3
  -3   0  -1 243233. 5131.63   1
  -3   0  -1 245414. 6123.08   5
   3   0   1 259581. 5739.41   5
   3   0   2 13114.1 1251.88   3
  -3   0  -2 20121.3 690.712   1
  -3   0  -2 21450.1 1240.25   5
   3   0   3 65005.8 3221.03   3
  -3   0  -3 65658.7 2010.44   5
  -3   0  -3 62838.3 1557.85   1
  -3   0  -4 6228.75 388.689   1
  -3   0  -4 4999.95 452.144   4
  -3   0  -4 5806.03 622.910   3
   3   0   4 5522.03 926.004   3
   3   0   5 14418.7 1006.60   6
  -3   0  -5 14753.1 711.247   1
  -3   0  -5 13310.8 850.879   4
   3   0   5 11635.8 1432.29   3
  -3   0  -5 13954.7 1025.98   3
  -3   0  -6 3740.52 429.446   2
   3   0   6 3845.30 411.202   4
  -3   0  -6 3793.32 372.271   1
  -3   0  -6 3699.80 477.464   4
   3   0   6 4666.30 627.724   2
   3   0   6 3913.12 536.451   6
   3   0   6 2300.94 674.001   3
  -3   0  -6 3151.48 485.528   3
  -3   0  -7 8084.36 669.885   2
   3   0   7 8404.09 641.678   4
  -3   0  -7 8046.38 591.458   1
  -3   0  -7 7503.88 747.116   4
   3   0   7 8127.73 873.427   2
  -3   0  -7 7948.74 806.336   3
   3   0   7 7287.97 1154.56   3
   3   0   7 8102.51 829.670   6
   3   0   8-4.30080 86.8076   4
  -3   0  -8 358.838 206.925   4
  -3   0  -8 222.734 178.461   2
   3   0   8 37.5826 118.561   6
   3   0   8 158.726 184.838   2
  -3   0  -8 11.4794 127.096   3
  -3   0  -8 175.245 116.833   1
  -3   0  -9 27317.0 1428.60   2
   3   0   9 28926.3 1423.17   4
  -3   0  -9 30880.2 1371.06   1
   3   0   9 22910.3 1704.25   6
  -3   0  -9 23172.8 1414.04   3
   3   0  10 1413.16 329.459   4
  -3   0 -10 744.547 223.819   1
   3   0  10 821.143 319.675   6
  -3   0 -10 944.360 286.034   2
  -3   0 -10 963.544 249.616   3
  -3   0 -11 25199.4 1348.19   1
  -3   0 -11 23227.3 1302.68   3
  -3   0 -11 25907.1 1514.75   2
   3   0  11 26260.8 1481.55   4
   3   0  11 23800.8 1941.24   6
  -3   0 -12 244.255 179.313   2
   3   0  12 370.541 226.244   4
   3   0  12 194.820 195.282   6
  -3   0 -12 124.581 170.737   1
  -3   0 -13 4966.80 626.828   1
  -3   0 -13 5822.92 740.911   2
   3   0  13 5174.99 983.987   6
  -3   0 -14 79.8553 96.2516   2
   3   0  14 273.527 292.252   6
  -3   0 -15 2370.91 522.830   2
   3   1 -13 1335.79 331.420   1
   3   1 -12 1792.94 527.665   2
  -3  -1  12 2590.53 532.399   4
   3   1 -12 2155.89 411.727   1
  -3  -1  11 5819.43 787.011   4
   3   1 -11 6269.06 968.200   2
  -3  -1  10 1264.40 349.562   4
   3   1 -10 1300.38 412.901   2
  -3  -1   9 9702.55 982.861   4
   3   1  -9 10677.0 1161.93   2
  -3  -1   9 9314.37 1179.36   7
  -3  -1   8 605.263 280.274   7
  -3  -1   8 696.537 257.096   4
   3   1  -8 993.702 237.336   6
   3   1  -8 592.720 244.366   2
  -3  -1   7 8152.61 831.398   4
   3   1  -7 7188.09 782.204   4
   3   1  -7 7483.34 908.297   2
  -3  -1   7 7143.34 951.603   7
   3   1  -7 7057.18 747.606   3
   3   1  -7 6249.54 632.228   6
   3   1  -6 344.647 201.859   7
  -3  -1   6 202.714 136.037   4
   3   1  -6 62.2389 98.3806   4
  -3  -1   6-79.5026 171.551   7
   3   1  -6 168.648 104.564   6
   3   1  -6-118.983 253.993   3
   3   1  -6 151.088 162.659   2
  -3  -1   5 31598.7 1499.01   4
   3   1  -5 31363.9 1505.77   4
   3   1  -5 28948.5 1762.52   2
   3   1  -5 30203.1 1656.56   7
  -3  -1   5 30362.9 1805.12   7
   3   1  -5 27817.1 1753.11   3
   3   1  -5 28025.9 1361.20   6
   3   1  -5 30853.5 2066.00   5
   3   1  -4 2839.89 516.973   2
   3   1  -4 2329.58 363.580   4
  -3  -1   4 2434.44 350.244   4
   3   1  -4 3134.12 484.280   7
  -3  -1   4 2091.65 447.993   7
  -3  -1   4 2262.15 295.012   3
   3   1  -4 3056.57 598.503   3
   3   1  -4 2282.38 353.405   6
  -3  -1   3 114185. 3030.32   4
   3   1  -3 112035. 3092.21   4
   3   1  -3 110013. 3942.69   3
  -3  -1   3 112917. 3601.21   7
  -3  -1   3 112006. 2839.88   3
   3   1  -2 42159.2 2281.81   3
   3   1  -2 42128.1 1322.11   1
  -3  -1   2 45045.1 1504.08   4
  -3  -1   2 43943.8 1874.58   7
  -3  -1   2 44503.7 1484.48   3
   3   1  -1 41847.5 1225.99   1
  -3  -1   1 39773.6 1380.84   4
  -3  -1   1 40968.6 1704.48   7
   3   1  -1 37364.5 2247.42   3
  -3  -1   1 41184.8 1501.50   3
   3   1  -1 41463.4 1833.07   5
  -3  -1   0 16021.4 665.540   1
   3   1   0 16983.8 1573.29   3
  -3  -1   0 15400.2 955.823   3
   3   1   0 14896.1 597.851   1
  -3  -1   0 12791.4 1026.63   5
   3   1   0 16005.8 987.331   5
  -3  -1  -1 1932.91 223.437   1
   3   1   1 3031.10 235.589   1
   3   1   1 2030.22 631.132   3
   3   1   1 1979.96 312.523   5
  -3  -1  -1 1643.36 332.045   5
   3   1   2 20704.7 1799.54   3
  -3  -1  -2 20397.9 954.885   1
  -3  -1  -2 18777.6 1024.39   5
   3   1   2 20330.8 731.135   1
   3   1   2 19134.9 843.235   5
   3   1   3 77199.9 3739.41   3
   3   1   3 75852.2 1909.11   1
  -3  -1  -3 74256.9 2067.89   1
  -3  -1  -3 70004.1 2067.19   5
  -3  -1  -4 171.157 81.5691   4
  -3  -1  -4 99.1956 95.1931   1
  -3  -1  -4 405.152 131.442   5
   3   1   4 152.577 241.103   3
   3   1   4 108.094 95.8752   6
   3   1   5 175161. 6036.71   3
  -3  -1  -5 163089. 5634.37   3
  -3  -1  -5 166458. 3848.88   1
   3   1   5 162425. 4447.70   6
  -3  -1  -6 25405.1 1238.06   4
  -3  -1  -6 31854.2 2233.56   3
   3   1   6 27382.4 1513.25   6
  -3  -1  -6 29837.0 1162.41   1
  -3  -1  -7 55138.4 2178.19   4
   3   1   7 67141.0 2728.98   2
  -3  -1  -7 58810.8 3209.87   3
   3   1   7 58834.6 2521.00   6
  -3  -1  -7 63118.8 1972.81   1
   3   1   8 993.564 310.971   6
  -3  -1  -8 857.497 276.606   4
  -3  -1  -8 1069.51 244.506   1
   3   1   8 902.698 298.211   2
  -3  -1  -8 1478.38 482.615   3
  -3  -1  -9 12367.3 873.886   2
   3   1   9 8896.94 1011.66   2
  -3  -1  -9 9799.48 1236.25   3
   3   1   9 8377.25 1009.16   6
  -3  -1 -10 6038.77 644.916   2
   3   1  10 5278.16 829.551   6
  -3  -1 -10 5273.80 843.634   3
  -3  -1 -10 5312.47 583.447   1
  -3  -1 -11 6786.41 714.324   2
   3   1  11 5965.22 979.770   6
  -3  -1 -11 4968.42 764.232   3
  -3  -1 -11 5831.77 638.181   1
  -3  -1 -12 60.9091 114.887   1
  -3  -1 -12 102.551 197.865   2
   3   1  12 206.499 240.990   6
  -3  -1 -13 4679.91 652.540   2
   3   1  13 3558.97 843.263   6
  -3  -1 -13 3835.16 566.987   1
  -3  -1 -14 178.738 191.472   1
   3   1  14 139.149 234.828   6
   3   1  15 2802.25 804.090   6
  -3  -2  12-122.593 213.868   4
   3   2 -12-484.509 319.717   2
  -3  -2  11 1733.83 478.285   4
   3   2 -11 2126.21 598.045   2
  -3  -2  10 5271.00 797.747   4
   3   2 -10 6002.98 965.380   2
  -3  -2   9 7593.31 938.850   4
  -3  -2   9 5930.99 940.986   7
   3   2  -9 5060.59 844.816   2
  -3  -2   8 7620.62 905.967   4
   3   2  -8 6668.57 949.751   2
  -3  -2   8 7027.79 973.701   7
   3   2  -8 6888.84 519.395   6
  -3  -2   7 25086.7 1596.44   4
   3   2  -7 26060.5 1853.69   2
  -3  -2   7 23096.4 1737.59   7
   3   2  -7 25988.2 1119.06   6
   3   2  -6 2076.63 291.246   6
  -3  -2   6 2204.48 442.227   4
   3   2  -6 1356.54 354.665   4
  -3  -2   6 1500.12 417.611   7
   3   2  -6 2206.90 449.974   7
   3   2  -6 2053.41 508.756   2
  -3  -2   5 63978.8 2762.35   7
  -3  -2   5 63199.6 2399.79   4
   3   2  -5 65237.1 2513.35   4
   3   2  -5 66260.7 2941.67   2
   3   2  -5 63276.3 2004.33   6
  -3  -2   5 60264.4 1773.77   3
   3   2  -5 69847.3 3291.52   5
   3   2  -4 3892.98 646.876   2
  -3  -2   4 4472.01 546.587   4
   3   2  -4 4029.49 523.761   4
   3   2  -4 3548.67 591.577   3
   3   2  -4 3994.90 415.797   6
  -3  -2   4 4329.18 364.611   3
  -3  -2   4 3551.97 563.981   7
   3   2  -4 4007.50 693.030   5
  -3  -2   3 19183.0 1088.57   4
   3   2  -3 19512.5 1140.99   4
  -3  -2   3 19822.6 1295.84   7
   3   2  -3 20253.6 1529.80   3
   3   2  -3 22036.3 1509.61   2
  -3  -2   3 21488.6 929.344   3
   3   2  -3 20822.1 1496.71   5
  -3  -2   2 4137.56 536.862   7
   3   2  -2 4077.43 402.404   1
   3   2  -2 2481.45 585.930   3
  -3  -2   2 4420.71 474.374   4
  -3  -2   2 3842.53 445.238   3
   3   2  -1 514.081 135.593   1
  -3  -2   1 698.028 209.154   4
   3   2  -1 729.557 429.625   3
  -3  -2   1 922.367 268.792   3
   3   2  -1 479.444 156.776   5
  -3  -2   0 37794.9 1321.46   1
  -3  -2   0 37877.7 1515.30   4
   3   2   0 36866.8 1269.74   1
   3   2   0 35689.3 2244.00   3
  -3  -2   0 37876.3 2172.34   3
   3   2   0 35638.8 1569.26   5
  -3  -2  -1 34954.4 1257.56   1
   3   2   1 31686.2 1125.86   1
  -3  -2  -1 36062.7 2322.17   3
   3   2   1 36302.9 1427.20   5
   3   2   1 34204.5 2215.08   3
  -3  -2  -2 57886.2 1941.65   1
   3   2   2 54108.4 2860.12   3
   3   2   2 53294.3 1567.10   1
   3   2   2 58619.4 1953.38   6
   3   2   2 56633.7 1650.89   5
   3   2   3 210249. 4242.43   5
   3   2   3 216142. 5079.96   6
  -3  -2  -3 210080. 5163.68   1
   3   2   4 12629.0 899.657   6
  -3  -2  -4 13741.2 873.110   1
   3   2   4 13526.2 690.029   1
   3   2   5 73181.7 2106.60   1
  -3  -2  -5 70790.5 3807.23   3
   3   2   5 72858.3 2592.77   6
  -3  -2  -5 67991.3 2190.88   1
  -3  -2  -6 4695.60 440.653   4
   3   2   6 4355.64 596.175   6
  -3  -2  -6 3928.32 437.489   1
  -3  -2  -6 4346.33 932.696   3
  -3  -2  -7 49376.3 1881.01   4
   3   2   7 55345.6 2458.03   2
  -3  -2  -7 55705.3 3561.60   3
   3   2   7 54528.6 2447.99   6
  -3  -2  -7 60965.2 2023.48   1
  -3  -2  -8 315.856 121.342   4
   3   2   8 647.823 281.916   2
   3   2   8 848.537 336.674   6
  -3  -2  -8 1073.16 484.539   3
  -3  -2  -8 493.668 194.796   1
   3   2   9 6922.58 888.097   2
   3   2   9 5877.01 861.503   6
  -3  -2  -9 7524.65 1387.19   3
  -3  -2 -10 1820.49 367.166   1
   3   2  10 1800.36 477.367   2
   3   2  10 2429.19 603.075   6
  -3  -2 -10 3408.03 906.222   3
  -3  -2 -10 1765.00 419.849   5
   3   2  11 12159.1 1406.75   6
  -3  -2 -11 10459.9 1545.38   3
  -3  -2 -11 9868.05 1116.61   5
  -3  -2 -11 12421.0 984.584   1
  -3  -2 -12 1769.82 418.580   1
   3   2  12 1441.84 526.060   6
   3   2  13 10578.8 1460.12   6
  -3  -2 -13 11633.0 1045.00   1
  -3  -2 -14 1069.26 332.794   1
   3   2  14 98.5270 302.325   6
   3   2  15 2096.44 703.765   6
   3   3 -12 640.377 368.464   2
  -3  -3  11 4878.34 842.413   4
   3   3 -11 5028.90 950.780   2
  -3  -3  10 3901.37 749.162   4
   3   3 -10 3042.04 714.627   2
  -3  -3   9 7953.37 996.561   4
   3   3  -9 6671.97 1050.54   2
  -3  -3   9 7068.39 1022.57   7
  -3  -3   8 12037.2 1187.29   4
   3   3  -8 12274.2 1364.19   2
  -3  -3   8 11898.4 1277.21   7
  -3  -3   7 3877.23 631.345   4
  -3  -3   7 4190.14 714.093   7
   3   3  -7 4299.40 777.669   2
  -3  -3   6 97.2075 123.709   7
  -3  -3   6 261.547 172.632   4
   3   3  -6 108.231 42.1130   6
   3   3  -6 243.963 235.985   2
  -3  -3   5 11658.2 1001.44   4
   3   3  -5 11535.1 1037.50   4
   3   3  -5 9933.08 1137.17   2
  -3  -3   5 11096.9 1079.68   7
   3   3  -5 11304.3 534.318   6
  -3  -3   5 10496.4 542.093   3
   3   3  -4 3349.71 532.329   4
  -3  -3   4 2960.62 478.486   4
  -3  -3   4 2900.75 511.536   7
  -3  -3   4 3242.35 330.378   3
   3   3  -4 3319.04 310.743   6
   3   3  -4 3091.86 580.023   2
   3   3  -3 78698.5 2536.42   1
  -3  -3   3 76992.0 2719.69   4
   3   3  -3 80561.6 2848.75   4
   3   3  -3 85474.6 3360.67   2
  -3  -3   3 71743.1 2556.39   3
  -3  -3   3 78646.5 2897.88   7
   3   3  -2 17297.4 975.101   1
  -3  -3   2 18455.2 1137.63   4
   3   3  -2 17912.3 1377.12   2
  -3  -3   2 17197.1 1138.89   7
  -3  -3   2 16668.0 1404.77   3
   3   3  -1 54507.4 1884.57   1
  -3  -3   1 58677.6 2207.74   4
  -3  -3   1 58060.6 3108.36   3
   3   3  -1 56567.2 1718.17   6
  -3  -3   0 31055.7 1305.22   1
  -3  -3   0 32165.5 1514.04   4
   3   3   0 31693.5 1300.01   1
  -3  -3   0 32893.1 2390.31   3
   3   3   0 30049.4 1201.81   6
  -3  -3  -1 87950.8 4036.58   3
  -3  -3  -1 80683.8 2412.30   1
   3   3   1 81908.2 2345.53   1
   3   3   1 77421.4 2356.21   6
   3   3   1 81107.8 2519.52   5
   3   3   2 1455.95 240.849   1
  -3  -3  -2 2171.22 367.429   1
   3   3   2 2492.97 359.358   6
   3   3   2 1859.64 256.842   5
  -3  -3  -3 15048.5 1072.72   1
   3   3   3 14431.6 966.446   6
   3   3   3 15667.8 799.945   1
  -3  -3  -4 128.160 214.626   1
   3   3   4 636.923 148.474   1
   3   3   4 419.914 170.379   6
   3   3   5 143255. 4109.18   6
  -3  -3  -5 132752. 3920.82   1
   3   3   5 131466. 3348.50   1
   3   3   6 7125.32 572.815   1
  -3  -3  -6 7596.94 700.955   1
   3   3   6 7295.04 812.145   6
  -3  -3  -6 5530.23 1058.14   3
  -3  -3  -7 18024.2 981.281   4
   3   3   7 18162.5 1031.21   1
  -3  -3  -7 17194.0 1975.14   3
   3   3   7 20242.9 1470.16   6
  -3  -3  -7 20608.3 1198.15   1
  -3  -3  -7 20542.6 1317.46   6
  -3  -3  -8 6488.75 623.940   4
   3   3   8 6066.76 781.728   2
  -3  -3  -8 7552.36 730.101   1
  -3  -3  -8 7821.48 820.733   6
  -3  -3  -8 6490.43 1246.91   3
  -3  -3  -8 5814.96 391.456   5
   3   3   8 7379.18 937.120   6
   3   3   9 21305.0 1600.27   2
  -3  -3  -9 19088.9 2233.59   3
   3   3   9 19895.8 1717.69   6
  -3  -3 -10 1526.94 319.073   5
   3   3  10 749.068 321.089   6
   3   3  10 1248.19 352.325   2
  -3  -3 -10 615.239 402.592   3
   3   3  11 34960.7 2202.46   2
   3   3  11 33146.8 2404.15   6
  -3  -3 -11 37253.6 1883.29   1
  -3  -3 -11 31496.5 1654.18   5
  -3  -3 -12 644.337 288.829   1
   3   3  12-9.43916 229.405   6
   3   3  13 7349.29 1209.66   6
  -3  -3 -13 7922.68 922.315   1
   3   3  14 308.373 299.915   6
  -3  -3 -14 749.692 354.684   1
   3   3  15 804.617 413.186   6
   3   4 -11 1362.81 520.566   2
  -3  -4  10 360.504 249.266   4
   3   4 -10-165.346 257.817   2
  -3  -4   9 2928.18 640.393   4
   3   4  -9 2183.95 593.144   2
  -3  -4   9 2228.70 547.261   7
  -3  -4   8 3522.87 671.042   4
   3   4  -8 4068.62 829.878   2
  -3  -4   8 3399.55 683.292   7
  -3  -4   7 14386.4 1319.06   4
   3   4  -7 15590.0 1582.96   2
  -3  -4   7 14853.2 1372.20   7
  -3  -4   6 1045.14 324.997   4
  -3  -4   6 1573.09 434.626   7
   3   4  -6 1264.87 424.853   2
  -3  -4   5 24901.2 1629.03   4
   3   4  -5 26074.1 1963.39   2
  -3  -4   5 25847.9 1709.53   7
  -3  -4   5 25366.6 948.836   3
   3   4  -4 6843.64 713.799   1
  -3  -4   4 6747.64 780.191   4
   3   4  -4 6559.82 811.695   4
   3   4  -4 6227.91 893.885   2
  -3  -4   4 6773.92 686.183   3
  -3  -4   4 6997.86 820.433   7
   3   4  -3 11876.9 926.378   1
  -3  -4   3 13127.9 1066.29   4
   3   4  -3 11861.8 1204.16   2
  -3  -4   3 13127.2 1064.86   7
  -3  -4   3 11727.5 1301.28   3
   3   4  -3 13316.2 588.717   6
  -3  -4   2 43676.4 2864.35   3
   3   4  -2 41710.1 1774.07   1
  -3  -4   2 42835.8 2005.67   4
   3   4  -2 41698.3 2290.79   2
  -3  -4   2 42840.4 1927.20   7
   3   4  -2 40395.0 1341.45   6
   3   4  -1 114360. 3353.77   1
  -3  -4   1 117815. 3733.58   4
   3   4  -1 119196. 4103.11   2
   3   4  -1 117258. 3003.13   6
  -3  -4   1 116590. 4920.03   3
   3   4   0 1255.31 267.281   1
   3   4   0 1382.53 240.503   6
  -3  -4   0 1625.24 330.283   4
  -3  -4  -1-8.73518 88.9854   1
   3   4   1 67.3849 94.9188   1
   3   4   1 62.5204 79.9670   6
   3   4   2 8763.59 683.317   1
   3   4   2 9545.27 761.241   6
  -3  -4  -3 49360.1 2149.10   1
   3   4   3 48368.3 1772.79   1
   3   4   3 49039.6 2013.27   6
   3   4   4 8522.95 817.828   6
  -3  -4  -4 7730.02 853.005   1
   3   4   4 7426.37 589.610   1
  -3  -4  -4 9524.69 784.798   6
  -3  -4  -5 5985.15 721.862   1
   3   4   5 5845.61 719.841   6
  -3  -4  -5 6662.70 686.232   6
   3   4   5 6621.23 543.359   1
  -3  -4  -6 194.623 137.144   1
  -3  -4  -6 469.662 346.630   3
   3   4   6 189.145 83.3786   1
  -3  -4  -6 139.748 144.817   6
   3   4   6 547.154 284.989   6
   3   4   7 32718.4 1432.24   1
  -3  -4  -7 33615.4 2768.16   3
  -3  -4  -7 33953.4 1825.35   1
   3   4   7 35534.9 2119.73   6
  -3  -4  -7 35983.3 1807.51   6
   3   4   8 6653.56 771.737   2
  -3  -4  -8 5451.65 679.122   1
   3   4   8 7338.07 983.293   6
  -3  -4  -8 7157.67 1272.99   3
   3   4   9 32196.9 1973.23   2
   3   4   9 30285.0 2184.47   6
   3   4  10 19436.5 1533.89   2
   3   4  10 16508.0 1649.46   6
  -3  -4 -10 18520.3 1332.94   1
  -3  -4 -10 15045.9 697.164   5
   3   4  11 3177.62 638.700   2
   3   4  11 2823.75 714.285   6
  -3  -4 -11 4029.11 634.771   1
   3   4  12 4108.65 905.422   6
  -3  -4 -12 6050.99 841.051   1
  -3  -4 -13 7658.10 955.588   1
   3   4  13 7031.58 1205.18   6
   3   4  14 60.6166 180.604   6
  -3  -4 -14 453.667 284.154   1
   3   4  15 3143.97 870.975   6
  -3  -5  10 93.0995 221.711   4
   3   5 -10-205.855 211.382   2
  -3  -5   9 5381.08 908.787   4
  -3  -5   9 4765.42 848.550   7
   3   5  -9 5149.52 1006.82   2
  -3  -5   8 220.148 161.299   4
  -3  -5   8 244.401 177.686   7
   3   5  -8-36.5552 191.761   2
  -3  -5   7 3917.05 719.332   4
  -3  -5   7 4122.23 735.961   7
   3   5  -7 5436.35 957.811   2
  -3  -5   6 985.011 376.640   4
  -3  -5   6 1015.60 115.208   3
   3   5  -6 460.701 267.662   2
  -3  -5   6 1231.49 393.338   7
  -3  -5   5 11863.1 1177.43   4
   3   5  -5 13800.9 1464.99   2
  -3  -5   5 11953.3 1149.06   7
  -3  -5   5 14284.6 907.903   3
  -3  -5   4 868.375 330.828   4
  -3  -5   4 891.445 312.656   7
  -3  -5   4 737.494 349.865   3
   3   5  -4 1106.65 396.329   2
   3   5  -3 25051.0 1491.71   1
  -3  -5   3 24264.0 1632.93   4
   3   5  -3 25841.0 1915.97   2
  -3  -5   3 24607.9 1525.64   7
  -3  -5   3 27748.5 2409.06   3
   3   5  -3 26180.2 793.682   6
   3   5  -2 9757.68 871.304   1
  -3  -5   2 10724.9 1026.67   4
   3   5  -2 11142.7 1196.87   2
  -3  -5   2 9940.16 875.814   7
   3   5  -2 10168.7 619.162   6
   3   5  -1 15631.1 1086.84   1
  -3  -5   1 16095.1 1255.93   4
   3   5  -1 15221.8 1360.67   2
   3   5  -1 16700.2 925.662   6
   3   5   0 883.428 311.055   2
  -3  -5   0 1282.82 353.709   4
   3   5   0 808.902 228.072   1
   3   5   0 1172.84 264.386   6
  -3  -5  -1 81247.4 2802.96   1
   3   5   1 82327.8 2776.86   1
  -3  -5  -1 79312.5 4062.31   3
   3   5   1 87709.4 2848.12   6
   3   5   2 257.304 104.142   1
  -3  -5  -2 142.140 104.051   1
   3   5   2 177.111 140.086   6
  -3  -5  -3 12897.3 1089.16   1
   3   5   3 13607.3 939.602   1
   3   5   3 12622.3 1052.51   6
  -3  -5  -3 13595.1 942.986   6
  -3  -5  -4 18686.1 1428.14   1
   3   5   4 19430.4 1100.83   1
   3   5   4 21044.0 1434.97   6
  -3  -5  -4 21078.6 1240.39   6
  -3  -5  -5 20539.8 1575.45   1
  -3  -5  -5 22095.7 1330.35   6
   3   5   5 20025.5 1085.75   1
   3   5   5 21065.2 1501.89   6
  -3  -5  -6 8771.50 1006.51   1
  -3  -5  -6 8639.60 841.745   6
   3   5   6 8417.65 992.274   6
   3   5   6 7774.86 647.052   1
  -3  -5  -7 60500.8 2826.49   1
   3   5   7 67283.5 3134.27   6
   3   5   8 8139.73 773.674   2
  -3  -5  -8 8059.45 918.744   1
   3   5   8 8866.16 1120.82   6
  -3  -5  -9 1897.93 466.987   1
   3   5   9 1126.85 329.945   2
   3   5   9 1232.70 493.093   6
   3   5  10 146.685 240.515   2
  -3  -5 -10 161.338 161.046   1
   3   5  10 6.98641 188.370   6
   3   5  11 8540.04 1031.64   2
   3   5  11 8068.06 1227.73   6
  -3  -5 -11 7737.52 969.436   1
  -3  -5 -12 1089.60 408.497   1
   3   5  12 2241.87 708.607   6
  -3  -5 -13 8591.67 1088.30   1
   3   5  13 8163.66 1341.80   6
   3   5  14 282.872 254.328   6
  -3  -6   8 3882.48 784.124   4
  -3  -6   8 2982.69 628.617   7
   3   6  -8 3094.72 801.218   2
  -3  -6   7 9968.00 1221.34   4
   3   6  -7 9642.28 1369.03   2
  -3  -6   7 9191.61 1069.05   7
  -3  -6   6 680.966 326.790   4
  -3  -6   6 796.273 342.295   7
   3   6  -6 1520.41 544.988   2
  -3  -6   5 13109.3 1299.44   4
   3   6  -5 11336.7 1399.74   2
  -3  -6   5 11045.2 1106.78   7
  -3  -6   4 1488.12 442.070   4
  -3  -6   4 1553.43 396.465   7
  -3  -6   4 2479.03 841.488   3
   3   6  -4 1113.03 420.036   2
  -3  -6   3 15056.6 1336.89   4
   3   6  -3 13794.2 1433.76   2
  -3  -6   3 15265.2 1193.26   7
  -3  -6   2 103.564 161.210   4
  -3  -6   2-133.684 146.805   7
   3   6  -2-60.9688 69.0674   6
  -3  -6   2-263.295 369.429   3
   3   6  -2 94.6070 184.169   2
  -3  -6   1 14171.4 1251.43   4
   3   6  -1 11678.6 1248.60   2
  -3  -6   1 11904.7 1540.87   3
   3   6  -1 13738.9 878.669   6
   3   6   0 355.606 207.174   2
   3   6   0 388.009 194.229   6
   3   6   0 100.405 140.558   1
  -3  -6   0 352.585 244.258   4
  -3  -6  -1 60330.4 2465.70   1
  -3  -6  -1 59074.3 2752.73   4
   3   6   1 63086.8 2471.63   1
   3   6   1 60567.1 2860.22   2
   3   6   1 63583.8 2461.41   6
  -3  -6  -2 4993.44 669.908   1
   3   6   2 5174.14 634.168   1
   3   6   2 5630.98 697.085   6
  -3  -6  -3 10330.0 1021.76   1
   3   6   3 10405.5 891.617   1
   3   6   3 11558.5 1060.88   6
  -3  -6  -3 11250.4 892.089   6
  -3  -6  -4 13456.5 1263.59   1
  -3  -6  -4 14712.5 1076.23   6
   3   6   4 14804.7 1046.14   1
   3   6   4 14857.0 1252.77   6
  -3  -6  -5 62484.2 3091.73   1
  -3  -6  -5 66629.9 2603.34   6
   3   6   5 66531.1 2988.38   6
   3   6   5 62279.0 1687.95   5
   3   6   6 1183.82 129.286   5
   3   6   6 1090.06 380.004   6
  -3  -6  -6 1522.06 424.634   1
  -3  -6  -7 4104.20 732.167   1
   3   6   7 4298.63 782.719   6
  -3  -6  -8 1014.16 407.398   1
   3   6   8 1023.52 243.238   2
   3   6   8 586.593 355.107   6
   3   6   9 18479.1 1318.92   2
   3   6   9 20676.6 1880.52   6
  -3  -6  -9 22790.8 1737.85   1
   3   6  10 9436.24 1048.84   2
  -3  -6 -10 8908.76 1058.09   1
   3   6  10 8735.15 1276.08   6
  -3  -6 -11 4077.60 740.923   1
   3   6  11 5741.92 1080.10   6
  -3  -6 -12 1502.14 450.806   1
   3   6  12 1818.39 655.706   6
  -3  -6 -13 5750.00 955.783   1
   3   6  13 5246.66 1101.73   6
  -3  -7   7 365.110 302.293   4
   3   7  -7 140.259 212.579   2
  -3  -7   6 303.309 212.891   4
  -3  -7   6 280.321 230.397   7
   3   7  -6 289.164 245.939   2
  -3  -7   5 16071.3 1559.93   4
   3   7  -5 18618.5 1884.67   2
  -3  -7   5 16143.6 1345.65   7
  -3  -7   4 78.3484 112.487   4
  -3  -7   4 349.095 208.823   7
  -3  -7   3 8239.72 1045.86   4
   3   7  -3 7781.97 1146.80   2
  -3  -7   3 8463.48 889.437   7
  -3  -7   3 7212.24 1216.20   3
  -3  -7   2 5234.36 812.854   4
   3   7  -2 6071.22 963.769   2
  -3  -7   2 5008.07 636.744   7
   3   7  -2 4832.46 438.841   6
  -3  -7   2 3882.34 915.814   3
  -3  -7   1 16432.9 1458.38   4
   3   7  -1 18871.9 1669.47   2
   3   7  -1 17999.2 1056.81   6
  -3  -7   0 5321.20 809.014   4
   3   7   0 4804.41 598.720   6
   3   7   0 4482.18 808.291   2
  -3  -7  -1 6448.30 897.488   4
   3   7   1 5856.37 877.167   2
   3   7   1 6694.26 769.543   6
   3   7   2 1889.60 483.549   2
  -3  -7  -2 1536.81 393.422   1
   3   7   2 2322.96 485.930   6
  -3  -7  -2 1541.71 328.148   6
   3   7   3 42833.6 2266.62   6
  -3  -7  -3 44573.0 2327.37   1
   3   7   3 42335.5 2348.45   2
  -3  -7  -3 42824.4 1948.09   6
  -3  -7  -4 13117.4 1287.97   1
   3   7   4 11435.4 1170.35   6
  -3  -7  -4 12308.0 1033.95   6
  -3  -7  -5 698.593 360.761   1
   3   7   5 425.910 261.840   6
   3   7   5 370.655 148.830   5
  -3  -7  -6 9098.36 1216.22   1
   3   7   6 9862.22 1163.97   6
   3   7   6 8550.24 543.332   5
  -3  -7  -7 48900.3 2940.35   1
   3   7   7 50823.0 2916.82   6
   3   7   7 50555.5 1396.10   5
   3   7   8 486.893 148.645   2
   3   7   8 898.354 433.491   6
  -3  -7  -8 796.425 332.079   1
   3   7   9 14443.2 1076.50   2
  -3  -7  -9 15929.5 1597.88   1
   3   7   9 15440.2 1689.87   6
  -3  -7 -10 1996.06 556.885   1
   3   7  10 1601.17 580.723   6
  -3  -7 -11 6362.80 1007.80   1
   3   7  11 5870.90 1125.85   6
  -3  -7 -12-348.697 383.776   1
   3   7  12 133.902 314.612   6
   3   7  13 7695.57 1400.52   6
  -3  -8   6 7433.75 1129.60   4
   3   8  -6 9061.63 1383.78   2
  -3  -8   5 749.008 344.360   4
   3   8  -5 330.762 189.277   2
  -3  -8   4 1922.36 537.352   4
  -3  -8   4 1474.47 395.335   7
   3   8  -4 1472.02 552.350   2
  -3  -8   3 14343.0 1464.48   4
   3   8  -3 13339.5 1576.32   2
  -3  -8   3 12322.6 1088.53   7
  -3  -8   2 2814.48 484.496   7
  -3  -8   2 2332.59 604.501   4
  -3  -8   2 2839.31 788.100   3
   3   8  -2 3140.92 735.385   2
  -3  -8   1 6801.81 971.749   4
   3   8  -1 6005.43 983.350   2
  -3  -8   1 5929.83 685.299   7
   3   8  -1 5722.15 599.917   6
  -3  -8   0 5275.09 851.055   4
   3   8   0 4501.48 597.328   6
   3   8   0 4353.93 816.909   2
  -3  -8  -1 15620.9 1490.52   4
   3   8   1 15388.8 1503.87   2
   3   8   1 14988.2 1214.00   6
  -3  -8  -1 13752.1 981.320   6
  -3  -8  -2 5204.82 783.138   1
  -3  -8  -2 3729.76 730.425   4
   3   8   2 4096.39 659.119   6
  -3  -8  -2 4003.64 545.874   6
   3   8   2 4895.21 817.398   2
   3   8   3 1718.11 459.056   2
   3   8   3 1903.60 485.909   6
  -3  -8  -3 2383.71 528.917   1
  -3  -8  -3 1704.47 392.051   6
  -3  -8  -4 7028.24 990.203   1
   3   8   4 6214.32 875.953   2
   3   8   4 5977.92 888.486   6
   3   8   5 11320.9 1173.67   2
  -3  -8  -5 11177.7 1338.36   1
   3   8   5 11783.5 1312.61   6
   3   8   5 11281.6 820.529   5
   3   8   6 115.960 92.1982   5
   3   8   6 271.976 201.648   2
  -3  -8  -6 90.5807 174.901   1
  -3  -8  -7 13864.6 1627.97   1
   3   8   7 14627.2 1598.26   6
   3   8   7 14474.9 818.026   5
   3   8   8 546.644 334.584   6
  -3  -8  -8 735.538 380.487   1
  -3  -8  -9 8073.24 1230.26   1
   3   8   9 7429.31 1204.49   6
   3   8  10-126.506 220.208   6
  -3  -8 -10 54.5207 164.206   1
  -3  -8 -11 3423.96 785.746   1
   3   8  11 2516.45 757.300   6
  -3  -8 -12 945.116 440.510   1
   3   8  12 146.380 330.160   6
  -3  -9   4 665.772 313.712   4
   3   9  -4 1230.18 488.446   2
  -3  -9   3 6477.26 1027.64   4
   3   9  -3 6511.22 1128.83   2
  -3  -9   2 1208.45 329.529   7
   3   9  -2 2329.31 669.881   2
  -3  -9   2 1319.81 459.503   4
  -3  -9   1 3077.33 488.399   7
  -3  -9   1 3069.64 698.406   4
   3   9  -1 4128.75 857.420   2
  -3  -9   0 5236.34 929.753   4
   3   9   0 4607.01 612.731   6
   3   9   0 5113.31 927.916   2
  -3  -9  -1 6712.86 1045.44   4
   3   9   1 6830.90 1078.14   2
   3   9   1 6536.67 806.189   6
  -3  -9  -1 6341.89 681.079   6
  -3  -9  -2 12281.5 1442.06   4
   3   9   2 13935.1 1479.82   2
   3   9   2 15321.7 1345.13   6
  -3  -9  -2 13822.2 1084.94   6
  -3  -9  -3 11109.3 1252.09   1
  -3  -9  -3 11382.0 1449.22   4
   3   9   3 10546.2 1254.74   2
   3   9   3 10369.3 1196.75   6
  -3  -9  -4 231.849 226.209   1
   3   9   4 536.297 242.076   6
   3   9   4 132.983 132.046   2
   3   9   5 2791.28 465.428   5
  -3  -9  -5 3200.56 730.333   1
   3   9   5 3860.30 780.292   6
   3   9   5 3447.73 691.438   2
   3   9   6 398.137 184.277   5
  -3  -9  -6 987.437 449.138   1
   3   9   6 636.870 281.616   6
   3   9   6 488.920 254.296   2
   3   9   7 1202.77 367.303   2
  -3  -9  -7 1823.22 572.185   1
   3   9   7 1884.17 565.949   6
   3   9   8 164.419 148.131   2
  -3  -9  -8 443.362 342.823   1
   3   9   8 73.8361 221.756   6
  -3  -9  -9 4325.02 950.916   1
   3   9   9 5589.61 1081.07   6
   3   9  10 181.397 292.280   6
  -3  -9 -10 36.4313 210.965   1
   3  10  -3 412.803 365.667   2
  -3 -10   2-75.8672 268.099   4
   3  10  -2 108.026 301.422   2
  -3 -10   1 5945.36 1007.20   4
   3  10  -1 6944.83 1169.59   2
  -3 -10   0 7385.67 1148.78   4
   3  10   0 6718.72 1114.34   2
  -3 -10  -1 4399.22 892.473   4
   3  10   1 2842.90 537.667   6
   3  10   1 3288.53 767.635   2
   3  10   2 3044.50 614.748   6
  -3 -10  -2 3204.35 768.061   4
   3  10   2 3453.94 771.003   2
   3  10   3 5721.86 955.456   2
  -3 -10  -3 6890.47 1183.92   4
   3  10   3 5855.97 913.560   6
  -3 -10  -4 451.797 295.915   1
  -3 -10  -4 616.418 375.673   4
   3  10   4 160.368 126.220   6
   3  10   4 385.984 279.136   2
   3  10   5 1723.94 413.595   5
  -3 -10  -5 1750.24 597.319   1
   3  10   5 1418.45 499.051   6
   3  10   5 1433.56 432.931   2
  -3 -10  -6 778.857 406.608   1
   3  10   6 352.655 297.228   6
   3  10   6 316.809 252.744   2
  -3 -10  -7 5611.08 1121.25   1
   3  10   7 6470.80 1136.80   6
   3  10   8 320.614 276.520   6
  -3 -10  -8 35.3888 196.095   1
  -3 -10  -9 2159.78 705.829   1
   3  10   9 2967.19 880.749   6
   3  11  -1 996.722 512.237   2
   3  11   0 430.252 345.151   2
   3  11   1 1918.09 581.343   2
  -3 -11  -2 485.512 314.550   4
   3  11   2 470.625 321.597   2
   3  11   3 2612.56 599.487   6
   3  11   3 2849.00 704.774   2
  -3 -11  -3 2385.86 727.729   4
   3  11   4 1797.04 542.334   6
   3  11   4 1543.12 522.622   2
  -3 -11  -4 1832.23 621.968   4
  -3 -11  -5 5815.80 1091.98   1
   3  11   5 5580.98 905.045   2
   3  11   5 5395.09 995.575   6
  -3 -11  -5 6580.86 1368.15   4
   3  11   6 551.659 358.841   6
   3  11   7 1613.33 601.707   6
   3  11   8 1064.21 503.928   6
   3  12   1 1781.17 574.993   2
   3  12   2 704.669 422.760   2
   3  12   3 3062.25 765.083   2
   3  12   5 849.100 443.221   6
   3  12   6 110.944 212.643   6
  -4  10  -2 207.057 182.522   2
   4 -10   2 492.663 218.861   3
  -4  10  -3-123.705 166.583   2
   4 -10   3 60.9587 176.562   3
  -4  10  -4 1635.72 457.591   2
   4 -10   4 558.026 260.285   3
  -4   9   6 2979.20 1047.89   5
  -4   9   5 631.307 670.411   5
   4  -9  -5 157.932 243.084   3
   4  -9  -4 5910.54 1002.03   3
  -4   9   4 9965.93 1991.68   5
   4  -9  -3-157.476 215.083   3
  -4   9   3 1234.15 605.818   5
   4  -9  -2 3596.66 752.919   3
  -4   9   2 2580.84 926.255   5
   4  -9  -1-141.152 146.458   3
  -4   9   1-142.935 289.772   5
   4  -9   0 2151.26 577.097   3
  -4   9   0 2350.72 795.586   5
  -4   9  -1 2308.80 783.389   5
   4  -9   1 3100.58 540.161   4
  -4   9  -1 2468.53 438.188   2
   4  -9   1 2867.14 621.455   3
   4  -9   2 8893.02 1059.23   3
  -4   9  -2 9125.86 910.360   2
   4  -9   2 7152.45 856.072   4
  -4   9  -2 10062.1 1448.42   5
   4  -9   3-55.0517 84.6348   4
  -4   9  -3 218.576 144.323   2
   4  -9   3 212.333 194.370   3
   4  -9   4 2729.05 564.851   4
  -4   9  -4 2545.97 560.879   2
   4  -9   4 2833.77 575.360   3
   4  -9   5-139.357 161.627   4
  -4   9  -5-147.880 188.449   2
   4  -9   5 23.3079 137.349   3
   4  -9   6 2102.24 542.586   4
   4  -9   6 998.144 364.992   3
   4  -8  -8 5080.11 925.589   3
  -4   8   8 3630.51 999.595   5
  -4   8   7 582.187 480.458   5
   4  -8  -7 33.5541 265.019   3
  -4   8   6 6063.56 1389.39   5
   4  -8  -6 4741.24 894.767   3
  -4   8   5 3689.87 1090.62   5
   4  -8  -5 1939.31 554.192   3
   4  -8  -4 12711.8 1417.53   3
  -4   8   4 16058.5 2338.34   5
   4  -8  -3 4445.34 827.205   3
  -4   8   3 4350.59 1176.87   5
   4  -8  -2 3798.91 732.728   3
  -4   8   2 3067.19 1130.13   5
   4  -8  -2 2949.44 444.761   4
   4  -8  -1 8442.27 768.811   4
   4  -8  -1 9909.22 1175.91   3
   4  -8   0 27306.0 1491.52   4
   4  -8   0 29698.1 2016.90   3
  -4   8   0 24361.4 2419.57   5
  -4   8  -1 1087.04 551.425   5
   4  -8   1 562.731 217.408   4
  -4   8  -1 553.379 212.668   2
   4  -8   1 970.442 384.915   3
  -4   8  -2 15757.6 1151.36   2
   4  -8   2 15511.2 1192.41   4
   4  -8   2 14545.6 1302.55   3
  -4   8  -2 16921.7 1767.49   5
   4  -8   3 28.8589 89.6340   4
  -4   8  -3 77.7241 101.004   2
   4  -8   3 111.713 180.950   3
   4  -8   4 3047.18 555.879   4
  -4   8  -4 2589.77 531.539   2
   4  -8   4 2783.40 542.155   3
   4  -8   5 66.1805 139.723   4
  -4   8  -5 557.560 313.186   2
   4  -8   5 395.108 233.470   3
  -4   8  -6 8083.28 1036.29   2
   4  -8   6 7978.23 993.030   4
   4  -8   6 7632.05 932.667   3
   4  -8   7-68.1214 171.845   4
   4  -8   7-146.355 151.080   3
   4  -8   8 4256.05 794.708   4
   4  -7 -10 1187.74 433.361   3
   4  -7  -9 72.5468 176.309   3
  -4   7   9-414.685 363.761   5
   4  -7  -8 7620.72 1088.04   3
  -4   7   8 7035.20 1365.21   5
  -4   7   7-300.885 413.291   5
   4  -7  -7 299.376 239.160   3
  -4   7   6 4164.99 1093.61   5
   4  -7  -6 3730.05 730.351   3
   4  -7  -6 4455.36 548.389   1
  -4   7   5-167.191 390.213   5
   4  -7  -5-73.4598 148.587   3
   4  -7  -4 14896.1 946.762   4
   4  -7  -4 16465.2 1521.47   3
   4  -7  -3-62.8704 203.672   3
   4  -7  -3 132.026 141.324   7
   4  -7  -3-60.0895 105.032   4
   4  -7  -2 43776.1 1685.28   4
   4  -7  -2 42002.8 2025.92   2
  -4   7   2 45664.0 2252.32   1
   4  -7  -2 49507.0 2612.74   3
  -4   7   2 39144.1 3256.32   5
   4  -7  -1 2193.04 504.524   3
  -4   7   1 2475.64 821.647   5
  -4   7   1 2554.21 501.130   1
   4  -7  -1 2913.72 402.350   4
   4  -7  -1 3190.65 563.802   2
  -4   7   0 7739.46 1256.43   5
   4  -7   0 6808.16 642.011   4
   4  -7   0 7736.62 935.463   2
  -4   7   0 6273.40 861.975   1
   4  -7   0 7122.26 904.703   3
  -4   7  -1 2566.81 700.563   5
   4  -7   1 2638.18 414.429   4
  -4   7  -1 2305.72 385.669   2
  -4   7  -1 2209.28 505.198   1
   4  -7   1 1739.16 455.470   3
  -4   7  -2 15886.1 1101.68   2
   4  -7   2 15549.1 1093.29   4
  -4   7  -2 16344.0 1360.93   1
   4  -7   2 16132.6 1293.87   3
  -4   7  -2 16174.2 1612.94   5
  -4   7  -3 129.043 194.103   2
   4  -7   3 470.698 238.721   3
  -4   7  -4 13013.2 1153.24   2
   4  -7   4 13036.6 1107.32   4
   4  -7   4 12215.2 1093.27   3
   4  -7   5-92.4388 115.892   4
  -4   7  -5 171.301 128.649   2
   4  -7   5 217.818 190.655   3
  -4   7  -6 16643.4 1466.53   2
   4  -7   6 14515.0 1287.83   4
   4  -7   6 14447.4 1263.88   3
   4  -7   7 426.213 286.005   4
  -4   7  -7 103.488 187.520   2
   4  -7   7 70.5387 208.089   3
  -4   7  -8 24259.5 1878.28   2
   4  -7   8 21721.1 1715.25   4
   4  -7   8 19956.9 1823.08   3
   4  -7   9 35.0315 139.319   4
   4  -6 -11 332.333 251.034   3
   4  -6 -10 5344.98 862.381   3
   4  -6  -9 623.195 296.054   3
  -4   6   9 634.806 384.567   5
   4  -6  -8 2306.54 559.498   3
  -4   6   8 2782.69 857.192   5
   4  -6  -7 1630.24 473.729   3
   4  -6  -7 1595.81 333.371   1
  -4   6   7 1555.48 597.838   5
  -4   6   6 6217.08 1252.05   5
   4  -6  -6 5268.16 824.972   3
   4  -6  -6 6898.84 644.423   1
  -4   6   5 2554.68 743.781   5
   4  -6  -5 3064.30 624.097   3
   4  -6  -5 3673.71 449.617   1
  -4   6   5 2500.37 282.998   1
   4  -6  -4 31028.2 1072.26   4
   4  -6  -4 29645.8 1296.29   2
   4  -6  -4 31318.5 1276.73   4
   4  -6  -4 31744.5 2028.83   3
  -4   6   4 28880.4 2782.37   5
  -4   6   4 33645.8 1221.62   1
   4  -6  -3 143.860 140.663   3
  -4   6   3 481.776 422.966   5
   4  -6  -3 263.622 107.418   4
  -4   6   3 423.286 171.954   1
   4  -6  -3 730.148 267.416   7
   4  -6  -3 264.824 163.512   2
   4  -6  -2 783.830 180.568   4
   4  -6  -2 1000.59 343.529   3
  -4   6   2 778.583 469.282   5
  -4   6   2 777.335 235.212   1
   4  -6  -2 814.122 246.556   2
   4  -6  -1 1102.53 344.041   3
  -4   6   1 953.063 336.421   5
  -4   6   1 893.372 274.518   1
   4  -6  -1 1222.58 240.577   4
   4  -6  -1 1209.54 324.072   2
  -4   6   1 1411.19 343.008   7
   4  -6   0 8582.18 640.704   4
   4  -6   0 9126.66 936.243   2
  -4   6   0 7880.13 721.975   7
   4  -6   0 9176.27 959.329   3
  -4   6   0 8403.72 1249.56   5
   4  -6   1 1.08620 73.1350   4
  -4   6  -1 39.7375 98.8923   2
  -4   6  -1 228.496 105.053   7
  -4   6  -1 287.420 158.714   1
   4  -6   1-68.9144 111.327   2
   4  -6   1 45.5654 172.220   3
  -4   6  -2 31603.3 1549.31   2
  -4   6  -2 34989.3 1861.52   1
   4  -6   2 35277.8 1575.82   4
   4  -6   2 35224.3 1847.95   3
  -4   6  -2 33602.8 2253.20   5
  -4   6  -3 103.771 105.160   1
   4  -6   3 158.356 119.600   4
  -4   6  -3 34.7955 93.7712   2
   4  -6   3-179.740 214.286   3
  -4   6  -4 15962.1 1270.03   1
  -4   6  -4 19646.5 1361.68   2
   4  -6   4 18858.8 1263.65   4
  -4   6  -4 19254.5 1473.26   4
   4  -6   4 19181.9 1303.51   3
   4  -6   5 658.261 241.294   4
  -4   6  -5 1012.75 345.760   2
   4  -6   5 478.067 226.851   3
  -4   6  -6 12234.2 1186.58   2
   4  -6   6 11396.6 1077.34   4
   4  -6   6 11134.4 1081.30   3
   4  -6   7 164.451 169.429   4
  -4   6  -7 140.569 144.762   2
   4  -6   7 63.7074 167.510   3
  -4   6  -8 31112.4 2053.23   2
   4  -6   8 25633.3 1802.63   4
   4  -6   8 29121.7 2253.38   3
   4  -6   9-259.961 271.643   4
  -4   6  -9-285.416 210.968   2
   4  -6  10 5251.97 831.133   4
   4  -5 -10 927.302 375.472   3
   4  -5  -9 309.587 199.205   3
  -4   5   9 226.193 283.268   5
   4  -5  -8 12235.6 892.620   1
   4  -5  -8 12524.9 1237.72   3
  -4   5   8 12602.1 1748.71   5
   4  -5  -7 1198.43 399.525   3
   4  -5  -7 945.692 236.870   1
  -4   5   7 777.889 395.679   5
   4  -5  -6 2877.90 563.702   3
   4  -5  -6 2439.08 342.938   1
   4  -5  -6 2665.43 274.045   2
  -4   5   6 2041.94 691.158   5
  -4   5   5 8416.44 1401.47   5
   4  -5  -5 8126.10 596.628   1
   4  -5  -5 8356.43 554.853   4
   4  -5  -5 7429.65 514.811   2
  -4   5   5 7881.24 1004.75   7
   4  -5  -5 7608.79 913.383   3
   4  -5  -4 305.496 169.553   3
  -4   5   4 1044.74 506.453   5
  -4   5   4 791.098 133.383   1
   4  -5  -4 998.437 166.885   4
  -4   5   4 764.745 341.951   7
   4  -5  -4 838.005 161.452   4
   4  -5  -4 876.687 198.724   2
   4  -5  -3 2179.96 485.607   3
  -4   5   3 1459.67 586.933   5
   4  -5  -3 2028.60 187.576   4
   4  -5  -3 1735.41 199.624   4
  -4   5   3 2213.49 487.688   7
   4  -5  -3 1631.20 364.060   7
   4  -5  -3 1529.44 281.220   2
  -4   5   3 1508.67 201.342   1
   4  -5  -2 44215.1 1815.95   2
   4  -5  -2 48362.2 1317.49   4
  -4   5   2 43926.8 2144.85   7
  -4   5   2 41394.4 1542.07   1
   4  -5  -2 48714.7 2273.36   3
  -4   5   2 41046.7 3034.48   5
   4  -5  -1 972.967 306.403   3
  -4   5   1 576.874 376.653   5
  -4   5   1 702.772 180.073   1
  -4   5   1 709.945 246.151   7
   4  -5  -1 694.247 136.760   4
   4  -5  -1 642.574 196.108   2
   4  -5   0 17387.4 805.453   4
   4  -5   0 16512.3 1163.24   2
  -4   5   0 15542.3 1068.17   1
  -4   5   0 16616.3 1096.12   7
   4  -5   0 17210.5 1232.39   3
  -4   5   0 15536.2 1604.75   5
  -4   5  -1-36.1156 232.811   5
  -4   5  -1 220.299 130.032   7
   4  -5   1 92.9385 64.1568   4
  -4   5  -1 41.4306 95.8638   1
   4  -5   1 141.019 105.585   2
   4  -5   1 373.257 224.561   3
  -4   5  -2 10665.3 793.939   2
   4  -5   2 10571.2 740.352   4
   4  -5   2 10052.3 988.274   2
  -4   5  -2 10022.7 723.231   7
   4  -5   2 11284.1 950.898   3
  -4   5  -2 10746.9 1189.30   5
  -4   5  -3 5658.14 624.612   2
   4  -5   3 6859.06 642.513   4
  -4   5  -3 6013.42 500.173   7
   4  -5   3 6011.99 677.804   3
  -4   5  -3 8019.24 987.464   5
  -4   5  -4 18320.5 1207.97   2
   4  -5   4 16950.8 1101.38   4
  -4   5  -4 16452.0 1243.12   4
  -4   5  -4 15983.1 777.057   7
   4  -5   4 17909.6 1222.57   3
   4  -5   5 366.839 176.584   4
  -4   5  -5 281.109 192.149   2
  -4   5  -5 170.591 131.602   4
  -4   5  -5 273.155 93.0465   7
   4  -5   5 544.656 246.450   3
   4  -5   6 360.083 221.270   4
  -4   5  -6 305.134 188.383   2
  -4   5  -6 368.424 98.3587   7
   4  -5   6 188.254 151.707   3
  -4   5  -7-66.7580 139.295   2
   4  -5   7 295.220 251.084   3
  -4   5  -8 14656.1 1341.40   2
   4  -5   8 12726.6 1167.76   4
   4  -5   8 11084.5 1420.51   3
   4  -5   9-209.625 172.244   4
   4  -5   9 283.967 394.789   3
   4  -5   9 153.125 227.051   6
  -4   5  -9 284.845 230.646   2
  -4   5 -10 22278.3 1755.91   2
   4  -5  10 21838.4 1609.86   4
   4  -5  11-215.788 208.491   4
   4  -4 -10 5806.68 760.278   3
   4  -4  -9 969.768 237.924   1
   4  -4  -9 1107.83 334.381   3
   4  -4  -8 6495.96 611.983   1
   4  -4  -8 7354.03 850.154   3
  -4   4   8 7020.66 1283.35   5
   4  -4  -7 1537.88 289.613   1
   4  -4  -7 1243.94 249.518   2
  -4   4   7 1119.01 518.877   5
   4  -4  -7 1547.22 385.988   3
   4  -4  -6 2656.41 493.253   3
   4  -4  -6 2774.99 282.887   2
   4  -4  -6 2515.33 328.253   4
   4  -4  -6 2861.99 347.423   1
  -4   4   6 2947.63 692.595   7
  -4   4   6 1752.55 590.280   5
   4  -4  -6 1938.30 320.982   2
   4  -4  -5 7986.08 526.611   2
   4  -4  -5 8654.46 525.482   4
   4  -4  -5 8656.98 563.286   1
  -4   4   5 7796.92 1011.28   7
   4  -4  -5 9276.99 913.253   3
  -4   4   5 6561.47 1220.08   5
   4  -4  -4 46827.1 1616.78   2
   4  -4  -4 49339.2 1486.43   1
   4  -4  -4 51522.1 1328.81   4
  -4   4   4 45542.7 2451.85   7
   4  -4  -4 48338.6 2375.06   7
   4  -4  -4 52436.6 2294.86   3
   4  -4  -3 10342.6 693.954   2
  -4   4   3 10943.3 1064.14   7
   4  -4  -3 11992.9 1015.13   7
   4  -4  -3 12368.9 1029.26   3
  -4   4   3 10863.4 1514.00   5
   4  -4  -2 17408.6 976.855   2
  -4   4   2 17372.9 1299.12   7
   4  -4  -2 16939.2 1186.81   3
  -4   4   2 19448.2 651.968   1
  -4   4   2 19097.2 1922.30   5
  -4   4   1 1521.90 446.627   5
  -4   4   1 1792.91 400.348   7
  -4   4   1 1541.24 221.899   1
   4  -4  -1 1593.63 299.928   2
   4  -4  -1 1686.56 434.081   6
   4  -4  -1 1568.67 357.608   3
  -4   4   0 1969.60 563.796   5
   4  -4   0 1994.72 195.977   4
  -4   4   0 1710.90 370.100   7
   4  -4   0 2181.78 369.996   2
  -4   4   0 1772.72 273.426   1
   4  -4   0 2000.86 399.693   3
   4  -4   1 10874.0 586.681   4
  -4   4  -1 9881.91 752.999   1
   4  -4   1 10711.6 878.476   2
  -4   4  -1 10644.3 848.359   7
   4  -4   1 10979.2 908.578   3
  -4   4  -1 10330.5 1153.05   5
  -4   4  -2 29818.4 1369.29   1
   4  -4   2 30736.9 1201.36   4
   4  -4   2 27059.3 1553.42   2
  -4   4  -2 31525.5 1425.21   4
  -4   4  -2 31121.5 1432.42   7
   4  -4   2 32177.9 1593.62   3
  -4   4  -2 32199.3 1967.47   5
   4  -4   3 1108.93 243.858   4
  -4   4  -3 1349.68 317.335   2
  -4   4  -3 903.929 237.413   4
   4  -4   3 822.082 262.251   2
   4  -4   3 1092.79 306.100   3
  -4   4  -3 888.090 226.421   7
  -4   4  -4 8660.26 782.202   2
   4  -4   4 7814.73 671.360   4
  -4   4  -4 8615.03 633.769   7
   4  -4   4 8751.17 834.494   3
   4  -4   5 206.692 126.683   4
  -4   4  -5 253.165 182.544   4
  -4   4  -5 270.752 193.121   2
   4  -4   5 240.813 194.687   3
  -4   4  -6 6462.43 762.326   2
   4  -4   6 4629.09 574.404   4
  -4   4  -6 4918.82 693.175   4
   4  -4   6 6018.83 829.406   3
   4  -4   7-120.299 147.212   4
  -4   4  -7 30.3299 157.699   2
  -4   4  -8 5963.53 794.972   2
   4  -4   8 4543.54 637.052   4
   4  -4   8 4379.74 964.228   3
   4  -4   9-90.7638 176.803   4
  -4   4  -9 15.9375 112.520   2
   4  -4   9-396.141 388.291   3
   4  -4   9 44.3572 93.7602   6
  -4   4 -10 11498.2 1186.95   2
   4  -4  10 9812.42 994.979   4
   4  -4  10 12793.4 1935.16   3
   4  -4  10 7936.41 1150.02   6
   4  -4  11-85.4112 196.293   4
  -4   4 -11 195.502 181.467   2
   4  -4  12 2538.44 525.424   4
   4  -3 -10 3413.81 526.722   3
   4  -3  -9 155.755 167.079   1
   4  -3  -9-30.1851 113.472   3
   4  -3  -8 17034.1 1114.49   2
  -4   3   8 15250.5 1612.66   7
   4  -3  -8 15280.5 926.248   1
   4  -3  -8 18383.2 1250.17   3
   4  -3  -7-50.8176 115.532   4
  -4   3   7-27.9300 202.438   7
   4  -3  -7-101.440 99.8732   1
   4  -3  -7 13.3565 99.4235   2
  -4   3   7-274.007 379.780   5
   4  -3  -7 95.7872 108.988   3
   4  -3  -6 43230.3 1562.49   4
   4  -3  -6 43636.0 1891.75   2
  -4   3   6 42056.0 2535.37   7
   4  -3  -6 45781.9 2014.37   3
   4  -3  -6 42031.9 1479.68   1
  -4   3   6 41268.4 3134.69   5
  -4   3   5 27532.0 1923.83   7
   4  -3  -5 29059.9 1071.03   4
   4  -3  -5 29321.6 1061.79   1
   4  -3  -5 29980.6 1572.74   3
  -4   3   5 27415.1 2489.04   5
   4  -3  -4 1217.63 147.906   4
  -4   3   4 1452.89 433.329   7
   4  -3  -4 1036.24 146.452   1
   4  -3  -4 1352.87 437.393   6
   4  -3  -4 970.444 297.312   7
   4  -3  -4 883.324 263.701   3
  -4   3   4 612.266 567.539   5
  -4   3   3-374.143 512.164   5
   4  -3  -3 196.985 209.416   5
   4  -3  -3 126.505 88.3963   2
   4  -3  -3 168.494 144.947   7
   4  -3  -3 175.779 218.016   6
  -4   3   3-7.37543 142.555   7
   4  -3  -3 190.879 190.645   3
   4  -3  -2 56285.6 1848.56   2
  -4   3   2 58613.1 2545.13   7
   4  -3  -2 57328.3 2552.46   6
  -4   3   2 56162.6 3318.88   5
   4  -3  -2 57256.1 2196.00   3
   4  -3  -2 52197.2 2589.81   5
  -4   3   1 2409.73 685.992   5
   4  -3  -1 2336.33 513.027   5
  -4   3   1 2477.51 441.364   7
   4  -3  -1 2047.50 309.049   2
   4  -3  -1 3038.57 451.857   3
   4  -3   0 92431.5 3017.26   2
  -4   3   0 99690.3 3371.90   7
   4  -3   0 104541. 3233.41   3
  -4   3   0 98100.8 4142.10   5
  -4   3  -1 159.792 135.301   3
  -4   3  -1-108.390 335.754   5
  -4   3  -1 122.106 100.178   1
   4  -3   1 50.5333 45.4603   4
  -4   3  -1-51.9109 116.417   7
   4  -3   1 361.365 165.412   2
   4  -3   1-232.250 196.170   3
  -4   3  -2 161.314 86.1142   3
  -4   3  -2 112.974 274.555   5
   4  -3   2 184.452 88.4295   4
  -4   3  -2 367.062 123.937   4
  -4   3  -2 446.051 185.007   7
   4  -3   2 161.199 109.798   3
   4  -3   2 100.293 101.213   2
  -4   3  -3-0.51388 94.6096   4
  -4   3  -3-72.8050 134.962   3
   4  -3   3-23.5022 57.4615   4
   4  -3   3 140.536 103.916   2
   4  -3   3-140.135 161.535   3
  -4   3  -4 46305.8 1800.31   2
   4  -3   4 44846.8 1615.97   4
   4  -3   4 39653.9 2030.79   2
  -4   3  -4 42266.7 1792.11   4
   4  -3   4 47354.8 2123.61   3
  -4   3  -4 41873.3 2037.38   3
  -4   3  -5 6269.78 649.798   2
   4  -3   5 5327.29 534.260   4
  -4   3  -5 4786.18 596.299   4
   4  -3   5 5755.40 791.550   3
  -4   3  -5 5102.90 653.248   3
  -4   3  -6 17732.0 1193.52   2
   4  -3   6 15439.6 987.184   4
  -4   3  -6 17669.4 1247.32   4
  -4   3  -6 16025.6 1201.11   3
  -4   3  -7 317.269 132.979   3
   4  -3   7 430.492 183.623   4
  -4   3  -7 821.840 277.030   4
  -4   3  -7 775.153 278.736   2
   4  -3   7 347.917 433.641   3
  -4   3  -8 14069.6 1156.55   2
   4  -3   8 12835.1 987.920   4
   4  -3   8 10926.4 1589.82   3
  -4   3  -8 11528.1 1014.58   3
  -4   3  -9-96.6072 139.739   3
   4  -3   9-23.0557 102.670   4
  -4   3  -9 90.8637 141.262   2
   4  -3   9-355.980 507.671   3
   4  -3   9-142.598 210.247   6
  -4   3 -10 7306.23 882.190   2
   4  -3  10 6202.23 752.144   4
   4  -3  10 6018.86 996.835   6
   4  -3  10 7392.50 1421.23   3
   4  -3  11-112.405 147.752   4
  -4   3 -11-84.4925 214.933   2
   4  -3  11 399.977 278.819   6
   4  -3  12 2800.05 504.674   4
  -4   3 -12 3021.15 621.872   2
   4  -3  12 2776.51 806.494   6
   4  -2 -10 4071.17 566.258   1
   4  -2  -9 1603.41 333.378   1
   4  -2  -9 1339.84 353.784   2
   4  -2  -9 1437.45 321.481   3
   4  -2  -8 10283.5 884.942   4
   4  -2  -8 9470.80 921.798   2
  -4   2   8 9353.05 1239.35   7
   4  -2  -8 11747.4 912.389   3
   4  -2  -8 10286.2 721.822   1
   4  -2  -7 21831.4 1019.25   1
   4  -2  -7 23882.0 1277.91   4
   4  -2  -7 25033.6 1510.18   2
  -4   2   7 23298.4 1897.07   7
   4  -2  -7 27492.0 1416.53   3
   4  -2  -6 13377.5 835.015   4
   4  -2  -6 14527.2 1144.59   2
  -4   2   6 11954.3 1299.27   7
   4  -2  -6 14074.7 1315.34   6
   4  -2  -6 15062.2 1002.59   3
   4  -2  -6 13101.2 691.783   1
  -4   2   6 12758.9 1656.77   5
   4  -2  -5 3735.12 369.387   4
  -4   2   5 3721.15 685.906   7
   4  -2  -5 4097.95 505.971   3
   4  -2  -5 3560.15 310.650   1
   4  -2  -5 3219.95 607.705   6
  -4   2   5 3571.68 864.803   5
   4  -2  -4 52083.1 1503.96   4
  -4   2   4 50884.5 2588.08   7
   4  -2  -4 52143.6 2395.90   7
   4  -2  -4 52741.9 2548.52   6
   4  -2  -4 53790.6 1382.56   1
   4  -2  -4 54593.9 2052.74   3
  -4   2   4 45236.6 3482.69   5
  -4   2   3 6416.81 830.584   7
   4  -2  -3 5529.43 670.787   7
   4  -2  -3 5207.21 702.288   6
   4  -2  -3 6040.27 592.485   3
   4  -2  -3 5795.56 813.228   5
  -4   2   3 4484.50 895.887   5
   4  -2  -2 67501.5 2316.87   3
  -4   2   2 64994.0 2739.29   7
  -4   2   2 62969.9 3504.29   5
   4  -2  -2 69541.0 2949.07   5
  -4   2   1-252.033 241.201   5
  -4   2   1-26.5842 144.883   3
  -4   2   1-60.8915 104.390   7
   4  -2  -1-180.516 191.018   3
   4  -2   0 15139.2 916.567   2
  -4   2   0 16086.1 1112.45   7
   4  -2   0 16363.1 1018.26   3
  -4   2   0 16082.8 1505.32   5
   4  -2   0 17864.8 1244.71   5
  -4   2  -1-197.085 309.772   5
  -4   2  -1 3.17729 29.1087   4
  -4   2  -1-26.7154 87.6001   7
   4  -2   1-101.494 113.902   2
  -4   2  -1-2.78419 25.4286   1
   4  -2   2 85866.4 2874.05   2
  -4   2  -2 85575.1 2242.61   4
   4  -2   2 92861.8 3004.73   3
  -4   2  -2 88398.8 3268.88   5
   4  -2   3 24589.9 881.908   4
   4  -2   3 20612.3 1300.94   2
  -4   2  -3 20769.8 1003.08   4
   4  -2   3 22558.3 1426.07   3
  -4   2  -3 21856.0 1313.25   3
  -4   2  -3 22516.0 1397.18   5
   4  -2   4 62095.8 1771.92   4
   4  -2   4 55130.1 2399.84   2
  -4   2  -4 56207.3 2009.35   4
   4  -2   4 55956.7 2612.81   3
  -4   2  -4 53497.8 2222.82   3
  -4   2  -4 58387.6 2322.11   5
  -4   2  -5 90.9715 89.1704   3
   4  -2   5 64.3881 63.3450   4
  -4   2  -5 343.579 177.830   2
   4  -2   5 121.854 123.883   2
  -4   2  -6 18736.9 1137.17   2
   4  -2   6 17752.3 977.452   4
  -4   2  -6 19278.9 1246.08   4
   4  -2   6 16209.1 1744.77   3
  -4   2  -6 19222.7 1225.47   3
   4  -2   7 1077.65 254.333   4
  -4   2  -7 974.237 322.468   4
  -4   2  -7 537.160 253.591   2
   4  -2   7 880.465 535.259   3
  -4   2  -7 865.482 267.549   3
  -4   2  -8 7991.16 806.176   2
   4  -2   8 7275.76 675.836   4
  -4   2  -8 7071.54 740.236   3
   4  -2   8 9457.18 1020.23   6
   4  -2   8 5609.45 1146.22   3
  -4   2  -9-8.97072 104.789   3
   4  -2   9 174.608 121.843   4
  -4   2  -9 239.322 205.084   2
   4  -2   9 451.053 477.948   3
   4  -2   9 125.975 191.444   6
  -4   2 -10 22086.0 1488.95   2
   4  -2  10 21561.0 1304.53   4
   4  -2  10 18434.8 2256.42   3
   4  -2  10 21629.2 1884.72   6
   4  -2  11 1205.15 329.485   4
  -4   2 -11 788.249 302.514   2
   4  -2  11 455.893 304.788   6
  -4   2 -11 527.502 213.239   1
  -4   2 -12 8485.19 968.402   2
   4  -2  12 8542.27 879.927   4
  -4   2 -12 8035.42 824.286   1
   4  -2  12 6218.80 1209.00   6
  -4   2 -13-47.7599 95.2078   1
   4  -2  13 268.135 199.370   4
   4  -2  13 143.375 270.733   6
  -4   2 -13 261.537 174.560   2
  -4   1  11 2382.02 451.238   4
   4  -1 -11 2458.27 519.309   1
  -4   1  10 3113.40 479.290   4
   4  -1 -10 3113.94 514.832   1
   4  -1 -10 2806.72 570.174   2
   4  -1  -9 589.849 214.243   1
  -4   1   9 538.699 190.937   4
  -4   1   9 337.838 240.064   7
   4  -1  -9 289.364 205.715   2
   4  -1  -9 635.021 240.232   3
  -4   1   8 11320.4 798.111   4
   4  -1  -8 10195.9 943.029   4
   4  -1  -8 9791.92 1033.19   2
   4  -1  -8 11639.4 1190.15   6
   4  -1  -8 10645.3 891.956   3
  -4   1   8 10061.3 1282.82   7
   4  -1  -8 13334.6 863.320   1
  -4   1   7 122.075 115.979   4
   4  -1  -7 50.4736 78.9378   1
   4  -1  -7-112.760 120.572   4
   4  -1  -7-95.8215 167.584   6
   4  -1  -7-49.4367 85.2331   3
   4  -1  -7-69.6930 147.881   2
  -4   1   7-49.1162 135.038   7
   4  -1  -6 22559.5 938.895   1
  -4   1   6 21459.7 994.197   4
   4  -1  -6 19830.4 1126.26   4
   4  -1  -6 21988.0 1529.46   2
  -4   1   6 18495.8 1599.15   7
   4  -1  -6 20270.3 1517.94   6
   4  -1  -6 22444.5 1234.61   3
  -4   1   5 8206.36 527.271   4
   4  -1  -5 7857.49 616.669   4
   4  -1  -5 8878.56 949.568   2
  -4   1   5 7872.96 993.755   7
   4  -1  -5 8049.76 913.657   6
   4  -1  -5 7788.40 689.376   3
   4  -1  -5 7860.36 453.626   1
  -4   1   4 1743.13 200.989   4
   4  -1  -4 1816.31 257.506   4
  -4   1   4 1467.98 437.008   7
   4  -1  -4 2176.36 450.502   7
   4  -1  -4 2085.32 443.583   6
   4  -1  -4 1698.78 173.991   1
   4  -1  -4 1469.03 305.181   3
  -4   1   4 664.012 289.107   5
  -4   1   3 24963.3 752.294   4
   4  -1  -3 26182.8 1297.79   3
   4  -1  -3 23494.5 648.821   1
  -4   1   3 22879.0 1330.50   3
  -4   1   3 25086.8 1630.95   7
  -4   1   3 20979.2 1945.13   5
   4  -1  -3 26406.6 1757.48   5
  -4   1   2 30232.7 1728.17   7
   4  -1  -2 30728.6 1460.31   3
  -4   1   2 30745.8 1542.80   3
  -4   1   2 26686.5 2089.42   5
   4  -1  -2 31960.4 1845.17   5
  -4   1   1 1701.96 415.742   5
  -4   1   1 1546.69 324.197   3
   4  -1  -1 1617.96 386.377   5
  -4   1   1 1955.92 392.527   7
   4  -1  -1 2271.02 395.273   3
  -4   1   0 256656. 6348.92   7
   4  -1   0 257807. 6285.05   3
  -4   1   0 242327. 7187.15   5
  -4   1  -1 43261.4 1111.64   4
  -4   1  -1 41288.8 1138.85   1
   4  -1   1 45342.2 2018.97   3
  -4   1  -1 43546.1 2235.63   5
   4  -1   2 82032.5 2644.31   2
  -4   1  -2 80501.3 2087.14   4
  -4   1  -2 77997.6 1836.01   1
  -4   1  -2 80007.3 2976.13   5
  -4   1  -3 1399.47 231.938   4
   4  -1   3 929.307 354.217   3
  -4   1  -4 2013.44 413.236   5
  -4   1  -4 1470.05 269.182   4
  -4   1  -4 1348.64 195.928   1
   4  -1   4 2260.38 824.215   3
  -4   1  -4 1514.12 317.910   3
   4  -1   5 5027.76 444.825   4
  -4   1  -5 3917.69 370.331   1
  -4   1  -5 3074.54 450.153   3
   4  -1   5 3113.33 851.304   3
   4  -1   6 9526.07 663.992   4
   4  -1   6 9705.36 1036.93   2
  -4   1  -6 9458.07 628.811   1
  -4   1  -6 8664.29 797.721   4
  -4   1  -6 9129.79 802.883   3
   4  -1   6 8577.96 1393.50   3
   4  -1   7 3716.79 424.658   4
  -4   1  -7 3111.39 392.519   1
  -4   1  -7 3103.81 509.219   4
  -4   1  -7 3112.93 452.043   2
  -4   1  -7 3606.71 505.461   3
   4  -1   7 4563.22 671.101   6
   4  -1   7 2435.16 724.820   3
  -4   1  -8 40488.6 1807.80   2
   4  -1   8 39724.6 1638.57   4
  -4   1  -8 40663.9 1610.03   1
  -4   1  -8 37009.4 1986.06   4
   4  -1   8 33925.4 2830.52   3
  -4   1  -8 35213.4 1729.75   3
   4  -1   8 37065.4 2109.62   6
  -4   1  -9 4171.99 588.127   2
   4  -1   9 4470.99 536.068   4
  -4   1  -9 4088.54 493.809   1
  -4   1  -9 3745.98 519.583   3
   4  -1   9 3720.38 935.915   3
   4  -1   9 3430.43 700.723   6
  -4   1 -10 29377.6 1622.76   2
   4  -1  10 26801.3 1466.54   4
  -4   1 -10 30947.1 1495.93   1
  -4   1 -10 23978.7 1409.63   3
   4  -1  10 26353.2 2092.93   6
   4  -1  11 1417.25 355.723   4
  -4   1 -11 1256.30 353.465   2
  -4   1 -11 950.631 271.342   1
   4  -1  11 1472.64 570.086   6
  -4   1 -12 14167.2 1185.57   2
  -4   1 -12 15434.6 1133.34   1
   4  -1  12 17112.4 1267.27   4
  -4   1 -13-37.1492 133.295   2
   4  -1  13-5.52390 227.214   6
  -4   1 -13 222.707 145.601   1
  -4   1 -14 1944.02 488.514   2
   4  -1  14 2017.84 764.298   6
  -4   0  12 1484.05 401.891   4
  -4   0  11 144.466 135.245   4
   4   0 -11 156.494 134.911   2
   4   0 -11 241.574 212.297   1
  -4   0  10 6538.32 733.388   4
   4   0 -10 5173.54 837.026   2
  -4   0   9 394.058 177.610   4
   4   0  -9 522.276 189.849   1
  -4   0   9 391.028 219.500   7
   4   0  -9 313.877 220.845   2
  -4   0   8 1580.07 344.583   4
   4   0  -8 974.831 304.064   4
  -4   0   8 1382.94 477.690   7
   4   0  -8 1493.35 399.903   6
   4   0  -8 1995.09 527.570   3
   4   0  -8 1009.67 330.814   2
  -4   0   7 28.6634 100.506   4
   4   0  -7 47.8694 62.7998   4
  -4   0   7 124.897 179.001   7
   4   0  -7 142.437 110.100   6
   4   0  -7 605.979 304.869   3
   4   0  -7 227.249 216.683   2
  -4   0   6 12382.9 892.165   4
   4   0  -6 12136.1 929.852   4
   4   0  -6 15049.4 1339.38   2
   4   0  -6 11791.8 1069.02   6
   4   0  -6 11426.1 1011.75   3
  -4   0   6 10865.2 1235.59   7
  -4   0   5 15732.9 962.143   4
   4   0  -5 15442.8 975.405   4
   4   0  -5 19294.5 1535.83   2
  -4   0   5 15492.7 1405.00   7
   4   0  -5 15535.4 1205.34   6
   4   0  -5 15941.7 1169.71   3
  -4   0   4 42703.7 1589.68   4
   4   0  -4 43261.6 1631.01   4
  -4   0   4 40406.9 2258.09   7
   4   0  -4 43930.2 2070.71   6
   4   0  -4 42508.3 1983.16   3
  -4   0   3 32768.7 1874.08   7
   4   0  -3 30367.0 1009.12   1
  -4   0   3 32547.8 1218.07   4
  -4   0   3 26526.8 2144.20   5
   4   0  -3 31566.9 1665.11   3
   4   0  -3 32253.6 1953.85   5
  -4   0   2 31575.1 1062.58   4
   4   0  -2 31237.1 882.541   1
  -4   0   2 30269.3 1732.19   7
   4   0  -2 27685.4 1620.31   3
   4   0  -2 30511.7 1806.86   5
  -4   0   1 2222.20 217.049   4
   4   0  -1 2244.03 130.470   1
   4   0  -1 2040.31 475.449   3
  -4   0   1 1663.91 377.967   7
  -4   0   1 1482.42 434.556   5
  -4   0   0 19685.7 786.680   4
  -4   0   0 21504.3 1334.41   7
   4   0   0 19659.3 1492.28   3
  -4   0   0 17563.3 1434.33   5
  -4   0  -1 658.137 243.803   5
   4   0   1 681.810 259.123   5
  -4   0  -1 606.283 114.354   1
   4   0   1 1128.64 585.708   3
  -4   0  -2 49699.6 1366.73   4
  -4   0  -2 53820.9 1630.04   1
   4   0   2 51117.8 2885.67   3
  -4   0  -2 51372.1 2200.96   5
   4   0   2 52693.9 1864.49   5
  -4   0  -3 1099.14 251.810   5
  -4   0  -3 1405.94 213.028   4
  -4   0  -3 1863.34 248.388   1
   4   0   3 1023.07 496.344   3
  -4   0  -4 77069.4 2373.57   4
  -4   0  -4 89758.7 2911.51   3
   4   0   4 79320.2 4258.13   3
  -4   0  -4 84743.1 2134.67   1
  -4   0  -4 82550.8 2608.70   5
   4   0   5 24931.1 2348.12   3
  -4   0  -5 23820.0 1405.96   3
  -4   0  -5 24492.8 1177.59   5
  -4   0  -5 26129.4 1001.39   1
  -4   0  -6 50574.9 1625.35   1
   4   0   6 47689.2 2433.39   2
  -4   0  -6 47314.5 1967.22   4
   4   0   6 48298.1 3318.41   3
  -4   0  -6 48766.2 2147.74   3
   4   0   6 48310.9 2198.89   6
  -4   0  -7 5385.83 497.279   1
  -4   0  -7 5623.71 651.454   4
   4   0   7 5918.85 852.141   2
  -4   0  -7 4915.30 645.022   3
   4   0   7 5355.78 729.249   6
   4   0   7 5545.21 1064.30   3
  -4   0  -8 1946.48 416.192   4
  -4   0  -8 2205.91 344.053   1
   4   0   8 1277.25 511.283   3
   4   0   8 2464.83 540.071   6
  -4   0  -8 1832.73 400.182   3
  -4   0  -9 1140.72 264.999   1
   4   0   9 925.099 328.917   6
  -4   0  -9 1121.34 313.955   3
  -4   0 -10 21197.5 1231.84   1
  -4   0 -10 16959.7 1237.57   3
   4   0  10 17983.8 1681.37   6
  -4   0 -11 2474.57 429.846   1
   4   0  11 2141.50 664.521   6
  -4   0 -12 12519.2 1006.92   1
   4   0  12 7484.69 1282.65   6
  -4   0 -13 2590.97 476.559   1
   4   0  13 2163.59 743.807   6
   4   0  14 2584.69 856.657   6
  -4  -1  12 1548.42 422.554   4
   4   1 -11 90.7858 76.1695   1
  -4  -1  11 306.374 228.375   4
   4   1 -11 122.889 166.402   2
  -4  -1  10 1742.84 424.195   4
  -4  -1  10 2127.73 628.370   7
   4   1 -10 1556.87 510.149   2
  -4  -1   9 2325.59 481.272   4
  -4  -1   9 2018.63 587.361   7
   4   1  -9 2040.45 549.783   2
  -4  -1   8 16187.9 1263.61   4
   4   1  -8 14657.3 1462.44   2
  -4  -1   8 17589.0 1658.61   7
   4   1  -8 12470.3 1148.21   3
  -4  -1   7 1062.97 310.386   4
   4   1  -7 650.679 247.912   4
  -4  -1   7 688.677 316.756   7
   4   1  -7 775.599 253.741   6
   4   1  -7 372.723 197.671   3
   4   1  -7 343.112 190.787   2
  -4  -1   6 18329.2 1232.09   4
   4   1  -6 16861.8 1200.30   4
   4   1  -6 19059.5 1603.59   2
  -4  -1   6 16019.8 1486.63   7
   4   1  -6 15487.8 1475.04   3
   4   1  -6 18194.8 1244.52   6
   4   1  -5 2989.96 633.289   2
   4   1  -5 3417.25 492.368   4
  -4  -1   5 2617.02 417.743   4
  -4  -1   5 3286.38 641.409   7
   4   1  -5 2694.13 458.396   6
   4   1  -5 2703.07 636.897   3
   4   1  -4 2990.58 702.207   5
  -4  -1   4 3118.77 420.569   4
   4   1  -4 2938.91 423.819   4
  -4  -1   4 3617.91 636.542   7
   4   1  -4 3552.45 522.106   6
  -4  -1   4 2895.12 399.585   3
   4   1  -4 2838.24 700.391   3
   4   1  -3 211.383 119.942   5
   4   1  -3 374.205 130.419   1
  -4  -1   3 216.021 123.754   4
  -4  -1   3 414.327 241.785   7
   4   1  -3 171.095 360.344   3
   4   1  -2 4242.83 354.789   1
  -4  -1   2 4400.79 430.356   4
  -4  -1   2 4453.46 635.162   7
   4   1  -2 4219.17 889.629   3
   4   1  -2 4896.28 726.909   5
  -4  -1   1 417.496 127.182   4
  -4  -1   1 664.993 249.954   7
   4   1  -1 684.247 418.368   3
   4   1  -1 455.674 105.563   1
  -4  -1   0 71519.0 2213.64   4
   4   1   0 69953.0 1738.40   1
   4   1   0 68287.6 3641.61   3
  -4  -1   0 63430.7 2866.10   5
   4   1   0 76060.6 2635.25   5
  -4  -1  -1 7349.25 483.160   1
   4   1   1 6586.53 363.545   1
   4   1   1 6677.42 1150.01   3
  -4  -1  -1 5954.21 731.680   5
   4   1   1 5667.57 563.051   5
  -4  -1  -2 74246.2 2329.23   1
   4   1   2 82941.0 4259.01   3
  -4  -1  -2 72550.9 2692.78   5
   4   1   2 78423.9 2333.74   5
   4   1   2 79460.8 1915.05   1
   4   1   3 56440.7 1583.47   1
  -4  -1  -3 60636.7 2013.20   1
   4   1   3 58607.2 3576.80   3
  -4  -1  -3 54400.1 2057.36   5
  -4  -1  -4 168434. 3852.59   4
   4   1   4 178154. 6786.46   3
  -4  -1  -4 172111. 4077.06   1
  -4  -1  -4 168348. 4205.98   5
   4   1   5 141.657 455.991   3
   4   1   5 1251.80 372.377   6
  -4  -1  -5 836.221 427.323   3
  -4  -1  -5 8178.10 688.830   5
  -4  -1  -6 837.583 192.727   5
   4   1   6 418.265 197.015   2
  -4  -1  -6 345.283 139.665   4
   4   1   6 507.159 430.793   3
  -4  -1  -6 735.284 174.459   1
   4   1   6 929.355 321.543   6
  -4  -1  -6 812.884 376.411   3
  -4  -1  -7-134.358 127.662   4
   4   1   7-80.2681 117.738   2
  -4  -1  -7 157.193 129.057   1
   4   1   7-61.7003 134.497   6
  -4  -1  -7 202.586 213.825   3
  -4  -1  -8 20847.6 1703.52   3
  -4  -1  -8 17736.7 1242.32   4
   4   1   8 21051.9 1710.39   2
   4   1   8 18569.8 1485.47   6
  -4  -1  -8 20054.2 1106.14   1
   4   1   9 97.9685 146.885   6
  -4  -1  -9 478.236 320.690   3
  -4  -1  -9 365.653 187.306   1
  -4  -1 -10 8575.98 1043.30   3
   4   1  10 7831.44 1103.25   6
  -4  -1 -10 10303.8 854.767   1
   4   1  11-36.8105 236.832   6
  -4  -1 -11-61.6526 126.064   1
   4   1  12 7284.74 1240.89   6
  -4  -1 -12 13311.4 1071.84   1
  -4  -1 -13 2309.38 496.155   1
   4   1  13 2460.40 784.396   6
   4   1  14 3963.66 1031.10   6
   4   1  15 1373.87 666.295   6
  -4  -2  11 1304.32 411.107   4
   4   2 -11 1469.91 530.109   2
  -4  -2  10 5436.16 836.769   4
  -4  -2  10 5177.25 977.508   7
   4   2 -10 5199.10 921.832   2
  -4  -2   9 3126.55 621.505   4
  -4  -2   9 2931.67 717.091   7
   4   2  -9 2252.25 577.737   2
  -4  -2   8 1370.74 382.235   4
  -4  -2   8 941.894 379.131   7
   4   2  -8 1056.35 325.669   2
  -4  -2   7 231.972 198.253   4
  -4  -2   7 238.429 226.527   7
   4   2  -7-29.3064 76.7283   6
   4   2  -7-62.8885 164.373   2
  -4  -2   6 5054.78 664.228   4
   4   2  -6 4356.33 648.324   4
   4   2  -6 5329.41 889.392   2
  -4  -2   6 4765.28 785.064   7
   4   2  -6 4937.29 577.681   6
  -4  -2   5 1224.97 245.549   3
  -4  -2   5 1605.26 336.352   4
  -4  -2   5 1414.40 403.410   7
   4   2  -5 1687.61 327.975   6
   4   2  -5 576.004 288.495   3
   4   2  -5 1446.78 364.683   4
   4   2  -5 1668.28 524.338   2
   4   2  -4 33523.3 1491.56   1
  -4  -2   4 38216.9 1741.98   4
   4   2  -4 35452.6 1748.42   4
   4   2  -4 38660.6 2399.58   2
   4   2  -4 34219.0 2297.50   3
  -4  -2   4 35562.1 2102.27   7
   4   2  -4 39118.0 1694.09   6
  -4  -2   4 32241.7 1381.60   3
   4   2  -3 5765.94 529.856   1
  -4  -2   3 6270.90 632.264   4
  -4  -2   3 5827.17 781.575   7
  -4  -2   3 6566.71 571.019   3
   4   2  -3 5838.10 957.071   3
   4   2  -3 7278.87 930.218   5
   4   2  -2 47696.0 1652.42   1
  -4  -2   2 50348.4 1943.65   4
  -4  -2   2 51772.3 2378.21   7
   4   2  -2 51387.2 3056.45   3
   4   2  -2 48962.7 2426.96   5
  -4  -2   1 406.457 171.879   4
  -4  -2   1 254.601 155.033   7
   4   2  -1 320.653 99.0988   1
   4   2  -1-118.262 331.220   3
   4   2   0 1176.84 315.798   5
  -4  -2   0 1309.32 301.602   4
   4   2   0 1135.54 200.088   1
   4   2   0 1411.04 454.409   3
   4   2   1 1633.87 317.533   5
  -4  -2  -1 1198.83 227.157   1
   4   2   1 1490.81 211.962   1
  -4  -2  -2 90508.0 2713.55   1
   4   2   2 84310.3 2200.45   1
   4   2   2 84931.9 2477.57   5
   4   2   3 472.577 140.873   5
  -4  -2  -3 396.939 187.442   1
   4   2   3 531.699 121.103   1
   4   2   3 293.972 292.468   3
   4   2   3 728.379 244.539   6
  -4  -2  -3 102.174 82.8142   5
   4   2   4 22180.4 921.798   1
  -4  -2  -4 22284.6 1262.45   1
   4   2   4 21801.1 1289.32   6
  -4  -2  -4 20217.9 977.339   5
   4   2   4 20870.6 2013.23   3
   4   2   5 440.959 158.631   1
   4   2   5 317.686 172.917   2
  -4  -2  -5 509.012 214.384   1
   4   2   5 402.162 200.414   6
  -4  -2  -5 818.589 479.381   3
  -4  -2  -5-13.8624 90.2300   5
   4   2   6 115827. 3597.73   2
  -4  -2  -6 116144. 3021.93   4
  -4  -2  -6 109396. 5143.22   3
   4   2   6 112077. 3777.61   6
  -4  -2  -6 104601. 3108.96   1
  -4  -2  -6 110065. 2589.54   5
  -4  -2  -7 198.280 75.3257   5
  -4  -2  -7 545.229 266.978   1
  -4  -2  -7 150.284 99.8364   4
   4   2   7 309.758 208.521   6
  -4  -2  -7 229.084 201.911   3
   4   2   7 412.283 173.461   2
  -4  -2  -8 5457.32 622.440   4
   4   2   8 6666.83 922.093   2
   4   2   8 6038.66 841.333   6
  -4  -2  -8 6443.27 626.835   1
  -4  -2  -8 6149.53 1170.44   3
  -4  -2  -9 169.568 141.559   1
   4   2   9-38.2209 152.851   6
   4   2  10 17949.6 1690.90   6
  -4  -2 -10 17560.3 1196.74   1
  -4  -2 -11 353.082 202.058   1
   4   2  11 461.049 285.268   6
   4   2  12 22617.8 2273.55   6
  -4  -2 -12 44642.2 2145.49   1
  -4  -2 -13 3583.96 619.242   1
   4   2  13 2763.52 819.951   6
  -4  -2 -14 72.5672 148.412   1
   4   2  14 232.085 163.776   6
   4   2  15 326.144 328.365   6
  -4  -3  11-101.164 143.738   4
   4   3 -11-57.7675 180.021   2
  -4  -3  10 599.439 349.858   4
  -4  -3  10 737.304 415.356   7
   4   3 -10-87.7731 225.726   2
  -4  -3   9 2528.26 585.225   4
  -4  -3   9 3006.67 724.709   7
   4   3  -9 2502.01 648.393   2
  -4  -3   8 11403.7 1208.41   4
   4   3  -8 10888.7 1400.49   2
  -4  -3   8 9676.16 1277.25   7
  -4  -3   7 3721.67 638.112   4
  -4  -3   7 4377.91 798.190   7
   4   3  -7 4204.58 841.905   2
  -4  -3   6 17369.0 1352.45   4
   4   3  -6 19249.2 1790.38   2
  -4  -3   6 17161.7 1546.50   7
   4   3  -6 17166.7 909.251   6
  -4  -3   5 127.580 101.812   3
   4   3  -5 101.650 98.9942   1
  -4  -3   5 227.767 185.008   4
  -4  -3   5-138.197 225.043   7
   4   3  -5 106.871 70.9802   6
   4   3  -5 16.9430 109.365   4
   4   3  -5-163.545 269.639   2
   4   3  -4 3745.66 761.447   2
   4   3  -4 2934.27 449.802   1
  -4  -3   4 2668.75 500.642   4
   4   3  -4 3479.41 427.810   6
  -4  -3   4 2985.10 378.411   3
  -4  -3   4 2770.61 596.204   7
   4   3  -3 17437.4 1048.22   1
  -4  -3   3 17976.1 1234.47   4
   4   3  -3 21008.4 1718.66   2
  -4  -3   3 15724.5 1316.40   7
  -4  -3   3 16146.2 1013.96   3
   4   3  -3 17245.7 1526.08   5
   4   3  -2 11075.3 784.090   1
  -4  -3   2 11054.1 945.680   4
  -4  -3   2 11118.3 1062.49   7
   4   3  -2 12781.6 1225.56   5
  -4  -3   1 1917.80 387.726   4
  -4  -3   1 862.914 257.751   7
   4   3  -1 1403.41 257.775   1
  -4  -3   0 63965.7 2485.58   4
   4   3   0 61699.6 2046.82   1
   4   3   1-114.647 106.121   1
  -4  -3  -1-86.2526 93.6153   1
  -4  -3  -1 59.9940 262.419   3
   4   3   1 73.2858 107.773   6
   4   3   1 63.1794 88.8546   5
   4   3   2 1585.43 286.017   5
  -4  -3  -2 1509.46 318.621   1
   4   3   2 1303.06 228.001   1
  -4  -3  -2 2016.72 685.893   3
   4   3   2 1477.36 310.651   6
   4   3   3 512.862 126.496   5
   4   3   3 493.867 154.919   1
   4   3   3 362.985 190.186   6
  -4  -3  -3 171.114 110.208   1
  -4  -3  -4 74934.1 2856.39   1
   4   3   4 76613.0 2712.18   6
  -4  -3  -5 2347.95 425.516   1
  -4  -3  -5 1528.84 672.587   3
   4   3   5 2439.74 464.646   6
   4   3   5 1989.96 294.184   1
   4   3   6 49420.5 1870.92   2
   4   3   6 45449.7 1639.20   1
  -4  -3  -6 46274.8 2043.25   1
  -4  -3  -6 47011.9 3612.78   3
   4   3   6 45970.4 2262.14   6
  -4  -3  -7 1237.86 257.791   4
   4   3   7 1189.88 331.555   2
   4   3   7 1239.20 264.380   1
  -4  -3  -7 1342.60 324.388   1
  -4  -3  -7 1094.68 536.269   3
   4   3   7 790.516 340.121   6
   4   3   8 13844.0 1222.80   2
  -4  -3  -8 12806.4 981.784   1
  -4  -3  -8 13733.2 2024.49   3
   4   3   8 14472.2 1360.76   6
   4   3   9 3716.85 712.063   2
  -4  -3  -9 3547.62 541.598   1
   4   3   9 3726.09 706.806   6
   4   3  10 39285.4 2575.92   6
  -4  -3 -10 41292.4 1982.72   1
  -4  -3 -10 34761.4 1161.11   5
  -4  -3 -11 2406.41 498.944   1
   4   3  11 1093.38 482.204   6
  -4  -3 -12 8772.91 979.881   1
   4   3  12 5288.01 1065.08   6
  -4  -3 -13 2856.27 596.771   1
   4   3  13 1731.99 635.318   6
  -4  -3 -14 6271.70 901.461   1
   4   3  14 2439.18 812.759   6
   4   3  15 1496.33 696.886   6
  -4  -4  10 4383.11 852.761   4
  -4  -4  10 4245.90 909.235   7
   4   4 -10 4434.85 982.497   2
  -4  -4   9 3662.57 753.946   4
  -4  -4   9 3324.73 774.063   7
   4   4  -9 2812.01 765.526   2
  -4  -4   8 4674.64 813.391   4
  -4  -4   8 3594.97 776.921   7
   4   4  -8 5617.09 1057.65   2
  -4  -4   7 33.2960 176.702   4
  -4  -4   7 67.0021 222.630   7
  -4  -4   6 2407.96 516.840   4
  -4  -4   6 2575.58 605.435   7
   4   4  -6 2495.73 666.287   2
  -4  -4   5 11574.6 1145.43   4
   4   4  -5 13312.3 1509.41   2
  -4  -4   5 11022.5 1222.62   7
   4   4  -5 12878.0 592.416   6
   4   4  -5 12238.4 523.420   6
  -4  -4   5 13197.7 766.762   3
  -4  -4   4 19944.4 1566.76   7
   4   4  -4 18292.9 1240.30   1
  -4  -4   4 20143.7 1461.77   4
   4   4  -4 21331.5 1857.85   2
   4   4  -4 21138.3 969.977   6
  -4  -4   4 17240.4 1060.56   3
   4   4  -4 18602.4 812.417   6
   4   4  -3 14611.8 1053.11   1
  -4  -4   3 14368.9 1208.56   4
   4   4  -3 17300.6 1620.28   2
  -4  -4   3 14522.5 1268.81   7
   4   4  -3 14503.5 770.127   6
   4   4  -3 15477.6 1515.25   5
   4   4  -2 9725.87 807.318   1
  -4  -4   2 8881.40 916.282   4
   4   4  -2 10231.8 1182.67   2
  -4  -4   2 9105.17 972.338   7
   4   4  -2 11002.3 692.875   6
   4   4  -2 10863.1 1194.13   5
  -4  -4   1 4404.87 643.299   4
   4   4  -1 4805.38 553.936   1
   4   4  -1 5518.83 519.115   6
   4   4  -1 4920.90 733.743   5
  -4  -4   0 27853.9 1666.24   4
   4   4   0 27881.3 1378.52   1
  -4  -4   0 29315.1 2647.55   3
   4   4   0 28285.0 1328.78   6
   4   4   1 1365.16 285.009   1
  -4  -4  -1 1478.27 305.575   1
  -4  -4  -1 1608.54 671.530   3
   4   4   1 1669.00 323.135   6
   4   4   1 2193.23 400.792   5
  -4  -4  -2 9384.39 839.532   1
   4   4   2 9655.23 813.439   6
   4   4   2 8875.26 698.539   1
  -4  -4  -2 11011.8 1662.96   3
   4   4   2 8606.42 736.414   5
  -4  -4  -3 16986.1 1268.61   1
  -4  -4  -3 19152.4 2234.90   3
   4   4   3 16589.0 945.761   1
   4   4   3 16157.6 1138.27   6
   4   4   3 17887.2 889.252   5
  -4  -4  -4 37233.7 2064.30   1
  -4  -4  -4 38007.4 3202.86   3
   4   4   4 37264.8 1856.63   6
   4   4   4 33553.6 1373.79   1
   4   4   4 33456.2 942.714   5
  -4  -4  -5 19019.8 1464.70   1
  -4  -4  -5 18546.0 2255.95   3
   4   4   5 19326.8 1368.10   6
   4   4   5 17134.6 919.507   1
  -4  -4  -6 13201.8 1140.58   1
  -4  -4  -6 13977.6 1959.96   3
   4   4   6 12719.9 1181.21   6
   4   4   6 13043.1 799.239   1
   4   4   7 1006.03 263.636   2
  -4  -4  -7 363.029 145.867   1
   4   4   7 726.510 200.606   1
   4   4   7 557.151 254.611   6
   4   4   8 29126.7 1627.24   2
  -4  -4  -8 28245.1 1683.89   1
   4   4   8 28199.8 1989.57   6
   4   4   9 723.797 216.544   2
  -4  -4  -9 781.684 294.968   1
   4   4   9 842.115 382.782   6
   4   4  10 305.057 257.755   6
  -4  -4 -10 761.373 315.344   1
   4   4  11 601.331 348.024   6
  -4  -4 -11 842.814 329.915   1
   4   4  12 24541.2 2342.25   6
  -4  -4 -12 47684.2 2437.87   1
   4   4  13 583.626 405.196   6
  -4  -4 -13 460.199 322.149   1
   4   4  14 4070.09 1012.55   6
  -4  -5   9 170.806 128.568   4
  -4  -5   9 406.018 352.014   7
   4   5  -9 277.936 377.075   2
  -4  -5   8 2343.40 607.027   4
  -4  -5   8 2223.55 591.538   7
   4   5  -8 2619.53 743.464   2
  -4  -5   7 9463.49 1176.22   4
   4   5  -7 10751.8 1505.32   2
  -4  -5   7 7429.22 1062.07   7
  -4  -5   6 31476.9 2136.63   4
   4   5  -6 31227.7 2502.34   2
  -4  -5   6 27218.5 2032.54   7
  -4  -5   5 229.000 201.353   4
  -4  -5   5 83.3865 147.907   7
   4   5  -5-110.854 214.655   2
  -4  -5   4 506.691 258.062   4
  -4  -5   4 718.435 301.501   7
   4   5  -4 474.159 93.9142   6
   4   5  -4 290.458 62.5124   6
  -4  -5   3 569.225 264.840   7
  -4  -5   3 277.949 209.644   4
   4   5  -3 630.931 156.279   6
   4   5  -3 502.839 330.564   2
   4   5  -2 17943.2 1224.57   1
  -4  -5   2 19787.0 1510.94   4
   4   5  -2 20652.0 1773.31   2
  -4  -5   2 17026.0 1351.06   7
  -4  -5   2 20469.8 2178.89   3
   4   5  -2 19573.2 1007.45   6
  -4  -5   1 12701.4 1171.85   4
   4   5  -1 12536.2 979.587   1
   4   5  -1 11793.2 1292.51   2
  -4  -5   1 10286.2 1655.04   3
   4   5  -1 12360.6 837.020   6
  -4  -5   0 6128.47 792.659   4
   4   5   0 5741.62 648.158   1
   4   5   0 6066.10 615.178   6
  -4  -5   0 7256.17 1410.34   3
  -4  -5  -1 19894.9 1277.89   1
  -4  -5  -1 18126.3 1409.07   4
   4   5   1 20357.7 1231.36   1
  -4  -5  -1 18607.0 2176.41   3
   4   5   1 18870.2 1185.25   6
  -4  -5  -2 50535.2 2259.43   1
   4   5   2 51953.7 2072.08   1
   4   5   2 47664.2 2099.31   6
  -4  -5  -3 29291.6 1774.01   1
  -4  -5  -3 27791.3 2694.46   3
   4   5   3 27364.9 1421.90   1
   4   5   3 26830.5 1566.58   6
   4   5   3 28718.4 1344.81   5
  -4  -5  -4 1034.41 358.758   1
  -4  -5  -4 425.975 486.099   3
   4   5   4 1125.12 366.208   6
   4   5   4 870.129 236.572   1
   4   5   4 981.770 156.749   5
  -4  -5  -5 6928.08 937.189   1
   4   5   5 6095.23 795.686   6
   4   5   5 6650.59 609.573   1
  -4  -5  -6 55109.0 2782.06   1
   4   5   6 51799.8 2622.30   6
  -4  -5  -7 7493.47 949.479   1
   4   5   7 7025.16 958.305   6
  -4  -5  -8 284.718 205.752   1
   4   5   8 233.425 149.497   2
   4   5   8 94.3324 155.062   6
   4   5   9 7705.42 855.122   2
  -4  -5  -9 8514.80 976.104   1
   4   5   9 8583.02 1186.51   6
   4   5  10 7999.77 1001.60   2
   4   5  10 10157.4 1346.56   6
  -4  -5 -10 10888.2 1139.59   1
  -4  -5 -11 1509.15 395.258   1
   4   5  11 1624.90 571.298   6
  -4  -5 -12 11643.5 1283.77   1
   4   5  12 6589.59 1200.90   6
  -4  -5 -13-72.8361 127.001   1
   4   5  13-24.7144 269.567   6
   4   5  14 1521.23 616.714   6
  -4  -6   8 4146.37 842.840   4
  -4  -6   8 3497.80 756.388   7
  -4  -6   7-419.175 310.511   4
  -4  -6   7 309.122 241.934   7
   4   6  -7-459.385 344.405   2
  -4  -6   6 1395.39 444.159   4
  -4  -6   6 1364.45 440.750   7
   4   6  -6 567.980 269.873   2
  -4  -6   5 355.338 251.859   4
  -4  -6   5 717.112 337.560   7
   4   6  -5 350.188 359.577   2
  -4  -6   4 36186.0 2320.93   4
   4   6  -4 38971.9 2771.53   2
  -4  -6   4 37324.8 2247.64   7
  -4  -6   3 9917.79 1153.72   4
   4   6  -3 9381.88 1275.53   2
  -4  -6   3 8755.32 992.379   7
  -4  -6   3 12416.5 1815.02   3
   4   6  -3 8923.61 500.513   6
  -4  -6   2 476.940 279.765   4
  -4  -6   2 282.484 211.027   7
   4   6  -2 351.305 127.469   6
  -4  -6   2 579.778 507.633   3
   4   6  -2 510.716 298.069   2
  -4  -6   1 6315.04 871.932   4
   4   6  -1 6182.82 949.514   2
   4   6  -1 6118.53 623.414   6
  -4  -6   1 6578.56 1341.94   3
  -4  -6   0 18123.5 1495.07   4
   4   6   0 19358.8 1684.71   2
  -4  -6   0 19130.3 2224.58   3
   4   6   0 19175.8 1223.69   6
  -4  -6  -1 48.7359 180.618   4
  -4  -6  -1-2.68156 410.440   3
   4   6   1 57.8477 102.632   6
  -4  -6  -2 11158.9 1062.48   1
   4   6   2 9509.84 886.386   1
  -4  -6  -2 9380.43 1562.13   3
   4   6   2 11604.2 1033.03   6
  -4  -6  -3 679.699 261.662   1
   4   6   3 827.419 283.691   6
  -4  -6  -4 23202.8 1810.36   1
   4   6   4 23945.5 1671.65   6
  -4  -6  -5 5062.82 872.441   1
   4   6   5 4537.11 736.272   6
   4   6   5 4461.70 273.573   5
   4   6   5 3924.11 226.934   5
  -4  -6  -6 9125.48 1205.22   1
   4   6   6 8070.68 1034.27   6
  -4  -6  -7 28074.9 2058.30   1
   4   6   7 23746.2 1888.83   6
   4   6   8 19994.6 1103.37   2
  -4  -6  -8 21935.5 1749.92   1
   4   6   8 20842.1 1834.67   6
  -4  -6  -9 91.4383 175.152   1
   4   6   9 86.1250 88.5839   2
   4   6   9 357.037 310.694   6
  -4  -6 -10 2624.73 557.454   1
   4   6  10 3181.25 774.906   6
  -4  -6 -11 252.256 204.123   1
   4   6  11 1049.59 491.111   6
  -4  -6 -12 4199.96 781.797   1
   4   6  12 2911.98 805.822   6
  -4  -6 -13-65.3897 148.989   1
   4   6  13-123.001 214.545   6
  -4  -7   7 2058.20 616.406   4
  -4  -7   6 9483.75 1258.74   4
   4   7  -6 9182.20 1430.39   2
  -4  -7   6 7972.97 1063.70   7
  -4  -7   5 5099.07 899.663   4
  -4  -7   5 3183.47 661.743   7
   4   7  -5 4379.39 969.390   2
   4   7  -4 7586.38 1220.50   2
  -4  -7   4 5156.24 874.598   4
  -4  -7   4 5276.47 812.729   7
  -4  -7   3 361.876 221.488   7
  -4  -7   3 781.890 351.874   4
   4   7  -3 967.623 448.868   2
  -4  -7   2 13001.4 1351.42   4
   4   7  -2 12481.7 1481.60   2
  -4  -7   2 11438.2 1106.70   7
  -4  -7   2 13877.9 2022.97   3
   4   7  -2 12434.2 769.327   6
  -4  -7   1 1079.01 425.878   4
  -4  -7   1 806.245 300.304   7
   4   7  -1 843.689 228.785   6
  -4  -7   1 1007.05 509.945   3
   4   7  -1 827.674 334.368   2
   4   7   0 8535.44 1152.26   2
   4   7   0 9204.91 861.390   6
   4   7   1-136.180 300.137   2
  -4  -7  -1 202.438 211.173   4
   4   7   1-47.2299 178.842   6
  -4  -7  -2 5914.03 830.967   1
  -4  -7  -2 6721.31 1014.11   4
   4   7   2 7175.04 852.400   6
   4   7   2 5949.71 916.324   2
  -4  -7  -3 241.893 151.687   1
   4   7   3 310.598 196.844   6
  -4  -7  -4 12148.5 1358.43   1
   4   7   4 14776.9 1339.28   6
  -4  -7  -5 24849.6 2055.42   1
   4   7   5 22461.7 1753.80   6
  -4  -7  -6 22188.8 2012.64   1
   4   7   6 19912.5 1698.20   6
   4   7   7 1105.59 431.491   6
  -4  -7  -7 1265.89 492.569   1
  -4  -7  -8 16776.1 1681.05   1
   4   7   8 16707.9 1679.53   6
   4   7   9 952.562 442.352   6
  -4  -7  -9 691.039 365.878   1
  -4  -7 -10 1693.12 515.199   1
   4   7  10 748.931 298.327   6
  -4  -7 -11 275.842 246.770   1
   4   7  11 237.666 184.779   6
  -4  -7 -12 8061.79 1176.54   1
   4   7  12 7437.81 1327.90   6
  -4  -8   5-138.427 149.019   4
   4   8  -5-161.192 349.458   2
  -4  -8   4 6027.30 1034.17   4
  -4  -8   4 6173.76 893.488   7
   4   8  -4 6681.49 1187.35   2
  -4  -8   3 2886.59 691.583   4
  -4  -8   3 2569.20 544.268   7
   4   8  -3 2036.88 654.586   2
  -4  -8   2 16601.4 1617.14   4
   4   8  -2 16331.6 1764.18   2
  -4  -8   2 14518.8 1269.36   7
  -4  -8   1 2176.66 563.857   4
  -4  -8   1 2239.59 499.259   7
   4   8  -1 2678.37 426.399   6
   4   8  -1 2603.02 689.845   2
  -4  -8   0 742.667 315.054   4
   4   8   0 785.302 277.276   6
   4   8   0 1599.89 534.435   2
  -4  -8  -1 237.441 173.837   4
   4   8   1 154.258 201.780   6
   4   8   1 148.150 163.151   2
  -4  -8  -2 20079.0 1861.95   4
   4   8   2 17758.3 1700.15   2
   4   8   2 18658.5 1488.85   6
   4   8   3-76.2085 204.592   2
  -4  -8  -3 96.7354 187.995   1
   4   8   3 187.724 179.303   6
   4   8   4 3492.61 735.960   2
  -4  -8  -4 3840.01 761.037   1
   4   8   4 3571.62 710.743   6
  -4  -8  -5-202.493 321.366   1
   4   8   5 22.4614 165.440   6
  -4  -8  -6 9291.03 1334.42   1
   4   8   6 8820.52 1167.83   6
   4   8   6 7831.89 464.279   5
  -4  -8  -7 634.999 311.454   1
   4   8   7 465.801 271.758   6
  -4  -8  -8 5828.07 1080.98   1
   4   8   8 5911.24 1028.13   6
   4   8   9 511.884 319.538   6
  -4  -8  -9 982.964 462.272   1
  -4  -8 -10 8371.62 1247.90   1
   4   8  10 7017.20 1228.52   6
   4   8  11 9.72079 171.955   6
  -4  -8 -11 450.059 306.178   1
  -4  -9   3 105.101 165.875   4
   4   9  -3 486.424 359.913   2
  -4  -9   2 1526.91 409.663   7
  -4  -9   2 2475.15 658.552   4
   4   9  -2 2174.92 668.961   2
  -4  -9   1 3352.72 749.411   4
  -4  -9   1 3073.44 570.331   7
   4   9  -1 3899.59 883.995   2
  -4  -9   0 10921.4 1376.67   4
   4   9   0 11591.5 1471.65   2
  -4  -9  -1 6532.44 1091.00   4
   4   9   1 5251.58 736.972   6
   4   9   1 5113.77 960.625   2
  -4  -9  -2 2858.06 752.581   4
   4   9   2 1611.73 449.368   6
   4   9   2 1518.92 521.219   2
  -4  -9  -3 257.718 265.606   1
  -4  -9  -3 61.2792 160.311   4
   4   9   3-43.1596 187.513   6
   4   9   3-196.274 288.156   2
  -4  -9  -4 6480.33 1101.40   1
   4   9   4 6145.57 992.429   2
   4   9   4 5847.58 938.721   6
   4   9   5 104.340 127.508   2
   4   9   5 310.084 145.165   5
  -4  -9  -5 489.524 343.238   1
   4   9   5 620.464 375.904   6
   4   9   6 3716.93 758.568   2
  -4  -9  -6 3660.52 880.311   1
   4   9   6 2946.73 709.582   6
   4   9   7 1951.63 539.059   2
  -4  -9  -7 1546.19 642.942   1
   4   9   7 1448.73 515.859   6
  -4  -9  -8 7975.04 1370.10   1
   4   9   8 7410.83 1217.20   6
  -4  -9  -9 1003.40 544.712   1
   4   9   9 88.8078 183.998   6
   4   9  10 581.388 370.117   6
  -4  -9 -10 1365.36 502.216   1
   4  10  -1 1244.12 504.018   2
  -4 -10   0 1774.09 569.657   4
   4  10   0 1271.67 518.343   2
  -4 -10  -1 1732.05 617.188   4
   4  10   1 1129.92 479.383   2
  -4 -10  -2 5350.51 1073.59   4
   4  10   2 4726.65 770.079   6
   4  10   2 4956.74 964.650   2
  -4 -10  -3 842.422 408.281   4
   4  10   3 482.648 282.192   6
   4  10   3 357.085 269.517   2
  -4 -10  -4 4002.62 910.819   1
  -4 -10  -4 5886.86 1218.26   4
   4  10   4 3600.01 781.966   6
   4  10   4 4823.24 909.022   2
  -4 -10  -5 1594.72 589.849   1
   4  10   5 2002.69 588.810   6
   4  10   5 2177.36 587.301   2
  -4 -10  -6 3412.35 933.213   1
   4  10   6 4228.59 882.875   6
   4  10   6 2783.18 661.739   2
   4  10   7 1187.98 398.409   2
  -4 -10  -7 1188.37 512.459   1
   4  10   7 1406.34 541.921   6
  -4 -10  -8 1252.00 558.379   1
   4  10   8 1932.49 657.182   6
   4  10   9 1222.75 479.524   6
   4  11   1 182.924 206.967   2
   4  11   2 1611.91 563.159   2
   4  11   3 1650.23 569.870   2
   4  11   4 2549.79 669.309   6
   4  11   4 2006.02 617.912   2
   4  11   5 1587.00 569.379   6
   4  11   5 1444.24 544.825   2
   4  11   6 2011.93 630.267   6
   4  11   7-380.414 310.621   6
   5  -9   1 12662.9 1353.09   3
   5  -9   2 377.176 275.228   3
   5  -9   3 169.483 150.257   3
  -5   9  -4 327.546 198.339   2
   5  -9   4 403.657 289.150   3
   5  -8  -5 2608.98 658.719   3
  -5   8   5 4475.55 1382.97   5
  -5   8   4 710.655 651.171   5
   5  -8  -4 6.54398 161.459   3
  -5   8   3 7925.53 1680.94   5
   5  -8  -3 8371.42 1136.90   3
  -5   8   2 1898.78 891.027   5
   5  -8  -2 895.918 398.956   3
   5  -8  -1 6621.17 958.627   3
  -5   8   1 15502.1 2156.64   5
  -5   8   0 1901.86 762.531   5
   5  -8   0 2770.59 640.314   3
  -5   8  -1 267.946 275.550   5
   5  -8   1 337.187 272.407   3
  -5   8  -2-290.791 386.831   5
   5  -8   2 330.154 257.586   3
  -5   8  -3 5977.94 1116.63   5
   5  -8   3 6464.63 906.862   3
  -5   8  -4 140.336 182.129   2
   5  -8   4-166.960 121.766   3
  -5   8  -5 3832.42 644.049   2
   5  -8   5 3375.77 672.062   3
  -5   8  -6 344.626 212.721   2
   5  -8   6-15.2540 194.111   3
   5  -8   7 3203.53 743.514   3
   5  -7  -8 345.475 283.065   3
  -5   7   7 2469.40 928.939   5
   5  -7  -7 2711.73 650.750   3
  -5   7   6-163.579 487.836   5
   5  -7  -6 204.408 187.065   3
   5  -7  -5 13219.5 1395.82   3
  -5   7   5 13716.2 2205.48   5
  -5   7   4 387.223 321.905   5
   5  -7  -4 324.421 274.423   3
   5  -7  -3 14973.0 1429.69   3
  -5   7   3 12852.3 2073.43   5
  -5   7   2 1511.92 751.879   5
   5  -7  -2 396.383 292.506   3
  -5   7   1 8526.55 1501.75   5
   5  -7  -1 566.517 252.497   3
  -5   7   0 59.5367 277.466   5
   5  -7   0 327.627 243.454   3
   5  -7   1 27337.0 1833.74   3
  -5   7  -1 27544.9 2424.89   5
  -5   7  -2 1257.13 516.836   5
   5  -7   2 1337.35 294.707   4
   5  -7   2 869.652 293.060   3
   5  -7   3 14210.7 1040.77   4
   5  -7   3 13609.4 1262.95   3
  -5   7  -3 13823.9 1557.68   5
  -5   7  -4 69.8847 139.890   2
   5  -7   4-103.410 147.576   4
   5  -7   4-33.4423 178.015   3
  -5   7  -5 3760.39 811.140   5
   5  -7   5 3133.60 536.751   4
  -5   7  -5 3625.67 603.615   2
   5  -7   5 2730.23 613.393   3
   5  -7   6 640.816 256.458   4
  -5   7  -6 902.556 317.439   2
   5  -7   6 566.809 288.231   3
  -5   7  -7 12213.5 1215.92   2
   5  -7   7 8953.47 1018.44   4
   5  -7   7 9941.68 1309.49   3
   5  -7   8 79.3391 138.157   4
   5  -7   8 362.019 362.688   3
   5  -7   9 1993.68 502.510   4
   5  -6  -9 1901.26 503.051   3
  -5   6   8 1135.44 673.302   5
   5  -6  -8 1036.44 366.049   3
   5  -6  -7 6244.23 930.534   3
  -5   6   7 7144.74 1528.12   5
   5  -6  -6 1554.05 459.581   3
  -5   6   6 1424.69 691.180   5
  -5   6   5 4554.32 1286.34   5
   5  -6  -5 3723.35 686.895   3
  -5   6   4 1026.26 512.287   5
  -5   6   4 347.168 237.953   7
   5  -6  -4 669.121 304.948   3
  -5   6   3 10729.3 1155.86   7
   5  -6  -3 13603.5 1273.25   3
  -5   6   3 11317.8 1835.79   5
  -5   6   2 3403.10 1021.24   5
  -5   6   2 3738.05 643.625   7
   5  -6  -2 2852.64 570.036   3
   5  -6  -1 34352.0 1914.86   2
  -5   6   1 35435.7 1985.67   7
  -5   6   0 5158.85 1053.93   5
   5  -6   0 5930.17 411.103   4
   5  -6   0 5436.76 742.372   2
  -5   6   0 6015.96 749.061   1
  -5   6   0 5551.14 703.131   7
   5  -6   0 5976.45 808.148   3
  -5   6  -1 5969.16 1065.34   5
   5  -6   1 7333.58 553.198   4
  -5   6  -1 6501.15 697.055   7
   5  -6   1 8228.91 921.169   3
  -5   6  -2 118.500 207.857   5
   5  -6   2 113.170 84.5984   4
  -5   6  -2 205.831 103.645   7
  -5   6  -2 382.939 201.088   1
   5  -6   2 129.457 159.188   3
   5  -6   3 17812.8 1076.36   4
  -5   6  -3 17003.1 1340.85   1
  -5   6  -3 16776.3 952.735   7
   5  -6   3 18073.3 1389.22   3
  -5   6  -3 16849.9 1637.12   5
  -5   6  -4 576.632 365.124   5
   5  -6   4 688.830 225.290   4
  -5   6  -4 677.219 260.432   2
   5  -6   4 249.492 183.074   3
  -5   6  -5 17675.8 1311.01   2
   5  -6   5 18341.0 1247.06   4
   5  -6   5 17566.7 1472.12   3
  -5   6  -5 17699.8 1623.74   5
   5  -6   6-210.326 185.179   4
  -5   6  -6 46.2713 137.162   2
   5  -6   6 203.687 206.466   3
  -5   6  -7 8484.38 977.050   2
   5  -6   7 6907.17 828.377   4
   5  -6   7 6175.45 1042.39   3
   5  -6   8-171.563 150.146   4
  -5   6  -8-14.8659 126.676   2
   5  -6   9 10803.4 1092.25   4
   5  -6   9 10828.0 1735.87   3
   5  -6  10-37.2607 162.323   4
   5  -5  -9 5006.65 790.253   3
  -5   5   8-30.1939 251.548   5
   5  -5  -8 455.322 237.217   3
   5  -5  -7 2776.61 562.542   3
  -5   5   7 4311.13 1169.00   5
  -5   5   6 32.6460 192.450   7
   5  -5  -6-87.8603 133.204   3
  -5   5   6 111.376 203.787   5
  -5   5   5 2797.77 916.311   5
  -5   5   5 4574.23 831.641   7
   5  -5  -5 4474.85 698.427   3
  -5   5   4-356.369 431.480   5
  -5   5   4 210.208 150.208   7
   5  -5  -4 369.671 280.917   3
   5  -5  -3 20802.3 1230.59   2
  -5   5   3 23027.1 1743.29   7
   5  -5  -3 26596.2 1685.02   3
  -5   5   3 22892.8 2533.99   5
   5  -5  -2 19719.6 1249.02   2
  -5   5   2 22761.1 1644.86   7
   5  -5  -2 24940.0 1605.94   3
  -5   5   2 20071.3 2248.40   5
  -5   5   1 1846.81 438.910   7
   5  -5  -1 1753.19 371.341   2
  -5   5   1 2644.61 258.133   1
   5  -5  -1 2412.62 490.888   3
  -5   5   0 611.385 314.289   5
  -5   5   0 1723.56 301.444   1
  -5   5   0 1344.15 360.808   7
   5  -5   0 1397.04 346.567   2
   5  -5   0 1569.51 390.199   3
   5  -5   1 15289.8 648.874   4
   5  -5   1 13123.9 1140.86   2
  -5   5  -1 13870.1 1117.28   1
  -5   5  -1 15971.1 1177.28   7
   5  -5   1 15188.9 1212.83   3
  -5   5  -1 16519.7 1646.07   5
  -5   5  -2-310.221 418.603   5
   5  -5   2-29.6194 56.4850   4
  -5   5  -2 75.7183 119.383   1
  -5   5  -2-2.33938 85.8906   7
   5  -5   2 67.6905 152.586   3
  -5   5  -3 38480.4 1913.88   1
   5  -5   3 39640.7 1548.29   4
  -5   5  -3 40356.5 1795.64   7
   5  -5   3 41842.0 2144.81   3
  -5   5  -3 38655.9 2424.22   5
   5  -5   4 79.9290 75.5076   4
  -5   5  -4-59.0519 130.012   4
  -5   5  -4 103.025 86.3544   7
   5  -5   4-42.5137 122.837   3
  -5   5  -5 7019.63 789.873   2
   5  -5   5 4969.88 581.292   4
  -5   5  -5 6342.09 797.465   4
  -5   5  -5 6457.13 595.380   7
   5  -5   5 5795.01 871.327   3
  -5   5  -5 7101.51 955.961   5
   5  -5   6-86.0735 165.843   4
  -5   5  -6 134.076 155.834   2
  -5   5  -6 31.4872 71.8225   7
   5  -5   6 34.1440 185.636   3
  -5   5  -7 17373.4 1374.20   2
   5  -5   7 14832.0 1111.11   4
   5  -5   7 15051.0 1662.27   3
   5  -5   8 673.768 274.500   4
  -5   5  -8 1022.96 361.732   2
  -5   5  -9 14525.2 1304.51   2
   5  -5   9 12455.9 1087.37   4
   5  -5   9 10977.2 1800.02   3
   5  -5  10 100.439 152.422   4
   5  -5  10 338.372 288.043   6
   5  -5  11 3784.26 629.141   4
   5  -4  -9 3480.51 631.221   3
  -5   4   8-33.1035 339.452   5
   5  -4  -8 200.334 182.811   3
  -5   4   7 5051.00 952.048   7
   5  -4  -7 5414.09 743.273   3
  -5   4   7 3926.93 1144.36   5
   5  -4  -6 1334.89 317.603   2
  -5   4   6 1611.67 507.412   7
   5  -4  -6 1822.08 421.311   3
  -5   4   6 1975.47 754.222   5
  -5   4   5 2508.36 634.272   7
   5  -4  -5 2872.85 523.350   3
  -5   4   5 2573.52 899.238   5
  -5   4   4 2033.41 681.217   5
   5  -4  -4 2900.96 385.194   2
  -5   4   4 2988.37 630.137   7
   5  -4  -4 3022.95 519.130   3
  -5   4   3 5131.79 1175.95   5
   5  -4  -3 4784.65 537.355   2
  -5   4   3 5374.11 823.072   7
   5  -4  -3 5377.18 691.659   3
  -5   4   2 94.3280 297.294   5
  -5   4   2 813.529 306.972   7
   5  -4  -2 540.898 162.640   2
   5  -4  -2 271.399 161.376   3
   5  -4  -1 25997.8 1449.61   2
  -5   4   1 27694.0 1790.83   7
   5  -4  -1 30269.9 1685.38   3
  -5   4   0 800.717 129.977   1
  -5   4   0 954.288 295.119   7
   5  -4   0 1134.65 304.354   2
   5  -4   0 973.973 293.231   3
  -5   4  -1 3422.51 791.167   5
   5  -4   1 3533.39 548.686   2
  -5   4  -1 3042.46 426.975   1
  -5   4  -1 3593.59 564.076   7
   5  -4   1 4198.83 598.946   3
  -5   4  -2 2631.37 620.160   5
   5  -4   2 4453.45 318.632   4
  -5   4  -2 4520.72 536.618   1
   5  -4   2 4214.98 632.774   2
  -5   4  -2 3768.80 552.762   7
   5  -4   2 3680.07 609.460   3
  -5   4  -3 3118.83 652.369   5
   5  -4   3 3806.49 354.631   4
  -5   4  -3 3213.40 439.312   4
  -5   4  -3 3752.17 533.132   7
   5  -4   3 3220.87 576.948   3
  -5   4  -4 570.253 317.078   5
   5  -4   4 555.878 157.484   4
  -5   4  -4 639.086 195.064   7
   5  -4   4 553.396 233.816   3
   5  -4   5 45092.8 1692.89   4
  -5   4  -5 41814.3 2053.34   4
  -5   4  -5 46416.2 1886.36   7
   5  -4   5 41793.4 2425.80   3
  -5   4  -5 42176.7 2305.23   5
  -5   4  -6 4579.08 649.559   2
   5  -4   6 3443.89 466.581   4
  -5   4  -6 3016.49 529.586   4
   5  -4   6 2779.47 729.122   3
  -5   4  -7 14168.0 1152.40   2
   5  -4   7 11855.2 894.410   4
   5  -4   7 14044.5 1717.96   3
   5  -4   8 250.156 147.518   4
  -5   4  -8 348.918 227.250   2
   5  -4   8 30.8061 255.684   3
   5  -4   9 8358.91 822.379   4
   5  -4   9 6839.31 946.713   6
   5  -4   9 5495.02 1238.54   3
   5  -4  10 65.4203 128.068   4
  -5   4 -10 86.1226 125.728   2
   5  -4  10-47.2102 237.023   3
   5  -4  10 209.249 249.713   6
   5  -4  11 2174.11 451.310   4
   5  -4  11 2041.23 626.025   6
   5  -3  -9 3692.43 614.582   3
  -5   3   8 3023.29 731.400   7
   5  -3  -8 4109.17 634.008   3
   5  -3  -7 6499.82 789.825   2
  -5   3   7 6710.32 1084.66   7
   5  -3  -7 6861.44 805.277   3
  -5   3   7 5563.41 1269.12   5
   5  -3  -6 1160.34 331.972   2
  -5   3   6 870.441 361.813   7
   5  -3  -6 1314.47 183.350   1
   5  -3  -6 1258.91 348.579   3
  -5   3   6 1556.70 702.018   5
  -5   3   5 13005.3 1396.99   7
   5  -3  -5 13088.5 1075.72   3
  -5   3   5 12824.4 1897.21   5
  -5   3   4 7352.12 1015.45   7
   5  -3  -4 7660.46 807.322   3
  -5   3   4 8019.17 1425.67   5
   5  -3  -3 12975.5 858.689   2
  -5   3   3 12543.5 1273.09   7
   5  -3  -3 13808.9 1067.83   3
  -5   3   3 14485.4 1880.84   5
  -5   3   2 3651.05 957.380   5
   5  -3  -2 2490.94 374.686   2
  -5   3   2 2396.92 537.082   7
   5  -3  -2 3577.21 523.537   3
   5  -3  -1 6716.78 678.306   2
  -5   3   1 7179.86 887.787   7
   5  -3  -1 7857.25 804.309   3
   5  -3   0 10939.8 914.021   2
  -5   3   0 10410.6 1028.80   7
   5  -3   0 10774.2 945.626   3
  -5   3   0 9879.56 1301.74   5
  -5   3  -1 6335.12 269.452   1
   5  -3   1 7066.73 764.440   2
  -5   3  -1 6558.48 456.047   1
  -5   3  -1 6527.63 772.527   7
   5  -3   1 6799.07 767.362   3
  -5   3  -1 6907.44 1055.50   5
  -5   3  -2 4298.73 710.453   5
   5  -3   2 3732.02 587.013   2
  -5   3  -2 4537.62 408.694   4
  -5   3  -2 3590.69 554.951   7
   5  -3   2 4778.08 666.386   3
   5  -3   3 29255.1 1802.16   2
  -5   3  -3 32237.9 1358.74   4
  -5   3  -3 32726.1 1668.42   7
   5  -3   3 32757.3 1918.62   3
  -5   3  -3 32531.5 1994.02   5
  -5   3  -4 3620.60 608.120   5
   5  -3   4 4239.57 388.270   4
  -5   3  -4 3196.29 435.021   4
   5  -3   4 4372.34 767.154   3
   5  -3   5 16384.0 863.263   4
   5  -3   5 12889.1 1420.95   3
  -5   3  -5 13862.1 1190.14   5
   5  -3   6-12.7074 69.6738   4
  -5   3  -6-43.8182 135.194   4
   5  -3   7 11561.6 827.423   4
  -5   3  -7 12260.1 1123.37   4
   5  -3   7 11035.7 1616.00   3
   5  -3   8 265.676 169.973   4
  -5   3  -8 423.234 239.687   2
   5  -3   8-30.5334 298.153   3
  -5   3  -9 9640.23 977.315   2
   5  -3   9 8792.09 799.417   4
   5  -3   9 8501.22 1059.26   6
   5  -3   9 5862.32 1293.10   3
   5  -3  10 361.859 183.645   4
  -5   3 -10 607.028 258.129   2
   5  -3  10 392.695 247.713   3
   5  -3  10 257.867 197.993   6
  -5   3 -11 8679.90 967.911   2
   5  -3  11 6541.44 760.817   4
  -5   3 -11 7017.10 771.516   1
   5  -3  11 4941.80 1233.99   3
   5  -3  11 5312.48 998.634   6
  -5   3 -12 17.3865 114.072   1
   5  -3  12-44.7519 210.608   6
  -5   2   9 3465.84 857.105   7
  -5   2   8 422.744 322.606   7
   5  -2  -8 50.0773 134.128   2
   5  -2  -8 46.3003 119.026   3
   5  -2  -7 12094.8 1171.65   2
  -5   2   7 12783.1 1489.74   7
   5  -2  -7 10384.7 619.384   1
   5  -2  -7 13339.1 1122.11   3
   5  -2  -6 3231.09 610.480   2
  -5   2   6 3456.02 751.572   7
   5  -2  -6 3109.86 285.997   1
   5  -2  -6 3198.35 525.205   3
   5  -2  -5 3518.85 222.526   1
  -5   2   5 3575.78 724.134   7
   5  -2  -5 2955.90 504.644   3
  -5   2   5 2756.80 829.021   5
  -5   2   4 1337.11 439.844   7
   5  -2  -4 1231.05 327.874   3
  -5   2   4 1418.74 622.306   5
  -5   2   3 20757.4 1659.56   7
   5  -2  -3 21793.7 1362.73   3
  -5   2   3 19285.9 2116.13   5
  -5   2   2-104.576 231.856   7
   5  -2  -2 107.286 201.318   3
  -5   2   1 66624.5 2988.49   7
   5  -2  -1 70960.8 2725.76   3
  -5   2   1 68489.6 2897.02   3
  -5   2   1 78803.7 4359.12   5
   5  -2  -1 82176.5 3195.84   5
  -5   2   0 2333.00 647.585   5
  -5   2   0 2700.63 517.070   3
   5  -2   0 2601.06 426.945   2
   5  -2   0 2884.71 546.805   5
  -5   2   0 2963.25 547.348   7
   5  -2   0 2899.74 515.670   3
   5  -2   1 24466.2 1404.59   2
  -5   2  -1 23103.1 1503.86   7
   5  -2   1 24602.5 1572.14   3
  -5   2  -1 24411.4 1586.63   3
  -5   2  -1 26218.8 1970.95   5
  -5   2  -2 201.743 182.756   3
  -5   2  -2 68.2838 48.8652   4
  -5   2  -2 53.7447 42.3580   1
  -5   2  -2 95.4207 156.438   7
   5  -2   2-60.3927 103.278   2
   5  -2   2 376.893 305.089   3
  -5   2  -3 76.4113 174.415   3
  -5   2  -3 206.870 213.837   5
  -5   2  -3 220.320 100.008   4
   5  -2   3 84.9404 88.3161   2
  -5   2  -3 217.155 74.0395   1
   5  -2   3 561.539 285.202   3
  -5   2  -4 4095.77 622.715   5
  -5   2  -4 4300.83 353.689   1
  -5   2  -4 4644.01 494.717   4
  -5   2  -4 4492.62 645.765   3
   5  -2   4 3904.80 756.141   3
  -5   2  -5 9913.21 614.708   1
   5  -2   5 11113.6 1470.37   3
  -5   2  -5 9868.66 953.348   5
  -5   2  -6 461.894 279.750   5
  -5   2  -6 207.888 118.111   1
   5  -2   6 220.459 134.252   4
  -5   2  -6 109.157 102.693   4
   5  -2   7 29196.1 1377.00   4
  -5   2  -7 28432.4 1272.09   1
  -5   2  -7 28270.3 1686.07   4
   5  -2   8 3565.03 460.996   4
  -5   2  -8 2607.98 378.740   1
   5  -2   9 36384.4 1697.43   4
  -5   2  -9 39543.4 1702.88   1
   5  -2   9 36505.9 2271.13   6
   5  -2  10 440.049 232.177   4
  -5   2 -10 223.265 139.140   1
   5  -2  10 42.5245 327.261   3
   5  -2  10 20.9180 172.807   6
   5  -2  11 2979.48 511.611   4
  -5   2 -11 2842.34 471.627   1
   5  -2  11 3146.38 777.186   6
   5  -2  12 581.301 257.102   4
  -5   2 -12 153.956 137.020   1
   5  -2  13 1432.60 611.050   6
  -5   1   9 4465.52 528.270   4
  -5   1   9 4455.14 939.827   7
   5  -1  -9 3718.52 694.707   2
  -5   1   8 295.081 136.815   4
  -5   1   8 863.706 443.924   7
   5  -1  -8 615.543 338.628   3
   5  -1  -8 292.580 284.412   2
  -5   1   7 3160.92 370.154   4
  -5   1   7 3105.17 730.639   7
   5  -1  -7 3044.90 338.101   1
   5  -1  -7 3372.75 617.336   3
   5  -1  -7 3013.63 626.679   2
  -5   1   6 14697.3 754.095   4
   5  -1  -6 15766.5 982.627   4
   5  -1  -6 16155.2 1466.12   2
  -5   1   6 13342.7 1447.10   7
   5  -1  -6 14750.0 1261.00   3
   5  -1  -6 14203.6 662.193   1
  -5   1   5 36511.0 1139.50   4
  -5   1   5 34031.7 2275.77   7
   5  -1  -5 33696.1 1882.97   3
   5  -1  -5 29687.5 939.417   1
  -5   1   4 13065.0 539.943   4
   5  -1  -4 13012.6 440.640   1
  -5   1   4 12923.9 1340.63   7
   5  -1  -4 11615.4 392.457   1
   5  -1  -4 12390.4 1213.03   6
   5  -1  -4 12360.1 1083.70   3
  -5   1   4 10560.3 1571.74   5
  -5   1   3 19016.3 1570.20   7
   5  -1  -3 20183.5 1399.24   3
  -5   1   3 18543.1 1328.34   3
  -5   1   3 18553.9 1969.82   5
  -5   1   2 2389.65 456.839   3
   5  -1  -2 2858.15 570.423   5
  -5   1   2 2246.32 535.617   7
   5  -1  -2 2489.47 500.615   3
  -5   1   2 2584.92 716.321   5
  -5   1   1 10860.2 1098.40   7
   5  -1  -1 11087.8 1065.03   3
  -5   1   1 10812.0 982.106   3
  -5   1   1 9699.33 1292.47   5
   5  -1  -1 13793.1 1200.92   5
  -5   1   0 1102.54 329.091   3
  -5   1   0 590.678 282.539   5
   5  -1   0 906.096 290.539   5
  -5   1   0 1109.94 350.497   7
   5  -1   0 1980.49 470.518   3
  -5   1  -1 29126.5 774.645   4
  -5   1  -1 30287.7 1780.88   7
   5  -1   1 28102.2 1909.38   3
  -5   1  -1 28017.6 1590.59   3
  -5   1  -1 27644.9 1949.45   5
   5  -1   1 29554.6 1600.58   5
  -5   1  -2 3335.17 648.428   5
  -5   1  -2 2789.81 270.929   4
   5  -1   2 2714.62 445.250   2
  -5   1  -2 2365.14 256.692   1
   5  -1   2 1707.30 485.906   3
  -5   1  -2 2164.15 428.398   3
   5  -1   3 36897.7 1906.22   2
  -5   1  -3 39999.4 1434.34   4
   5  -1   3 37935.7 2603.13   3
  -5   1  -3 39218.5 1894.89   3
  -5   1  -3 35620.4 1160.10   1
  -5   1  -3 36048.9 1970.04   5
  -5   1  -4-227.735 278.759   5
  -5   1  -4 131.124 106.776   4
   5  -1   4 126.718 180.729   2
  -5   1  -4 133.527 77.3497   1
   5  -1   4-8.15334 431.021   3
  -5   1  -4 56.4764 121.732   3
  -5   1  -5 6279.11 724.307   3
   5  -1   5 7581.88 1325.49   3
  -5   1  -5 7260.81 760.167   5
  -5   1  -5 7624.29 515.438   1
  -5   1  -6 7201.11 538.126   1
  -5   1  -6 6233.13 689.665   4
  -5   1  -6 6037.83 717.122   3
   5  -1   6 5865.36 1224.83   3
  -5   1  -6 6227.49 702.412   5
  -5   1  -7 26958.1 1199.67   1
  -5   1  -7 26974.2 1593.03   4
   5  -1   7 23074.5 2446.35   3
  -5   1  -7 24562.1 1431.66   5
  -5   1  -8 15.6465 97.6537   1
   5  -1   8 365.873 274.164   6
  -5   1  -9 10460.4 823.664   1
   5  -1   9 10297.4 1168.77   6
   5  -1   9 9335.90 1643.20   3
   5  -1  10-83.0263 481.660   3
  -5   1 -10 200.296 140.856   1
   5  -1  10 162.516 199.385   6
  -5   1 -11 19057.7 1263.49   1
   5  -1  11 15946.5 1764.40   6
  -5   1 -12 560.502 255.641   1
   5  -1  12 347.784 179.794   6
  -5   1 -13 3618.99 592.359   1
   5  -1  13 3318.18 993.290   6
   5  -1  14 683.110 645.366   6
   5   0 -10 1330.01 457.355   2
  -5   0   9 4931.55 588.453   4
  -5   0   9 5402.99 1004.24   7
   5   0  -9 5104.40 905.838   2
   5   0  -8 2476.07 398.560   1
  -5   0   8 1315.03 300.388   4
  -5   0   8 1770.48 577.391   7
   5   0  -8 1648.28 496.394   2
  -5   0   7 12724.9 904.148   4
   5   0  -7 11528.8 1334.43   2
  -5   0   7 10924.5 1358.17   7
   5   0  -7 9834.38 1263.17   3
   5   0  -6 2471.56 608.935   2
  -5   0   6 2695.23 397.839   4
   5   0  -6 3531.24 381.680   1
  -5   0   6 1805.17 539.157   7
   5   0  -6 2757.15 576.800   6
   5   0  -6 2604.59 685.715   3
   5   0  -6 2337.23 414.958   4
   5   0  -5 1419.53 460.538   2
   5   0  -5 1169.83 205.137   1
  -5   0   5 633.675 343.512   7
  -5   0   5 816.517 213.856   4
   5   0  -5 1453.99 411.218   6
  -5   0   4 19201.0 956.157   4
   5   0  -4 17761.7 770.201   1
  -5   0   4 16877.9 1552.48   7
   5   0  -4 17093.4 1371.13   6
   5   0  -4 18093.3 1581.43   3
  -5   0   4 15359.7 1156.31   3
  -5   0   3 13147.2 716.608   4
   5   0  -3 12576.4 516.738   1
  -5   0   3 11133.9 1201.26   7
   5   0  -3 13507.6 1370.32   3
  -5   0   3 11189.8 975.713   3
  -5   0   2-58.5438 124.495   3
   5   0  -2 63.4435 176.824   5
  -5   0   2 91.6320 56.9423   4
  -5   0   2 18.1010 147.519   7
  -5   0   2 75.2237 196.929   5
  -5   0   1 60254.6 1622.16   4
  -5   0   1 63256.8 2887.03   7
   5   0  -1 56910.6 3064.48   3
  -5   0   1 60714.1 2420.27   3
  -5   0   0 15084.2 671.301   4
  -5   0   0 15436.5 1307.05   7
   5   0   0 14797.9 1536.47   3
  -5   0   0 13377.9 1024.78   3
  -5   0   0 12648.6 1317.77   5
   5   0   0 13625.0 1087.86   5
  -5   0  -1 62724.1 1476.66   4
  -5   0  -1 55071.9 1574.62   1
   5   0   1 54758.8 3241.23   3
  -5   0  -1 58967.5 2350.95   3
  -5   0  -1 57097.2 2799.18   5
   5   0   1 55848.7 2269.79   5
  -5   0  -2 23385.5 846.887   4
  -5   0  -2 18645.6 949.887   1
   5   0   2 21571.7 2097.78   3
  -5   0  -2 22703.3 1353.64   3
  -5   0  -2 21580.1 1532.42   5
   5   0   3 13244.9 989.461   2
  -5   0  -3 12497.8 706.807   4
  -5   0  -3 13928.6 800.310   1
   5   0   3 12329.0 1727.24   3
  -5   0  -3 13415.9 1044.02   3
  -5   0  -3 13463.3 1108.52   5
   5   0   4 4412.16 594.606   2
  -5   0  -4 3393.05 410.006   4
  -5   0  -4 3986.15 558.411   3
  -5   0  -4 4340.55 411.708   1
   5   0   4 3278.23 838.990   3
  -5   0  -4 3821.27 562.336   5
   5   0   5 22614.8 1609.22   2
   5   0   5 24047.0 2497.65   3
  -5   0  -5 24840.9 1486.25   3
  -5   0  -5 22209.0 978.744   1
  -5   0  -5 21660.0 1261.13   5
  -5   0  -6 269.847 183.760   5
  -5   0  -6 406.596 184.613   4
  -5   0  -6 308.588 152.660   1
  -5   0  -6 233.733 150.013   3
  -5   0  -7 474.864 220.825   5
  -5   0  -7 190.786 190.136   4
  -5   0  -7-101.768 140.565   1
   5   0   7 48.1798 439.378   3
   5   0   7 466.099 239.206   6
  -5   0  -8 1914.39 335.494   1
  -5   0  -8 2201.11 435.065   5
   5   0   8 1673.05 714.773   3
   5   0   8 2073.34 505.290   6
   5   0   9 28164.3 2778.88   3
   5   0   9 28317.6 1996.77   6
  -5   0  -9 32745.7 1533.26   1
  -5   0 -10 427.450 222.956   1
   5   0  10 397.259 312.561   6
   5   0  11 9131.94 1314.79   6
  -5   0 -11 11089.7 949.089   1
  -5   0 -12 1039.56 334.363   1
   5   0  12 303.066 283.072   6
   5   0  13 1788.78 728.675   6
  -5   0 -13 2513.08 508.567   1
   5   0  14-3.60597 294.410   6
  -5  -1  10 1407.22 378.026   4
   5   1 -10 1286.65 480.174   2
  -5  -1   9 2968.54 532.243   4
  -5  -1   9 3259.69 798.974   7
   5   1  -9 2386.91 649.254   2
  -5  -1   8 118.898 129.045   4
  -5  -1   8-171.001 240.652   7
   5   1  -8 214.541 212.324   2
  -5  -1   7 1539.63 362.431   4
  -5  -1   7 977.536 424.158   7
   5   1  -7 619.073 280.142   3
   5   1  -7 1395.24 503.220   2
  -5  -1   6 168.220 156.899   4
  -5  -1   6-179.681 221.724   7
   5   1  -6 153.942 105.652   4
   5   1  -6 248.435 171.458   6
   5   1  -6-41.4020 204.153   3
   5   1  -6-34.2051 136.707   2
   5   1  -5 22524.9 1129.99   1
  -5  -1   5 25145.0 1385.05   4
   5   1  -5 23734.8 1973.60   2
  -5  -1   5 23875.3 1903.77   7
   5   1  -5 18083.0 1896.74   3
   5   1  -5 21862.7 1531.67   6
   5   1  -4 7474.86 566.746   1
  -5  -1   4 7511.37 679.457   4
  -5  -1   4 7875.42 1058.11   7
   5   1  -4 7694.57 864.039   6
   5   1  -4 9574.08 1409.35   3
  -5  -1   4 6802.37 724.086   3
  -5  -1   3 41946.9 1628.99   4
   5   1  -3 39225.5 1361.68   1
  -5  -1   3 38411.8 2336.33   7
  -5  -1   3 36969.5 1787.66   3
   5   1  -2 1945.87 466.258   5
   5   1  -2 1589.09 210.280   1
  -5  -1   2 1807.95 293.565   4
  -5  -1   2 1892.27 499.081   7
   5   1  -2 1709.90 590.352   3
  -5  -1   2 1833.96 360.775   3
  -5  -1   1 9110.27 659.125   4
  -5  -1   1 8666.30 1023.20   7
   5   1  -1 8668.63 454.077   1
  -5  -1   1 7519.02 737.031   3
   5   1  -1 7577.70 1270.78   3
  -5  -1   0 10400.9 773.349   4
  -5  -1   0 12474.7 1249.62   7
  -5  -1   0 10693.0 900.213   3
   5   1   0 9688.94 445.013   1
   5   1   0 8937.52 1488.06   3
  -5  -1   0 9103.74 1072.16   5
   5   1   0 10266.1 953.346   5
  -5  -1  -1 17987.2 904.079   1
   5   1   1 17698.9 2050.50   3
  -5  -1  -1 17617.9 1200.52   3
  -5  -1  -1 17052.5 1397.47   5
   5   1   1 16801.3 620.206   1
   5   1   2 25528.9 867.625   1
  -5  -1  -2 27688.5 1269.74   1
   5   1   2 27690.8 2602.29   3
  -5  -1  -2 27954.2 1584.72   3
  -5  -1  -2 25911.8 1618.82   5
  -5  -1  -3 78810.1 2077.74   4
  -5  -1  -3 79409.7 2628.71   1
   5   1   3 71567.1 4437.72   3
  -5  -1  -3 79239.1 3003.29   3
  -5  -1  -3 69061.1 2752.02   5
   5   1   4 5325.14 596.484   2
  -5  -1  -4 4660.29 522.395   1
  -5  -1  -4 5439.19 735.073   3
   5   1   4 3941.35 990.670   3
  -5  -1  -4 3875.13 525.053   5
   5   1   5 11706.2 977.407   2
  -5  -1  -5 11533.6 1110.25   3
  -5  -1  -5 11235.9 767.192   1
   5   1   5 11079.6 1654.98   3
  -5  -1  -5 11491.0 842.039   5
  -5  -1  -6 382.601 176.372   5
  -5  -1  -6 963.876 249.390   1
  -5  -1  -6 496.605 151.338   4
   5   1   6 461.665 233.514   6
  -5  -1  -6 578.430 275.324   3
  -5  -1  -7 10765.6 899.560   4
   5   1   7 10797.4 1688.24   3
   5   1   7 10140.8 1053.15   6
  -5  -1  -7 10639.6 765.150   1
  -5  -1  -7 9293.08 700.169   5
  -5  -1  -8 4866.92 548.704   1
   5   1   8 4273.15 720.271   6
  -5  -1  -8 4514.69 482.083   5
   5   1   9 8321.22 1066.51   6
  -5  -1  -9 9246.91 807.018   1
  -5  -1  -9 8444.32 674.348   5
  -5  -1 -10 1097.32 289.275   1
   5   1  10 608.118 315.745   6
   5   1  11 7065.65 1158.95   6
  -5  -1 -11 7250.48 801.919   1
   5   1  12 2501.16 758.321   6
  -5  -1 -12 4920.38 704.706   1
   5   1  13 4523.50 1108.20   6
  -5  -1 -13 5157.21 751.906   1
   5   1  14 688.179 460.791   6
  -5  -2  10-2.71057 126.435   4
   5   2 -10-161.851 240.976   2
  -5  -2   9 2306.63 539.297   4
  -5  -2   9 3480.47 839.015   7
   5   2  -9 3377.92 824.960   2
  -5  -2   8 327.557 228.240   4
  -5  -2   8 621.837 334.165   7
   5   2  -8 938.828 454.167   2
  -5  -2   7 11831.5 1136.96   4
   5   2  -7 12460.2 1538.23   2
  -5  -2   7 12394.4 1462.58   7
   5   2  -6 690.888 220.937   1
  -5  -2   6 706.548 274.468   4
  -5  -2   6 677.804 317.925   7
   5   2  -6 404.841 298.823   3
   5   2  -6 651.286 344.909   2
   5   2  -5 2517.54 659.744   2
  -5  -2   5 1886.87 359.428   3
   5   2  -5 2033.32 357.329   1
  -5  -2   5 1653.96 373.303   4
  -5  -2   5 2456.21 592.236   7
   5   2  -5 2258.66 438.986   6
   5   2  -5 787.791 452.302   3
  -5  -2   4 207.903 140.448   3
   5   2  -4 501.453 388.005   2
   5   2  -4 226.753 123.856   1
  -5  -2   4 129.555 165.357   4
  -5  -2   4 289.760 284.445   7
   5   2  -4-29.2872 260.441   3
  -5  -2   3 3752.92 528.293   4
   5   2  -3 3373.46 396.449   1
  -5  -2   3 3613.83 685.178   7
  -5  -2   3 3678.35 504.554   3
   5   2  -3 2782.83 811.629   3
  -5  -2   2 18415.8 1154.88   4
   5   2  -2 17369.8 912.891   1
  -5  -2   2 19525.5 1603.32   7
   5   2  -2 16010.7 1826.12   3
  -5  -2   2 15235.0 1075.39   3
   5   2  -2 18888.2 1553.86   5
  -5  -2   1 73966.9 2655.97   4
   5   2  -1 70167.5 2085.81   1
  -5  -2   1 70974.1 3263.35   7
   5   2  -1 69949.0 4109.05   3
  -5  -2   1 64816.5 2570.29   3
   5   2   0 1520.19 422.746   5
   5   2   0 1087.07 192.741   1
  -5  -2   0 664.259 228.206   4
   5   2   0 579.961 318.124   3
  -5  -2   0 977.064 296.518   3
  -5  -2  -1 22933.6 1165.64   1
   5   2   1 18238.1 2036.29   3
  -5  -2  -1 20191.3 1442.33   3
   5   2   1 18736.3 817.509   1
  -5  -2  -2 3980.23 498.845   1
   5   2   2 2425.03 578.490   3
   5   2   2 3302.34 310.587   1
  -5  -2  -2 2980.31 588.667   3
   5   2   2 3176.74 421.501   5
  -5  -2  -3 28247.9 1554.24   1
   5   2   3 29582.0 2685.21   3
  -5  -2  -3 29648.8 1996.63   3
  -5  -2  -3 28509.9 1564.74   5
   5   2   3 28922.4 1232.81   5
   5   2   3 28043.8 1042.41   1
   5   2   4-51.6973 64.3991   1
  -5  -2  -4-133.202 184.508   1
   5   2   4-140.883 489.985   3
   5   2   4 185.276 202.791   6
  -5  -2  -4 13.3519 157.566   3
  -5  -2  -4 204.603 94.7728   5
  -5  -2  -5 33413.5 1305.41   4
   5   2   5 30549.7 1234.78   1
  -5  -2  -5 31368.4 1600.62   1
   5   2   5 29145.1 2767.02   3
  -5  -2  -5 30977.3 2268.46   3
   5   2   5 31388.6 1769.60   6
  -5  -2  -5 30256.1 1353.59   5
   5   2   6 3841.48 548.456   2
  -5  -2  -6 3749.71 426.116   4
  -5  -2  -6 3487.30 503.660   1
   5   2   6 3576.46 605.051   6
  -5  -2  -6 2951.90 355.174   5
  -5  -2  -7 20644.3 1149.54   4
  -5  -2  -7 19720.9 1171.25   1
   5   2   7 19514.2 1506.25   6
  -5  -2  -7 19774.6 908.548   5
   5   2   8 12479.7 1279.33   6
  -5  -2  -8 13888.3 1001.57   1
  -5  -2  -8 12442.8 672.849   5
   5   2   9 7440.47 1026.70   6
  -5  -2  -9 7541.07 757.892   1
  -5  -2  -9 5381.44 425.064   5
  -5  -2 -10 3593.25 575.178   1
   5   2  10 2531.01 619.243   6
  -5  -2 -10 2607.08 316.938   5
   5   2  11 20615.5 2002.98   6
  -5  -2 -11 22124.5 1484.24   1
  -5  -2 -12 176.259 152.419   1
   5   2  12-167.977 290.123   6
  -5  -2 -13 657.352 311.484   1
   5   2  13-428.966 373.685   6
   5   2  14 1249.10 696.300   6
  -5  -3  10 52.0314 144.462   4
   5   3 -10-285.030 289.711   2
  -5  -3   9 2224.34 593.018   4
  -5  -3   9 2373.36 678.528   7
   5   3  -9 2398.05 718.433   2
  -5  -3   8 3002.94 636.456   4
  -5  -3   8 2852.70 725.139   7
   5   3  -8 2889.56 761.524   2
  -5  -3   7 848.074 317.903   4
  -5  -3   7 1005.68 438.691   7
   5   3  -7 1075.05 478.911   2
  -5  -3   6-18.7142 125.221   4
  -5  -3   6 59.7541 116.500   7
   5   3  -6 171.715 266.402   2
   5   3  -5 2144.36 400.977   1
  -5  -3   5 2112.32 450.096   4
  -5  -3   5 1640.53 523.958   7
   5   3  -5 1909.71 619.440   2
   5   3  -4 20937.7 1244.16   1
  -5  -3   4 22890.7 1529.22   4
   5   3  -4 25262.9 2158.76   2
  -5  -3   4 23537.2 1898.71   7
  -5  -3   4 20196.1 1217.80   3
  -5  -3   3 32561.9 1801.72   4
   5   3  -3 27267.4 1389.86   1
  -5  -3   3 31593.2 2144.05   7
  -5  -3   3 29415.9 1530.80   3
  -5  -3   2 1647.13 372.586   4
  -5  -3   2 1620.73 456.395   7
   5   3  -2 877.293 221.190   1
  -5  -3   2 745.154 242.690   3
   5   3  -2 995.745 408.576   5
   5   3  -1 3746.55 670.057   5
   5   3  -1 3821.82 447.592   1
  -5  -3   1 3330.97 567.549   4
  -5  -3   1 3402.73 666.549   7
   5   3  -1 2912.46 754.498   3
  -5  -3   1 3457.10 577.327   3
  -5  -3   0 6485.85 809.203   4
   5   3   0 7113.57 589.823   1
  -5  -3   0 8328.34 998.113   3
   5   3   0 8902.71 1347.35   3
   5   3   0 6985.63 863.097   5
   5   3   1 60324.2 3739.22   3
   5   3   1 60136.6 2036.86   1
  -5  -3  -1 66629.8 3328.72   3
   5   3   2 2720.23 417.749   5
  -5  -3  -2 3458.79 490.953   1
   5   3   2 2911.81 339.062   1
   5   3   2 3584.10 517.367   6
  -5  -3  -2 3739.54 845.566   3
  -5  -3  -3 6561.47 774.794   1
  -5  -3  -3 7538.71 1251.35   3
   5   3   3 6771.54 735.684   6
   5   3   3 6110.16 481.439   1
   5   3   3 5528.03 499.649   5
  -5  -3  -4 14247.1 1203.80   1
  -5  -3  -4 11317.5 1614.74   3
   5   3   4 12502.9 1057.22   6
   5   3   4 11425.5 684.062   1
   5   3   5 59918.8 1904.87   1
   5   3   5 59814.9 2646.38   6
  -5  -3  -6 62.5982 110.622   4
  -5  -3  -6 114.009 545.976   1
   5   3   6 177.975 102.627   1
   5   3   6 202.883 218.076   6
  -5  -3  -7 6443.72 603.883   4
  -5  -3  -7 6907.05 755.170   1
   5   3   7 5725.24 825.788   6
  -5  -3  -8 252.460 177.881   1
   5   3   8 267.941 201.701   6
  -5  -3  -9 23608.4 1463.58   1
   5   3   9 23821.0 1920.46   6
   5   3  10 5.21690 230.023   6
  -5  -3 -10 808.387 330.912   1
  -5  -3 -11 6347.94 848.974   1
   5   3  11 5099.34 1000.59   6
   5   3  12 1384.89 560.051   6
  -5  -3 -12 2391.40 562.932   1
   5   3  13 9351.85 1574.23   6
  -5  -3 -13 11671.2 1249.47   1
   5   3  14 2092.37 801.741   6
  -5  -4   9 1436.98 502.126   4
  -5  -4   9 565.452 361.919   7
   5   4  -9 1045.23 529.813   2
  -5  -4   8 922.916 431.937   7
  -5  -4   8 680.448 378.724   4
   5   4  -8 1563.16 608.400   2
  -5  -4   7 6837.02 1005.22   4
   5   4  -7 8263.09 1356.32   2
  -5  -4   7 6121.54 1045.72   7
  -5  -4   6 6656.74 934.196   4
  -5  -4   6 4395.92 856.491   7
   5   4  -6 5796.37 1112.53   2
  -5  -4   5 7841.65 993.528   4
   5   4  -5 9049.46 1356.77   2
  -5  -4   5 8327.50 1152.15   7
   5   4  -5 6977.01 528.800   6
   5   4  -4 167.334 271.533   2
  -5  -4   4 291.086 250.948   4
   5   4  -4 436.492 194.516   1
  -5  -4   4 622.006 353.402   7
   5   4  -4 113.749 93.0576   6
  -5  -4   4 121.766 75.5478   3
   5   4  -3 3453.59 802.252   2
  -5  -4   3 2997.49 576.208   4
  -5  -4   3 2780.42 625.601   7
   5   4  -3 2763.99 447.184   1
   5   4  -3 3329.79 404.149   6
  -5  -4   3 2302.78 445.071   3
   5   4  -2 4348.26 550.878   1
  -5  -4   2 4574.44 703.735   4
  -5  -4   2 4611.94 799.398   7
   5   4  -2 4687.60 521.106   6
  -5  -4   2 3825.10 648.558   3
  -5  -4   1 49397.8 2581.10   4
   5   4  -1 55226.2 2143.90   1
  -5  -4   1 48811.9 2788.41   7
  -5  -4   1 60167.5 3067.78   3
   5   4  -1 58016.5 2132.43   6
   5   4  -1 67328.6 3123.77   5
  -5  -4   0 18433.0 1469.56   4
   5   4   0 18316.7 1113.08   1
  -5  -4   0 20716.9 1936.81   3
   5   4   0 18310.7 1144.97   6
   5   4   0 18180.1 1452.41   5
  -5  -4  -1 7934.31 805.943   1
  -5  -4  -1 7561.78 927.621   4
   5   4   1 7138.45 647.765   1
  -5  -4  -1 7912.21 1327.85   3
   5   4   1 6838.26 702.508   6
  -5  -4  -2 3896.67 586.429   1
   5   4   2 3654.61 447.236   1
   5   4   2 3055.20 488.729   6
  -5  -4  -2 5298.88 1212.01   3
   5   4   2 3725.32 527.399   5
  -5  -4  -3 35450.1 1993.94   1
   5   4   3 33230.0 1423.66   1
   5   4   3 35220.4 1862.78   6
   5   4   3 35406.0 1458.22   5
   5   4   4 416.280 123.681   5
   5   4   4 445.204 162.061   1
  -5  -4  -4 7.62016 222.083   1
   5   4   4-24.8765 137.055   6
  -5  -4  -5 12391.2 1226.83   1
   5   4   5 9300.75 994.865   6
   5   4   5 10616.9 708.059   1
  -5  -4  -6 5278.97 773.701   1
   5   4   6 4089.87 696.295   6
   5   4   6 3623.75 422.184   1
  -5  -4  -7 19708.0 1441.45   1
   5   4   7 18797.3 1581.53   6
  -5  -4  -8 1821.60 402.888   1
   5   4   8 2046.61 539.477   6
  -5  -4  -9 2806.60 519.193   1
   5   4   9 2889.74 705.836   6
  -5  -4 -10 10009.2 1061.09   1
   5   4  10 10063.3 1348.13   6
  -5  -4 -11 22706.3 1683.16   1
   5   4  11 23594.9 2218.52   6
  -5  -4 -12 181.218 319.458   1
   5   4  12-302.773 309.262   6
  -5  -4 -13 6736.34 972.995   1
   5   4  13 5677.81 1214.97   6
  -5  -5   9 1556.69 573.108   7
  -5  -5   8 520.027 261.914   4
  -5  -5   8 605.580 335.663   7
  -5  -5   7 5052.68 930.021   4
  -5  -5   7 4071.81 835.950   7
   5   5  -7 4909.49 1109.49   2
  -5  -5   6 157.756 210.907   4
  -5  -5   6-161.480 245.452   7
   5   5  -6 287.477 350.556   2
  -5  -5   5 2560.78 615.543   4
  -5  -5   5 2365.27 641.460   7
   5   5  -5 2795.84 784.559   2
  -5  -5   4 3009.11 631.767   4
  -5  -5   4 4714.70 845.989   7
   5   5  -4 5343.61 1031.92   2
  -5  -5   3 10586.7 1201.97   4
   5   5  -3 12358.1 1531.96   2
  -5  -5   3 11756.8 1294.77   7
  -5  -5   3 8932.37 1025.01   3
   5   5  -3 11388.5 775.904   6
  -5  -5   2 23790.1 1837.22   4
   5   5  -2 29260.5 1620.30   1
   5   5  -2 32418.4 2441.49   2
  -5  -5   2 28697.2 2042.37   7
  -5  -5   2 29051.0 2203.26   3
   5   5  -2 31215.3 1444.17   6
  -5  -5   1 250.806 210.013   4
  -5  -5   1 175.021 181.670   7
   5   5  -1 148.823 100.603   6
   5   5  -1 236.840 153.108   1
   5   5  -1-10.5970 177.682   5
   5   5   0 468.739 189.043   1
  -5  -5   0 706.837 307.693   4
   5   5   0 325.905 159.425   6
  -5  -5   0 944.298 588.197   3
   5   5   0 361.693 261.103   5
  -5  -5  -1 29650.8 2025.50   4
   5   5   1 27853.3 1492.44   1
  -5  -5  -1 33719.4 3185.18   3
   5   5   1 26892.0 1534.37   6
   5   5   1 28056.9 1806.79   5
  -5  -5  -2 4840.49 703.793   1
   5   5   2 4388.38 551.368   1
   5   5   2 4439.29 621.025   6
   5   5   2 4588.97 626.810   5
  -5  -5  -3 21697.1 1627.63   1
   5   5   3 21886.3 1243.85   1
   5   5   3 21168.1 1455.61   6
   5   5   3 22355.3 1234.05   5
  -5  -5  -4 11577.7 1288.16   1
   5   5   4 12064.3 1125.10   6
   5   5   4 11858.2 847.547   1
   5   5   4 12455.5 680.932   5
  -5  -5  -5 8007.66 1093.51   1
   5   5   5 7722.86 948.400   6
   5   5   6 390.971 196.035   6
  -5  -5  -6 42.4509 148.475   1
  -5  -5  -7 12879.6 1274.68   1
   5   5   7 11383.1 1269.19   6
  -5  -5  -8 1601.95 430.359   1
   5   5   8 1512.03 467.102   6
  -5  -5  -9 3581.91 607.314   1
   5   5   9 5018.07 918.844   6
  -5  -5 -10-264.613 328.916   1
   5   5  10-202.688 314.653   6
  -5  -5 -11 5764.25 875.718   1
   5   5  11 7208.85 1233.74   6
  -5  -5 -12-157.870 299.860   1
   5   5  12 257.934 157.337   6
  -5  -5 -13 3317.19 698.281   1
   5   5  13 3991.51 1007.05   6
  -5  -6   8 626.617 353.541   7
  -5  -6   7 1357.69 503.983   4
  -5  -6   7 2072.48 598.878   7
  -5  -6   6 2027.53 625.765   4
  -5  -6   6 1137.35 422.739   7
   5   6  -6 851.271 489.703   2
  -5  -6   5 10663.1 1345.08   4
   5   6  -5 12290.9 1682.22   2
  -5  -6   5 9162.38 1212.90   7
  -5  -6   4 1539.97 506.875   4
  -5  -6   4 1702.69 497.370   7
   5   6  -4 2492.53 794.684   2
  -5  -6   3 597.637 288.740   4
  -5  -6   3 386.972 216.258   7
   5   6  -3 605.379 346.108   2
   5   6  -2 97.3220 243.466   2
  -5  -6   2-298.361 295.065   4
  -5  -6   2 24.0086 188.012   7
   5   6  -2-14.2826 64.6647   6
   5   6  -1 2125.09 604.591   2
  -5  -6   1 2176.73 558.488   4
  -5  -6   1 2462.01 577.133   7
   5   6  -1 2534.16 436.417   6
  -5  -6   1 2762.80 933.420   3
  -5  -6   0 9365.21 1149.84   4
   5   6   0 8734.82 862.463   6
   5   6   0 9623.27 1157.88   5
  -5  -6  -1 19375.8 1682.48   4
   5   6   1 15832.1 1224.82   6
   5   6   1 17154.1 1441.73   5
  -5  -6  -2 2328.03 529.321   1
   5   6   2 2380.38 491.904   6
  -5  -6  -3 2139.60 524.864   1
   5   6   3 1665.54 418.309   6
   5   6   3 2166.73 413.266   5
  -5  -6  -4 12413.7 1375.83   1
   5   6   4 11708.4 1157.02   6
   5   6   4 13588.1 827.232   5
  -5  -6  -5 31385.5 2330.60   1
   5   6   5 25512.2 1832.25   6
  -5  -6  -6 14857.6 1610.11   1
   5   6   6 12055.7 1300.74   6
   5   6   7 5542.19 905.168   6
  -5  -6  -7 4657.85 850.351   1
   5   6   8-216.168 323.835   6
  -5  -6  -8 24.4087 209.132   1
  -5  -6  -9 4399.00 767.812   1
   5   6   9 3746.47 836.970   6
  -5  -6 -10 181.204 125.197   1
   5   6  10 74.4341 230.637   6
  -5  -6 -11 1526.16 479.671   1
   5   6  11 1743.51 609.898   6
  -5  -6 -12 338.623 214.401   1
   5   6  12 52.2826 217.948   6
  -5  -7   6 375.341 297.742   4
  -5  -7   6 454.965 281.264   7
  -5  -7   5 2630.60 690.170   4
  -5  -7   5 2284.36 620.701   7
   5   7  -5 3404.35 886.451   2
  -5  -7   4-236.925 251.060   4
  -5  -7   4-187.245 155.205   7
   5   7  -4 288.523 285.879   2
  -5  -7   3 7250.65 1102.88   4
  -5  -7   3 6920.96 989.070   7
   5   7  -3 6459.22 1187.79   2
  -5  -7   2 4185.57 804.922   4
  -5  -7   2 4169.02 767.101   7
   5   7  -2 4297.23 925.810   2
   5   7  -1 6472.32 1112.94   2
  -5  -7   1 6109.34 977.833   4
  -5  -7   1 6900.09 967.917   7
   5   7  -1 5913.30 674.334   6
   5   7   0-276.325 321.849   2
  -5  -7   0 518.605 302.348   4
   5   7   0 130.430 133.588   6
   5   7   1-1.73393 163.694   2
  -5  -7  -1 241.858 190.876   4
   5   7   1 178.464 108.801   6
  -5  -7  -2 953.943 346.177   1
  -5  -7  -2 609.656 367.637   4
   5   7   2 552.166 270.988   6
   5   7   2 376.004 210.966   5
  -5  -7  -3 20155.7 1745.82   1
   5   7   3 19020.5 1546.74   6
  -5  -7  -4 7058.59 1094.75   1
   5   7   4 8602.98 1061.94   6
   5   7   4 8286.24 730.130   5
  -5  -7  -5 2211.00 621.968   1
   5   7   5 2140.84 567.520   6
   5   7   5 2279.23 252.160   5
  -5  -7  -6 6349.14 1115.34   1
   5   7   6 3866.52 763.965   6
  -5  -7  -7 13484.9 1596.29   1
   5   7   7 10564.9 1308.81   6
   5   7   8 172.940 227.285   6
  -5  -7  -8 38.2731 168.850   1
   5   7   9 5068.13 987.869   6
  -5  -7  -9 3936.29 798.521   1
  -5  -7 -10 1425.90 482.571   1
   5   7  10 1423.68 530.648   6
  -5  -7 -11 4779.66 877.832   1
   5   7  11 4859.11 1049.81   6
  -5  -8   4 585.072 358.327   4
  -5  -8   4 408.545 147.422   7
  -5  -8   3 5167.12 954.162   4
  -5  -8   3 5838.94 914.377   7
   5   8  -3 6134.35 1161.00   2
  -5  -8   2 420.632 300.893   4
  -5  -8   2 413.056 216.730   7
   5   8  -2 848.261 444.977   2
  -5  -8   1 2060.69 624.765   4
  -5  -8   1 1723.98 494.427   7
   5   8  -1 1854.16 611.900   2
   5   8   0 2442.24 713.226   2
  -5  -8   0 3379.08 783.869   4
   5   8   0 3320.27 553.674   6
   5   8   1 5315.36 991.695   2
  -5  -8  -1 6095.84 1077.93   4
   5   8   1 5828.27 790.178   6
   5   8   2 56.7038 159.309   2
  -5  -8  -2 263.430 250.402   4
   5   8   2 335.806 181.807   6
  -5  -8  -3 4646.62 868.981   1
  -5  -8  -3 4207.12 947.856   4
   5   8   3 3215.83 653.487   6
  -5  -8  -4 5.99130 174.029   1
   5   8   4-66.3057 137.679   6
  -5  -8  -5 7276.39 1260.71   1
   5   8   5 5961.59 945.574   6
  -5  -8  -6 37.4819 193.525   1
   5   8   6 739.641 366.458   6
  -5  -8  -7 8137.02 1347.24   1
   5   8   7 5600.29 987.792   6
  -5  -8  -8 3300.83 847.168   1
   5   8   8 4562.67 921.920   6
  -5  -8  -9 4698.47 972.264   1
   5   8   9 4170.23 913.019   6
   5   8  10 898.250 463.343   6
  -5  -8 -10 829.593 382.903   1
  -5  -9   2 1727.54 575.553   4
  -5  -9   2 1738.22 465.204   7
  -5  -9   1 3701.34 840.300   4
  -5  -9   1 3952.05 736.138   7
   5   9  -1 4045.42 912.415   2
  -5  -9   0 853.726 453.422   4
  -5  -9   0 929.200 339.436   7
   5   9   0 887.272 445.292   2
  -5  -9  -1 4892.75 991.770   4
   5   9   1 4586.67 978.195   2
   5   9   2 482.691 347.827   2
   5   9   2 682.743 353.353   6
  -5  -9  -2 556.518 376.576   4
   5   9   3 4763.89 934.389   2
  -5  -9  -3 3288.09 900.119   4
   5   9   3 3713.59 727.453   6
   5   9   4 958.215 438.511   2
  -5  -9  -4 923.603 501.883   1
   5   9   4 1435.95 477.720   6
   5   9   5 4322.43 881.583   2
  -5  -9  -5 4526.16 1041.77   1
   5   9   5 3617.63 777.065   6
  -5  -9  -6 2963.26 870.445   1
   5   9   6 2635.26 693.213   6
  -5  -9  -7 1883.89 718.362   1
   5   9   7 1755.77 574.226   6
  -5  -9  -8 1498.52 556.803   1
   5   9   8 581.363 322.412   6
  -5  -9  -9 3014.64 807.276   1
   5   9   9 1983.65 638.385   6
   5  10   1 1454.45 559.713   2
  -5 -10  -2 2064.75 692.094   4
   5  10   2 2076.73 668.605   2
  -5 -10  -3 1746.36 712.575   4
   5  10   3 1988.43 554.909   6
   5  10   3 2253.37 718.710   2
   5  10   4 2309.69 645.832   2
  -5 -10  -4 3260.05 892.650   1
  -5 -10  -4 2945.46 863.906   4
   5  10   4 3594.60 785.026   6
   5  10   5 3448.61 826.913   2
  -5 -10  -5 4642.00 1083.92   1
   5  10   5 4128.24 866.152   6
   5  10   6 1654.70 571.378   2
  -5 -10  -6 1897.73 715.264   1
   5  10   6 1682.56 563.438   6
   5  10   7 2407.28 672.806   2
   5  10   7 2276.07 709.361   6
   5  10   8 370.157 396.223   2
   5  10   8 454.208 370.914   6
   5  11   3 2113.04 677.708   2
   5  11   4 1061.01 457.520   2
   5  11   5 774.457 430.106   6
   5  11   5 1358.20 587.347   2
   5  11   6 1274.95 528.866   6
   5  11   6 1076.18 470.795   2
   5  11   7 3928.59 930.052   6
   6  -7  -4 3953.08 757.811   3
  -6   7   3 410.436 479.270   5
   6  -7  -3-30.1975 129.175   3
  -6   7   2 6209.34 1501.66   5
   6  -7  -2 5824.56 897.384   3
  -6   7   1-49.3944 509.361   5
  -6   7   1-19.5696 190.550   7
   6  -7  -1-252.245 261.357   3
  -6   7   0 6391.43 1332.31   5
   6  -7   0 5168.60 829.998   3
  -6   7  -1 1633.30 634.081   5
   6  -7   1 3302.00 672.992   3
  -6   7  -2 2361.96 737.252   5
   6  -7   2 2276.56 571.037   3
  -6   7  -3-148.335 195.864   5
   6  -7   3 349.436 270.647   3
  -6   7  -4 3715.88 828.173   5
   6  -7   4 4251.55 787.996   3
  -6   7  -5 700.170 477.871   5
   6  -7   5-59.6402 281.581   3
   6  -7   6 3648.68 831.801   3
   6  -7   7 58.9149 226.603   3
   6  -6  -7 261.660 209.851   3
   6  -6  -6 3193.02 672.336   3
  -6   6   5-154.270 541.450   5
  -6   6   5 339.142 234.017   7
   6  -6  -5 742.053 337.367   3
  -6   6   4 6588.59 1584.28   5
  -6   6   4 6067.12 994.503   7
   6  -6  -4 8089.07 1036.93   3
  -6   6   3 2149.58 827.882   5
  -6   6   3 3429.25 718.219   7
   6  -6  -3 4752.66 784.041   3
  -6   6   2 10015.4 1168.57   7
   6  -6  -2 9829.18 1125.28   3
  -6   6   2 10995.5 1857.20   5
  -6   6   1 5918.18 1310.99   5
  -6   6   1 5287.28 802.305   7
   6  -6  -1 4727.33 773.646   3
  -6   6   0 5867.77 1204.09   5
  -6   6   0 4962.00 749.097   7
   6  -6   0 5812.82 855.819   3
  -6   6  -1 1804.02 615.079   5
  -6   6  -1 2775.57 514.993   7
   6  -6   1 2619.25 575.121   3
  -6   6  -2 16207.7 1246.56   7
   6  -6   2 18293.0 1552.55   3
  -6   6  -3 596.891 382.483   5
   6  -6   3 70.8385 161.081   3
   6  -6   4 7721.47 1051.42   3
  -6   6  -4 7541.28 1138.74   5
  -6   6  -5 462.112 318.238   5
   6  -6   5 492.160 346.513   3
  -6   6  -6 777.930 431.347   5
   6  -6   6 1147.16 530.100   3
  -6   6  -7 568.426 391.497   5
   6  -6   7 211.901 477.060   3
  -6   6  -8 5779.87 1022.04   5
   6  -6   8 6489.46 1363.20   3
   6  -6   9 541.755 533.166   3
   6  -5  -8 2528.69 590.894   3
  -6   5   7 2366.53 716.325   7
   6  -5  -7 1529.72 454.009   3
  -6   5   6 3201.96 768.917   7
   6  -5  -6 4020.29 719.488   3
  -6   5   6 2755.02 959.527   5
  -6   5   5 2197.46 632.376   7
   6  -5  -5 2584.43 596.774   3
  -6   5   5 2827.19 1037.21   5
  -6   5   4 6050.15 1436.93   5
  -6   5   4 5669.81 968.354   7
   6  -5  -4 7064.86 923.318   3
  -6   5   3 2330.18 820.397   5
  -6   5   3 2581.72 643.415   7
   6  -5  -3 2535.70 532.469   3
  -6   5   2 14331.2 1433.79   7
   6  -5  -2 16577.4 1409.11   3
  -6   5   2 14245.5 2066.44   5
  -6   5   1 1655.97 761.801   5
  -6   5   1 1687.34 481.818   7
   6  -5  -1 1102.85 352.438   3
  -6   5   0 8949.51 1042.30   7
   6  -5   0 8268.29 970.093   3
  -6   5   0 9498.14 1579.71   5
  -6   5  -1 1494.58 486.406   5
  -6   5  -1 839.543 320.382   7
   6  -5   1 594.435 267.750   3
  -6   5  -2 9731.85 1009.58   7
   6  -5   2 9985.88 1109.58   3
  -6   5  -2 12475.0 1523.06   5
  -6   5  -3 308.760 289.540   5
  -6   5  -3 215.759 184.406   7
   6  -5   3 188.283 226.356   3
   6  -5   4 19546.3 923.461   4
  -6   5  -4 19769.6 1363.71   7
   6  -5   4 21812.2 1803.94   3
  -6   5  -4 16717.1 1634.81   5
  -6   5  -5-155.417 279.488   5
   6  -5   5 290.705 125.703   4
  -6   5  -5 426.092 189.435   7
   6  -5   5 497.547 265.425   3
   6  -5   6 14783.0 931.441   4
   6  -5   6 12142.0 1566.51   3
  -6   5  -6 13297.4 1433.40   5
  -6   5  -7 728.353 375.563   5
   6  -5   7 448.069 185.919   4
   6  -5   7 1347.80 695.005   3
  -6   5  -8 2476.74 671.205   5
   6  -5   8 1838.63 357.492   4
   6  -5   8 2135.46 830.291   3
   6  -5   9 33.4049 125.587   4
   6  -5   9 375.787 667.133   3
   6  -5  10 2458.59 458.503   4
   6  -5  10 3093.89 671.890   6
   6  -4  -8 4094.17 730.134   3
  -6   4   7 609.605 442.172   7
   6  -4  -7 848.793 307.843   3
  -6   4   7 673.477 538.210   5
  -6   4   6 3422.46 816.617   7
   6  -4  -6 4985.67 779.069   3
  -6   4   6 3584.30 1203.96   5
  -6   4   5 1189.69 492.787   7
   6  -4  -5 403.188 248.683   3
  -6   4   5 273.557 406.993   5
  -6   4   4 6224.47 1027.27   7
   6  -4  -4 7689.79 924.852   3
  -6   4   4 6112.72 1390.47   5
  -6   4   3 268.864 294.838   7
   6  -4  -3 166.509 186.343   3
  -6   4   2 3011.30 929.657   5
  -6   4   2 3135.03 673.862   7
   6  -4  -2 3048.04 513.686   2
   6  -4  -2 2726.01 543.824   3
   6  -4  -1 12444.6 1094.03   2
  -6   4   1 13336.3 1355.08   7
   6  -4  -1 13489.8 1218.25   3
  -6   4   1 15082.5 1927.84   5
  -6   4   0 12755.5 1288.97   7
   6  -4   0 13375.9 1228.46   3
  -6   4   0 12129.9 1678.91   5
  -6   4  -1 8888.75 1025.96   7
   6  -4   1 8414.69 998.801   3
  -6   4  -1 9580.98 1359.15   5
  -6   4  -2 19476.0 651.089   1
  -6   4  -2 17882.8 1440.02   7
   6  -4   2 20987.7 1629.70   3
  -6   4  -3 1080.58 334.742   5
  -6   4  -3 837.273 234.242   1
  -6   4  -3 642.025 244.377   7
   6  -4   3 1659.09 501.820   3
  -6   4  -4 22202.4 1491.54   7
   6  -4   4 20339.6 1796.82   3
  -6   4  -4 18634.7 1667.49   5
  -6   4  -5 754.529 338.213   5
  -6   4  -5 994.384 308.544   7
   6  -4   5 1288.50 533.757   3
   6  -4   6 10216.0 741.167   4
  -6   4  -6 9141.23 896.380   7
   6  -4   6 8979.48 1448.63   3
  -6   4  -6 8349.07 1077.50   5
  -6   4  -7-68.7735 233.606   5
   6  -4   7 48.8310 116.840   4
   6  -4   7 57.7219 414.075   3
   6  -4   8 7415.85 706.326   4
   6  -4   8 5156.56 1272.03   3
  -6   4  -8 7299.20 1010.01   5
   6  -4   9 224.627 164.893   4
   6  -4   9-397.956 581.704   3
   6  -4  10 1638.14 384.504   4
  -6   4 -10 1674.71 364.665   1
   6  -4  10 1134.11 595.308   3
   6  -4  10 1924.74 534.967   6
   6  -4  11 500.176 253.591   4
  -6   4 -11 371.536 203.188   1
   6  -4  11 437.950 257.027   6
  -6   3   8 1108.18 523.300   7
   6  -3  -8 678.307 288.160   3
  -6   3   7 572.340 398.889   7
   6  -3  -7-2.67552 155.774   3
   6  -3  -6 5217.32 791.467   2
  -6   3   6 5995.53 1051.01   7
   6  -3  -6 5331.28 809.888   3
  -6   3   6 5174.65 1374.02   5
  -6   3   5 3.59579 197.921   7
   6  -3  -5 18.0944 129.482   3
  -6   3   5 150.338 353.513   5
  -6   3   4 3943.44 796.247   7
   6  -3  -4 3613.58 637.851   3
  -6   3   4 2443.16 779.888   5
   6  -3  -3 85.9242 94.1303   2
  -6   3   3 156.122 181.534   7
   6  -3  -3-54.2370 171.127   3
  -6   3   3-85.1473 366.065   5
   6  -3  -2 23305.0 1385.45   2
  -6   3   2 24532.7 1944.47   7
   6  -3  -2 24560.8 1667.62   3
  -6   3   2 26553.0 2664.29   5
  -6   3   1 3344.71 891.576   5
   6  -3  -1 2864.61 484.253   2
  -6   3   1 3133.93 665.283   7
   6  -3  -1 3639.89 635.321   3
  -6   3   0 6387.88 913.768   7
   6  -3   0 7950.64 955.463   3
  -6   3   0 8302.89 1317.52   5
  -6   3  -1 8087.67 991.190   7
   6  -3   1 8352.49 1023.20   3
  -6   3  -1 7925.87 1210.84   5
  -6   3  -2 1738.01 259.654   1
  -6   3  -2 2302.17 507.065   7
   6  -3   2 2370.19 590.000   3
  -6   3  -3-60.2516 310.337   5
  -6   3  -3 108.425 77.6085   4
  -6   3  -3-40.2390 144.958   7
   6  -3   3 64.9670 295.415   3
  -6   3  -3-13.3773 40.4589   1
  -6   3  -4 15624.3 709.131   1
  -6   3  -4 15203.2 971.255   4
  -6   3  -4 15983.2 1280.58   7
   6  -3   4 15419.8 1659.39   3
  -6   3  -4 13757.4 1329.06   5
  -6   3  -5 2350.84 533.707   5
  -6   3  -5 2184.58 280.912   1
   6  -3   5 3276.53 899.282   3
  -6   3  -6 28897.1 1194.08   1
  -6   3  -6 25881.9 1560.28   4
   6  -3   6 27439.1 2668.40   3
  -6   3  -6 23802.1 1744.76   5
  -6   3  -7 2547.86 555.811   5
  -6   3  -7 2924.12 380.071   1
   6  -3   7 3629.20 1053.75   3
  -6   3  -8 10960.3 800.501   1
   6  -3   8 9833.13 1781.21   3
  -6   3  -8 10802.2 1150.91   5
   6  -3   9 430.740 274.158   3
   6  -3   9 1206.30 417.993   6
  -6   3  -9 727.543 248.211   1
  -6   3 -10 4152.94 537.988   1
   6  -3  10 2844.93 936.141   3
   6  -3  10 3366.74 699.223   6
  -6   3 -11-78.3532 147.487   1
   6  -3  11-7.04197 353.274   3
   6  -3  11-61.1202 202.473   6
   6  -3  12 106.527 252.705   6
  -6   2   8 3578.82 902.571   7
   6  -2  -8 3707.78 760.798   3
  -6   2   7 1128.14 494.932   7
   6  -2  -7 185.356 257.374   3
   6  -2  -7 876.607 361.973   2
   6  -2  -6 5344.77 853.897   2
  -6   2   6 6202.05 1064.66   7
   6  -2  -6 5610.86 890.788   3
  -6   2   5 3150.78 714.035   7
   6  -2  -5 3728.70 706.586   3
  -6   2   5 3450.47 1013.14   5
  -6   2   4 11917.1 1405.31   7
   6  -2  -4 12671.2 1250.71   3
  -6   2   4 12766.5 1918.78   5
  -6   2   3 2147.39 571.101   7
   6  -2  -3 1360.77 419.449   3
  -6   2   3 1544.87 664.749   5
  -6   2   2 762.956 348.272   7
   6  -2  -2 616.726 320.035   3
  -6   2   2 1106.49 474.811   5
  -6   2   1 73.3784 226.008   5
  -6   2   1-52.5534 222.604   7
   6  -2  -1-111.050 175.479   3
  -6   2   0 9828.02 1141.26   7
   6  -2   0 11140.0 1197.58   3
  -6   2   0 8880.32 1331.26   5
  -6   2  -1 225.401 195.825   5
  -6   2  -1 336.770 243.771   7
   6  -2   1 369.712 332.120   3
  -6   2  -2 18462.5 755.017   1
  -6   2  -2 21838.6 737.949   1
  -6   2  -2 23947.0 1710.37   7
   6  -2   2 23160.1 1950.87   3
  -6   2  -3 383.841 124.675   1
  -6   2  -3 17.5410 38.8586   4
  -6   2  -3 76.8207 152.783   7
   6  -2   3 199.139 287.271   3
  -6   2  -4 11297.9 778.324   4
  -6   2  -4 11894.9 620.437   1
  -6   2  -4 10513.9 1118.70   5
  -6   2  -5 1534.65 235.722   1
  -6   2  -5 1425.91 408.485   5
  -6   2  -6 13369.3 1044.80   4
   6  -2   6 11553.4 1816.25   3
  -6   2  -6 11756.3 1141.72   5
  -6   2  -6 13312.5 764.453   1
  -6   2  -7 3837.00 430.850   1
  -6   2  -7 3027.05 578.619   5
  -6   2  -7 3800.12 597.496   4
   6  -2   7 3498.37 1095.28   3
  -6   2  -8 24034.4 1225.95   1
   6  -2   8 19913.6 2552.46   3
  -6   2  -8 21908.6 1577.33   5
  -6   2  -9 1022.53 285.424   1
   6  -2   9 441.517 272.783   6
  -6   2 -10 3367.31 501.757   1
   6  -2  10 4072.36 1137.41   3
   6  -2  10 2958.90 662.526   6
  -6   2 -11 365.853 188.213   1
   6  -2  11 660.755 468.310   3
   6  -2  11 536.800 358.163   6
  -6   2 -12 2970.73 513.218   1
   6  -2  12 1941.92 644.215   6
   6  -2  13-428.420 356.157   6
  -6   1   8 1748.44 619.746   7
   6  -1  -8 1717.81 521.258   2
  -6   1   7 1450.99 564.659   7
   6  -1  -7 1920.05 633.977   3
   6  -1  -7 559.344 319.882   2
   6  -1  -6 1618.22 492.732   2
  -6   1   6 1882.62 590.992   7
   6  -1  -6 1865.82 658.741   3
  -6   1   5 2358.66 662.018   7
   6  -1  -5 2414.07 645.883   3
  -6   1   4 2776.98 689.486   7
   6  -1  -4 3753.68 772.606   3
  -6   1   4 3051.20 938.842   5
  -6   1   3 58.4263 122.322   7
   6  -1  -3 85.3297 216.810   3
  -6   1   3 275.612 231.336   5
  -6   1   2 27094.7 2052.82   7
   6  -1  -2 26734.6 2054.81   3
  -6   1   2 23640.5 2300.87   5
  -6   1   1 272.544 258.906   7
   6  -1  -1 194.857 330.875   3
  -6   1   1 358.038 216.687   5
  -6   1   0 18451.2 1605.33   7
   6  -1   0 17126.3 1714.40   3
  -6   1   0 14609.5 1613.00   5
  -6   1  -1 966.397 366.863   5
   6  -1   1 1431.22 377.358   5
  -6   1  -1 1422.89 452.532   7
   6  -1   1 2464.98 825.834   3
  -6   1  -2 3524.23 279.484   4
  -6   1  -2 3950.59 324.233   1
  -6   1  -2 3146.46 635.740   7
   6  -1   2 3845.54 963.292   3
  -6   1  -3 808.750 395.559   5
  -6   1  -3 426.868 109.107   4
  -6   1  -3 595.755 143.296   1
   6  -1   3 1073.57 667.853   3
  -6   1  -4 12970.5 835.388   4
   6  -1   4 12518.9 1841.13   3
  -6   1  -4 12810.3 716.358   1
  -6   1  -4 13432.7 1221.25   5
  -6   1  -5-16.7171 212.082   5
  -6   1  -5 268.146 144.056   1
   6  -1   5 741.259 651.810   3
  -6   1  -6 15403.6 1109.21   4
  -6   1  -6 13892.9 803.657   1
  -6   1  -6 13166.0 1117.94   5
  -6   1  -7 269.840 183.051   5
  -6   1  -7 496.863 216.149   4
  -6   1  -7 286.435 116.369   1
   6  -1   7 333.276 352.169   3
   6  -1   8 13562.2 2048.33   3
   6  -1   8 17014.6 1454.19   6
  -6   1  -8 16171.1 994.141   1
  -6   1  -8 14462.5 1186.58   5
  -6   1  -9 728.379 265.194   1
   6  -1   9 251.435 298.479   3
   6  -1   9 210.158 211.968   6
   6  -1  10 12734.2 2019.52   3
   6  -1  10 14208.4 1493.69   6
  -6   1 -10 16612.8 1131.30   1
  -6   1 -10 15678.1 1255.83   5
  -6   1 -11 183.478 186.851   1
   6  -1  11-20.6880 189.667   6
  -6   1 -12 2568.66 487.900   1
   6  -1  12 1929.91 651.408   6
   6  -1  13-33.4627 291.347   6
  -6   0   8 1830.26 637.518   7
   6   0  -8 2176.96 648.629   2
  -6   0   7 261.325 301.994   7
   6   0  -7-19.1010 275.016   3
   6   0  -7 592.616 416.984   2
  -6   0   6 7067.03 555.257   4
   6   0  -6 7225.94 1102.98   2
  -6   0   6 7032.30 1149.54   7
   6   0  -6 6463.78 1212.56   3
  -6   0   5 2693.38 321.188   4
  -6   0   5 2284.83 653.401   7
   6   0  -5 2563.95 856.172   3
  -6   0   4 19040.3 822.423   4
  -6   0   4 21086.2 1889.11   7
   6   0  -4 18565.9 2011.00   3
  -6   0   3 8400.20 495.517   4
  -6   0   3 9284.43 1245.43   7
   6   0  -3 9749.52 1426.89   3
  -6   0   2 4538.53 314.262   4
  -6   0   2 3738.57 762.848   7
  -6   0   2 3203.54 784.586   5
  -6   0   1 113.814 57.8692   4
  -6   0   1 81.9550 240.910   7
  -6   0   1 153.871 258.951   5
   6   0   0 1173.82 358.367   5
  -6   0   0 866.715 106.701   4
  -6   0   0 726.018 124.061   4
  -6   0   0 1193.05 451.124   7
  -6   0   0 879.538 447.607   5
  -6   0  -1 38570.7 1103.88   4
  -6   0  -1 40985.5 1473.65   4
  -6   0  -1 41016.8 2520.41   7
   6   0   1 32268.6 2828.16   3
  -6   0  -1 31000.3 2194.86   5
   6   0   1 30656.6 1733.13   5
  -6   0  -2 39994.9 1383.58   4
  -6   0  -2 50807.2 1695.37   1
   6   0   2 36547.6 3136.57   3
  -6   0  -2 45559.5 2570.97   5
   6   0   2 53632.0 2166.02   5
  -6   0  -3-4.77408 187.561   5
  -6   0  -3 103.804 134.926   1
  -6   0  -3-24.6663 65.3148   4
  -6   0  -4 8838.64 715.452   4
  -6   0  -4 11123.1 790.948   1
   6   0   4 7452.90 1453.81   3
  -6   0  -4 10022.9 1000.84   5
  -6   0  -5 893.468 324.230   5
   6   0   5 914.267 445.648   3
  -6   0  -5 1047.14 236.439   1
  -6   0  -6 10191.0 902.491   4
  -6   0  -6 9462.27 699.423   1
   6   0   6 10042.2 1716.60   3
  -6   0  -6 9241.64 889.913   5
  -6   0  -7 845.582 245.144   5
  -6   0  -7 973.823 235.544   1
  -6   0  -7 766.817 264.986   4
   6   0   7 603.686 463.407   3
   6   0   7 1066.28 370.422   6
   6   0   8 10847.4 1146.66   6
   6   0   8 8875.92 1606.96   3
  -6   0  -8 10988.9 826.663   1
  -6   0  -8 10314.8 911.300   5
  -6   0  -9 299.235 183.171   5
  -6   0  -9 281.095 155.254   1
   6   0   9 606.148 359.155   3
   6   0   9 441.540 232.739   6
   6   0  10 12378.0 1424.94   6
  -6   0 -10 14553.0 1080.05   1
  -6   0 -10 11441.2 981.119   5
  -6   0 -11 341.394 248.783   1
   6   0  11 183.702 152.365   6
  -6   0 -12 1909.86 446.149   1
   6   0  12 3168.27 825.842   6
  -6   0 -13 1293.35 386.606   1
   6   0  13 667.646 411.864   6
   6   1  -9 2512.93 706.629   2
  -6  -1   8 5265.36 1046.36   7
   6   1  -8 4369.74 958.231   2
  -6  -1   7 198.011 283.445   7
   6   1  -7 238.179 224.082   2
   6   1  -6 2755.21 721.289   2
  -6  -1   6 3308.37 510.412   4
  -6  -1   6 3282.04 800.023   7
   6   1  -6 3164.48 827.669   3
  -6  -1   5 5562.91 627.376   4
   6   1  -5 7324.22 1138.87   2
  -6  -1   5 5451.32 1006.54   7
   6   1  -5 4429.57 1008.78   3
  -6  -1   4 2567.13 508.570   3
  -6  -1   4 3426.36 452.720   4
  -6  -1   4 2670.33 670.755   7
   6   1  -4 1889.78 765.986   3
   6   1  -3 1356.98 191.268   1
  -6  -1   3 962.858 221.155   4
  -6  -1   3 1522.67 532.669   7
   6   1  -3 898.965 457.765   3
  -6  -1   2 20625.1 1051.59   4
   6   1  -2 20003.8 704.861   1
  -6  -1   1 26865.3 1201.77   4
  -6  -1   1 28653.8 2202.13   7
   6   1  -1 19831.2 2267.58   3
   6   1  -1 22665.0 685.093   1
  -6  -1   0 43629.7 1679.08   4
  -6  -1   0 43057.9 2699.38   7
   6   1   0 30192.7 2884.87   3
  -6  -1   0 28670.9 2147.14   5
   6   1   0 29883.3 1786.65   5
   6   1   0 30376.8 844.339   1
   6   1   1 335.831 186.978   5
   6   1   1 252.519 396.081   3
  -6  -1  -1 389.157 212.808   5
  -6  -1  -2 519.947 185.422   1
   6   1   2 200.708 410.984   3
  -6  -1  -2 729.358 306.258   5
  -6  -1  -3 4144.03 368.452   4
  -6  -1  -3 3523.52 503.127   1
   6   1   3 4020.18 1039.48   3
  -6  -1  -3 4255.31 656.318   5
   6   1   4 33586.1 3135.94   3
  -6  -1  -4 33541.0 1879.88   5
  -6  -1  -5 4054.65 464.154   4
  -6  -1  -5 4555.79 549.200   1
  -6  -1  -5 3853.68 570.707   5
  -6  -1  -6 4427.78 545.481   4
  -6  -1  -6 4052.28 506.552   1
   6   1   6 3948.61 1042.55   3
   6   1   6 3646.96 629.367   6
  -6  -1  -6 3877.50 544.071   5
  -6  -1  -7 11161.7 976.933   4
  -6  -1  -7 11594.0 870.504   1
   6   1   7 10953.3 1131.79   6
   6   1   7 9654.55 1663.31   3
  -6  -1  -7 10195.0 860.946   5
   6   1   8 11945.5 1232.91   6
  -6  -1  -8 12348.4 941.382   1
   6   1   8 10722.7 1779.46   3
  -6  -1  -8 11117.5 869.684   5
  -6  -1  -9 1550.33 316.064   5
  -6  -1  -9 2006.09 419.030   1
   6   1   9 2105.62 559.006   6
   6   1  10 6554.41 1027.95   6
  -6  -1 -10 8011.89 822.406   1
  -6  -1 -11 152.664 228.526   1
   6   1  11-13.7186 250.922   6
  -6  -1 -12 3849.11 658.715   1
   6   1  12 3699.64 899.560   6
  -6  -1 -13 537.737 335.676   1
   6   1  13 448.948 402.067   6
   6   2  -9 1514.89 580.311   2
  -6  -2   8 1871.80 634.975   7
   6   2  -8 2002.83 670.491   2
  -6  -2   7 2547.69 538.140   4
  -6  -2   7 2601.82 699.236   7
   6   2  -7 2267.61 683.312   2
  -6  -2   6 2677.27 511.518   4
  -6  -2   6 2163.26 651.815   7
   6   2  -6 2365.78 713.084   3
   6   2  -6 2668.49 748.227   2
   6   2  -5 605.552 345.684   2
  -6  -2   5 620.247 251.847   4
  -6  -2   5 1196.73 518.687   7
   6   2  -5 1100.68 540.021   3
  -6  -2   4 12436.3 1022.99   4
  -6  -2   4 10928.7 1420.67   7
  -6  -2   4 11526.4 1062.70   3
   6   2  -4 8233.71 1412.77   3
  -6  -2   3 9991.28 875.457   4
   6   2  -3 8886.15 656.124   1
  -6  -2   3 11649.1 1432.34   7
  -6  -2   3 8821.05 909.581   3
   6   2  -3 8607.91 1401.31   3
  -6  -2   2 34497.4 1703.11   4
   6   2  -2 31322.1 1256.91   1
  -6  -2   2 33206.7 2452.78   7
   6   2  -2 26709.0 2581.63   3
  -6  -2   2 29025.2 1713.48   3
  -6  -2   1 7575.63 784.353   4
   6   2  -1 6262.55 478.126   1
  -6  -2   1 5127.02 939.972   7
   6   2  -1 4839.46 1027.79   3
   6   2  -1 6589.54 904.047   5
   6   2   0 1286.95 409.984   5
  -6  -2   0 938.937 292.721   4
  -6  -2   0 1034.03 414.980   7
   6   2   0 715.247 337.629   3
   6   2   0 1316.85 210.890   1
  -6  -2  -1 5901.52 817.906   4
   6   2   1 4915.16 1074.62   3
   6   2   1 4694.53 361.700   1
   6   2   1 5057.37 655.681   5
   6   2   2 34360.4 3147.69   3
   6   2   2 35208.1 1248.44   1
   6   2   3 37185.6 1241.35   1
  -6  -2  -3 37262.6 1921.63   1
   6   2   3 35853.6 3171.22   3
  -6  -2  -3 38913.4 2063.10   5
   6   2   4 433.887 111.777   1
   6   2   4 560.092 624.405   3
  -6  -2  -4 766.242 267.156   1
  -6  -2  -4 795.864 261.844   5
  -6  -2  -5 1411.80 362.900   1
  -6  -2  -5 635.765 173.560   4
   6   2   5 927.661 538.065   3
   6   2   5 1085.75 353.539   6
  -6  -2  -5 632.380 217.933   5
  -6  -2  -6 22069.9 1146.22   4
  -6  -2  -6 21217.0 1342.73   1
   6   2   6 18010.9 2279.97   3
   6   2   6 22317.7 1595.49   6
  -6  -2  -6 21677.5 1215.97   5
  -6  -2  -7 4025.64 522.410   4
  -6  -2  -7 3568.71 527.777   1
   6   2   7 3463.22 641.961   6
  -6  -2  -7 3046.88 408.031   5
  -6  -2  -8 5702.88 681.478   1
   6   2   8 4536.96 773.785   6
  -6  -2  -8 4515.63 460.546   5
  -6  -2  -9 6983.66 804.350   1
   6   2   9 5966.93 959.085   6
   6   2  10 9066.94 1241.58   6
  -6  -2 -10 9960.40 977.969   1
  -6  -2 -11 740.997 323.885   1
   6   2  11 236.281 268.157   6
  -6  -2 -12 1977.15 502.325   1
   6   2  12 781.950 434.875   6
  -6  -2 -13 3209.24 654.278   1
   6   2  13 2058.79 753.232   6
   6   3  -8 2080.84 724.452   2
  -6  -3   7 1234.61 404.147   4
  -6  -3   7 1831.88 615.486   7
   6   3  -7 1503.10 635.188   2
  -6  -3   6 4001.09 697.856   4
  -6  -3   6 3415.05 823.593   7
   6   3  -6 3695.79 920.545   2
   6   3  -5 519.536 371.972   2
  -6  -3   5 813.539 356.556   4
  -6  -3   5 209.938 140.667   7
   6   3  -4 3619.88 868.448   2
  -6  -3   4 3530.03 616.611   4
  -6  -3   4 3859.41 845.842   7
  -6  -3   3 338.509 222.883   4
  -6  -3   3 389.661 370.555   7
   6   3  -3 666.505 215.887   1
  -6  -3   3 222.108 169.587   3
  -6  -3   2 9769.09 1027.53   4
   6   3  -2 8214.54 702.142   1
  -6  -3   2 8936.72 1275.48   7
  -6  -3   2 6964.36 806.593   3
   6   3  -2 8182.87 1397.12   3
   6   3  -1 1528.61 255.663   1
  -6  -3   1 1373.87 398.638   4
  -6  -3   1 1349.97 488.332   7
   6   3  -1 1907.21 604.822   3
  -6  -3   0 54553.7 2815.15   4
  -6  -3   0 55896.6 3479.19   7
   6   3   0 56355.1 3926.18   3
   6   3   0 61278.1 2022.51   1
   6   3   0 63349.8 2899.79   5
  -6  -3  -1 10697.4 1201.53   4
   6   3   1 11088.5 1729.32   3
   6   3   1 10797.4 693.426   1
   6   3   1 11956.7 1087.76   5
   6   3   2 640.490 172.250   1
  -6  -3  -2 726.199 283.131   1
   6   3   3 978.278 265.717   5
  -6  -3  -3 1508.01 400.884   1
   6   3   3 1336.04 227.299   1
   6   3   3 1490.27 387.803   6
  -6  -3  -4 12672.0 1218.25   1
   6   3   4 12625.3 1134.31   6
   6   3   4 11856.8 692.727   1
   6   3   5 116.139 77.3961   1
   6   3   5 398.718 275.453   6
  -6  -3  -5 108.735 140.518   1
  -6  -3  -6 15805.7 969.571   4
   6   3   6 14187.5 858.830   1
  -6  -3  -6 17109.2 1328.20   1
   6   3   6 14158.1 1307.39   6
  -6  -3  -7 900.612 227.256   1
   6   3   7 1471.60 461.127   6
  -6  -3  -8 4500.44 640.754   1
   6   3   8 4146.77 773.299   6
  -6  -3  -9 8273.97 902.554   1
   6   3   9 7165.98 1068.22   6
  -6  -3 -10 12380.0 1164.44   1
   6   3  10 12764.2 1498.21   6
  -6  -3 -11 6708.43 883.608   1
   6   3  11 4868.52 1004.15   6
  -6  -3 -12 5853.22 882.020   1
   6   3  12 6848.17 1236.47   6
   6   3  13 738.068 537.280   6
  -6  -3 -13 344.421 274.521   1
  -6  -4   8 1796.23 577.232   4
  -6  -4   7 422.677 205.423   4
  -6  -4   7 455.690 388.561   7
   6   4  -7 308.361 391.820   2
  -6  -4   6 3165.91 681.543   4
  -6  -4   6 2575.96 748.470   7
   6   4  -6 2546.39 850.803   2
  -6  -4   5 2454.72 613.885   4
  -6  -4   5 2640.76 707.179   7
   6   4  -5 3151.26 864.165   2
   6   4  -4 3590.18 881.830   2
  -6  -4   4 2411.23 581.920   4
  -6  -4   4 2672.92 735.540   7
   6   4  -4 2509.02 395.973   6
   6   4  -3 4559.28 945.858   2
  -6  -4   3 4059.72 737.109   4
  -6  -4   3 5238.82 985.777   7
   6   4  -3 4024.05 518.864   6
   6   4  -2 6047.29 648.201   1
  -6  -4   2 4245.04 757.145   4
  -6  -4   2 5549.42 1013.04   7
   6   4  -2 6181.16 673.418   6
   6   4  -1 3049.51 449.177   1
  -6  -4   1 2624.32 615.348   4
  -6  -4   1 2406.65 677.578   7
   6   4  -1 2764.69 467.745   6
  -6  -4   0 9371.80 1170.85   4
   6   4   0 11008.9 850.758   1
   6   4   0 10227.0 926.090   6
   6   4   0 12206.1 1266.75   5
  -6  -4  -1 5653.76 917.199   4
   6   4   1 4193.02 493.769   1
   6   4   1 4178.28 598.455   6
   6   4   1 4786.36 720.422   5
   6   4   2 25513.4 1268.80   1
   6   4   2 25175.8 1577.86   6
  -6  -4  -3 12228.4 1207.81   1
   6   4   3 10858.4 1036.65   6
   6   4   3 10547.2 734.414   1
   6   4   3 11121.1 825.880   5
  -6  -4  -4 16245.4 1492.01   1
   6   4   4 16022.8 1328.86   6
   6   4   4 14853.4 871.118   1
   6   4   4 16985.3 869.677   5
   6   4   5 146.339 115.104   1
  -6  -4  -5 125.274 148.821   1
   6   4   5 178.104 223.763   6
   6   4   6 1790.00 478.031   6
  -6  -4  -6 2060.91 509.796   1
  -6  -4  -7 451.997 231.485   1
   6   4   7 299.296 227.224   6
  -6  -4  -8 15935.7 1344.97   1
   6   4   8 17454.4 1649.79   6
  -6  -4  -9 5422.09 761.811   1
   6   4   9 5975.35 989.299   6
  -6  -4 -10 4975.44 775.432   1
   6   4  10 6016.77 1052.19   6
  -6  -4 -11 775.613 307.033   1
   6   4  11 587.538 366.541   6
  -6  -4 -12 6297.42 938.685   1
   6   4  12 6301.68 1199.29   6
  -6  -5   7 1511.85 559.929   4
  -6  -5   7 1502.78 553.136   7
  -6  -5   6 2430.33 648.584   4
  -6  -5   6 1772.22 587.050   7
   6   5  -6 2960.73 865.194   2
  -6  -5   5 1060.01 452.078   4
  -6  -5   5 557.025 297.003   7
   6   5  -5 498.306 329.527   2
  -6  -5   4 622.348 339.741   4
  -6  -5   4 962.537 433.450   7
   6   5  -4 1511.40 631.557   2
   6   5  -3 2348.99 747.661   2
  -6  -5   3 1973.81 572.052   4
  -6  -5   3 1889.30 602.867   7
   6   5  -2 1495.81 560.709   2
  -6  -5   2 3102.95 684.052   4
  -6  -5   2 1826.39 581.833   7
   6   5  -2 2606.69 439.652   6
  -6  -5   1 1123.09 432.378   4
  -6  -5   1 634.450 297.920   7
   6   5  -1 1327.21 332.705   6
  -6  -5   0 8400.11 1156.70   4
   6   5   0 9167.46 848.278   1
   6   5   0 9134.28 897.403   6
   6   5   0 11536.1 1291.20   5
  -6  -5  -1 7394.65 1101.08   4
   6   5   1 6878.45 716.609   1
   6   5   1 6943.27 826.994   6
   6   5   1 7275.73 949.870   5
  -6  -5  -2 31575.2 2016.64   1
  -6  -5  -2 33013.1 2439.55   4
   6   5   2 26809.7 1440.20   1
   6   5   2 26781.2 1699.86   6
   6   5   2 29099.8 1749.54   5
   6   5   3 1255.31 294.668   5
  -6  -5  -3 904.967 324.226   1
   6   5   3 998.454 353.504   6
   6   5   3 1145.77 293.306   1
   6   5   4 1286.41 235.859   5
  -6  -5  -4 1519.44 468.282   1
   6   5   4 1031.28 342.675   6
  -6  -5  -5 2580.45 634.481   1
   6   5   5 2312.78 545.357   6
  -6  -5  -6 24731.0 1989.59   1
   6   5   6 18435.6 1617.82   6
   6   5   7-13.6984 193.250   6
  -6  -5  -7-273.429 270.690   1
  -6  -5  -8 1923.44 527.772   1
   6   5   8 2859.07 693.175   6
  -6  -5  -9 211.764 146.821   1
   6   5   9 137.993 238.097   6
  -6  -5 -10 6529.14 914.870   1
   6   5  10 7831.49 1237.01   6
  -6  -5 -11-180.172 291.681   1
   6   5  11 585.447 366.179   6
  -6  -5 -12 4391.83 822.549   1
   6   5  12 5915.69 1200.51   6
  -6  -6   6-121.006 311.341   4
  -6  -6   6 486.334 216.440   7
  -6  -6   5 860.536 446.243   4
  -6  -6   5 743.710 373.102   7
  -6  -6   4 4029.02 885.014   4
  -6  -6   4 5978.38 1039.51   7
   6   6  -4 5827.89 1194.89   2
   6   6  -3 2207.58 692.424   2
  -6  -6   3 2643.50 706.421   4
  -6  -6   3 1622.35 530.626   7
   6   6  -2 2492.09 739.744   2
  -6  -6   2 2101.63 631.485   4
  -6  -6   2 1397.68 480.174   7
   6   6  -1 1917.47 644.030   2
  -6  -6   1 1616.50 534.224   4
  -6  -6   1 1493.44 520.119   7
   6   6  -1 2220.99 433.928   6
  -6  -6   0 3520.11 792.974   4
   6   6   0 5370.48 704.633   6
  -6  -6  -1 1301.92 465.662   4
   6   6   1 992.821 321.264   6
   6   6   1 1210.27 362.739   5
  -6  -6  -2 4105.43 889.397   4
   6   6   2 3348.96 604.894   6
   6   6   2 4746.66 741.425   5
  -6  -6  -3 9558.22 1204.08   1
   6   6   3 8277.28 995.925   6
  -6  -6  -4 14464.3 1578.11   1
   6   6   4 11246.6 1200.41   6
  -6  -6  -5 4022.10 863.771   1
   6   6   5 4564.00 785.999   6
  -6  -6  -6 4376.10 928.633   1
   6   6   6 4100.73 803.025   6
  -6  -6  -7-254.887 305.639   1
   6   6   7 236.327 326.216   6
  -6  -6  -8 7913.18 1107.84   1
   6   6   8 8432.68 1209.55   6
   6   6   9 45.7373 251.180   6
  -6  -6  -9-104.669 156.206   1
  -6  -6 -10 3416.28 720.170   1
   6   6  10 3421.76 833.175   6
  -6  -6 -11 1827.52 553.057   1
   6   6  11 2166.59 725.217   6
  -6  -7   5 279.569 315.445   4
  -6  -7   5 1020.08 437.024   7
  -6  -7   4 640.088 374.337   4
  -6  -7   4 1017.67 461.643   7
  -6  -7   3 712.474 407.070   4
  -6  -7   3-26.2941 220.280   7
   6   7  -3 482.219 312.305   2
  -6  -7   2 2880.57 762.947   4
  -6  -7   2 2782.33 696.857   7
   6   7  -2 3383.83 874.226   2
   6   7  -1 3209.12 831.997   2
  -6  -7   1 2946.28 754.549   4
  -6  -7   1 3416.69 764.050   7
   6   7   0 1519.19 552.542   2
  -6  -7   0 1524.65 553.512   4
  -6  -7   0 1352.31 517.468   7
   6   7   0 1728.19 443.773   6
  -6  -7  -1 2546.66 706.257   4
   6   7   1 1814.19 454.121   6
  -6  -7  -2 4614.88 1036.79   4
   6   7   2 4425.28 743.157   6
  -6  -7  -3 298.723 193.065   1
  -6  -7  -3 1103.68 544.851   4
   6   7   3 678.346 301.439   6
  -6  -7  -4 7604.49 1215.44   1
   6   7   4 7957.01 1055.89   6
  -6  -7  -5 1565.35 580.046   1
   6   7   5 1298.28 448.528   6
  -6  -7  -6 3076.23 758.634   1
   6   7   6 4015.34 811.756   6
  -6  -7  -7 2133.49 664.272   1
   6   7   7 1794.57 559.454   6
  -6  -7  -8 5024.32 982.985   1
   6   7   8 5178.27 986.145   6
   6   7   9 2829.93 776.333   6
  -6  -7  -9 2850.84 711.500   1
   6   7  10 3035.02 845.287   6
  -6  -7 -10 4084.38 830.913   1
  -6  -7 -11 696.714 328.111   1
  -6  -8   4 375.372 179.058   7
  -6  -8   3 1287.74 552.741   4
  -6  -8   3 1216.32 502.750   7
  -6  -8   2 2089.65 655.001   4
  -6  -8   2 2012.05 589.300   7
  -6  -8   1 461.094 206.958   4
  -6  -8   1 761.849 381.768   7
   6   8  -1 95.5286 253.007   2
   6   8   0 3155.52 835.966   2
  -6  -8   0 3199.59 834.556   4
  -6  -8   0 3997.39 873.410   7
   6   8   1 132.911 270.026   2
  -6  -8  -1-31.6718 126.983   4
   6   8   1 87.2869 101.026   6
   6   8   2 5161.79 1028.05   2
  -6  -8  -2 4976.34 1074.91   4
   6   8   2 5192.00 838.338   6
  -6  -8  -3 1149.19 532.874   4
   6   8   3 802.607 340.323   6
  -6  -8  -4 1678.34 612.376   1
   6   8   4 1332.54 438.593   6
  -6  -8  -5 1610.09 617.731   1
   6   8   5 1346.82 470.246   6
  -6  -8  -6 3261.75 880.802   1
   6   8   6 2864.51 705.848   6
  -6  -8  -7 509.253 339.396   1
   6   8   7 934.580 406.744   6
  -6  -8  -8 4680.01 1018.51   1
   6   8   8 4115.29 915.427   6
  -6  -8  -9 874.569 457.236   1
   6   8   9 826.326 437.961   6
  -6  -9   2 1967.53 590.042   7
  -6  -9   1 1718.27 565.065   7
  -6  -9   0 1515.86 587.656   4
  -6  -9   0 1654.77 534.216   7
   6   9   1 1672.54 608.817   2
  -6  -9  -1 1286.41 543.844   4
   6   9   2 411.186 309.876   2
  -6  -9  -2 432.497 379.743   4
   6   9   3 2519.14 755.647   2
  -6  -9  -3 2931.63 903.581   4
   6   9   3 2085.63 559.609   6
   6   9   4 2630.34 721.581   2
  -6  -9  -4 2373.64 752.799   1
  -6  -9  -4 1623.55 747.913   4
   6   9   4 2542.09 649.833   6
  -6  -9  -5 1457.97 636.176   1
   6   9   5 1129.50 442.837   6
  -6  -9  -6 6229.47 1315.61   1
   6   9   6 4299.86 904.680   6
  -6  -9  -7-589.538 408.165   1
   6   9   7 331.544 312.347   6
  -6  -9  -8 969.543 469.041   1
   6   9   8 278.131 302.141   6
  -6 -10  -1 1386.02 530.000   7
   6  10   4 2679.93 781.672   2
   6  10   5 1599.85 637.809   2
   6  10   5 957.953 443.023   6
   6  10   6 784.791 413.970   2
   6  10   6 744.730 395.170   6
   6  10   7 557.894 340.636   2
   6  10   7 2.29304 88.7337   6
  -7   6   5 3638.55 876.680   7
  -7   6   4 185.685 227.556   7
  -7   6   3 2933.32 725.257   7
  -7   6   2 244.899 235.856   7
  -7   6   1 4785.76 1213.99   5
  -7   6   1 4262.71 805.306   7
   7  -6  -1 3884.91 751.878   3
  -7   6   0 932.139 587.024   5
  -7   6   0 669.089 322.854   7
   7  -6   0 541.881 248.805   3
  -7   6  -1 2714.29 850.704   5
   7  -6   1 1933.60 564.488   3
  -7   6  -2 1253.24 584.486   5
   7  -6   2 38.6106 165.416   3
  -7   6  -3 5297.32 1059.93   5
   7  -6   3 6681.11 1098.66   3
  -7   6  -4-407.943 339.567   5
   7  -6   4 33.6495 193.695   3
  -7   6  -5 4046.20 897.578   5
   7  -6   5 3048.42 826.937   3
  -7   5   5 1772.45 605.540   7
   7  -5  -5 753.454 380.691   3
  -7   5   4 81.2583 120.241   7
   7  -5  -4 393.648 330.325   3
  -7   5   3 5583.50 1424.72   5
  -7   5   3 4263.41 878.584   7
   7  -5  -3 4429.82 841.456   3
  -7   5   2 3455.79 1100.57   5
  -7   5   2 2978.66 727.072   7
   7  -5  -2 3382.20 705.191   3
  -7   5   1 3291.16 999.364   5
  -7   5   1 3495.13 746.780   7
   7  -5  -1 4973.96 873.817   3
  -7   5   0 1767.64 677.071   5
  -7   5   0 2383.00 597.525   7
   7  -5   0 2090.48 575.227   3
  -7   5  -1 11143.3 1274.46   7
   7  -5   1 12251.0 1408.71   3
  -7   5  -1 13125.7 1813.97   5
  -7   5  -2 894.236 323.975   7
   7  -5   2 1012.83 439.893   3
  -7   5  -3 5025.85 1019.40   5
  -7   5  -3 5043.92 796.992   7
   7  -5   3 4662.64 933.550   3
  -7   5  -4-265.919 426.001   5
   7  -5   4 260.066 361.042   3
  -7   5  -5 4344.16 884.352   5
   7  -5   5 2568.13 814.549   3
  -7   5  -6 404.690 214.881   5
   7  -5   6 700.852 636.634   3
  -7   5  -7 1502.49 541.187   5
   7  -5   7 1323.73 713.582   3
  -7   5  -8 142.969 239.130   5
   7  -5   8 763.232 492.955   3
   7  -5   9 1497.10 874.795   3
   7  -4  -7 1167.68 496.107   3
   7  -4  -6 560.409 358.618   3
  -7   4   5 5629.06 1084.03   7
   7  -4  -5 6950.14 1078.98   3
  -7   4   5 5387.83 1487.72   5
  -7   4   4 1059.70 521.126   7
   7  -4  -4 1265.81 456.602   3
  -7   4   4 1661.60 809.581   5
  -7   4   3 4492.26 911.938   7
   7  -4  -3 4846.04 868.425   3
  -7   4   3 3163.91 1054.17   5
  -7   4   2 8355.96 1609.39   5
  -7   4   2 6019.36 1033.27   7
   7  -4  -2 6627.61 1003.79   3
  -7   4   1 9653.63 1608.76   5
  -7   4   1 7711.70 1125.97   7
   7  -4  -1 8122.90 1113.03   3
  -7   4   0 3809.08 1024.90   5
  -7   4   0 4713.46 873.342   7
   7  -4   0 4896.09 877.152   3
  -7   4  -1 2504.47 780.230   5
  -7   4  -1 2014.37 547.361   7
   7  -4   1 2655.43 683.528   3
  -7   4  -2 322.803 430.661   5
  -7   4  -2 19.3738 177.441   7
   7  -4   2 373.061 336.996   3
  -7   4  -3 10070.2 1167.32   7
   7  -4   3 9615.43 1368.19   3
  -7   4  -3 9107.69 1305.34   5
  -7   4  -4 52.2844 273.371   5
  -7   4  -4 210.033 235.231   7
   7  -4   4 593.930 443.787   3
  -7   4  -5 12656.0 1236.80   7
   7  -4   5 12495.2 1822.05   3
  -7   4  -5 14045.8 1539.08   5
  -7   4  -6-143.591 152.922   5
  -7   4  -6 592.806 260.168   7
   7  -4   6 608.995 611.733   3
  -7   4  -7 2706.06 681.015   5
   7  -4   7 2558.81 1047.55   3
  -7   4  -8-48.3559 141.380   5
   7  -4   8 1111.57 700.991   3
  -7   4  -9 1900.08 575.390   5
   7  -4   9 1084.44 849.844   3
  -7   4  -9 1230.82 282.246   1
  -7   4 -10 435.934 320.042   5
   7  -4  10-383.773 533.569   3
   7  -3  -7 4330.07 946.267   3
  -7   3   6 2714.64 787.779   7
   7  -3  -6 3098.08 774.278   3
  -7   3   5 3170.21 806.655   7
   7  -3  -5 2840.53 731.665   3
  -7   3   5 4444.75 1279.13   5
  -7   3   4 2564.29 706.763   7
   7  -3  -4 2028.01 566.901   3
  -7   3   4 2125.13 873.295   5
  -7   3   3 2986.86 768.491   7
   7  -3  -3 3406.48 763.659   3
  -7   3   3 2810.29 967.507   5
  -7   3   2 913.456 412.965   7
   7  -3  -2 935.133 396.231   3
  -7   3   2-53.2299 381.158   5
  -7   3   1 2675.68 837.195   5
  -7   3   1 3209.17 757.636   7
   7  -3  -1 3134.53 713.969   3
  -7   3   0 7994.42 1394.36   5
  -7   3   0 7933.67 1166.33   7
   7  -3   0 6437.27 1038.04   3
  -7   3  -1 19611.0 1762.31   7
   7  -3   1 18381.0 1846.61   3
  -7   3  -1 20085.9 2073.92   5
  -7   3  -2 2977.04 772.095   5
  -7   3  -2 3318.13 708.649   7
   7  -3   2 3266.26 840.086   3
  -7   3  -3 12502.4 1327.51   7
   7  -3   3 12612.4 1682.64   3
  -7   3  -3 11248.6 1420.82   5
  -7   3  -4 659.468 399.717   5
  -7   3  -4 779.446 348.029   7
   7  -3   4 1159.46 751.456   3
  -7   3  -5 5253.83 916.540   5
  -7   3  -5 3790.69 692.958   7
  -7   3  -5 6326.89 484.366   1
   7  -3   5 7957.21 1595.31   3
  -7   3  -6 6154.17 946.948   5
   7  -3   6 7353.02 1604.93   3
  -7   3  -6 8555.96 612.333   1
   7  -3   7 9987.00 1917.81   3
  -7   3  -7 8683.39 1117.15   5
  -7   3  -7 8476.05 659.517   1
  -7   3  -8-203.175 137.736   5
  -7   3  -8 307.280 148.563   1
   7  -3   8-654.599 738.149   3
  -7   3  -9 1686.34 493.076   5
  -7   3  -9 2462.37 398.876   1
   7  -3   9 1248.32 756.131   3
  -7   3 -10 190.073 185.763   5
  -7   3 -10-51.1119 73.1781   1
   7  -3  10 45.9601 177.094   6
  -7   3 -11 431.179 188.326   1
   7  -3  11 1168.63 711.356   3
   7  -2  -7 697.336 446.614   3
  -7   2   6 965.151 503.246   7
   7  -2  -6 6811.34 1351.40   3
  -7   2   5 2945.64 791.838   7
   7  -2  -5 2460.33 741.902   3
  -7   2   4 212.635 263.505   7
   7  -2  -4 450.378 258.565   3
  -7   2   4 634.579 344.960   5
  -7   2   3 10625.6 1428.00   7
   7  -2  -3 8882.44 1305.34   3
  -7   2   3 10224.2 1764.02   5
  -7   2   2 11.4612 171.167   7
  -7   2   2-170.983 390.786   5
  -7   2   1 9821.16 1320.63   7
   7  -2  -1 7932.19 1228.66   3
  -7   2   1 9969.56 1535.29   5
  -7   2   0 4998.29 1035.63   5
  -7   2   0 6997.76 1084.84   7
   7  -2   0 5562.85 1076.19   3
  -7   2  -1 3687.67 832.066   5
  -7   2  -1 5945.60 982.025   7
   7  -2   1 4706.43 1045.75   3
  -7   2  -2-177.779 382.897   5
  -7   2  -2-235.570 272.489   7
  -7   2  -3 6329.12 1031.44   5
  -7   2  -3 7194.48 1017.20   7
   7  -2   3 7453.82 1439.82   3
  -7   2  -4 6225.90 925.352   7
  -7   2  -4 6715.30 501.764   1
   7  -2   4 6071.29 1407.06   3
  -7   2  -4 5903.56 969.073   5
  -7   2  -5 32599.9 1261.73   1
  -7   2  -5 27129.9 2036.47   5
  -7   2  -6 1316.62 396.448   5
  -7   2  -6 2582.80 342.569   1
   7  -2   6 2057.36 893.518   3
  -7   2  -7 3808.52 692.461   5
   7  -2   7 4990.68 1400.94   3
  -7   2  -7 4056.07 466.023   1
  -7   2  -8 175.706 155.521   5
  -7   2  -8 520.773 187.704   1
   7  -2   8 737.497 489.076   3
  -7   2  -9 5798.83 867.285   5
   7  -2   9 7594.07 1033.77   6
   7  -2   9 4545.86 1234.74   3
  -7   2  -9 5727.43 618.764   1
  -7   2 -10 722.017 261.515   1
   7  -2  10 663.627 327.219   6
   7  -2  11 1318.59 700.695   3
   7  -2  11 1136.82 453.682   6
  -7   2 -11 1363.13 352.059   1
   7  -1  -6 101.443 233.679   2
  -7   1   6-371.505 336.458   7
   7  -1  -6 610.233 506.169   3
  -7   1   5 4388.10 967.571   7
   7  -1  -5 4736.87 1116.72   3
  -7   1   4 910.304 479.124   7
   7  -1  -4 1889.61 730.740   3
  -7   1   3 3082.27 781.186   7
   7  -1  -3 4236.40 1098.00   3
  -7   1   3 1721.96 646.699   5
  -7   1   2 1339.74 539.397   7
   7  -1  -2 1468.38 656.158   3
  -7   1   2 521.337 395.251   5
  -7   1   1 1067.65 470.888   7
   7  -1  -1 1916.17 707.411   3
  -7   1   1 1568.98 578.421   5
  -7   1   0-77.5715 243.849   7
   7  -1   0 447.582 511.722   3
  -7   1   0-181.644 417.691   5
  -7   1  -1 11348.2 1378.79   7
   7  -1   1 12070.0 1787.68   3
  -7   1  -1 9849.54 1335.10   5
  -7   1  -2 7543.91 1090.01   5
  -7   1  -2 8262.70 1147.98   7
   7  -1   2 9561.56 1669.91   3
  -7   1  -3 38248.2 1249.38   4
  -7   1  -3 33395.8 1344.92   1
  -7   1  -3 38570.1 2516.41   7
   7  -1   3 35717.8 3319.54   3
  -7   1  -3 33923.9 2337.14   5
  -7   1  -4 7312.01 594.291   1
   7  -1   4 6441.92 1493.47   3
  -7   1  -4 6005.30 919.766   5
  -7   1  -5 4265.21 817.346   5
  -7   1  -5 4819.41 508.901   1
  -7   1  -6 1647.05 524.492   5
   7  -1   6 1387.38 816.881   3
  -7   1  -6 1513.09 286.717   1
   7  -1   7 14033.6 2222.93   3
  -7   1  -7 16075.9 987.212   1
  -7   1  -7 14737.5 1330.73   5
  -7   1  -8 2212.41 498.858   5
   7  -1   8 2012.44 865.343   3
  -7   1  -8 3516.99 472.282   1
  -7   1  -9 4564.90 719.723   5
   7  -1   9 4943.20 840.006   6
   7  -1   9 4356.14 1202.30   3
  -7   1  -9 5125.23 606.977   1
  -7   1 -10 107.097 134.419   1
   7  -1  10 175.902 292.291   3
   7  -1  10 87.2701 96.5817   6
  -7   1 -11 3175.91 546.352   1
   7  -1  11 2098.64 860.777   3
   7  -1  11 3698.23 790.617   6
  -7   1 -12 810.029 297.877   1
   7   0  -7 1053.30 436.700   2
   7   0  -6-65.2356 161.890   2
  -7   0   6 42.9324 204.518   7
   7   0  -6-229.653 515.751   3
  -7   0   5 2271.80 699.023   7
   7   0  -5 1693.04 825.380   3
  -7   0   4 3150.20 834.968   7
   7   0  -4 1851.37 819.653   3
  -7   0   3 5156.84 1036.98   7
   7   0  -3 4932.39 1212.75   3
  -7   0   2 63.9825 257.917   7
   7   0  -2 694.589 564.417   3
  -7   0   1 8714.50 1320.67   7
   7   0  -1 7758.38 1509.02   3
  -7   0   1 4517.28 931.735   5
   7   0   0 3256.51 1016.42   3
  -7   0   0 3739.14 823.272   5
  -7   0  -1 5342.66 288.093   4
  -7   0  -1 5116.19 304.737   4
  -7   0  -1 6690.34 1136.37   7
   7   0   1 4683.14 1295.70   3
  -7   0  -1 5299.51 932.462   5
  -7   0  -2 1176.73 185.370   4
  -7   0  -2 787.066 232.435   4
  -7   0  -2 695.820 385.760   7
   7   0   2 585.755 445.316   3
  -7   0  -2 443.871 234.323   5
  -7   0  -3 3036.51 645.738   5
  -7   0  -3 3449.48 389.458   4
  -7   0  -3 3715.34 481.097   1
   7   0   3 2765.48 994.275   3
  -7   0  -4-186.257 260.541   5
  -7   0  -4 79.9996 99.6100   4
   7   0   4-379.613 771.640   3
  -7   0  -4 419.898 185.037   1
   7   0   5 38813.0 3790.89   3
  -7   0  -5 44200.8 2520.22   5
  -7   0  -6 3832.46 651.798   5
  -7   0  -6 5002.55 638.476   4
  -7   0  -6 4675.48 539.927   1
   7   0   6 3317.33 1073.93   3
  -7   0  -7 2136.96 493.503   5
   7   0   7 2498.20 879.994   3
  -7   0  -7 2041.73 370.542   1
  -7   0  -8 25.8427 165.465   5
   7   0   8-12.1877 98.8061   6
  -7   0  -8 183.816 206.468   1
   7   0   9 9375.80 1156.65   6
  -7   0  -9 10157.9 893.129   1
   7   0   9 7779.60 1676.60   3
  -7   0 -10 1021.54 345.539   1
   7   0  10 293.456 439.978   3
   7   0  10 852.391 404.806   6
  -7   0 -11 3700.40 603.996   1
   7   0  11 3499.43 791.828   6
  -7   0 -12 297.230 228.563   1
   7   1  -8 1563.65 577.899   2
   7   1  -7 2651.63 738.184   2
   7   1  -6 381.328 317.864   2
  -7  -1   6 853.415 418.638   7
   7   1  -5 2763.37 742.317   2
  -7  -1   5 3454.80 894.723   7
   7   1  -5 1570.81 591.831   3
  -7  -1   4 1852.53 662.893   7
   7   1  -4 1689.34 717.437   3
  -7  -1   3 7274.73 1292.64   7
   7   1  -3 4113.87 1084.25   3
  -7  -1   2 669.259 171.723   4
  -7  -1   2 1229.79 567.432   7
   7   1  -2 148.918 548.874   3
  -7  -1   1 3808.17 401.524   4
  -7  -1   1 4531.38 999.431   7
   7   1  -1 2823.96 929.730   3
  -7  -1   0 998.911 218.427   4
  -7  -1   0 1756.52 618.650   7
   7   1   0 779.608 563.198   3
  -7  -1  -1 288.776 99.2009   4
  -7  -1  -1 521.343 224.712   4
  -7  -1  -1 512.739 260.996   7
   7   1   1 197.428 594.360   3
  -7  -1  -1 110.997 124.452   5
  -7  -1  -2 16586.9 749.578   4
  -7  -1  -2 13567.5 1310.44   4
   7   1   2 12691.6 2041.62   3
  -7  -1  -2 12343.3 1323.52   5
   7   1   2 12911.0 1068.24   5
  -7  -1  -3 22680.6 1008.56   4
  -7  -1  -3 24197.0 1480.72   1
   7   1   3 18092.0 2415.04   3
  -7  -1  -3 18613.7 1572.02   5
  -7  -1  -4 6228.18 724.206   1
   7   1   4 6255.80 1395.35   3
  -7  -1  -4 5421.84 803.843   5
  -7  -1  -5 4542.77 548.918   4
  -7  -1  -5 5356.96 658.214   1
  -7  -1  -5 4898.24 723.980   5
  -7  -1  -6 915.839 269.233   5
  -7  -1  -6 903.996 265.167   4
  -7  -1  -6 864.217 253.087   1
   7   1   6 892.050 648.332   3
  -7  -1  -7 14372.3 1072.10   1
   7   1   7 13397.5 1320.98   6
  -7  -1  -7 12187.9 1094.92   5
  -7  -1  -8 3518.64 531.998   1
   7   1   8 2444.81 915.681   3
   7   1   8 3578.11 686.748   6
  -7  -1  -8 3998.78 602.771   5
  -7  -1  -9 7370.20 798.541   1
   7   1   9 6856.80 1009.60   6
   7   1  10 446.149 309.511   6
  -7  -1 -10 881.349 321.301   1
  -7  -1 -11 3046.25 580.119   1
   7   1  11 2544.18 693.019   6
  -7  -1 -12 1057.42 423.908   1
   7   2  -7 1363.27 583.984   2
   7   2  -6 1606.26 626.133   2
   7   2  -5 3928.63 901.382   2
  -7  -2   5 3105.87 833.968   7
   7   2  -5 2805.64 830.533   3
  -7  -2   4 236.238 359.327   7
   7   2  -4 591.159 457.803   3
  -7  -2   3 6404.39 705.185   4
  -7  -2   3 7364.36 1318.32   7
   7   2  -3 5170.87 1220.95   3
  -7  -2   2 5799.49 664.008   4
  -7  -2   2 5749.28 1173.52   7
   7   2  -2 3901.13 1029.58   3
  -7  -2   1 10311.6 903.730   4
  -7  -2   1 8205.77 1410.87   7
  -7  -2   0 3087.55 549.176   4
  -7  -2   0 3400.81 913.314   7
   7   2   0 1785.89 620.364   3
   7   2   1 1939.01 437.482   5
  -7  -2  -1 1954.49 490.612   4
  -7  -2  -1 3333.76 936.569   7
   7   2   1 1302.48 601.887   3
   7   2   2 8563.88 477.418   1
  -7  -2  -2 8208.35 1136.80   4
   7   2   2 6826.46 1407.15   3
   7   2   2 8360.15 848.191   5
   7   2   3 237.855 184.288   5
  -7  -2  -3-78.2579 192.777   1
   7   2   3-80.3959 364.027   3
  -7  -2  -4 94.5725 108.907   4
  -7  -2  -4-76.0965 172.930   1
   7   2   4-10.1657 441.527   3
  -7  -2  -5 15648.9 926.093   4
   7   2   5 12614.3 2108.74   3
   7   2   5 14207.2 1326.78   6
  -7  -2  -5 13804.1 1169.91   5
  -7  -2  -6 8865.04 753.820   4
  -7  -2  -6 10107.9 984.680   1
   7   2   6 9803.84 1110.99   6
   7   2   6 8319.66 1742.95   3
  -7  -2  -6 7627.33 805.447   5
  -7  -2  -7 13148.9 1106.58   1
   7   2   7 12382.0 2087.62   3
   7   2   7 13088.7 1315.06   6
  -7  -2  -7 12604.6 969.004   5
  -7  -2  -8 4044.80 615.246   1
   7   2   8 4867.45 823.981   6
  -7  -2  -9 1764.93 412.416   1
   7   2   9 2003.29 565.180   6
  -7  -2 -10 220.767 203.842   1
   7   2  10 1038.47 476.194   6
  -7  -2 -11 5714.18 812.307   1
   7   2  11 5698.78 1045.19   6
  -7  -2 -12 101.639 182.409   1
   7   3  -6 759.131 448.300   2
   7   3  -5 1980.32 714.687   2
  -7  -3   5 2404.14 750.737   7
   7   3  -4 3026.37 834.061   2
  -7  -3   4 3748.93 647.536   4
  -7  -3   4 3652.55 933.527   7
  -7  -3   3 3697.92 641.026   4
  -7  -3   3 2623.06 831.250   7
  -7  -3   2 553.800 271.114   4
  -7  -3   2 241.669 216.448   7
   7   3  -2-68.0193 426.613   3
  -7  -3   1 5837.35 853.059   4
  -7  -3   1 3776.21 980.398   7
   7   3  -1 3206.76 950.372   3
  -7  -3   0 909.972 362.984   4
  -7  -3   0 539.705 331.737   7
   7   3   0-180.660 461.017   3
  -7  -3  -1 7794.08 1148.47   4
   7   3   1 6906.10 1370.84   3
   7   3   1 7280.13 876.175   5
   7   3   2 1546.78 374.673   5
  -7  -3  -2 2505.10 689.777   4
   7   3   2 1925.04 261.394   1
   7   3   3 2086.54 270.089   1
   7   3   3 1640.54 345.779   5
  -7  -3  -3 2630.03 558.957   1
   7   3   3 2164.65 693.969   3
   7   3   3 2422.82 530.078   6
   7   3   4 6209.52 489.412   1
  -7  -3  -4 8059.90 997.251   1
   7   3   4 7340.40 923.458   6
  -7  -3  -5 8119.59 682.230   4
   7   3   5 6405.38 533.035   1
  -7  -3  -5 8966.89 1065.85   1
   7   3   5 7377.12 947.717   6
   7   3   6 147.290 180.347   6
  -7  -3  -6 370.838 233.139   1
  -7  -3  -7 2952.09 567.476   1
   7   3   7 1814.63 542.313   6
  -7  -3  -8 7026.70 863.265   1
   7   3   8 7491.32 1058.37   6
  -7  -3  -9 9760.52 1029.34   1
   7   3   9 9318.17 1261.95   6
  -7  -3 -10 3811.25 652.497   1
   7   3  10 4239.32 874.317   6
  -7  -3 -11 1627.44 456.493   1
   7   3  11 1876.87 619.405   6
  -7  -3 -12-99.7424 187.743   1
  -7  -4   5 1978.35 655.506   7
   7   4  -5 2381.37 771.068   2
   7   4  -4 757.054 391.428   2
  -7  -4   4 978.185 384.820   4
  -7  -4   4 833.580 430.213   7
   7   4  -3 2415.49 741.755   2
  -7  -4   3 2062.66 561.910   4
  -7  -4   3 1604.28 616.087   7
   7   4  -3 1967.22 403.796   6
  -7  -4   2 1870.74 537.013   4
  -7  -4   2 2345.44 791.391   7
   7   4  -2 1857.24 399.260   6
  -7  -4   1 8332.97 1179.42   4
  -7  -4   1 9248.34 1581.21   7
   7   4  -1 9833.88 949.906   6
  -7  -4   0 808.811 364.816   4
  -7  -4   0 956.396 507.023   7
   7   4   0 1227.02 351.983   6
  -7  -4  -1 6860.71 1146.85   4
   7   4   1 6198.50 792.980   6
   7   4   1 7230.04 923.592   5
   7   4   2 691.656 247.900   5
  -7  -4  -2 1238.86 497.149   4
   7   4   2 596.652 240.861   6
  -7  -4  -3 5462.74 893.955   1
   7   4   3 4344.33 706.904   6
   7   4   3 5027.53 499.547   1
   7   4   3 4773.73 590.831   5
   7   4   4 968.393 207.789   1
  -7  -4  -4 1016.17 404.313   1
   7   4   4 989.675 358.766   6
  -7  -4  -5 590.945 262.939   1
   7   4   5 800.414 344.998   6
  -7  -4  -6 1767.05 478.870   1
   7   4   6 1407.70 444.205   6
  -7  -4  -7 10897.5 1211.59   1
   7   4   7 7375.14 1052.68   6
  -7  -4  -8 2873.59 589.985   1
   7   4   8 1739.99 537.302   6
  -7  -4  -9 2681.97 581.336   1
   7   4   9 3630.83 797.990   6
  -7  -4 -10 1327.57 415.380   1
   7   4  10 1643.31 540.401   6
  -7  -4 -11 3058.23 628.615   1
   7   4  11 4602.83 992.053   6
  -7  -4 -12-83.4658 184.366   1
  -7  -5   5 2345.58 698.907   4
   7   5  -4 948.282 521.097   2
  -7  -5   4 775.962 406.095   4
  -7  -5   4 1226.39 565.629   7
   7   5  -3 7206.94 1329.96   2
  -7  -5   3 4729.35 953.360   4
  -7  -5   3 5729.85 1188.43   7
   7   5  -2 1487.04 562.330   2
  -7  -5   2 1416.65 512.768   4
  -7  -5   2 1387.33 564.709   7
  -7  -5   1 1591.35 541.191   4
   7   5  -1 1102.40 350.036   6
  -7  -5   0-168.859 346.963   4
  -7  -5   0-74.0537 281.310   7
   7   5   0 93.2979 120.987   6
  -7  -5  -1 5803.21 1127.55   4
   7   5   1 5735.65 794.134   6
  -7  -5  -2 6461.21 1196.93   4
   7   5   2 4991.78 758.009   6
  -7  -5  -3 5156.55 933.350   1
   7   5   3 5320.81 823.809   6
  -7  -5  -4 1826.22 591.099   1
   7   5   4 1440.93 442.478   6
  -7  -5  -5 4840.42 931.224   1
   7   5   5 4480.84 803.863   6
  -7  -5  -6-116.178 219.274   1
   7   5   6-120.726 235.643   6
  -7  -5  -7 7903.52 1134.54   1
   7   5   7 6352.12 1007.21   6
   7   5   8 422.947 321.439   6
  -7  -5  -8 63.8214 131.353   1
  -7  -5  -9 3924.91 753.196   1
   7   5   9 3040.95 752.005   6
  -7  -5 -10 1791.93 495.364   1
   7   5  10 2008.45 674.371   6
  -7  -5 -11 2274.49 580.127   1
  -7  -6   4 935.434 489.484   4
  -7  -6   3 2023.41 695.210   4
  -7  -6   3 2832.95 819.747   7
   7   6  -2 912.675 501.644   2
  -7  -6   2 1023.37 502.108   4
  -7  -6   2 728.679 383.017   7
   7   6  -1 2509.96 783.057   2
  -7  -6   1 2516.86 736.760   4
  -7  -6   1 4319.83 1055.67   7
  -7  -6   0 2551.25 766.968   4
  -7  -6   0 2352.76 805.207   7
   7   6   0 3398.70 608.158   6
  -7  -6  -1 3121.86 854.410   4
   7   6   1 2956.63 578.267   6
  -7  -6  -2 416.363 270.271   4
   7   6   2 421.381 260.545   6
  -7  -6  -3 5013.32 946.890   1
  -7  -6  -3 4436.76 1043.18   4
   7   6   3 3998.98 730.071   6
  -7  -6  -4 568.022 279.846   1
   7   6   4 597.226 264.006   6
  -7  -6  -5 8186.67 1299.70   1
   7   6   5 6270.96 978.966   6
  -7  -6  -6 183.624 159.798   1
   7   6   6 1699.90 556.865   6
  -7  -6  -7 2029.70 660.180   1
   7   6   7 1462.02 501.476   6
  -7  -6  -8 2946.09 710.102   1
   7   6   8 2821.17 720.794   6
   7   6   9 3671.28 876.348   6
  -7  -6  -9 4236.63 835.458   1
   7   6  10 1352.91 532.070   6
  -7  -6 -10 2074.39 597.025   1
  -7  -6 -11 2670.76 649.718   1
  -7  -7   3 2139.73 740.573   4
  -7  -7   2 574.020 382.293   4
  -7  -7   2 12.4580 140.705   7
  -7  -7   1 4266.27 1034.85   4
  -7  -7   1 3958.91 1002.93   7
   7   7   0 75.6006 197.823   2
  -7  -7   0 429.811 321.921   4
  -7  -7   0 55.6266 220.643   7
  -7  -7  -1 4455.40 1054.12   4
   7   7   1 3903.80 718.993   6
  -7  -7  -2 1961.65 665.599   4
   7   7   2 1894.77 501.009   6
  -7  -7  -3 2483.56 809.346   4
   7   7   3 2526.41 628.659   6
  -7  -7  -4 1369.83 537.007   1
   7   7   4 1612.60 486.809   6
  -7  -7  -5 2146.83 685.084   1
   7   7   5 1298.73 484.587   6
  -7  -7  -6 1170.53 526.515   1
   7   7   6 468.835 330.986   6
  -7  -7  -7 3294.40 861.667   1
   7   7   7 3054.51 767.137   6
  -7  -7  -8 2095.38 658.818   1
   7   7   8 2282.61 689.895   6
  -7  -7  -9 5922.43 1055.62   1
   7   7   9 5607.73 1102.29   6
  -7  -7 -10 777.139 386.059   1
  -7  -8   1 2651.84 820.392   4
  -7  -8   1 3418.10 899.839   7
  -7  -8   0 1578.09 646.696   4
  -7  -8   0 1281.31 545.475   7
  -7  -8  -1 1026.02 565.269   4
  -7  -8  -2 812.627 503.614   4
  -7  -8  -3 2595.82 837.442   4
   7   8   3 2690.24 665.007   6
  -7  -8  -4 576.644 424.072   1
  -7  -8  -4-68.4084 380.381   4
   7   8   4 528.091 309.573   6
  -7  -8  -5 818.461 462.572   1
   7   8   5 1684.46 553.293   6
  -7  -8  -6-800.149 466.963   1
   7   8   6 296.279 328.912   6
  -7  -8  -7 3234.73 895.395   1
   7   8   7 3155.04 827.896   6
  -7  -8  -8-70.1228 170.057   1
   7   8   8 85.7402 162.365   6
   7   9   4 1678.52 553.275   6
  -7  -9  -5 1680.78 650.012   1
   7   9   5 2017.15 625.171   6
   7   9   6 641.469 379.523   6
   7   9   7 171.038 304.992   6
  -8   5   3 657.404 407.190   7
  -8   5   2 1169.81 491.502   7
  -8   5   1 390.103 236.370   7
  -8   5   0 1884.12 589.035   7
  -8   5  -1 233.928 208.255   7
  -8   5  -2 1858.92 761.984   5
  -8   5  -3-135.207 238.788   5
  -8   5  -4 5143.01 1064.76   5
  -8   5  -5 1858.18 715.887   5
  -8   4   3 651.755 413.361   7
  -8   4   2 2052.26 642.681   7
  -8   4   1 495.061 449.436   5
  -8   4   1 596.218 337.196   7
   8  -4  -1 505.494 290.414   3
  -8   4   0 5444.82 1251.63   5
  -8   4   0 4571.97 941.289   7
   8  -4   0 5451.10 1121.18   3
  -8   4  -1 122.834 279.884   5
  -8   4  -1 49.1526 130.646   7
   8  -4   1 305.872 351.400   3
  -8   4  -2 4304.61 1007.44   5
  -8   4  -2 5000.36 943.946   7
   8  -4   2 4239.88 1065.77   3
  -8   4  -3 336.899 311.667   5
  -8   4  -3 335.925 132.267   7
   8  -4   3 270.898 325.710   3
  -8   4  -4 1413.20 544.904   5
  -8   4  -4 474.292 218.882   7
  -8   4  -5 595.461 466.865   5
  -8   4  -6 1412.63 540.343   5
  -8   4  -7 454.279 191.117   5
  -8   4  -8 5197.97 1019.29   5
   8  -3  -5 1977.03 783.624   3
   8  -3  -4 3857.55 1029.60   3
  -8   3   3 786.874 412.031   7
   8  -3  -3 961.375 557.572   3
  -8   3   3 448.693 453.608   5
  -8   3   2 3206.04 840.024   7
   8  -3  -2 4585.47 1089.57   3
  -8   3   2 3544.43 1080.55   5
  -8   3   1 1103.55 487.702   7
   8  -3  -1 1132.90 520.015   3
  -8   3   1 1310.62 618.065   5
  -8   3   0 2933.71 850.090   5
  -8   3   0 3684.86 863.156   7
   8  -3   0 2722.05 818.207   3
  -8   3  -1 2253.08 742.351   5
  -8   3  -1 3282.55 783.792   7
   8  -3   1 2942.22 861.335   3
  -8   3  -2 1897.65 614.350   5
  -8   3  -2 2025.93 613.740   7
  -8   3  -3-280.892 268.442   5
  -8   3  -3 202.676 211.927   7
  -8   3  -4 2425.66 701.871   5
  -8   3  -4 3617.11 777.345   7
   8  -3   4 4502.28 1334.49   3
  -8   3  -5 4466.37 909.868   5
  -8   3  -5 6075.50 967.205   7
   8  -3   5 6454.29 1640.21   3
  -8   3  -6 4058.72 859.223   5
  -8   3  -6 5237.27 876.107   7
   8  -3   6 4374.86 1442.85   3
  -8   3  -7 60.4506 179.558   5
   8  -3   7 224.804 448.178   3
  -8   3  -8 531.357 276.672   5
   8  -2  -5 4070.40 1247.68   3
   8  -2  -4 2008.15 826.128   3
  -8   2   3 2027.06 731.008   7
   8  -2  -3 2624.88 1030.65   3
  -8   2   3 1370.03 683.830   5
  -8   2   2 3567.59 933.068   7
   8  -2  -2 3891.15 1121.20   3
  -8   2   2 2739.44 852.992   5
  -8   2   1 2537.85 747.457   7
   8  -2  -1 3732.17 1081.41   3
  -8   2   1 2588.29 793.392   5
  -8   2   0 4479.85 961.712   7
   8  -2   0 5926.15 1364.65   3
  -8   2   0 5006.34 1129.12   5
  -8   2  -1 1138.09 510.091   7
   8  -2   1 1211.02 699.836   3
  -8   2  -1 1155.97 505.355   5
  -8   2  -2 11944.7 1525.85   7
   8  -2   2 11536.9 1976.64   3
  -8   2  -2 10700.4 1511.14   5
  -8   2  -3 1596.02 546.438   5
  -8   2  -3 1327.18 449.121   7
   8  -2   3 2742.74 1068.83   3
  -8   2  -4 3231.71 764.705   5
  -8   2  -4 4590.14 885.906   7
   8  -2   4 4799.86 1464.74   3
  -8   2  -5 611.247 331.032   5
  -8   2  -5 756.778 369.510   7
   8  -2   5 1694.41 807.635   3
  -8   2  -6 189.218 195.527   5
   8  -2   6 108.284 334.525   3
  -8   2  -7 5867.57 975.541   5
   8  -2   7 3711.62 1443.32   3
   8  -2   8 4822.68 1393.81   3
  -8   2  -8 9628.83 1247.00   5
   8  -1  -5 1986.07 880.074   3
   8  -1  -4 2996.61 1060.63   3
  -8   1   3 1853.74 648.752   7
   8  -1  -3 1648.02 896.284   3
  -8   1   2 2738.94 814.086   7
   8  -1  -2 2599.74 981.538   3
  -8   1   2 1378.49 589.661   5
  -8   1   1 340.504 231.366   7
  -8   1   1-82.0166 318.340   5
  -8   1   0 4959.00 1058.58   7
   8  -1   0 4165.78 1295.89   3
  -8   1   0 2936.26 814.656   5
  -8   1  -1 360.536 226.520   7
   8  -1   1 429.998 629.116   3
  -8   1  -1 624.064 333.224   5
  -8   1  -2 10019.5 1432.53   7
   8  -1   2 9012.02 1790.38   3
  -8   1  -2 7725.30 1195.19   5
  -8   1  -3-147.861 242.056   5
  -8   1  -3-164.674 229.605   7
   8  -1   3 186.372 388.151   3
  -8   1  -4 5411.26 929.398   5
  -8   1  -4 6735.95 1099.78   7
   8  -1   4 5650.62 1572.42   3
  -8   1  -5 3369.98 754.920   5
   8  -1   5 3409.50 1217.04   3
   8  -1   6 5851.96 1566.94   3
  -8   1  -6 6506.00 994.462   5
  -8   1  -7 4203.72 780.787   5
   8  -1   7 3210.28 1147.58   3
   8  -1   8-902.679 753.441   3
   8  -1   9-165.986 531.347   3
   8   0  -5 382.721 283.282   2
   8   0  -5 251.343 368.035   3
   8   0  -4 79.2339 448.829   3
  -8   0   3 1624.12 714.762   7
   8   0  -3-550.862 604.562   3
  -8   0   2 3657.67 989.792   7
   8   0  -2 2987.78 1135.20   3
  -8   0   1 271.062 279.341   7
   8   0  -1-158.102 634.439   3
  -8   0   0 3139.19 917.525   7
   8   0   0 2902.86 1067.08   3
  -8   0   0 1775.21 595.898   5
  -8   0  -1 4799.33 1088.24   7
   8   0   1 3255.01 1114.52   3
  -8   0  -1 3880.89 847.488   5
  -8   0  -2 9306.65 1453.17   7
   8   0   2 5505.28 1440.38   3
  -8   0  -2 7770.95 1162.57   5
  -8   0  -3 472.981 361.963   7
   8   0   3-414.154 606.730   3
  -8   0  -3 491.158 346.641   5
   8   0   4 13159.6 2288.97   3
  -8   0  -4 13757.5 1441.53   5
  -8   0  -5-448.747 275.797   5
   8   0   5-403.098 694.665   3
  -8   0  -6 1717.80 493.121   5
   8   0   6 2721.62 1088.49   3
   8   0   7-1637.00 836.413   3
   8   0   8 3450.38 1189.97   3
   8   0   8 3210.37 688.928   6
   8   0   9 653.010 387.471   3
  -8   0  -9 653.122 249.725   1
   8   0   9 640.969 330.974   6
   8   0  10 3077.93 1068.65   3
  -8   0 -10 2726.73 513.318   1
  -8   0 -11 303.491 204.125   1
   8   1  -6 1541.44 549.619   2
   8   1  -5 1197.75 447.323   2
   8   1  -4 1440.54 695.870   3
  -8  -1   3 891.937 528.630   7
   8   1  -3 646.350 468.497   3
  -8  -1   2 4798.43 1197.00   7
   8   1  -2 1333.24 549.407   3
  -8  -1   1 5387.27 1233.32   7
   8   1  -1 1152.76 701.134   3
  -8  -1   0 2811.04 883.230   7
   8   1   0 1773.06 917.687   3
  -8  -1  -1 745.825 440.110   7
   8   1   1-7.56371 498.213   3
   8   1   2 1158.92 620.362   3
  -8  -1  -2 1696.01 526.032   5
   8   1   3 299.415 412.951   3
  -8  -1  -3 1242.54 431.910   5
   8   1   4 9837.84 1930.28   3
  -8  -1  -4 10849.1 1238.02   5
   8   1   5-188.524 478.003   3
  -8  -1  -5-154.221 208.167   5
  -8  -1  -6 12929.8 1068.71   1
   8   1   6 11576.4 2132.75   3
  -8  -1  -6 8816.93 1053.79   5
  -8  -1  -7 3228.44 535.535   1
   8   1   7 3475.58 1210.68   3
   8   1   7 3759.77 735.449   6
  -8  -1  -8 4918.01 667.245   1
   8   1   8 2407.42 969.762   3
   8   1   8 4159.06 788.428   6
  -8  -1  -9 590.043 280.251   1
   8   1   9 233.002 190.559   6
  -8  -1 -10 1477.54 393.267   1
  -8  -1 -11 216.505 198.466   1
   8   2  -5 72.1124 198.226   2
   8   2  -4 845.434 508.474   3
  -8  -2   3 2495.27 912.841   7
   8   2  -3 1970.45 744.733   3
  -8  -2   2 1737.42 762.786   7
   8   2  -2 873.023 432.796   3
  -8  -2   1 551.077 396.077   7
   8   2  -1 586.494 570.527   3
  -8  -2   0 3435.79 1039.26   7
   8   2   0 1465.22 667.901   3
  -8  -2  -1 4396.61 1160.87   7
   8   2   1 2386.06 989.433   3
  -8  -2  -2 5653.43 1285.64   7
   8   2   2 4601.14 1310.72   3
  -8  -2  -3 2958.68 762.443   4
   8   2   3 2236.59 963.743   3
  -8  -2  -4 5693.01 833.970   1
   8   2   4 3885.42 1284.28   3
  -8  -2  -5 1272.58 374.900   1
   8   2   5 1392.65 846.228   3
   8   2   5 573.618 260.721   6
  -8  -2  -6 10581.0 1073.42   1
   8   2   6 9105.91 1129.03   6
   8   2   6 7776.54 1733.52   3
  -8  -2  -7 1626.43 390.959   1
   8   2   7 1696.29 801.511   3
   8   2   7 1330.83 445.124   6
  -8  -2  -8 2614.22 519.501   1
   8   2   8 2504.25 628.945   6
  -8  -2  -9 1116.30 333.391   1
   8   2   9 1932.05 578.036   6
  -8  -2 -10 4040.46 675.318   1
  -8  -2 -11-224.330 250.928   1
  -8  -2 -12 1404.23 457.273   1
  -8  -3   2 1434.78 647.490   7
  -8  -3   1 665.989 492.588   7
   8   3  -1 625.393 336.913   3
  -8  -3   0 4121.54 1249.53   7
   8   3   0 3713.00 1119.94   3
  -8  -3  -1 1201.88 461.068   4
  -8  -3  -1 2307.26 883.308   7
   8   3   1 1850.59 838.123   3
  -8  -3  -2 1674.23 573.622   4
   8   3   2 740.026 647.156   3
  -8  -3  -3 755.024 445.330   4
   8   3   3-117.540 390.074   3
   8   3   3 1075.75 382.329   6
  -8  -3  -4 4614.47 822.342   1
   8   3   4 3373.12 668.580   6
  -8  -3  -5 4933.23 809.372   1
   8   3   5 2961.14 651.287   6
  -8  -3  -6 5406.86 852.713   1
   8   3   6 4827.30 830.795   6
   8   3   7 2011.40 552.691   6
  -8  -3  -7 2540.06 562.841   1
  -8  -3  -8 6201.28 861.797   1
   8   3   8 4482.36 857.701   6
  -8  -3  -9 1060.59 373.940   1
   8   3   9 1057.70 422.525   6
  -8  -3 -10 1637.10 432.569   1
  -8  -3 -11-307.325 219.257   1
  -8  -4   1 265.518 270.019   7
   8   4  -1 1623.71 412.507   6
  -8  -4   0-337.569 371.532   7
   8   4   0 33.4684 132.219   6
  -8  -4  -1 1240.24 509.647   4
  -8  -4  -1 1406.90 727.309   7
   8   4   1 1716.44 443.515   6
  -8  -4  -2 3145.40 911.288   4
   8   4   2 2685.17 564.417   6
  -8  -4  -3 3296.24 947.580   4
   8   4   3 3042.83 615.066   6
  -8  -4  -4 3352.39 751.627   1
   8   4   4 3201.72 663.738   6
  -8  -4  -5 70.6750 232.512   1
   8   4   5-77.8491 154.814   6
  -8  -4  -6 5357.74 886.689   1
   8   4   6 3613.48 757.149   6
  -8  -4  -7 1094.21 388.583   1
   8   4   7 876.122 389.972   6
   8   4   8 3253.59 756.175   6
  -8  -4  -8 3958.56 742.847   1
  -8  -4  -9 470.449 272.786   1
  -8  -4 -10 1532.56 462.873   1
  -8  -4 -11 426.474 249.241   1
  -8  -5   0-172.063 312.174   4
  -8  -5   0 304.626 451.645   7
   8   5   0 260.882 191.708   6
  -8  -5  -1 316.074 337.964   4
  -8  -5  -1-270.589 461.605   7
   8   5   1 446.654 248.871   6
  -8  -5  -2 2514.96 835.270   4
   8   5   2 1623.80 476.304   6
  -8  -5  -3 1156.15 586.180   4
   8   5   3 567.001 295.247   6
  -8  -5  -4 3093.96 724.621   1
   8   5   4 2896.57 639.956   6
  -8  -5  -5 1660.24 541.380   1
   8   5   5 1382.87 446.976   6
  -8  -5  -6 3449.12 779.701   1
   8   5   6 1652.40 517.442   6
  -8  -5  -7 3004.30 696.576   1
   8   5   7 1685.31 540.555   6
  -8  -5  -8 1514.39 489.378   1
   8   5   8 1047.97 394.518   6
  -8  -5  -9 1303.43 453.086   1
  -8  -5 -10 1379.52 462.782   1
  -8  -5 -11-85.6212 154.967   1
  -8  -6   1-426.919 350.784   4
  -8  -6   0 35.8981 151.681   4
  -8  -6  -1 2018.20 818.790   4
  -8  -6  -1 1360.42 784.704   7
   8   6   1 1508.11 451.299   6
  -8  -6  -2 2646.99 909.919   4
   8   6   2 1204.15 403.951   6
  -8  -6  -3 2554.21 861.512   4
   8   6   3 1467.84 439.165   6
  -8  -6  -4 1310.50 505.413   1
  -8  -6  -4 948.668 560.549   4
   8   6   4 1289.69 453.743   6
  -8  -6  -5 1170.66 532.651   1
   8   6   5 782.318 330.059   6
  -8  -6  -6 3810.54 889.066   1
   8   6   6 2408.75 662.287   6
  -8  -6  -7 1976.01 589.302   1
   8   6   7 2333.32 650.247   6
  -8  -6  -8 2002.46 617.582   1
  -8  -6  -9 2406.47 649.514   1
  -8  -6 -10 1754.23 590.365   1
  -8  -7   0 1660.20 700.472   4
  -8  -7  -1 450.161 507.376   4
  -8  -7  -2-91.8886 279.208   4
  -8  -7  -3 966.495 607.773   4
   8   7   3 324.024 308.716   6
  -8  -7  -4 4074.91 1157.26   4
   8   7   4 3023.02 720.046   6
  -8  -7  -5 2242.30 731.633   1
   8   7   5 1214.38 460.546   6
  -8  -7  -6 1813.93 643.138   1
   8   7   6 1395.27 534.557   6
  -8  -7  -7 679.310 402.320   1
  -8  -7  -8 3854.92 889.701   1
  -8  -8  -3 1222.07 670.191   4
  -8  -8  -4 1706.68 719.550   4
   8   8   4 1052.93 425.512   6
  -8  -8  -5-194.319 269.440   1
   8   8   5-29.3069 158.960   6
  -8  -8  -6 1407.25 662.579   1
  -9   4  -1 781.166 396.026   7
  -9   4  -2 50.5920 170.676   7
  -9   3   0 223.963 311.120   7
  -9   3  -1 1884.80 670.237   7
  -9   3  -2 393.874 349.134   5
  -9   3  -2 87.2052 199.066   7
  -9   3  -3 750.017 338.054   5
  -9   3  -3 1571.27 575.756   7
  -9   3  -4 211.076 150.335   5
  -9   3  -4-283.236 256.832   7
  -9   3  -5 184.199 233.294   5
  -9   2   0 1022.95 523.090   7
  -9   2   0 1330.65 654.130   5
  -9   2  -1 1875.90 695.577   7
  -9   2  -1 3486.73 904.147   5
  -9   2  -2 565.386 401.560   7
  -9   2  -2 728.096 395.746   5
  -9   2  -3 1679.65 558.996   5
  -9   2  -3 2749.39 760.028   7
  -9   2  -4 1353.90 546.741   5
  -9   2  -4 1628.93 593.462   7
  -9   2  -5 627.040 379.250   5
  -9   2  -5-113.120 206.354   7
  -9   2  -6 2048.43 626.625   7
  -9   2  -7 1606.89 569.515   7
  -9   1   1 4471.01 1092.53   5
  -9   1   0 367.209 246.112   7
  -9   1   0 560.160 356.059   5
  -9   1  -1 1725.82 696.652   7
  -9   1  -1 1493.68 582.790   5
  -9   1  -2 2694.05 827.565   7
  -9   1  -2 1220.44 537.913   5
  -9   1  -3 2465.44 764.931   7
  -9   1  -3 2539.71 698.707   5
  -9   1  -4 494.540 289.977   7
  -9   1  -4 694.823 391.546   5
  -9   1  -5 618.962 326.100   5
  -9   1  -5 822.924 444.196   7
  -9   1  -6 2597.34 713.756   7
   9   0  -2 251.727 629.501   3
   9   0  -1 428.551 562.753   3
   9   0   0-232.156 679.385   3
  -9   0  -1 3090.95 965.018   7
   9   0   1 2857.94 1111.08   3
  -9   0  -1 2141.13 703.429   5
  -9   0  -2 763.484 502.307   7
   9   0   2-81.7464 336.043   3
  -9   0  -2 389.869 291.460   5
  -9   0  -3 3746.95 974.553   7
   9   0   3 1402.19 700.146   3
  -9   0  -3 2458.49 659.103   5
  -9   0  -4 917.643 478.877   7
  -9   0  -4 750.048 384.507   5
   9   1  -3 248.881 306.714   3
   9   1  -2 1599.63 902.182   3
   9   1  -1 3968.93 1272.63   3
   9   1   0 943.201 630.637   3
  -9  -1  -1 3710.02 1125.39   7
   9   1   1 1189.71 631.910   3
  -9  -1  -2 154.974 368.365   7
   9   1   2-251.332 548.370   3
  -9  -1  -3 4393.96 1086.68   7
   9   1   3 3625.43 1174.37   3
  -9  -1  -4 301.120 288.723   7
   9   1   4-921.840 811.555   3
   9   2  -2-71.4405 259.865   3
   9   2  -1 254.640 363.382   3
   9   2   0-127.870 349.235   3
   9   2   1 4162.38 1261.73   3
  -9  -2  -2 1945.12 814.833   7
   9   2   2 666.764 702.232   3
  -9  -2  -3 1874.98 709.727   7
   9   2   3 1214.48 645.397   3
   9   2   4 810.234 542.417   3
   9   2   5 2793.96 655.619   6
   9   3   2 1810.86 524.675   6
   9   3   3 5588.55 893.905   6
   9   3   4 677.984 325.625   6
   9   3   5 2922.64 668.032   6
   9   4   0 1295.52 407.359   6
   9   4   1 2886.24 624.298   6
   9   4   2 433.630 234.496   6
   9   4   3 2790.51 645.776   6
   9   4   4 1656.24 516.590   6
   9   4   5 2647.78 655.764   6
   9   5   1 171.713 196.873   6
   9   5   2 2489.40 618.532   6
   9   5   3 2823.28 678.338   6
   9   5   4 424.472 261.547   6
   9   5   5 703.456 345.487   6
   9   6   3 163.669 210.289   6
   9   6   4 225.093 142.229   6
   0   0   0    0.00    0.00   0

TITL exp_1369 in P-1
REM P-1 (#2 in standard setting)
CELL 0.71073   7.197697   9.103932  11.470046  77.7601  76.9556  84.2275
ZERR    2.00   0.000481   0.000481   0.000653   0.0047   0.0053   0.0049
LATT  1
SFAC C H F Fe
UNIT 32.00 20.00 12.00 2.00
TREF
HKLF 4
END
;
_shelx_hkl_checksum              91623
_olex2_date_sample_data_collection 2018-12-21
_olex2_exptl_crystal_mounting_method 'Inside 0.5mm X-ray capillary'
_olex2_submission_special_instructions 'No special instructions were received'
_oxdiff_exptl_absorpt_empirical_details
;
Empirical correction (ABSPACK) includes:
- Absorption correction using spherical harmonics
- Frame scaling
;
_oxdiff_exptl_absorpt_empirical_full_max 4.580
_oxdiff_exptl_absorpt_empirical_full_min 0.342
loop_
_space_group_symop_operation_xyz
'x, y, z'
'-x, -y, -z'
loop_
_atom_site_label
_atom_site_type_symbol
_atom_site_fract_x
_atom_site_fract_y
_atom_site_fract_z
_atom_site_U_iso_or_equiv
_atom_site_adp_type
_atom_site_occupancy
_atom_site_site_symmetry_order
_atom_site_calc_flag
Fe1 Fe 0.23954(4) 0.49606(3) 0.25232(2) 0.02958(12) Uani 1 1 d
C7 C 0.3166(4) 0.6792(3) 0.1203(2) 0.0531(6) Uani 1 1 d
H7 H 0.439(4) 0.713(3) 0.096(2) 0.059(7) Uiso 1 1 d
C8 C 0.2432(4) 0.5730(3) 0.07183(19) 0.0475(6) Uani 1 1 d
H8 H 0.309(4) 0.527(3) 0.011(2) 0.068(8) Uiso 1 1 d
C9 C 0.0562(3) 0.5493(3) 0.1364(2) 0.0429(5) Uani 1 1 d
H9 H -0.022(3) 0.484(3) 0.127(2) 0.051(7) Uiso 1 1 d
C10 C 0.0124(3) 0.6413(2) 0.2253(2) 0.0438(5) Uani 1 1 d
H10 H -0.102(3) 0.643(2) 0.283(2) 0.047(6) Uiso 1 1 d
C11 C 0.1735(4) 0.7212(2) 0.2149(2) 0.0478(6) Uani 1 1 d
H11 H 0.193(3) 0.789(3) 0.263(2) 0.052(7) Uiso 1 1 d
C12 C 0.4739(3) 0.4073(3) 0.3193(2) 0.0521(6) Uani 1 1 d
H12 H 0.596(4) 0.452(3) 0.290(2) 0.060(7) Uiso 1 1 d
C13 C 0.4052(3) 0.3017(3) 0.2674(2) 0.0481(6) Uani 1 1 d
H13 H 0.474(3) 0.264(3) 0.202(2) 0.056(7) Uiso 1 1 d
C14 C 0.2178(3) 0.2741(2) 0.3297(2) 0.0413(5) Uani 1 1 d
H14 H 0.135(3) 0.213(2) 0.3126(19) 0.044(6) Uiso 1 1 d
C15 C 0.1677(3) 0.3624(2) 0.42092(18) 0.0394(5) Uani 1 1 d
H15 H 0.050(3) 0.371(2) 0.474(2) 0.045(6) Uiso 1 1 d
C16 C 0.3263(3) 0.4456(3) 0.4137(2) 0.0446(5) Uani 1 1 d
H16 H 0.335(3) 0.516(3) 0.456(2) 0.052(7) Uiso 1 1 d
F1 F 0.37263(19) 1.00038(16) -0.11403(13) 0.0634(4) Uani 1 1 d
F2 F 0.1389(2) 0.81260(14) -0.15779(11) 0.0545(4) Uani 1 1 d
F3 F -0.2327(2) 0.81158(17) -0.04311(14) 0.0660(4) Uani 1 1 d
C1 C 0.1885(3) 1.0008(2) -0.05827(18) 0.0410(5) Uani 1 1 d
C2 C 0.0703(3) 0.9051(2) -0.07986(18) 0.0392(5) Uani 1 1 d
C3 C -0.1174(3) 0.9047(2) -0.02241(19) 0.0413(5) Uani 1 1 d
F4 F 0.8020(2) 0.15130(18) 0.50351(15) 0.0711(4) Uani 1 1 d
F5 F 0.4561(2) 0.20813(15) 0.64251(13) 0.0627(4) Uani 1 1 d
F6 F 0.15352(19) 0.05749(16) 0.63838(12) 0.0613(4) Uani 1 1 d
C4 C 0.6528(3) 0.0767(2) 0.50150(19) 0.0417(5) Uani 1 1 d
C5 C 0.4783(3) 0.1052(2) 0.57237(18) 0.0398(5) Uani 1 1 d
C6 C 0.3254(3) 0.0285(2) 0.57056(18) 0.0395(5) Uani 1 1 d
loop_
_atom_site_aniso_label
_atom_site_aniso_U_11
_atom_site_aniso_U_22
_atom_site_aniso_U_33
_atom_site_aniso_U_23
_atom_site_aniso_U_13
_atom_site_aniso_U_12
Fe1 0.03230(19) 0.02786(17) 0.02826(17) -0.00368(12) -0.00901(12) 0.00205(11)
C7 0.0476(15) 0.0445(13) 0.0579(15) 0.0152(12) -0.0135(12) -0.0076(11)
C8 0.0596(15) 0.0497(13) 0.0289(11) -0.0035(10) -0.0105(10) 0.0112(11)
C9 0.0491(14) 0.0438(12) 0.0401(12) -0.0052(10) -0.0235(10) 0.0029(10)
C10 0.0460(14) 0.0443(13) 0.0387(12) -0.0072(10) -0.0124(10) 0.0157(10)
C11 0.0693(17) 0.0279(11) 0.0518(14) -0.0080(10) -0.0273(12) 0.0049(10)
C12 0.0355(13) 0.0560(15) 0.0610(15) 0.0068(12) -0.0217(11) 0.0024(11)
C13 0.0486(14) 0.0449(13) 0.0450(13) -0.0056(11) -0.0106(11) 0.0203(11)
C14 0.0526(14) 0.0284(10) 0.0432(12) -0.0029(9) -0.0159(10) 0.0001(10)
C15 0.0453(13) 0.0377(11) 0.0309(10) -0.0002(9) -0.0076(9) 0.0025(9)
C16 0.0589(15) 0.0398(12) 0.0403(12) -0.0049(10) -0.0258(11) 0.0019(11)
F1 0.0415(8) 0.0708(9) 0.0693(9) -0.0152(7) 0.0072(6) -0.0017(6)
F2 0.0708(9) 0.0461(7) 0.0460(7) -0.0207(6) -0.0056(6) 0.0101(6)
F3 0.0641(9) 0.0629(9) 0.0797(10) -0.0259(8) -0.0156(8) -0.0173(7)
C1 0.0385(12) 0.0382(12) 0.0396(11) -0.0016(10) -0.0021(9) 0.0024(9)
C2 0.0511(13) 0.0313(10) 0.0314(10) -0.0045(8) -0.0063(9) 0.0070(9)
C3 0.0472(13) 0.0341(11) 0.0417(12) -0.0035(9) -0.0105(10) -0.0042(9)
F4 0.0562(9) 0.0743(10) 0.0893(11) -0.0175(8) -0.0181(8) -0.0245(8)
F5 0.0888(11) 0.0488(8) 0.0575(8) -0.0247(7) -0.0197(7) 0.0035(7)
F6 0.0468(8) 0.0669(9) 0.0551(8) -0.0048(7) 0.0075(6) 0.0102(7)
C4 0.0430(13) 0.0368(11) 0.0450(12) -0.0005(10) -0.0144(10) -0.0058(9)
C5 0.0561(14) 0.0298(10) 0.0334(10) -0.0052(9) -0.0128(10) 0.0037(9)
C6 0.0391(12) 0.0380(11) 0.0341(11) 0.0017(9) -0.0034(9) 0.0049(9)
loop_
_atom_type_symbol
_atom_type_description
_atom_type_scat_dispersion_real
_atom_type_scat_dispersion_imag
_atom_type_scat_source
C C 0.0033 0.0016 'International Tables Vol C Tables 4.2.6.8 and 6.1.1.4'
H H 0.0000 0.0000 'International Tables Vol C Tables 4.2.6.8 and 6.1.1.4'
F F 0.0171 0.0103 'International Tables Vol C Tables 4.2.6.8 and 6.1.1.4'
Fe Fe 0.3463 0.8444 'International Tables Vol C Tables 4.2.6.8 and 6.1.1.4'
loop_
_exptl_crystal_face_index_h
_exptl_crystal_face_index_k
_exptl_crystal_face_index_l
_exptl_crystal_face_perp_dist
-9 1 -10 0.1688
-8 -8 -8 0.1016
9 5 10 0.1000
-6 -10 3 0.1680
2 -12 1 0.1527
-2 -13 -7 0.1666
-9 -5 -10 0.1000
-1 -8 10 0.1653
-3 10 -7 0.2361
3 -4 14 0.1401
7 -8 6 0.1415
-6 7 -8 0.2332
-1 2 -15 0.2066
8 7 10 0.1120
5 11 1 0.2141
-2 12 2 0.3527
1 11 -4 0.2285
1 4 -14 0.2091
2 9 -7 0.2201
-3 -6 11 0.1646
7 -8 -3 0.2193
loop_
_geom_angle_atom_site_label_1
_geom_angle_atom_site_label_2
_geom_angle_atom_site_label_3
_geom_angle
_geom_angle_site_symmetry_3
C7 Fe1 C8 40.58(10) .
C7 Fe1 C9 67.86(10) .
C7 Fe1 C10 67.89(10) .
C7 Fe1 C11 40.49(10) .
C7 Fe1 C12 108.17(10) .
C7 Fe1 C13 122.40(10) .
C7 Fe1 C14 157.50(11) .
C7 Fe1 C15 160.57(11) .
C7 Fe1 C16 124.29(11) .
C8 Fe1 C15 157.42(10) .
C9 Fe1 C8 40.12(10) .
C9 Fe1 C10 40.72(9) .
C9 Fe1 C11 68.05(10) .
C9 Fe1 C12 159.70(10) .
C9 Fe1 C14 107.60(10) .
C9 Fe1 C15 122.38(10) .
C9 Fe1 C16 158.13(10) .
C10 Fe1 C8 68.02(9) .
C10 Fe1 C15 108.06(9) .
C11 Fe1 C8 68.16(10) .
C11 Fe1 C10 40.26(10) .
C11 Fe1 C12 122.78(11) .
C11 Fe1 C14 160.35(10) .
C11 Fe1 C15 124.20(9) .
C12 Fe1 C8 123.93(10) .
C12 Fe1 C10 158.17(11) .
C12 Fe1 C15 68.08(10) .
C13 Fe1 C8 107.47(10) .
C13 Fe1 C9 123.21(10) .
C13 Fe1 C10 159.78(11) .
C13 Fe1 C11 158.31(11) .
C13 Fe1 C12 40.70(10) .
C13 Fe1 C14 40.19(9) .
C13 Fe1 C15 68.07(9) .
C13 Fe1 C16 68.36(10) .
C14 Fe1 C8 121.74(10) .
C14 Fe1 C10 124.02(10) .
C14 Fe1 C12 67.99(10) .
C14 Fe1 C15 40.60(9) .
C16 Fe1 C8 160.50(10) .
C16 Fe1 C10 122.50(9) .
C16 Fe1 C11 108.25(10) .
C16 Fe1 C12 40.59(10) .
C16 Fe1 C14 68.21(9) .
C16 Fe1 C15 40.50(9) .
Fe1 C7 H7 124.3(15) .
C8 C7 Fe1 69.93(13) .
C8 C7 H7 126.0(15) .
C11 C7 Fe1 69.91(13) .
C11 C7 H7 125.9(15) .
C11 C7 C8 108.1(2) .
Fe1 C8 H8 124.8(16) .
C7 C8 Fe1 69.49(13) .
C7 C8 H8 125.1(17) .
C9 C8 Fe1 69.86(12) .
C9 C8 C7 107.9(2) .
C9 C8 H8 127.0(17) .
Fe1 C9 H9 123.7(15) .
C8 C9 Fe1 70.02(13) .
C8 C9 H9 126.6(15) .
C8 C9 C10 108.2(2) .
C10 C9 Fe1 69.68(12) .
C10 C9 H9 125.2(15) .
Fe1 C10 H10 123.8(13) .
C9 C10 Fe1 69.60(12) .
C9 C10 H10 125.3(14) .
C11 C10 Fe1 69.85(13) .
C11 C10 C9 107.9(2) .
C11 C10 H10 126.8(14) .
Fe1 C11 H11 123.6(13) .
C7 C11 Fe1 69.60(13) .
C7 C11 H11 122.7(14) .
C10 C11 Fe1 69.90(12) .
C10 C11 C7 107.9(2) .
C10 C11 H11 129.3(14) .
Fe1 C12 H12 122.0(15) .
C13 C12 Fe1 69.50(13) .
C13 C12 H12 125.4(15) .
C16 C12 Fe1 69.66(13) .
C16 C12 H12 126.5(15) .
C16 C12 C13 107.9(2) .
Fe1 C13 H13 123.4(15) .
C12 C13 Fe1 69.80(13) .
C12 C13 H13 123.6(15) .
C14 C13 Fe1 70.05(12) .
C14 C13 C12 108.1(2) .
C14 C13 H13 128.2(15) .
Fe1 C14 H14 123.3(13) .
C13 C14 Fe1 69.76(13) .
C13 C14 H14 127.0(13) .
C13 C14 C15 108.4(2) .
C15 C14 Fe1 69.96(12) .
C15 C14 H14 124.5(13) .
Fe1 C15 H15 123.5(13) .
C14 C15 Fe1 69.44(12) .
C14 C15 H15 127.5(14) .
C16 C15 Fe1 69.45(12) .
C16 C15 C14 107.7(2) .
C16 C15 H15 124.6(14) .
Fe1 C16 H16 122.6(15) .
C12 C16 Fe1 69.75(13) .
C12 C16 H16 123.4(15) .
C15 C16 Fe1 70.05(12) .
C15 C16 C12 107.9(2) .
C15 C16 H16 128.6(15) .
F1 C1 C2 119.97(19) .
F1 C1 C3 120.2(2) 2_575
C2 C1 C3 119.8(2) 2_575
F2 C2 C1 120.02(19) .
F2 C2 C3 119.9(2) .
C3 C2 C1 120.1(2) .
F3 C3 C1 119.7(2) 2_575
F3 C3 C2 120.2(2) .
C2 C3 C1 120.1(2) 2_575
F4 C4 C5 119.7(2) .
F4 C4 C6 120.2(2) 2_656
C5 C4 C6 120.1(2) 2_656
F5 C5 C4 120.4(2) .
F5 C5 C6 119.9(2) .
C6 C5 C4 119.7(2) .
F6 C6 C4 119.8(2) 2_656
F6 C6 C5 120.0(2) .
C5 C6 C4 120.15(19) 2_656
loop_
_geom_bond_atom_site_label_1
_geom_bond_atom_site_label_2
_geom_bond_distance
_geom_bond_site_symmetry_2
Fe1 C7 2.029(2) .
Fe1 C8 2.035(2) .
Fe1 C9 2.033(2) .
Fe1 C10 2.034(2) .
Fe1 C11 2.033(2) .
Fe1 C12 2.034(2) .
Fe1 C13 2.030(2) .
Fe1 C14 2.034(2) .
Fe1 C15 2.041(2) .
Fe1 C16 2.033(2) .
C7 H7 0.92(2) .
C7 C8 1.410(4) .
C7 C11 1.406(3) .
C8 H8 0.91(3) .
C8 C9 1.395(3) .
C9 H9 0.90(2) .
C9 C10 1.415(3) .
C10 H10 0.93(2) .
C10 C11 1.400(3) .
C11 H11 0.95(2) .
C12 H12 0.96(3) .
C12 C13 1.413(4) .
C12 C16 1.411(3) .
C13 H13 0.91(2) .
C13 C14 1.396(3) .
C14 H14 0.94(2) .
C14 C15 1.414(3) .
C15 H15 0.93(2) .
C15 C16 1.410(3) .
C16 H16 0.90(2) .
F1 C1 1.335(2) .
F2 C2 1.338(2) .
F3 C3 1.334(3) .
C1 C2 1.371(3) .
C1 C3 1.376(3) 2_575
C2 C3 1.363(3) .
C3 C1 1.376(3) 2_575
F4 C4 1.334(3) .
F5 C5 1.335(2) .
F6 C6 1.339(2) .
C4 C5 1.367(3) .
C4 C6 1.369(3) 2_656
C5 C6 1.367(3) .
C6 C4 1.369(3) 2_656
loop_
_exptl_oxdiff_crystal_face_indexfrac_h
_exptl_oxdiff_crystal_face_indexfrac_k
_exptl_oxdiff_crystal_face_indexfrac_l
_exptl_oxdiff_crystal_face_x
_exptl_oxdiff_crystal_face_y
_exptl_oxdiff_crystal_face_z
-8.6945 0.6325 -10.3924 0.2326 0.9726 0.0006
-8.3548 -7.8567 -7.6966 -0.4931 0.8699 -0.0090
9.1006 4.5973 9.5243 0.2002 -0.9797 0.0091
-5.5179 -9.7659 2.7501 -0.8685 0.3582 0.3427
1.7435 -11.9824 1.3795 -0.9583 -0.1780 -0.2234
-2.1634 -12.5306 -6.5597 -0.8420 0.3487 -0.4116
-9.1006 -4.5973 -9.5243 -0.2002 0.9797 -0.0091
-1.4337 -7.7897 9.8675 -0.8524 -0.1597 0.4979
-2.9167 9.8768 -6.6584 0.9094 0.4154 -0.0188
2.9708 -4.3479 13.5519 -0.6385 -0.6081 0.4717
6.5275 -7.9253 5.5028 -0.7039 -0.6684 -0.2404
-5.9580 7.4214 -7.8201 0.7230 0.6871 0.0723
-0.6404 1.7507 -15.0482 0.4868 0.4647 -0.7396
8.3476 6.9837 9.5128 0.3820 -0.9195 0.0933
5.3058 11.1722 0.9522 0.8899 -0.4430 -0.1087
-1.7950 12.3367 2.0180 0.9057 0.0887 0.4145
1.0133 11.4833 -3.7998 0.9958 0.0268 -0.0881
1.2050 3.5428 -13.5326 0.6045 0.2777 -0.7466
2.2024 9.4961 -7.1430 0.9273 0.0244 -0.3735
-2.9908 -5.5697 11.0365 -0.7171 -0.0684 0.6936
6.9696 -7.8381 -3.4262 -0.4837 -0.4578 -0.7460
