#------------------------------------------------------------------------------
#$Date: 2019-11-26 07:15:43 +0200 (Tue, 26 Nov 2019) $
#$Revision: 242926 $
#$URL: file:///home/coder/svn-repositories/cod/cif/4/13/30/4133079.cif $
#------------------------------------------------------------------------------
#
# This file is available in the Crystallography Open Database (COD),
# http://www.crystallography.net/
#
# All data on this site have been placed in the public domain by the
# contributors.
#
data_4133079
loop_
_publ_author_name
'Muessig, Jonas H.'
'Prieschl, Dominic'
'Dei\&senberger, Andrea'
'Dewhurst, Rian D.'
'Dietz, Maximilian'
'Jim\'enez-Halla, J Oscar C'
'Trumpp, Alexandra'
'Wang, Sunewang R.'
'Brunecker, Carina'
'Haefner, Alena'
'G\"artner, Annalena'
'Thiess, Torsten'
'B\"ohnke, Julian'
'Radacki, Krzysztof'
'Bertermann, R\"udiger'
'Marder, Todd B.'
'Braunschweig, Holger'
_publ_section_title
;
 Reactivity of Tetrahalo- and Difluorodiboranes(4) toward Lewis Basic
 Platinum(0): Bis(boryl), Borylborato, and Doubly Boryl-Bridged Platinum
 Complexes.
;
_journal_issue                   40
_journal_name_full               'Journal of the American Chemical Society'
_journal_page_first              13056
_journal_page_last               13063
_journal_paper_doi               10.1021/jacs.8b08428
_journal_volume                  140
_journal_year                    2018
_chemical_formula_moiety         'C6 H18 B2 Cl4 P2'
_chemical_formula_sum            'C6 H18 B2 Cl4 P2'
_chemical_formula_weight         315.56
_space_group_crystal_system      monoclinic
_space_group_IT_number           14
_space_group_name_Hall           '-P 2yn'
_space_group_name_H-M_alt        'P 1 21/n 1'
_atom_sites_solution_hydrogens   geom
_atom_sites_solution_secondary   iterative
_audit_creation_method           SHELXL-2014/7
_cell_angle_alpha                90
_cell_angle_beta                 95.955(11)
_cell_angle_gamma                90
_cell_formula_units_Z            2
_cell_length_a                   6.4637(16)
_cell_length_b                   12.672(4)
_cell_length_c                   8.946(3)
_cell_measurement_reflns_used    9876
_cell_measurement_temperature    100(2)
_cell_measurement_theta_max      26.78
_cell_measurement_theta_min      2.80
_cell_volume                     728.8(4)
_computing_cell_refinement       'Saint+ ver. V8.34A (Bruker AXS)'
_computing_data_collection       'APEX2 ver. 2014.9 (Bruker AXS)'
_computing_data_reduction        'Saint+ ver. V8.34A (Bruker AXS)'
_computing_molecular_graphics    'ShelXLe (Huebschle et all, 2011)'
_computing_publication_material  'SHELXL-2014/7 (Sheldrick, 2014)'
_computing_structure_refinement  'SHELXL-2014/7 (Sheldrick, 2014)'
_computing_structure_solution    'SHELXT (Sheldrick, 2012)'
_diffrn_ambient_temperature      100(2)
_diffrn_detector                 'CMOS area detector (Photon 100)'
_diffrn_detector_area_resol_mean 8.333
_diffrn_measured_fraction_theta_full 1.000
_diffrn_measured_fraction_theta_max 1.000
_diffrn_measurement_device_type  'Bruker D8 Quest'
_diffrn_measurement_method       '\f and \w scans'
_diffrn_radiation_type           MoK\a
_diffrn_radiation_wavelength     0.71073
_diffrn_reflns_av_R_equivalents  0.0296
_diffrn_reflns_av_unetI/netI     0.0115
_diffrn_reflns_Laue_measured_fraction_full 1.000
_diffrn_reflns_Laue_measured_fraction_max 1.000
_diffrn_reflns_limit_h_max       8
_diffrn_reflns_limit_h_min       -8
_diffrn_reflns_limit_k_max       15
_diffrn_reflns_limit_k_min       -15
_diffrn_reflns_limit_l_max       11
_diffrn_reflns_limit_l_min       -11
_diffrn_reflns_number            23447
_diffrn_reflns_point_group_measured_fraction_full 1.000
_diffrn_reflns_point_group_measured_fraction_max 1.000
_diffrn_reflns_theta_full        26.000
_diffrn_reflns_theta_max         26.367
_diffrn_reflns_theta_min         2.797
_diffrn_source                   'microfocus sealed tube (Incoatec ImS)'
_exptl_absorpt_coefficient_mu    0.995
_exptl_absorpt_correction_T_max  0.7454
_exptl_absorpt_correction_T_min  0.6957
_exptl_absorpt_correction_type   multi-scan
_exptl_absorpt_process_details   'SadAbs 2014/5 (Bruker AXS)'
_exptl_crystal_colour            colourless
_exptl_crystal_density_diffrn    1.438
_exptl_crystal_description       plate
_exptl_crystal_F_000             324
_exptl_crystal_size_max          0.160
_exptl_crystal_size_mid          0.072
_exptl_crystal_size_min          0.051
_refine_diff_density_max         0.415
_refine_diff_density_min         -0.168
_refine_diff_density_rms         0.048
_refine_ls_extinction_method     none
_refine_ls_goodness_of_fit_ref   1.081
_refine_ls_hydrogen_treatment    constr
_refine_ls_matrix_type           full
_refine_ls_number_parameters     67
_refine_ls_number_reflns         1490
_refine_ls_number_restraints     0
_refine_ls_restrained_S_all      1.081
_refine_ls_R_factor_all          0.0202
_refine_ls_R_factor_gt           0.0174
_refine_ls_shift/su_max          0.001
_refine_ls_shift/su_mean         0.000
_refine_ls_structure_factor_coef Fsqd
_refine_ls_weighting_details
'w=1/[\s^2^(Fo^2^)+(0.0205P)^2^+0.2905P] where P=(Fo^2^+2Fc^2^)/3'
_refine_ls_weighting_scheme      calc
_refine_ls_wR_factor_gt          0.0435
_refine_ls_wR_factor_ref         0.0443
_reflns_Friedel_coverage         0.000
_reflns_number_gt                1378
_reflns_number_total             1490
_reflns_threshold_expression     'I > 2\s(I)'
_cod_data_source_file            ja8b08428_si_012.cif
_cod_data_source_block           B2Cl4(PMe3)2
_cod_original_sg_symbol_H-M      'P 21/n'
_cod_database_code               4133079
_shelx_shelxl_version_number     2014/7
_shelx_space_group_comment
;
The symmetry employed for this shelxl refinement is uniquely defined
by the following loop, which should always be used as a source of
symmetry information in preference to the above space-group names.
They are only intended as comments.
;
_shelx_estimated_absorpt_t_min   0.857
_shelx_estimated_absorpt_t_max   0.951
_shelx_res_file
;

    test_a.res created by SHELXL-2014/7


TITL test_a.res in P2(1)/n
REM Old TITL test in P2(1)/n
REM SHELXT solution in P2(1)/n
REM R1 0.062,  Rweak 0.002,  Alpha 0.012,  Orientation as input
REM Formula found by SHELXT:  C3 B P Cl2
CELL  0.71073   6.4637  12.6724   8.9460   90.000   95.955   90.000
ZERR    2.000   0.0016   0.0035   0.0030    0.000    0.011    0.000
LATT  1
SYMM 1/2-X, 1/2+Y, 1/2-Z
SFAC C H B P CL
UNIT 12 36 4 4 8
TEMP -173.150
SIZE 0.051 0.072 0.16
L.S. 10
BOND $H
LIST 4
CONF
SHEL 999 0.8
ACTA 52
FMAP 2
PLAN 20
WGHT    0.020500    0.290500
FVAR       0.72526
CL1   5    0.651979    0.405772    0.310469    11.00000    0.01638    0.01220 =
         0.01310   -0.00166    0.00372    0.00283
C1    1    0.541859    0.637784    0.121260    11.00000    0.02142    0.01827 =
         0.01305    0.00347    0.00512   -0.00061
AFIX 137
H1A   2    0.604101    0.573910    0.083343    11.00000   -1.50000
H1B   2    0.652233    0.687030    0.158563    11.00000   -1.50000
H1C   2    0.451767    0.671193    0.039880    11.00000   -1.50000
AFIX   0
P1    4    0.390036    0.603228    0.272104    11.00000    0.01318    0.01072 =
         0.00943    0.00068    0.00222    0.00125
B1    3    0.560551    0.520342    0.423915    11.00000    0.01075    0.00998 =
         0.01156   -0.00122    0.00161   -0.00012
CL2   5    0.787110    0.611471    0.478666    11.00000    0.01360    0.01690 =
         0.01540   -0.00149    0.00185   -0.00535
C2    1    0.163952    0.534761    0.186165    11.00000    0.01563    0.02381 =
         0.01646    0.00293   -0.00188   -0.00165
AFIX 137
H2A   2    0.097631    0.576981    0.102759    11.00000   -1.50000
H2B   2    0.065420    0.523732    0.260892    11.00000   -1.50000
H2C   2    0.205835    0.466329    0.148101    11.00000   -1.50000
AFIX   0
C3    1    0.298727    0.725528    0.342488    11.00000    0.03040    0.01581 =
         0.01815    0.00083    0.00394    0.01003
AFIX 137
H3A   2    0.230560    0.766979    0.258937    11.00000   -1.50000
H3B   2    0.416714    0.765380    0.391635    11.00000   -1.50000
H3C   2    0.199068    0.710976    0.415307    11.00000   -1.50000
AFIX   0
HKLF 4

REM  test_a.res in P2(1)/n
REM R1 =  0.0174 for    1378 Fo > 4sig(Fo)  and  0.0202 for all    1490 data
REM     67 parameters refined using      0 restraints

END

WGHT      0.0208      0.2766

REM Highest difference peak  0.415,  deepest hole -0.168,  1-sigma level  0.048
Q1    1   0.5000  0.5000  0.5000  10.50000  0.05    0.41
Q2    1   0.2640  0.5744  0.2223  11.00000  0.05    0.36
Q3    1   0.4766  0.5597  0.3461  11.00000  0.05    0.35
Q4    1   0.4795  0.6196  0.1912  11.00000  0.05    0.33
Q5    1   0.3352  0.6638  0.3117  11.00000  0.05    0.30
Q6    1   0.6814  0.5651  0.4424  11.00000  0.05    0.19
Q7    1   0.6342  0.4571  0.3555  11.00000  0.05    0.19
Q8    1   0.2477  0.3966  0.0963  11.00000  0.05    0.17
Q9    1   0.7150  0.6758  0.4720  11.00000  0.05    0.15
Q10   1   0.6709  0.4417  0.2434  11.00000  0.05    0.15
Q11   1   0.2478  0.7396  0.3030  11.00000  0.05    0.14
Q12   1   0.3559  0.7651  0.3406  11.00000  0.05    0.14
Q13   1   0.5262  0.3998  0.4335  11.00000  0.05    0.14
Q14   1   0.2602  0.7213  0.3746  11.00000  0.05    0.13
Q15   1   0.9498  0.6054  0.4766  11.00000  0.05    0.12
Q16   1   0.1376  0.5121  0.2272  11.00000  0.05    0.12
Q17   1   0.7155  0.6740  0.0026  11.00000  0.05    0.11
Q18   1   0.1121  0.6878  0.2269  11.00000  0.05    0.11
Q19   1   0.8251  0.6033  0.0385  11.00000  0.05    0.11
Q20   1   0.2008  0.5140  0.1217  11.00000  0.05    0.11
;
_shelx_res_checksum              87517
_shelx_hkl_file
;
  -1   0   0    0.20    0.40
  -1   0   0   -0.70    0.80
   1   0   0   -0.50    0.80
  -1   0   0   -0.20    0.50
   1   0   0   -0.40    0.50
   1   0   0    0.10    0.30
  -1   0   0    0.50    0.90
   1   0   0   -0.80    1.20
  -1   0   0    0.40    0.60
   1   0   0   -0.10    0.40
   1   0   0    0.50    0.60
   1   0   0   -0.30    0.50
   2   0   0 1544.55   40.20
   2   0   0 1541.85   41.40
   2   0   0 1705.13   40.80
   2   0   0 1602.34   41.00
   2   0   0 1517.95   42.50
  -2   0   0 1611.74   40.70
   2   0   0 1568.24   40.80
   2   0   0 1612.04   40.10
  -2   0   0 1606.14   41.40
  -2   0   0 1595.54   42.40
  -2   0   0 1612.84   40.90
  -2   0   0 1582.64   42.50
   3   0   0    1.00    0.80
   3   0   0   -0.40    1.40
   3   0   0   -0.20    0.60
  -3   0   0   -2.90    2.20
   3   0   0    1.00    1.40
   3   0   0    0.60    1.90
   3   0   0   -0.50    0.60
  -3   0   0    0.60    1.00
   3   0   0   -0.90    1.00
   3   0   0   -3.80    2.30
  -3   0   0    0.20    1.60
  -3   0   0    0.30    1.10
  -3   0   0   -1.40    2.50
   4   0   0  575.84   17.40
  -4   0   0  561.94   16.20
   4   0   0  552.04   16.50
  -4   0   0  536.65   15.80
  -4   0   0  555.84   17.10
  -4   0   0  555.14   14.70
   4   0   0  545.05   16.00
   4   0   0  568.74   15.20
   4   0   0  541.25   19.70
  -4   0   0  552.44   14.70
  -4   0   0  557.94   19.40
  -4   0   0  557.84   19.30
   4   0   0  575.64   14.80
  -4   0   0  571.24   16.20
  -4   0   0  545.35   16.00
  -5   0   0    4.50    3.30
   5   0   0    7.10    3.60
  -5   0   0    1.60    3.50
   5   0   0    0.10    1.40
   5   0   0   -3.90    4.70
  -5   0   0    1.00    0.80
  -5   0   0    1.50    2.00
  -5   0   0    3.30    2.10
   5   0   0    1.90    1.30
  -5   0   0    0.10    1.20
   5   0   0   -0.60    3.10
  -5   0   0    0.20    0.90
   5   0   0    1.20    1.10
  -6   0   0   21.90    3.10
   6   0   0   13.80    6.40
  -6   0   0   15.80    3.00
   6   0   0   19.80    2.20
   6   0   0   14.80    4.90
   6   0   0   15.70    2.60
  -6   0   0   20.30    2.90
  -6   0   0   11.60    5.80
  -6   0   0   18.20    1.70
   6   0   0   26.90    5.50
  -6   0   0   17.50    5.20
  -6   0   0   17.40    1.70
   6   0   0   18.30    2.10
   7   0   0    1.20    2.10
   7   0   0   -0.30    5.80
  -7   0   0   -5.80    6.90
   7   0   0   -6.40    8.60
  -7   0   0    0.20    2.00
   7   0   0    0.10    2.70
  -8   0   0   11.20    7.50
   8   0   0   19.00   12.90
   8   0   0    0.70    3.60
   1  -1   0 2717.13   66.69
  -1  -1   0 2589.04   66.49
  -1  -1   0 2583.44   66.59
   1  -1   0 2684.53   65.79
  -1  -1   0 2499.25   65.79
  -1  -1   0 2709.93   66.79
  -1  -1   0 2597.34   66.99
  -1  -1   0 2616.74   66.39
   1   1   0 2589.84   66.99
   1   1   0 2481.65   66.49
   1   1   0 2539.05   66.49
   1   1   0 2643.14   66.69
  -1   1   0 2611.24   66.59
  -1   1   0 2701.03   65.79
   2  -1   0 2280.67   57.29
  -2  -1   0 2301.87   57.49
   2  -1   0 2360.06   57.59
  -2  -1   0 2315.77   57.49
   2  -1   0 2282.07   57.09
  -2  -1   0 2372.36   59.39
   2  -1   0 2269.87   59.09
  -2  -1   0 2169.58   58.09
  -2  -1   0 2401.16   59.59
  -2  -1   0 2205.58   58.49
  -2   1   0 2346.27   59.19
   2   1   0 2288.07   57.29
   2   1   0 2244.18   58.19
  -2   1   0 1944.61   57.29
   2   1   0 2148.58   59.39
  -2   1   0 2295.47   57.49
   2   1   0 2204.58   57.09
   2   1   0 2318.87   56.99
   2   1   0 2218.48   58.19
   2   1   0 2122.29   58.49
  -2   1   0 2308.57   57.49
  -3  -1   0   15.30    1.60
   3  -1   0   15.80    1.50
  -3  -1   0   14.60    1.90
  -3  -1   0   17.60    2.40
   3  -1   0   14.00    3.40
  -3  -1   0   22.70    3.80
  -3  -1   0    9.00    3.30
   3  -1   0   15.80    1.10
  -3  -1   0   16.60    1.50
   3  -1   0   15.10    1.70
  -3  -1   0   13.70    2.50
   3  -1   0   14.40    2.10
   3  -1   0   14.80    1.60
  -3   1   0   14.00    2.10
   3   1   0   15.60    1.80
   3   1   0   15.10    2.30
  -3   1   0   13.20    1.00
   3   1   0   14.70    1.50
  -3   1   0   14.60    3.50
   3   1   0   16.80    1.80
  -3   1   0   17.20    1.90
   3   1   0   14.90    2.40
   3   1   0   14.70    1.40
   3   1   0   21.90    3.80
   3   1   0   17.70    2.90
  -3   1   0   18.60    2.10
   4  -1   0  490.25   14.40
   4  -1   0  513.65   14.50
  -4  -1   0  518.05   18.30
  -4  -1   0  507.05   15.10
  -4  -1   0  510.65   14.00
  -4  -1   0  432.66   19.30
   4  -1   0  468.85   16.70
   4  -1   0  525.45   14.90
   4  -1   0  539.65   13.50
   4  -1   0  513.15   14.80
   4  -1   0  521.05   13.50
  -4  -1   0  595.54   17.50
  -4  -1   0  467.55   18.40
  -4  -1   0  580.54   24.30
   4  -1   0  513.85   18.60
  -4  -1   0  520.25   16.00
  -4   1   0  518.15   14.20
  -4   1   0  520.95   13.30
  -4   1   0  472.85   17.70
   4   1   0  500.05   14.90
  -4   1   0  527.75   14.40
   4   1   0  515.25   18.70
   4   1   0  515.65   15.90
   4   1   0  528.15   14.00
  -4   1   0  521.95   13.40
   4   1   0  512.75   16.30
   4   1   0  528.25   16.90
   4   1   0  529.85   14.00
  -4   1   0  496.55   15.00
   4   1   0  531.55   14.40
  -4   1   0  519.35   15.50
   5  -1   0  897.51   25.00
  -5  -1   0  845.52   25.70
   5  -1   0  900.81   29.90
   5  -1   0  904.81   23.70
   5  -1   0  913.61   25.90
  -5  -1   0  872.81   30.00
   5  -1   0  906.31   23.30
  -5  -1   0  898.91   29.60
  -5  -1   0  880.81   26.90
  -5  -1   0  867.01   24.80
  -5  -1   0  874.21   25.30
  -5  -1   0  899.71   23.60
   5  -1   0  891.01   25.20
   5   1   0  974.50   27.40
   5   1   0  906.61   30.20
  -5   1   0  856.11   25.10
   5   1   0  899.61   24.20
  -5   1   0  808.22   28.70
  -5   1   0  914.71   23.80
   5   1   0  915.11   25.20
  -5   1   0  892.31   23.60
   5   1   0  929.81   27.50
   5   1   0  925.61   23.90
   6  -1   0    5.80    4.20
  -6  -1   0    3.90    3.20
   6  -1   0   -1.60    4.00
   6  -1   0    3.60    1.90
  -6  -1   0    1.40    4.90
   6  -1   0    4.10    1.50
  -6  -1   0    4.50    1.30
  -6  -1   0    2.70    1.70
   6  -1   0    7.50    6.50
   6  -1   0    3.50    1.50
  -6  -1   0    4.80    1.40
  -6  -1   0    9.90    5.20
  -6  -1   0    5.50    3.40
   6   1   0    5.00    2.00
   6   1   0    3.40    2.00
   6   1   0   -1.70    5.40
  -6   1   0    5.10    3.90
   6   1   0    0.20    4.80
   6   1   0    1.40    1.80
  -6   1   0    3.80    1.90
   6   1   0   -3.40    6.10
   7  -1   0  323.77   20.20
   7  -1   0  350.66   14.20
  -7  -1   0  323.67    9.40
  -7  -1   0  341.77   12.20
   7  -1   0  315.37   12.00
  -7  -1   0  324.97   12.10
  -7  -1   0  322.47    9.40
   7  -1   0  320.47   10.10
   7   1   0  347.37   12.20
   7   1   0  348.57   21.70
  -7   1   0  307.67   22.40
  -7   1   0  307.67   14.20
   7   1   0  333.37   10.90
   7   1   0  351.76   16.70
  -8  -1   0   70.99    6.60
   8  -1   0   96.99    7.40
  -8  -1   0   89.29   11.90
   8  -1   0   95.79   15.50
   8   1   0   81.69    7.20
  -8   1   0   85.49    6.80
   8   1   0   94.99   15.60
  -8   1   0   99.39   13.10
   0  -2   0 1744.53   46.00
   0  -2   0 1862.11   46.00
   0  -2   0 1868.81   46.80
   0  -2   0 1840.72   46.90
   0  -2   0 1757.42   46.90
   0  -2   0 1841.62   46.90
   0  -2   0 1758.12   46.00
   0  -2   0 1789.02   47.00
   0  -2   0 1850.51   46.80
   0  -2   0 1838.32   46.00
   0   2   0 1771.12   46.00
   0   2   0 1828.92   46.80
   0   2   0 1896.61   46.80
   0   2   0 1806.92   46.90
   0   2   0 1820.82   47.00
   0   2   0 1871.91   46.00
  -1  -2   0  287.77    9.40
   1  -2   0  308.47    7.70
   1  -2   0  309.37    7.70
   1  -2   0  287.57    8.50
   1  -2   0  301.47    7.80
   1  -2   0  303.57    7.80
  -1  -2   0  301.07    9.40
   1  -2   0  308.87    8.30
  -1  -2   0  305.97    8.10
  -1  -2   0  286.57    8.20
  -1  -2   0  272.67    9.40
   1  -2   0  303.47    8.20
   1  -2   0  292.97    8.40
  -1   2   0  301.07    9.10
   1   2   0  305.87    8.20
  -1   2   0  302.97    8.10
   1   2   0  291.17    8.20
   1   2   0  288.67    9.30
   1   2   0  280.37    8.10
   1   2   0  294.77    9.50
   1   2   0  302.07    8.10
   1   2   0  295.57    9.40
   1   2   0  311.47    9.50
  -2  -2   0    4.20    1.80
  -2  -2   0    7.10    2.00
   2  -2   0    3.60    1.00
   2  -2   0    3.70    0.50
  -2  -2   0    3.70    0.90
  -2  -2   0    3.40    0.70
  -2  -2   0    4.20    1.70
  -2  -2   0    2.10    1.80
   2  -2   0    4.10    0.80
  -2  -2   0    3.00    0.80
   2   2   0    2.80    0.80
   2   2   0    2.30    0.70
   2   2   0    3.80    1.70
   2   2   0    3.70    0.70
   2   2   0    3.60    1.90
   2   2   0    2.70    1.50
  -2   2   0    4.20    0.80
   2   2   0    3.20    2.00
   2   2   0    3.70    0.90
  -2   2   0    3.50    0.40
  -2   2   0    6.60    1.00
  -2   2   0    7.60    2.10
  -3  -2   0 2079.69   52.89
  -3  -2   0 1996.40   52.89
   3  -2   0 1973.10   55.19
  -3  -2   0 2075.99   54.89
   3  -2   0 2052.19   52.69
   3  -2   0 1997.00   51.99
  -3  -2   0 1975.50   52.29
  -3  -2   0 1914.11   55.39
   3  -2   0 2101.09   52.79
  -3  -2   0 2133.49   56.19
   3  -2   0 2065.49   51.49
  -3  -2   0 1998.30   54.19
   3   2   0 2087.79   52.29
  -3   2   0 2083.29   52.89
   3   2   0 2063.09   52.69
  -3   2   0 2135.09   55.59
   3   2   0 2072.49   56.19
   3   2   0 2030.30   52.29
   3   2   0 2016.80   54.89
   3   2   0 2080.89   52.99
   3   2   0 2143.59   54.49
   3   2   0 2056.39   54.49
  -3   2   0 2000.90   51.79
  -4  -2   0  241.68    9.70
  -4  -2   0  231.28   11.20
  -4  -2   0  235.18   10.30
  -4  -2   0  228.98    8.10
  -4  -2   0  237.98    7.40
  -4  -2   0  245.08    8.10
   4  -2   0  239.18    7.10
  -4  -2   0  244.08   12.00
   4  -2   0  241.98    8.40
  -4  -2   0  245.68    7.40
   4  -2   0  242.88    8.00
   4  -2   0  238.18    7.50
   4  -2   0  253.37   11.70
  -4  -2   0  262.97   10.00
   4   2   0  249.78   10.60
   4   2   0  248.48    7.80
  -4   2   0  222.88    8.00
  -4   2   0  227.88   10.90
   4   2   0  244.88    8.20
   4   2   0  252.67    7.40
   4   2   0  218.48   10.20
   4   2   0  245.18   12.00
   4   2   0  232.48    9.60
  -5  -2   0 1435.76   37.90
   5  -2   0 1469.25   38.60
   5  -2   0 1401.86   39.50
   5  -2   0 1435.26   37.60
   5  -2   0 1477.25   39.00
  -5  -2   0 1417.76   43.60
  -5  -2   0 1451.75   41.60
   5  -2   0 1470.95   43.90
  -5  -2   0 1504.05   40.80
   5  -2   0 1488.05   37.10
  -5  -2   0 1518.45   40.60
  -5  -2   0 1486.85   37.90
  -5  -2   0 1418.76   39.30
   5   2   0 1437.36   41.50
  -5   2   0 1452.55   39.20
  -5   2   0 1426.86   43.40
   5   2   0 1447.66   39.20
   5   2   0 1474.75   38.50
   5   2   0 1445.36   42.00
   5   2   0 1431.96   38.00
   5   2   0 1438.26   44.40
  -6  -2   0   15.70    4.20
   6  -2   0   14.60    1.70
   6  -2   0    8.90    2.40
   6  -2   0   11.80    4.00
   6  -2   0    8.10    3.80
  -6  -2   0   15.60    1.90
   6  -2   0   11.70    1.60
   6  -2   0   10.40    7.00
  -6  -2   0    8.60    5.10
  -6  -2   0    8.00    2.20
  -6  -2   0    6.90    5.60
   6   2   0   16.10    6.60
   6   2   0   11.00    2.30
   6   2   0    9.70    5.30
  -6   2   0    7.40    2.10
  -6   2   0   12.40    5.50
   6   2   0   10.70    2.30
  -7  -2   0  107.09    9.80
  -7  -2   0  101.79    4.90
  -7  -2   0  108.29    4.70
   7  -2   0  109.89    6.50
   7  -2   0  125.79   13.80
  -7  -2   0   93.79    9.10
   7   2   0  107.19    6.50
   7   2   0  105.39   10.40
   7   2   0  105.59    6.00
   7   2   0   92.09   13.40
   7   2   0  104.59   10.40
   7   2   0  107.29    5.20
  -8  -2   0   -1.20    5.20
  -8  -2   0    2.90    7.20
  -8  -2   0    0.60    1.90
  -8  -2   0    4.60    1.90
   8  -2   0   -2.90   11.50
  -8  -2   0   -1.30    2.80
   8  -2   0   -1.60    3.30
  -8  -2   0    3.30    5.50
   8   2   0   -0.30    3.60
   8   2   0   17.60   12.30
  -8   2   0   -2.80    7.50
  -8   2   0    1.80    2.60
   0  -3   0    0.40    0.50
   0  -3   0   -0.10    0.60
   0  -3   0    0.70    1.40
   0  -3   0    0.60    0.40
   0  -3   0    0.10    0.50
   0  -3   0    0.10    0.70
   0  -3   0    0.00    1.20
   0  -3   0    0.50    1.20
   0  -3   0    0.10    1.10
   0  -3   0   -1.90    1.10
   0   3   0    0.20    0.50
   0   3   0    0.40    0.50
   0   3   0    0.20    0.40
   0   3   0    1.40    1.10
   0   3   0   -0.70    1.30
   0   3   0    1.60    1.20
   0   3   0    0.30    0.50
   0   3   0    0.80    1.30
   1  -3   0  528.15   14.20
   1  -3   0  525.15   13.50
  -1  -3   0  496.65   15.40
   1  -3   0  510.05   14.40
   1  -3   0  509.65   13.40
   1  -3   0  529.55   13.30
  -1  -3   0  513.95   15.50
   1  -3   0  512.55   14.60
  -1  -3   0  489.65   13.70
  -1  -3   0  518.35   15.50
   1  -3   0  504.55   14.90
  -1  -3   0  513.75   13.70
  -1  -3   0  518.05   15.30
   1  -3   0  531.45   14.50
  -1  -3   0  490.65   15.30
  -1  -3   0  538.25   13.90
  -1  -3   0  476.05   13.80
  -1  -3   0  514.05   13.80
  -1  -3   0  488.85   15.50
  -1  -3   0  524.95   13.70
   1  -3   0  497.85   13.40
   1  -3   0  516.55   13.40
   1   3   0  528.25   15.70
  -1   3   0  511.75   14.30
  -1   3   0  504.45   13.40
   1   3   0  499.35   15.30
  -1   3   0  524.55   13.10
   1   3   0  504.45   15.40
  -1   3   0  519.15   13.80
   1   3   0  517.25   13.90
   1   3   0  502.95   13.70
   1   3   0  530.55   13.70
   1   3   0  505.55   15.30
   1   3   0  480.45   13.70
   1   3   0  525.15   15.50
  -1   3   0  510.45   13.20
  -1   3   0  512.65   14.60
  -1   3   0  517.95   14.00
  -1   3   0  519.15   13.50
   1   3   0  514.25   13.80
  -2  -3   0 3079.39   75.89
  -2  -3   0 2859.71   75.69
  -2  -3   0 2957.40   75.89
  -2  -3   0 3057.89   78.09
   2  -3   0 3069.79   75.69
  -2  -3   0 2936.11   77.99
  -2  -3   0 2843.32   76.49
   2  -3   0 3028.50   75.39
  -2  -3   0 2923.71   80.19
   2  -3   0 2791.72   76.29
  -2  -3   0 2987.50   75.59
  -2  -3   0 2876.91   77.69
  -2  -3   0 2803.52   75.69
  -2  -3   0 2996.50   77.89
   2  -3   0 3020.90   74.99
  -2  -3   0 3021.20   77.69
   2  -3   0 3038.70   75.89
  -2   3   0 3051.79   77.59
   2   3   0 3047.00   75.59
   2   3   0 3014.10   78.49
   2   3   0 3029.40   77.79
  -2   3   0 2988.90   75.69
   2   3   0 2984.60   77.69
   2   3   0 3078.39   75.69
   2   3   0 3033.90   77.89
   2   3   0 3039.40   75.89
   2   3   0 2945.11   75.69
   2   3   0 2942.81   75.89
   2   3   0 3052.99   78.19
  -3  -3   0   56.89    5.70
  -3  -3   0   60.19    5.60
   3  -3   0   56.99    2.90
   3  -3   0   61.79    2.10
  -3  -3   0   67.39    5.30
  -3  -3   0   62.69    6.90
  -3  -3   0   67.29    3.40
   3  -3   0   65.49    2.80
  -3  -3   0   69.49    5.40
  -3  -3   0   65.49    3.10
  -3  -3   0   61.29    3.00
   3  -3   0   62.19    3.40
   3   3   0   59.39    5.70
  -3   3   0   74.09    5.60
   3   3   0   63.79    3.00
   3   3   0   73.39    5.50
   3   3   0   60.49    3.20
   3   3   0   57.39    3.20
  -3   3   0   60.09    3.10
   3   3   0   61.89    5.10
   3   3   0   70.59    6.20
   3   3   0   63.89    5.60
   3   3   0   63.89    2.90
  -3   3   0   64.39    2.70
   3   3   0   64.09    3.10
  -4  -3   0  499.35   15.00
   4  -3   0  503.45   18.20
   4  -3   0  512.45   14.70
  -4  -3   0  502.35   17.70
   4  -3   0  514.85   14.60
  -4  -3   0  518.15   14.40
  -4  -3   0  507.45   18.50
  -4  -3   0  506.35   17.10
   4  -3   0  503.15   13.80
  -4  -3   0  519.15   17.10
  -4  -3   0  497.25   14.30
   4   3   0  504.45   14.30
   4   3   0  504.95   17.70
  -4   3   0  485.25   14.70
   4   3   0  518.85   18.10
  -4   3   0  509.35   17.90
   4   3   0  513.35   14.70
   4   3   0  500.45   19.20
   4   3   0  511.15   15.00
  -5  -3   0  103.99    9.30
   5  -3   0  106.49    5.20
   5  -3   0  109.09    3.60
  -5  -3   0   99.99    4.50
  -5  -3   0   97.99    5.10
  -5  -3   0   99.69    4.40
   5  -3   0  115.29    5.80
   5  -3   0  109.29    5.10
  -5  -3   0  106.39    7.80
  -5  -3   0  115.19    8.20
   5  -3   0  109.09   10.20
  -5  -3   0   99.29    9.10
   5  -3   0  104.59    3.40
   5   3   0   97.39   10.30
   5   3   0  108.99    8.60
  -5   3   0   95.19    8.30
   5   3   0  104.19    4.50
   5   3   0   93.29    9.30
   5   3   0   98.39    4.90
   5   3   0   99.89    5.10
   5   3   0  103.89    9.30
  -5   3   0  109.19    5.10
   5   3   0  103.69    4.80
  -6  -3   0  115.59    5.00
   6  -3   0  113.99    6.30
  -6  -3   0  112.59   10.60
  -6  -3   0  117.79    5.00
   6  -3   0  106.29    6.00
   6  -3   0  115.79    3.90
   6  -3   0  115.89    4.10
  -6  -3   0  108.89    9.20
  -6  -3   0  119.19    9.20
  -6  -3   0  109.89    5.80
   6  -3   0  108.89    7.10
   6  -3   0  103.69   11.10
  -6  -3   0  117.49   11.90
  -6   3   0  112.79    5.70
   6   3   0  111.79    5.60
   6   3   0  113.49    5.80
   6   3   0  109.29    5.10
   6   3   0  106.09   11.00
   6   3   0  114.09   13.00
  -6   3   0  116.39   10.00
   6   3   0  122.59   11.10
   6   3   0  123.49    6.10
   7  -3   0  172.08    8.10
   7  -3   0  158.38   15.10
  -7  -3   0  179.08   11.70
  -7  -3   0  169.68    6.50
  -7  -3   0  135.49   14.30
  -7  -3   0  151.58    8.70
  -7   3   0  118.39   17.20
   7   3   0  168.78    7.70
   7   3   0  173.08    7.10
   7   3   0  165.18   14.70
  -7   3   0  152.18    9.10
   7   3   0  175.78   18.10
   7   3   0  179.78   15.40
   7   3   0  172.58    8.20
  -8  -3   0   40.10    4.90
   8  -3   0   83.79   13.90
   8  -3   0   63.49    6.80
  -8  -3   0   16.40    7.70
  -8  -3   0   36.10    8.40
  -8   3   0   40.70    5.00
   8   3   0   57.49    5.60
   8   3   0   56.69   14.70
  -8   3   0   48.50   10.20
   0  -4   0 5208.28  131.89
   0  -4   0 4883.91  131.89
   0  -4   0 5013.10  133.79
   0  -4   0 5301.87  133.79
   0  -4   0 5428.26  133.79
   0  -4   0 5272.97  133.89
   0  -4   0 5185.98  133.39
   0  -4   0 5462.95  133.69
   0  -4   0 4917.11  131.79
   0   4   0 5464.05  133.89
   0   4   0 5449.45  133.49
   0   4   0 5386.46  133.69
   0   4   0 4829.42  131.59
   0   4   0 5529.65  133.49
   1  -4   0  400.56   10.70
  -1  -4   0  389.16   11.00
  -1  -4   0  406.16   13.00
  -1  -4   0  393.56   13.10
  -1  -4   0  401.76   11.00
  -1  -4   0  378.56   11.10
   1  -4   0  393.76   12.10
   1  -4   0  404.76   12.50
  -1  -4   0  380.46   13.20
  -1  -4   0  388.96   11.00
  -1  -4   0  407.66   11.20
   1  -4   0  392.66   10.70
   1  -4   0  389.16   10.70
  -1  -4   0  411.86   11.00
   1  -4   0  384.96   12.20
   1  -4   0  419.56   12.50
   1  -4   0  389.36   11.90
   1  -4   0  393.66   10.50
  -1  -4   0  384.96   13.10
  -1  -4   0  397.56   13.10
   1  -4   0  404.56   10.70
  -1  -4   0  383.46   13.20
  -1   4   0  403.46   10.50
  -1   4   0  405.36   10.40
  -1   4   0  382.16   10.60
   1   4   0  370.26   10.90
   1   4   0  400.16   11.00
   1   4   0  364.76   12.70
   1   4   0  380.16   13.10
  -1   4   0  392.86   10.80
   1   4   0  392.36   13.10
  -1   4   0  393.76   12.40
  -1   4   0  378.96   11.90
  -1   4   0  404.36   11.50
   1   4   0  379.56   12.80
  -1   4   0  380.56   11.70
  -2  -4   0  252.37   10.20
  -2  -4   0  260.27    7.80
  -2  -4   0  247.98    7.90
  -2  -4   0  261.37   10.40
   2  -4   0  251.27    7.20
   2  -4   0  264.17    8.20
  -2  -4   0  264.67    8.10
   2  -4   0  271.17    8.50
   2  -4   0  273.67    8.80
   2  -4   0  250.77    8.50
  -2  -4   0  270.07   10.50
  -2  -4   0  244.88   10.40
   2  -4   0  263.37    7.20
  -2  -4   0  251.67    8.00
   2  -4   0  259.37    7.30
   2  -4   0  270.67    7.00
   2   4   0  252.47    8.00
   2   4   0  257.87   10.80
   2   4   0  263.17    9.00
   2   4   0  263.87    8.20
   2   4   0  249.88    7.80
   2   4   0  248.48   10.60
  -2   4   0  258.57    9.70
  -2   4   0  258.47    7.80
  -3  -4   0  615.24   20.20
  -3  -4   0  605.24   17.00
  -3  -4   0  618.64   17.30
  -3  -4   0  613.04   20.20
   3  -4   0  618.54   15.90
  -3  -4   0  598.24   19.60
   3  -4   0  627.24   15.80
   3  -4   0  623.54   15.90
  -3  -4   0  590.14   16.90
   3  -4   0  599.54   17.00
   3  -4   0  609.64   16.70
   3  -4   0  606.04   17.00
  -3  -4   0  599.44   19.80
   3  -4   0  601.04   16.90
   3  -4   0  603.64   15.90
   3   4   0  613.14   20.80
   3   4   0  621.74   16.90
   3   4   0  624.54   20.40
  -3   4   0  604.04   17.00
   3   4   0  606.74   16.80
   3   4   0  647.54   20.30
   3   4   0  606.84   19.90
  -3   4   0  593.34   19.60
   3   4   0  611.74   17.30
   3   4   0  633.04   17.30
   4  -4   0  179.28    5.60
   4  -4   0  182.58    6.50
   4  -4   0  181.48    5.10
  -4  -4   0  188.48    9.60
   4  -4   0  179.28    6.20
  -4  -4   0  181.38    6.40
   4  -4   0  187.58    6.50
  -4  -4   0  178.28    6.30
   4  -4   0  172.78   10.10
  -4  -4   0  181.48    6.80
  -4  -4   0  177.78   10.00
  -4  -4   0  181.18    9.40
  -4  -4   0  207.18   10.80
   4   4   0  165.08    9.70
   4   4   0  181.18    6.80
  -4   4   0  196.08    9.70
  -4   4   0  182.48    6.60
   4   4   0  182.88    6.30
   4   4   0  182.98    6.40
   4   4   0  174.88   10.90
   4   4   0  189.48   10.70
   4   4   0  175.48   10.30
   4   4   0  178.78    6.80
  -5  -4   0  456.45   19.30
  -5  -4   0  466.95   17.80
  -5  -4   0  469.15   15.00
   5  -4   0  495.05   14.10
  -5  -4   0  475.45   17.70
   5  -4   0  469.05   14.50
   5  -4   0  484.95   13.80
  -5  -4   0  475.55   14.10
   5  -4   0  471.35   19.50
  -5  -4   0  485.75   14.20
  -5  -4   0  475.35   19.10
   5  -4   0  482.55   12.60
   5   4   0  485.25   14.20
   5   4   0  477.45   18.70
   5   4   0  477.45   14.60
   5   4   0  489.95   19.10
   5   4   0  485.75   19.50
   5   4   0  480.65   14.90
   5   4   0  487.85   14.40
  -5   4   0  470.45   18.60
  -5   4   0  482.15   14.80
  -6  -4   0    1.80    1.80
   6  -4   0    3.50    3.60
  -6  -4   0   -4.10    6.80
   6  -4   0    2.90    2.30
   6  -4   0   -4.70    6.60
  -6  -4   0    7.70    5.10
   6  -4   0    3.20    1.30
  -6  -4   0    0.30    4.70
  -6  -4   0    1.50    4.50
  -6  -4   0    6.70    1.70
   6   4   0    1.40    6.40
  -6   4   0   -5.00    4.70
   6   4   0    2.60    2.20
   6   4   0    5.60    8.10
  -6   4   0    0.90    1.60
   6   4   0   -2.80    5.90
   6   4   0    4.30    1.70
   6   4   0    1.70    2.60
  -7  -4   0    3.70    6.90
  -7  -4   0    3.40    2.70
  -7  -4   0   11.50    6.70
   7  -4   0    5.30    2.80
   7  -4   0    1.40    9.60
  -7  -4   0    4.80    2.20
  -7  -4   0   11.70    6.30
  -7  -4   0   -1.80    2.10
   7   4   0    7.60    2.60
   7   4   0  -10.90   10.10
  -7   4   0    4.50    3.00
   7   4   0   11.00    8.20
   7   4   0    4.20    3.00
   7   4   0    1.70    8.10
  -7   4   0    9.40    7.00
   7   4   0   10.80    3.40
   0  -5   0    1.90    1.00
   0  -5   0    0.70    0.70
   0  -5   0    4.10    2.20
   0  -5   0    0.70    0.60
   0  -5   0    0.60    1.70
   0  -5   0    0.90    0.70
   0  -5   0   -0.50    1.70
   0  -5   0    1.50    0.50
   0  -5   0    1.90    2.00
   0  -5   0    0.60    1.90
   0   5   0    1.40    0.70
   0   5   0    0.80    0.60
   0   5   0    1.10    0.80
   0   5   0   -0.90    1.50
   0   5   0    1.80    1.80
   0   5   0    3.50    0.80
   0   5   0    2.80    2.40
   0   5   0    0.90    2.00
  -1  -5   0 1030.40   29.60
  -1  -5   0 1001.80   29.70
   1  -5   0 1038.70   28.90
   1  -5   0 1035.00   26.70
   1  -5   0 1052.09   28.90
   1  -5   0 1035.60   28.90
   1  -5   0 1027.70   26.70
  -1  -5   0 1042.70   29.80
  -1  -5   0  978.90   26.90
   1  -5   0  981.80   28.50
   1  -5   0 1020.20   28.50
   1  -5   0 1042.10   26.50
  -1  -5   0 1021.50   29.80
  -1  -5   0 1045.00   27.20
  -1  -5   0 1044.10   29.80
  -1  -5   0 1043.20   29.60
   1  -5   0 1053.49   26.80
  -1  -5   0 1067.09   27.00
  -1  -5   0 1031.30   26.90
   1  -5   0 1019.70   26.70
  -1  -5   0 1013.40   27.10
  -1  -5   0 1040.70   27.10
   1  -5   0  999.70   28.40
   1  -5   0  994.50   26.80
   1   5   0 1011.60   29.80
  -1   5   0 1023.00   27.80
   1   5   0  999.80   29.70
   1   5   0  993.40   26.90
   1   5   0  974.40   29.20
  -1   5   0 1043.00   26.50
  -1   5   0 1041.90   28.50
  -1   5   0 1013.80   28.20
   1   5   0 1011.00   26.90
   1   5   0 1013.50   27.00
   1   5   0  977.20   29.30
   1   5   0 1027.90   27.20
  -1   5   0 1031.10   26.70
  -1   5   0 1029.30   26.30
  -2  -5   0   17.80    2.00
  -2  -5   0   14.70    3.60
   2  -5   0   22.00    2.70
   2  -5   0   19.10    2.70
  -2  -5   0   17.20    3.70
  -2  -5   0   14.50    1.60
   2  -5   0   16.40    1.50
   2  -5   0   18.00    1.50
   2  -5   0   19.50    2.80
   2  -5   0   17.40    1.30
  -2  -5   0    6.60    3.10
  -2  -5   0   13.40    1.70
  -2  -5   0   16.20    1.80
   2  -5   0   17.40    2.50
  -2  -5   0   15.70    3.40
   2  -5   0   16.40    1.70
   2   5   0   11.10    1.50
   2   5   0   12.20    3.70
   2   5   0   14.90    1.60
   2   5   0   20.70    2.00
   2   5   0   21.50    3.70
   2   5   0   13.10    3.20
   2   5   0   16.30    2.00
  -3  -5   0  364.76   14.30
  -3  -5   0  360.86   11.10
   3  -5   0  383.76   11.40
   3  -5   0  366.56   11.50
  -3  -5   0  357.26   11.20
  -3  -5   0  361.26   11.20
  -3  -5   0  362.16   14.20
  -3  -5   0  365.06   14.60
   3  -5   0  369.06   11.90
   3  -5   0  370.06   10.10
   3  -5   0  371.46    9.90
  -3  -5   0  372.56   14.40
   3  -5   0  375.26   10.10
   3   5   0  355.86   14.90
   3   5   0  371.26   11.30
   3   5   0  389.46   15.00
   3   5   0  369.86   11.10
  -3   5   0  369.56   11.00
   3   5   0  355.56   14.80
   3   5   0  369.06   11.40
   3   5   0  358.76   14.20
   3   5   0  371.66   11.00
  -3   5   0  382.76   13.70
   4  -5   0    7.10    2.20
  -4  -5   0    6.40    4.10
   4  -5   0    7.90    1.00
  -4  -5   0   10.20    3.90
   4  -5   0    8.80    2.20
  -4  -5   0    8.50    1.70
   4  -5   0    6.80    0.90
  -4  -5   0    6.90    1.60
   4  -5   0    4.80    2.20
   4  -5   0    7.10    0.80
   4  -5   0    5.00    1.70
   4  -5   0    5.80    1.60
   4  -5   0    6.90    0.80
  -4  -5   0    7.30    1.50
  -4  -5   0   10.10    3.90
  -4  -5   0   13.20    4.60
   4   5   0    6.10    1.70
   4   5   0    5.50    1.40
   4   5   0    5.50    1.30
   4   5   0    7.00    1.90
  -4   5   0    7.80    4.10
   4   5   0    5.00    4.10
   4   5   0    5.10    4.40
  -4   5   0    8.20    1.70
   4   5   0    3.10    4.00
  -5  -5   0 1017.10   27.90
   5  -5   0 1025.10   26.20
  -5  -5   0 1054.39   28.00
  -5  -5   0 1077.99   32.40
  -5  -5   0  999.50   33.20
   5  -5   0 1022.80   33.10
  -5  -5   0 1003.80   32.20
   5  -5   0 1018.40   28.10
  -5  -5   0  977.20   33.30
   5  -5   0 1020.00   27.70
  -5  -5   0  980.90   28.70
   5   5   0  999.00   28.60
   5   5   0 1019.70   32.90
   5   5   0 1008.10   33.80
   5   5   0 1058.49   28.10
  -5   5   0  988.40   28.40
  -5   5   0  986.60   32.80
   5   5   0 1040.30   28.00
   5   5   0 1057.09   28.60
   5   5   0 1004.60   33.10
  -6  -5   0   -0.60    2.00
   6  -5   0    6.30    3.60
   6  -5   0    1.20    1.40
  -6  -5   0   -8.90    5.30
  -6  -5   0   -1.00    5.50
  -6  -5   0   -3.40    5.30
  -6  -5   0    4.20    2.00
   6  -5   0    7.00    7.20
   6  -5   0    6.20    2.20
  -6   5   0    6.80    2.00
   6   5   0    4.20    2.00
   6   5   0    1.50    6.90
   6   5   0    1.70    8.80
  -6   5   0    2.90    5.40
   6   5   0    1.10    2.40
   6   5   0    1.70    2.80
   6   5   0    3.80    6.60
  -7  -5   0  952.70   35.50
   7  -5   0  918.71   36.00
  -7  -5   0  956.30   26.60
  -7  -5   0  932.31   28.40
   7  -5   0  931.31   27.50
  -7  -5   0  979.10   32.60
   7   5   0  987.90   35.40
   7   5   0  933.31   28.70
   7   5   0  952.40   34.70
  -7   5   0  896.71   34.10
  -7   5   0  901.91   27.90
   7   5   0  952.60   26.90
   7   5   0  974.80   27.70
   0  -6   0 3402.56   91.69
   0  -6   0 3427.26   88.79
   0  -6   0 3491.35   88.79
   0  -6   0 3455.25   88.69
   0  -6   0 3418.66   91.39
   0  -6   0 3519.05   91.29
   0  -6   0 3389.56   88.79
   0  -6   0 3484.05   91.49
   0  -6   0 3494.75   91.39
   0  -6   0 3555.94   91.89
   0  -6   0 3538.45   88.59
   0   6   0 3510.75   88.39
   0   6   0 3514.55   88.79
   0   6   0 3545.65   91.49
   0   6   0 3537.95   88.59
   0   6   0 3416.76   88.49
   0   6   0 3632.44   91.59
   0   6   0 3495.85   90.89
   0   6   0 3453.45   91.09
   1  -6   0  245.38   10.10
  -1  -6   0  242.68    8.00
   1  -6   0  244.68    7.60
   1  -6   0  223.48    9.80
   1  -6   0  241.48    7.40
  -1  -6   0  239.68   10.80
  -1  -6   0  241.58   10.80
   1  -6   0  241.88    9.80
  -1  -6   0  254.87    7.70
  -1  -6   0  237.58    7.80
  -1  -6   0  249.18   10.80
   1  -6   0  255.17    7.70
  -1  -6   0  247.08    7.90
   1  -6   0  245.08    7.40
  -1  -6   0  244.88   10.50
   1  -6   0  243.28    7.50
  -1  -6   0  244.48   10.90
   1  -6   0  231.28    9.90
   1  -6   0  250.77   10.00
   1  -6   0  238.18    9.80
   1  -6   0  241.28    7.50
  -1   6   0  243.48    7.50
   1   6   0  244.28   10.70
   1   6   0  251.87    7.80
   1   6   0  240.78   10.70
  -1   6   0  238.28    9.70
  -1   6   0  246.58    8.90
   1   6   0  237.38    7.60
  -1   6   0  256.07    7.30
   1   6   0  228.08   10.00
  -1   6   0  248.98    7.10
  -1   6   0  251.27    9.50
   1   6   0  250.07    8.00
  -2  -6   0  620.64   20.80
   2  -6   0  609.74   16.50
   2  -6   0  594.64   16.50
   2  -6   0  629.74   18.50
   2  -6   0  613.24   16.30
  -2  -6   0  594.04   17.30
  -2  -6   0  595.94   20.40
  -2  -6   0  607.94   17.30
   2  -6   0  610.44   16.50
   2  -6   0  610.74   19.00
   2  -6   0  613.74   16.70
  -2  -6   0  571.44   20.40
  -2  -6   0  601.94   17.10
   2  -6   0  612.64   18.70
   2  -6   0  607.24   19.30
   2  -6   0  613.94   18.60
   2  -6   0  625.04   18.60
   2  -6   0  628.54   16.60
   2   6   0  627.24   17.10
   2   6   0  605.04   17.50
   2   6   0  606.44   20.90
  -2   6   0  633.44   15.80
   2   6   0  593.04   20.40
  -2   6   0  618.34   17.00
  -2   6   0  621.14   15.80
  -2   6   0  618.74   16.80
   2   6   0  580.14   17.10
   2   6   0  616.34   20.40
   3  -6   0 1185.98   30.00
   3  -6   0 1179.38   31.80
   3  -6   0 1167.48   30.20
  -3  -6   0 1150.48   34.90
   3  -6   0 1185.28   32.60
   3  -6   0 1169.58   30.10
  -3  -6   0 1167.38   31.30
   3  -6   0 1184.78   30.10
  -3  -6   0 1099.79   31.20
   3  -6   0 1204.08   32.00
  -3  -6   0 1150.48   35.20
   3  -6   0 1146.79   31.90
   3  -6   0 1162.48   30.10
   3  -6   0 1179.58   32.00
   3   6   0 1155.28   35.70
   3   6   0 1179.08   31.10
   3   6   0 1152.58   31.30
   3   6   0 1086.59   35.20
   3   6   0 1147.69   31.30
  -3   6   0 1189.28   34.10
   3   6   0 1141.89   35.00
   3   6   0 1147.29   35.60
   3   6   0 1158.08   31.60
  -3   6   0 1156.18   31.00
   4  -6   0  531.75   14.00
   4  -6   0  538.75   15.60
   4  -6   0  533.65   15.80
  -4  -6   0  527.95   15.60
   4  -6   0  521.75   15.50
   4  -6   0  530.75   13.90
  -4  -6   0  510.05   19.70
  -4  -6   0  512.65   15.80
   4  -6   0  527.25   14.00
  -4  -6   0  542.85   20.00
  -4  -6   0  537.55   19.90
   4  -6   0  532.75   14.00
   4  -6   0  530.35   16.00
   4  -6   0  528.15   15.50
   4   6   0  530.35   15.60
  -4   6   0  471.05   18.50
   4   6   0  510.45   20.00
  -4   6   0  499.75   15.40
   4   6   0  552.24   21.20
   4   6   0  541.55   20.50
   4   6   0  527.15   15.90
   4   6   0  510.95   20.80
   4   6   0  518.45   15.40
   4   6   0  511.15   16.00
   5  -6   0  217.88    8.20
  -5  -6   0  210.28    8.50
  -5  -6   0  234.48   13.10
  -5  -6   0  221.68   13.30
  -5  -6   0  218.38   13.50
   5  -6   0  221.78    6.50
   5  -6   0  226.48   13.80
   5  -6   0  230.48    9.10
  -5  -6   0  233.28    8.50
  -5  -6   0  235.08    8.30
   5   6   0  226.28    8.10
   5   6   0  208.58   14.60
   5   6   0  222.68   14.20
  -5   6   0  207.88    8.20
  -5   6   0  208.18   12.10
   5   6   0  199.98    9.30
   5   6   0  226.18    8.80
  -6  -6   0   54.59    8.00
  -6  -6   0   69.49    4.60
  -6  -6   0   61.09    8.30
  -6  -6   0   60.49    4.90
  -6  -6   0   56.09    8.10
   6  -6   0   57.29   11.30
   6  -6   0   53.79    5.50
   6   6   0   64.99    6.70
   6   6   0   60.79   11.50
  -6   6   0   52.29    8.20
   6   6   0   51.99    9.00
  -6   6   0   55.39    4.20
   6   6   0   63.09    4.50
   7  -6   0  131.69   15.10
  -7  -6   0  115.29    7.40
  -7  -6   0  138.69   12.80
   7  -6   0  111.89    7.50
  -7  -6   0  122.59    7.00
  -7  -6   0  105.89   12.50
   7   6   0  105.99   13.30
   7   6   0  113.79    7.60
   7   6   0  118.49    6.90
  -7   6   0  108.49   12.10
  -7   6   0  116.69    7.30
   7   6   0  119.29    7.80
   7   6   0  122.09   13.80
   0  -7   0   -4.50    2.00
   0  -7   0    0.10    1.00
   0  -7   0    0.70    0.80
   0  -7   0    2.30    1.10
   0  -7   0   -3.70    3.10
   0  -7   0    0.30    1.00
   0  -7   0    2.40    1.20
   0  -7   0    5.70    3.40
   0  -7   0   -0.10    3.10
   0   7   0    0.50    1.10
   0   7   0    2.20    2.90
   0   7   0    0.60    2.70
   0   7   0    2.20    2.60
   0   7   0    2.50    1.00
   0   7   0    0.80    0.80
   0   7   0    1.80    0.90
   0   7   0    1.80    3.20
  -1  -7   0   10.30    3.70
  -1  -7   0   10.90    1.60
   1  -7   0    7.10    3.40
   1  -7   0   15.60    3.80
   1  -7   0   10.30    1.30
   1  -7   0   15.20    1.60
   1  -7   0   16.30    1.70
  -1  -7   0   14.40    1.80
   1  -7   0   14.40    1.70
   1  -7   0   13.60    1.60
   1  -7   0   16.70    3.80
  -1  -7   0   10.20    1.60
   1  -7   0   12.10    1.60
   1  -7   0   13.00    3.60
  -1  -7   0   20.60    4.00
  -1  -7   0   11.20    3.80
   1  -7   0   11.50    3.10
  -1  -7   0   14.20    1.70
   1   7   0   13.10    1.60
   1   7   0   15.70    1.80
  -1   7   0   12.90    3.10
   1   7   0   17.50    3.40
  -1   7   0   13.70    1.40
   1   7   0   12.60    1.90
  -1   7   0   16.40    2.00
  -1   7   0   11.70    1.40
  -1   7   0   15.00    3.40
   1   7   0   15.80    4.00
  -1   7   0   12.50    2.90
   1   7   0   12.40    3.60
   2  -7   0 3962.00   98.19
   2  -7   0 3795.62  101.09
   2  -7   0 3748.12  100.69
   2  -7   0 3921.41   97.99
   2  -7   0 3864.11   97.99
  -2  -7   0 3853.51   98.59
   2  -7   0 3789.32   97.99
  -2  -7   0 3831.22  102.99
  -2  -7   0 3925.51   98.89
   2  -7   0 3904.51  100.69
   2  -7   0 4000.10  101.49
  -2  -7   0 3944.51  102.89
  -2  -7   0 3778.02   99.39
   2  -7   0 3943.61   97.79
   2  -7   0 3802.22   97.99
   2  -7   0 3810.42  100.49
   2  -7   0 4019.00  100.59
  -2  -7   0 3816.92  102.99
   2   7   0 3964.20  102.89
   2   7   0 3645.84  102.79
   2   7   0 3825.92   98.59
  -2   7   0 3835.12   98.89
   2   7   0 3711.43   98.89
   2   7   0 3837.82  102.49
  -2   7   0 3809.42   97.29
  -2   7   0 3972.90   98.89
  -2   7   0 3933.61   97.29
   2   7   0 3855.31   98.49
   3  -7   0  532.95   18.70
   3  -7   0  553.14   17.50
   3  -7   0  549.95   15.10
  -3  -7   0  543.05   16.30
  -3  -7   0  561.24   16.40
   3  -7   0  551.64   17.40
   3  -7   0  569.14   15.20
   3  -7   0  562.64   19.50
   3  -7   0  563.54   15.70
   3  -7   0  538.45   18.10
  -3  -7   0  579.34   20.90
   3  -7   0  547.35   15.60
   3  -7   0  557.44   15.20
   3  -7   0  551.24   15.10
   3  -7   0  538.75   17.40
  -3  -7   0  547.25   20.40
   3   7   0  558.04   20.30
   3   7   0  539.15   16.20
   3   7   0  535.65   21.00
   3   7   0  554.54   20.60
  -4  -7   0  445.26   18.70
   4  -7   0  464.15   12.60
   4  -7   0  446.56   12.50
   4  -7   0  432.76   15.10
   4  -7   0  449.36   14.50
  -4  -7   0  444.06   14.30
  -4  -7   0  485.45   19.20
   4  -7   0  458.75   14.70
  -4  -7   0  442.36   14.20
   4  -7   0  461.65   14.60
  -4  -7   0  476.85   19.60
   4  -7   0  461.05   12.60
   4  -7   0  456.25   12.50
   4   7   0  476.75   14.60
   4   7   0  480.45   20.00
   4   7   0  456.15   18.90
   4   7   0  459.25   14.30
   4   7   0  491.95   15.80
  -4   7   0  422.26   17.40
   4   7   0  436.26   19.60
   4   7   0  457.95   14.00
  -4   7   0  433.26   13.90
   5  -7   0   11.80    3.00
   5  -7   0   14.90    2.30
  -5  -7   0   13.80    2.30
   5  -7   0    8.80    4.20
  -5  -7   0   15.80    2.80
   5  -7   0   14.80    1.70
  -5  -7   0   12.60    5.20
   5  -7   0   21.30    2.40
  -5  -7   0   18.40    6.30
  -5  -7   0   17.00    6.30
  -5   7   0   18.20    2.60
   5   7   0   16.40    3.00
  -5   7   0   10.60    5.10
   5   7   0   11.10    2.40
   5   7   0   14.40    6.50
   5   7   0   18.60    2.90
   5   7   0    9.60    6.70
  -6  -7   0    5.60    2.20
  -6  -7   0   -5.60    6.60
  -6  -7   0    2.20    2.70
  -6  -7   0    3.30    6.20
   6  -7   0   16.80    8.10
  -6  -7   0   -2.60    7.10
   6  -7   0    4.70    2.80
  -6   7   0   -3.40    5.10
   6   7   0    4.40    2.50
  -6   7   0    5.40    2.10
   6   7   0    2.10    2.80
   6   7   0    9.70    8.70
   6   7   0    6.00    8.30
  -7  -7   0   23.50    3.90
   7  -7   0   35.60   11.90
  -7  -7   0   24.60    9.70
  -7  -7   0   17.40    3.60
  -7  -7   0  -14.70    8.90
   7  -7   0   23.00    3.90
  -7  -7   0   30.20    8.50
   7   7   0   31.90   11.40
   7   7   0   17.80    3.60
   7   7   0   23.40   12.00
  -7   7   0   19.70    7.90
   7   7   0   15.60    4.30
  -7   7   0   19.20    3.40
   0  -8   0 1276.47   38.90
   0  -8   0 1376.16   35.90
   0  -8   0 1353.16   41.10
   0  -8   0 1398.46   35.70
   0  -8   0 1329.87   39.60
   0  -8   0 1368.46   36.40
   0  -8   0 1350.26   35.50
   0  -8   0 1267.57   35.30
   0  -8   0 1300.67   39.40
   0   8   0 1299.67   35.50
   0   8   0 1311.77   39.00
   0   8   0 1338.37   38.90
   0   8   0 1332.07   35.20
   0   8   0 1341.27   38.70
   0   8   0 1356.16   38.40
   0   8   0 1376.66   35.30
   0   8   0 1280.67   34.90
   1  -8   0  480.35   13.80
  -1  -8   0  428.66   17.20
   1  -8   0  455.75   13.10
   1  -8   0  465.45   17.10
  -1  -8   0  441.86   13.70
   1  -8   0  447.96   13.30
  -1  -8   0  443.06   17.60
   1  -8   0  443.76   16.50
   1  -8   0  453.45   16.70
   1  -8   0  442.16   13.20
  -1  -8   0  462.85   13.70
   1  -8   0  450.45   13.30
   1  -8   0  482.65   16.90
   1   8   0  454.95   13.30
  -1   8   0  443.86   15.90
  -1   8   0  468.75   16.70
   1   8   0  445.26   13.20
   1   8   0  452.15   17.00
  -1   8   0  450.75   13.20
   1   8   0  452.65   13.80
  -1   8   0  436.96   15.10
  -1   8   0  448.86   12.60
   1   8   0  458.45   16.90
  -1   8   0  461.75   12.90
   1   8   0  459.05   17.70
  -1   8   0  449.06   16.20
   2  -8   0   75.29    3.40
  -2  -8   0   63.99    4.00
   2  -8   0   68.99    6.20
   2  -8   0   71.39    3.40
  -2  -8   0   64.49    9.70
   2  -8   0   72.69    3.50
   2  -8   0   75.49    7.90
  -2  -8   0   63.39    3.70
  -2  -8   0   75.09    8.30
   2  -8   0   84.19    6.70
  -2  -8   0   71.19    4.10
   2  -8   0   77.29    7.10
   2  -8   0   67.39    3.60
  -2  -8   0   70.39    8.20
   2  -8   0   73.29    3.60
   2  -8   0   68.59    3.50
   2  -8   0   75.19    6.80
   2  -8   0   65.09    7.00
  -2   8   0   73.69    2.70
   2   8   0   56.79    6.80
   2   8   0   70.89    3.80
  -2   8   0   75.39    3.10
   2   8   0   73.89    4.20
   2   8   0   69.39    4.20
  -2   8   0   79.09    5.90
   2   8   0   68.89    7.80
   2   8   0   76.89    7.50
  -2   8   0   72.79    4.80
   3  -8   0  947.01   25.60
   3  -8   0  954.70   28.90
   3  -8   0  878.61   27.70
   3  -8   0  963.80   28.10
  -3  -8   0  973.70   26.50
   3  -8   0  952.90   25.20
   3  -8   0  932.81   28.00
   3  -8   0  930.01   28.10
   3  -8   0  940.51   25.00
   3  -8   0  937.61   29.80
   3  -8   0  924.51   25.10
  -3  -8   0  975.80   31.40
   3  -8   0  949.60   25.30
   3  -8   0  934.31   25.10
   3   8   0  919.91   26.00
   3   8   0  950.50   31.00
   3   8   0  938.11   26.20
   3   8   0  928.01   27.20
   3   8   0  905.91   32.60
   3   8   0  978.00   32.70
   4  -8   0   13.70    3.20
  -4  -8   0    9.00    2.10
  -4  -8   0   26.50    6.80
   4  -8   0   14.00    1.80
   4  -8   0   14.40    4.70
   4  -8   0    9.40    3.20
   4  -8   0   12.80    3.90
   4  -8   0   11.10    1.50
   4  -8   0   11.20    1.50
  -4  -8   0   15.40    2.70
  -4  -8   0   17.60    5.40
   4  -8   0    9.00    1.60
   4   8   0    8.40    5.50
   4   8   0   12.30    2.50
   4   8   0    7.20    3.10
   5  -8   0  222.88    8.90
   5  -8   0  221.98    6.70
   5  -8   0  223.98    6.70
   5  -8   0  226.28    8.90
  -5  -8   0  233.68    9.20
   5  -8   0  217.38   11.90
  -5  -8   0  232.18   14.40
   5  -8   0  234.58    9.00
  -5  -8   0  267.37   16.20
   5  -8   0  236.98    6.80
   5  -8   0  228.48    7.60
   5  -8   0  230.48    9.20
  -5  -8   0  219.58    9.00
  -5   8   0  226.98    8.80
  -5   8   0  210.98   13.10
   5   8   0  233.18   17.00
   5   8   0  232.68    9.70
   6  -8   0   62.49    5.30
   6  -8   0   51.29   10.10
  -6  -8   0   68.09    6.10
  -6  -8   0   74.49   11.00
  -6   8   0   64.79   10.10
   6   8   0   57.69    6.40
   6   8   0   69.59   12.00
  -6   8   0   59.59    5.70
   6   8   0   58.49    5.20
   6   8   0   64.39   11.00
  -7  -8   0   30.40    4.70
  -7  -8   0   23.20    9.00
  -7  -8   0   32.50    4.40
  -7  -8   0   50.09   11.90
   7  -8   0   34.10    4.80
   7  -8   0   22.10   12.90
   7   8   0   40.70   14.40
  -7   8   0   25.20    7.90
   7   8   0   36.30    4.20
   7   8   0   34.50    5.50
  -7   8   0   24.50    3.90
   7   8   0   12.60   12.20
   0  -9   0    1.40    1.40
   0  -9   0   -1.50    3.90
   0  -9   0    1.40    4.20
   0  -9   0    0.60    1.00
   0  -9   0   -0.20    1.20
   0  -9   0    2.20    3.60
   0   9   0    1.80    3.40
   0   9   0    0.20    0.90
   0   9   0    2.50    4.80
   0   9   0    0.80    1.20
   0   9   0    1.60    1.20
   0   9   0    4.70    3.40
   0   9   0    2.70    4.40
   0   9   0    1.40    1.50
   1  -9   0  418.16   12.30
   1  -9   0  426.76   16.50
   1  -9   0  400.86   12.60
   1  -9   0  412.16   12.30
  -1  -9   0  406.46   13.00
   1  -9   0  388.36   16.30
  -1  -9   0  394.66   17.30
   1  -9   0  402.76   16.40
  -1  -9   0  422.06   17.40
   1  -9   0  399.06   16.40
   1  -9   0  416.16   12.60
   1  -9   0  414.76   12.50
   1  -9   0  391.66   12.40
   1  -9   0  421.16   16.90
  -1  -9   0  416.66   12.90
   1   9   0  418.76   12.50
  -1   9   0  415.66   12.50
  -1   9   0  410.96   12.10
  -1   9   0  412.86   14.80
   1   9   0  401.06   17.00
   1   9   0  436.76   16.80
   1   9   0  408.86   16.60
  -1   9   0  406.66   16.10
  -1   9   0  413.76   11.80
   1   9   0  404.86   13.00
  -1   9   0  414.66   15.90
   1   9   0  406.36   12.40
  -2  -9   0 1011.50   28.20
  -2  -9   0  984.20   27.90
   2  -9   0  984.20   27.30
   2  -9   0 1002.00   31.10
   2  -9   0 1090.19   39.30
  -2  -9   0  991.20   33.10
  -2  -9   0  965.20   33.00
   2  -9   0  995.30   27.30
  -2  -9   0 1043.50   33.30
   2  -9   0 1039.90   31.80
   2  -9   0 1003.60   27.30
   2  -9   0  975.50   27.30
   2  -9   0  999.60   31.00
   2  -9   0 1023.20   31.80
   2  -9   0 1007.20   30.90
   2  -9   0 1004.60   27.30
  -2  -9   0  981.10   28.20
   2   9   0  992.00   32.30
   2   9   0  986.50   32.20
  -2   9   0 1016.80   26.50
  -2   9   0 1017.30   29.20
   2   9   0  994.80   33.20
   2   9   0 1004.90   27.80
   2   9   0 1044.60   28.40
  -2   9   0 1044.80   28.70
  -2   9   0 1041.40   26.30
   3  -9   0   97.19    8.80
   3  -9   0   90.79    4.40
   3  -9   0   98.09    4.40
   3  -9   0   94.89    4.90
   3  -9   0  101.09    4.50
   3  -9   0  117.39    9.70
   3  -9   0   91.89    8.90
   3  -9   0   92.59    4.40
   3  -9   0   92.69    7.70
  -3  -9   0   94.19   10.40
   3  -9   0   93.59    4.30
   3  -9   0  101.09   11.00
  -3  -9   0   96.89    5.40
   3  -9   0   89.39    7.50
   3   9   0   94.79    4.90
   3   9   0  101.69   11.20
   3   9   0   90.19    5.40
   3   9   0   97.99    9.90
   4  -9   0    6.10    3.90
  -4  -9   0    9.20    2.30
   4  -9   0    3.70    5.30
   4  -9   0   10.10    1.90
   4  -9   0    7.80    1.50
   4  -9   0    0.20    4.70
  -4  -9   0    6.80    6.40
   4  -9   0   13.10    4.10
  -4  -9   0    7.20    2.40
   4  -9   0    6.60    1.90
   4  -9   0    6.30    1.50
  -4  -9   0   13.40    5.10
   4   9   0    8.30    6.90
   4   9   0    8.60    2.70
   5  -9   0  580.24   16.10
  -5  -9   0  569.14   24.30
  -5  -9   0  623.24   18.80
   5  -9   0  599.54   18.10
   5  -9   0  589.24   18.60
   5  -9   0  575.04   16.00
   5  -9   0  635.14   19.20
   5  -9   0  592.24   18.50
  -5  -9   0  627.04   26.00
  -5  -9   0  559.54   18.60
   5   9   0  588.14   26.90
   5   9   0  582.74   19.20
  -6  -9   0   25.10    7.20
   6  -9   0   23.40    3.50
  -6  -9   0   35.30   10.40
  -6  -9   0   33.00    4.30
  -6  -9   0   28.60    4.10
   6  -9   0   31.90   10.50
   6   9   0   26.80    4.30
   6   9   0   22.90   11.50
   6   9   0   29.20    4.40
   0 -10   0 2509.85   70.69
   0 -10   0 2373.16   67.69
   0 -10   0 2600.24   63.79
   0 -10   0 2384.26   67.99
   0 -10   0 2327.67   62.49
   0 -10   0 2362.56   62.39
   0 -10   0 2339.27   64.39
   0  10   0 2348.47   66.79
   0  10   0 2346.07   62.49
   0  10   0 2387.36   61.99
   0  10   0 2306.67   66.79
   0  10   0 2462.95   61.89
   0  10   0 2359.86   65.79
   0  10   0 2347.86   66.39
   0  10   0 2363.66   61.99
   1 -10   0  131.39    5.70
   1 -10   0  143.49   10.70
   1 -10   0  125.89    5.60
   1 -10   0  114.19   10.60
  -1 -10   0  139.09    6.10
   1 -10   0  130.69   10.60
   1 -10   0  134.29    5.70
   1 -10   0  134.49    5.90
  -1 -10   0  130.19    6.10
   1 -10   0  139.59    6.20
   1 -10   0  137.69   10.50
  -1 -10   0  125.89   11.00
   1  10   0  125.79   11.10
   1  10   0  129.39   10.30
   1  10   0  146.99   10.20
  -1  10   0  151.18    8.70
   1  10   0  140.39    5.80
  -1  10   0  128.79    5.60
  -1  10   0  142.39   10.60
  -1  10   0  134.79    6.00
  -1  10   0  141.09    5.10
   1  10   0  139.09    6.40
  -1  10   0  132.99   10.10
  -2 -10   0  230.18   17.00
   2 -10   0  225.68   13.10
   2 -10   0  215.28   13.20
   2 -10   0  234.78    8.40
  -2 -10   0  243.98   14.40
   2 -10   0  231.48    8.20
   2 -10   0  223.68   12.40
   2 -10   0  234.08    8.20
  -2 -10   0  238.98    9.10
   2 -10   0  201.58   13.40
   2 -10   0  237.98    8.30
   2 -10   0  236.98    8.20
  -2  10   0  240.48    7.50
   2  10   0  223.88   14.20
   2  10   0  233.98    8.50
  -2  10   0  254.57   10.20
  -2  10   0  221.58   11.00
   2  10   0  235.58    9.10
  -2  10   0  240.58    7.20
   2  10   0  223.68   13.70
   3 -10   0   19.70    6.10
  -3 -10   0   14.10    6.10
   3 -10   0   11.30    2.80
   3 -10   0   18.50    2.40
   3 -10   0   16.80    4.50
  -3 -10   0   15.00    2.60
   3 -10   0   19.00    2.50
   3 -10   0   17.60    5.70
   3 -10   0   17.10    2.60
   3 -10   0   18.50    2.10
   3 -10   0   16.70    2.20
   3 -10   0   11.20    6.60
   3  10   0   13.20    2.50
   3  10   0   18.80    7.00
   4 -10   0  400.36   15.80
   4 -10   0  392.26   11.80
   4 -10   0  396.96   15.90
  -4 -10   0  377.96   20.60
  -4 -10   0  397.56   13.70
   4 -10   0  385.26   16.30
   4 -10   0  380.96   18.00
  -4 -10   0  373.86   18.10
   4 -10   0  393.46   12.10
  -4 -10   0  375.56   13.20
   4 -10   0  394.26   11.90
   4 -10   0  393.06   11.70
   4  10   0  393.76   13.90
   4  10   0  402.66   21.30
   5 -10   0   53.09    3.20
   5 -10   0   50.49    5.70
   5 -10   0   48.90    5.70
  -5 -10   0   42.00    4.40
  -5 -10   0   56.79    9.00
   5 -10   0   48.00    3.20
  -5 -10   0   45.40    4.60
  -5 -10   0   57.09   10.60
   5  10   0   37.10    5.00
   5  10   0   57.59   13.40
  -6 -10   0    2.40    2.80
  -6 -10   0    2.20    3.50
   6 -10   0    2.10    2.90
  -6 -10   0   -3.10   10.50
   6 -10   0   -7.40   10.20
  -6 -10   0   -3.60    7.30
   6  10   0    9.30    4.30
   6  10   0    0.20   12.60
   6  10   0    1.20    3.00
   0 -11   0    7.90    6.10
   0 -11   0    6.20    2.20
   0  11   0    2.90    1.70
   0  11   0   -2.10    5.70
   0  11   0    2.10    2.00
   0  11   0   11.50    4.90
   0  11   0    4.00    1.50
   0  11   0    5.00    2.00
   0  11   0  -11.50    6.60
   0  11   0   10.20    5.60
   1 -11   0  248.18    9.50
   1 -11   0  247.58    9.30
   1 -11   0  256.27    9.30
   1 -11   0  241.48   14.90
   1 -11   0  265.27   16.00
  -1 -11   0  266.57    9.80
   1 -11   0  222.78   17.40
   1 -11   0  252.97   14.60
  -1 -11   0  252.77   15.50
  -1 -11   0  247.98   12.20
   1  11   0  272.37   15.70
  -1  11   0  246.98    9.20
  -1  11   0  257.87    8.30
  -1  11   0  255.27   14.00
   1  11   0  265.17   14.30
  -1  11   0  246.78   14.80
  -1  11   0  247.68    8.80
  -1  11   0  258.37   12.50
   1  11   0  261.57    9.00
   1  11   0  254.07    9.70
   2 -11   0  307.17   14.50
   2 -11   0  365.36   18.00
   2 -11   0  376.86   17.60
   2 -11   0  319.97   25.90
   2 -11   0  394.16   17.20
  -2 -11   0  355.46   18.60
  -2 -11   0  400.96   13.00
  -2 -11   0  392.36   12.90
   2 -11   0  385.36   12.20
   2 -11   0  304.47   14.20
   2 -11   0  376.76   12.10
   2 -11   0  362.76   12.10
  -2  11   0  385.86   11.20
  -2  11   0  370.56   15.30
   2  11   0  362.26   18.90
   2  11   0  390.36   12.40
  -2  11   0  392.06   14.20
   2  11   0  370.96   13.00
  -2  11   0  395.76   10.80
  -3 -11   0  465.55   22.70
  -3 -11   0  486.85   26.20
   3 -11   0  407.56   18.80
   3 -11   0  435.36   13.30
   3 -11   0  409.86   13.50
   3 -11   0  432.46   17.70
   3 -11   0  413.66   13.20
   3 -11   0  414.76   20.00
   3 -11   0  425.66   13.40
  -3 -11   0  416.86   14.80
   3 -11   0  423.26   17.90
   3  11   0  450.45   21.80
   3  11   0  421.46   14.70
  -4 -11   0  119.69   11.70
   4 -11   0  108.09    5.10
  -4 -11   0   85.89   22.60
   4 -11   0  105.99   10.50
  -4 -11   0   84.29   10.20
   4 -11   0   98.79    5.90
   4 -11   0  101.39   11.20
   4 -11   0  111.19    5.10
   4 -11   0  107.69   10.80
   4  11   0  105.99    7.00
   4  11   0  100.89   12.70
   5 -11   0  142.99   10.80
  -5 -11   0  141.19   11.40
  -5 -11   0  174.08   22.70
  -5 -11   0  156.68    8.80
   5 -11   0  151.78    5.90
  -5 -11   0  212.78   20.30
   5 -11   0  146.89    5.90
   5 -11   0  143.79   11.10
   5  11   0  150.58    8.80
   5  11   0  129.59   14.90
   0 -12   0    3.60    2.00
   0 -12   0    9.80    5.90
   0  12   0    5.40    6.60
   0  12   0    6.80    7.10
   0  12   0    3.50    1.80
   0  12   0    6.80    2.00
   0  12   0    4.30    2.40
   1 -12   0   23.10    3.40
  -1 -12   0   28.30    3.90
  -1 -12   0   15.70    8.80
   1 -12   0   23.10    7.30
  -1  12   0   24.50    2.40
  -1  12   0   19.90    5.80
  -1  12   0   25.40    3.50
  -1  12   0   31.40    7.10
  -1  12   0   30.10    9.60
   1  12   0   11.00    6.30
  -1  12   0   20.70    3.10
   1  12   0   11.30    7.10
   1  12   0   19.80    3.20
   2 -12   0   17.70    2.80
  -2 -12   0   14.50    2.70
   2 -12   0   16.40    8.70
  -2 -12   0   17.50    2.90
  -2 -12   0   16.70    7.70
   2 -12   0   26.20    3.40
   2 -12   0   18.60    6.80
  -2  12   0   15.60    2.80
  -2  12   0   25.30    5.40
  -2  12   0   17.40    1.90
   2  12   0   20.10    7.50
  -2  12   0   12.80    6.80
   2  12   0   13.80    3.00
   3 -12   0  712.23   25.70
   3 -12   0  676.83   26.80
   3 -12   0  682.43   25.70
  -3 -12   0  741.63   21.90
   3 -12   0  685.13   20.30
   3 -12   0  701.03   20.60
  -3 -12   0  720.13   30.00
   3 -12   0  698.13   20.30
   3  12   0  702.33   22.00
   3  12   0  641.94   29.20
   4 -12   0  199.58   13.60
   4 -12   0  195.98    7.60
  -4 -12   0  193.38   19.20
  -4 -12   0  185.68    9.40
   4 -12   0  208.78    7.80
   4 -12   0  209.48   14.20
   4  12   0  170.28    9.50
   4  12   0  182.28   19.20
   5 -12   0  290.27   18.80
  -5 -12   0  335.67   13.70
  -5 -12   0  331.47   12.90
   5 -12   0  319.27   16.20
  -5 -12   0  293.97   19.90
   5 -12   0  343.77   10.60
  -5 -12   0  360.66   26.00
   5  12   0  307.57   25.80
   5  12   0  317.37   13.70
   0 -13   0    2.20    2.60
   0 -13   0    9.70    7.90
   0  13   0   -5.10    7.30
   0  13   0    0.60    1.70
   0  13   0    2.80    2.60
   0  13   0   -2.30    1.90
   0  13   0   -2.90    5.90
   1 -13   0   -0.40    2.30
   1 -13   0    8.60    7.20
  -1 -13   0    2.00    8.40
  -1 -13   0    2.50    2.60
  -1  13   0    5.20    2.50
  -1  13   0    5.40    7.50
   1  13   0    2.70    2.80
  -1  13   0   -2.70    5.70
  -1  13   0    3.70    1.80
   1  13   0   22.20    8.00
   2 -13   0  756.12   22.90
   2 -13   0  801.02   29.70
  -2 -13   0  736.43   32.10
  -2 -13   0  787.42   23.70
  -2 -13   0  744.73   23.70
   2  13   0  787.72   24.20
  -2  13   0  775.62   21.80
  -2  13   0  760.82   27.00
   2  13   0  801.22   32.20
  -2  13   0  801.12   25.50
  -2  13   0  786.02   21.20
   3 -13   0  129.89    6.50
  -3 -13   0  127.49    7.90
   3 -13   0  127.69   12.10
   3 -13   0  139.19    7.10
  -3 -13   0  149.99   15.80
   3 -13   0  136.69   14.10
   3  13   0  130.39   14.90
   3  13   0  133.39    8.30
   4 -13   0   56.69    9.50
   4 -13   0   67.99    5.40
  -4 -13   0   60.49   13.70
   4 -13   0   63.29    4.80
  -4 -13   0   69.89    7.10
   4 -13   0   75.79    9.90
   4  13   0   69.79   13.50
   0 -14   0 1001.60   29.60
   0 -14   0  978.00   38.00
   0  14   0 1024.70   29.60
   0  14   0 1015.40   28.90
   0  14   0 1047.70   36.80
   0  14   0 1019.10   28.30
   0  14   0  974.90   34.30
   1 -14   0  472.25   24.10
   1 -14   0  466.85   15.40
  -1 -14   0  445.36   15.60
  -1 -14   0  457.95   25.60
   1  14   0  406.36   19.70
  -1  14   0  455.15   27.00
   1  14   0  420.66   23.40
   1  14   0  453.35   14.50
   1  14   0  385.96   35.40
  -1  14   0  421.36   15.50
   1  14   0  440.56   14.70
   2 -14   0  119.29   12.10
  -2 -14   0  131.79    8.50
  -2 -14   0  119.49   14.80
   2 -14   0  118.79    7.30
  -2 -14   0  116.29    8.70
   2  14   0  140.69   15.00
  -2  14   0  117.19    5.40
   2  14   0  126.29    8.10
  -2  14   0  130.39   12.00
  -3 -14   0   -3.90   11.10
  -3 -14   0   -6.30   10.90
  -3 -14   0   -2.70    3.00
   3 -14   0    1.60    8.30
   3 -14   0   10.20    9.10
   3 -14   0    1.20    2.80
   3 -14   0    4.60    2.50
  -3 -14   0    1.60    3.70
   3  14   0   -0.30   11.90
   4 -14   0  138.49    7.30
  -4 -14   0  137.89    9.50
   0 -15   0    3.70   10.30
   0 -15   0   -2.00    3.20
   0  15   0    0.60    2.60
   0  15   0   -5.20    3.00
   0  15   0    6.40   10.70
   0  15   0    0.30    9.20
   0  15   0   -3.30    3.30
   0  15   0   -2.50   10.60
  -1 -15   0  170.68    9.80
   1 -15   0  170.88   19.30
  -1 -15   0  167.48   17.50
   1 -15   0  181.38    9.10
   1  15   0  156.28    8.20
   1  15   0  146.09   14.80
  -1  15   0  169.28    7.30
   1  15   0  159.58    9.20
  -1  15   0  143.39   15.50
   1  15   0  162.78   15.80
   1  15   0  174.68   17.20
   1  15   0  153.48    7.90
   2 -15   0    6.60    9.70
  -2 -15   0   22.50   12.90
  -2 -15   0    5.20    3.40
   2 -15   0   13.80    3.90
  -2 -15   0   19.20    4.40
  -2 -15   0    9.60   12.60
   2  15   0    4.60   12.60
   2  15   0    8.60    3.90
   2  15   0   12.40   16.10
   0 -16   0  496.45   18.00
   0 -16   0  523.75   30.60
   0  16   0  486.55   16.10
   0  16   0  485.85   17.60
   0  16   0  509.35   29.70
   0  16   0  475.65   28.00
   0  16   0  485.05   25.30
   8   0  -1   14.00   12.60
  -8   0   1    4.20    3.20
  -8   0   1    3.40    7.40
   8   0  -1    2.50    3.60
   7   0  -1   -4.20    4.90
   7   0  -1   -0.60    1.70
  -7   0   1    1.70    1.40
   7   0  -1    6.10    8.00
  -7   0   1   -1.60    1.80
  -7   0   1   -0.20    3.90
   7   0  -1   -6.50    2.20
  -7   0   1    2.60    1.40
  -7   0   1   -1.70    3.80
  -7   0   1    4.20    5.40
   6   0  -1   -0.30    1.40
  -6   0   1    2.90    3.20
  -6   0   1    1.00    4.30
   6   0  -1   -5.50    3.50
  -6   0   1   -0.80    1.10
   6   0  -1    0.60    1.80
  -6   0   1    1.10    3.20
  -6   0   1   -0.60    1.50
   6   0  -1   -2.40    4.90
  -6   0   1    0.40    1.20
   6   0  -1   -7.60    6.90
   6   0  -1    1.60    2.30
   5   0  -1  263.07   14.30
   5   0  -1  245.08    9.90
   5   0  -1  271.77   10.90
   5   0  -1  249.48    7.90
  -5   0   1  241.08    8.80
   5   0  -1  242.58    8.90
   5   0  -1  255.17    7.70
  -5   0   1  248.38    9.80
   5   0  -1  256.57    7.60
  -5   0   1  255.87   12.70
   5   0  -1  256.77   10.00
   4   0  -1   -0.40    0.70
   4   0  -1   -1.90    3.70
   4   0  -1    0.10    0.70
   4   0  -1    1.60    2.10
   4   0  -1   -0.40    1.10
  -4   0   1   -0.10    0.80
   4   0  -1    1.10    3.30
  -4   0   1    0.20    1.90
  -4   0   1    2.70    2.70
   4   0  -1    1.30    1.40
  -4   0   1   -0.70    1.60
   4   0  -1    0.10    2.30
  -4   0   1   -0.70    1.10
   3   0  -1   28.70    4.10
  -3   0   1   37.70    3.60
  -3   0   1   38.80    3.10
   3   0  -1   36.20    2.00
  -3   0   1   37.00    2.00
   3   0  -1   38.70    1.80
   3   0  -1   33.30    2.60
   3   0  -1   37.30    1.80
  -3   0   1   34.70    2.50
   3   0  -1   35.60    3.10
   3   0  -1   35.70    3.50
   3   0  -1   38.90    3.50
  -3   0   1   29.60    3.70
  -2   0   1   -0.30    1.00
   2   0  -1    0.60    0.60
  -2   0   1    0.20    1.50
  -2   0   1    0.00    0.60
   2   0  -1    0.30    0.40
  -2   0   1    0.00    0.40
   2   0  -1    0.30    0.70
  -2   0   1   -0.60    0.40
   2   0  -1    0.60    1.80
  -2   0   1    1.30    1.60
   2   0  -1   -0.50    1.10
   2   0  -1    1.40    1.20
   2   0  -1    0.60    0.40
  -2   0   1   -0.60    1.00
  -2   0   1    0.10    1.10
  -2   0   1    0.90    0.70
   2   0  -1    0.40    0.90
  -1   0   1  247.38    6.60
  -1   0   1  250.27    6.90
  -1   0   1  244.58    6.40
   1   0  -1  225.38    6.60
  -1   0   1  253.67    6.60
   1   0  -1  248.58    6.60
  -1   0   1  249.68    7.40
   1   0  -1  234.78    6.70
   1   0  -1  246.98    6.50
  -1   0   1  240.58    7.50
  -1   0   1  241.28    7.30
   1   0  -1  226.08    7.50
   1   0  -1  243.28    7.40
  -1   0   1  244.98    6.50
   1   0  -1  237.48    7.30
   0   0  -1    0.10    0.20
   0   0  -1    0.00    0.60
   0   0   1    0.20    0.30
   0   0   1   -0.20    0.60
   0   0   1    0.00    0.20
   0   0  -1   -0.10    0.40
   0   0  -1    0.10    0.40
   0   0   1    0.00    0.50
  -1   0  -1    3.40    0.70
  -1   0  -1    3.30    1.00
   1   0   1    3.50    0.90
  -1   0  -1    4.10    1.20
   1   0   1    3.30    0.60
  -1   0  -1    2.10    0.80
   1   0   1    2.90    1.00
  -1   0  -1    5.40    1.40
  -1   0  -1    3.00    0.50
   1   0   1    3.30    0.50
  -1   0  -1    2.50    0.50
   1   0   1    2.80    1.40
   1   0   1    2.70    0.50
   1   0   1    3.10    1.10
   1   0   1    3.10    0.30
   1   0   1    3.60    0.70
  -2   0  -1    0.30    0.70
  -2   0  -1   -0.10    0.50
  -2   0  -1    0.40    1.50
  -2   0  -1   -0.10    0.40
  -2   0  -1    1.50    1.40
  -2   0  -1    0.40    0.80
  -2   0  -1   -0.60    1.70
   2   0   1   -0.90    1.30
   3   0   1   92.59    5.30
  -3   0  -1   83.59    5.20
  -3   0  -1   86.69    3.90
   3   0   1   85.39    3.50
  -3   0  -1   89.49    6.10
   3   0   1   76.19    5.80
  -3   0  -1   79.69    3.70
  -3   0  -1   76.19    6.80
  -3   0  -1   79.79    2.70
  -3   0  -1   83.69    2.60
  -3   0  -1   71.39    3.70
  -3   0  -1   85.09    3.60
  -4   0  -1    1.80    1.30
  -4   0  -1   -0.10    0.60
  -4   0  -1   -1.00    1.00
   4   0   1    3.50    2.60
  -4   0  -1    0.40    1.30
   4   0   1    1.70    3.20
  -4   0  -1    6.20    3.60
   4   0   1   -0.90    0.90
  -4   0  -1   -1.00    2.90
  -4   0  -1   -1.40    2.70
  -4   0  -1   -1.60    0.80
  -4   0  -1   -0.60    0.50
  -5   0  -1  585.44   19.60
   5   0   1  591.94   17.20
  -5   0  -1  606.44   16.30
   5   0   1  568.94   19.80
   5   0   1  597.34   15.80
  -5   0  -1  585.84   15.20
   5   0   1  570.04   21.80
  -5   0  -1  574.34   17.60
   5   0   1  593.84   16.70
  -5   0  -1  589.84   16.30
  -5   0  -1  600.24   15.30
  -5   0  -1  565.54   21.70
   5   0   1  597.24   18.20
  -6   0  -1    1.70    5.50
   6   0   1   -1.50    1.50
  -6   0  -1    3.60    4.50
   6   0   1   -0.90    6.40
  -6   0  -1    0.80    1.70
   6   0   1    0.20    2.00
   6   0   1    0.70    1.80
   6   0   1    4.50    5.00
   6   0   1   -1.60    4.80
   7   0   1 1257.47   38.30
   7   0   1 1246.48   33.20
   7   0   1 1188.78   34.30
   7   0   1 1174.88   36.10
   7   0   1 1221.98   32.30
   7   0   1 1257.47   42.60
   8   0   1   -0.90    3.50
  -8   0  -1    0.10    2.70
   8   0   1   -9.80   12.20
  -8   0  -1   -4.00    7.20
  -8  -1   1  527.05   24.80
  -8  -1   1  516.75   14.20
  -8  -1   1  504.15   17.80
   8  -1  -1  536.65   29.40
  -8  -1   1  529.85   17.80
   8  -1  -1  505.55   17.70
  -8   1   1  482.05   17.50
   8   1  -1  521.85   17.80
   8   1  -1  504.25   30.50
  -8   1   1  494.35   23.80
  -7  -1   1   55.89    6.10
  -7  -1   1   77.09   10.30
  -7  -1   1   62.09    3.60
   7  -1  -1   63.69   11.40
   7  -1  -1   75.19    5.70
  -7  -1   1   61.49    4.70
   7   1  -1   69.19    4.40
   7   1  -1   66.09    7.50
  -7   1   1   59.79    4.90
  -7   1   1   51.29    9.80
   7   1  -1   74.89   11.90
   7   1  -1   65.19    5.50
   6  -1  -1   39.40    3.90
   6  -1  -1   37.80    5.80
  -6  -1   1   44.60    5.30
  -6  -1   1   35.00    6.80
   6  -1  -1   41.40    4.10
   6  -1  -1   42.30    3.20
   6  -1  -1   44.20    4.30
   6  -1  -1   37.10    2.30
   6  -1  -1   39.20    2.50
  -6  -1   1   40.50    5.80
   6  -1  -1   38.10    8.80
  -6  -1   1   41.20    2.90
  -6  -1   1   36.60    3.60
   6   1  -1   36.70    3.60
  -6   1   1   28.70    6.70
  -6   1   1   38.80    3.80
   6   1  -1   43.50    9.20
  -6   1   1   36.20    2.20
   6   1  -1   44.40    5.70
   6   1  -1   39.10    2.80
   6   1  -1   34.60    3.20
  -6   1   1   47.10    5.20
  -6   1   1   39.30    2.30
  -6   1   1   40.30    4.10
   6   1  -1   39.40    5.00
   6   1  -1   40.60    5.00
   6   1  -1   41.00    6.90
   5  -1  -1    3.80    1.50
   5  -1  -1    3.30    4.70
   5  -1  -1    4.20    1.20
   5  -1  -1    4.40    1.00
   5  -1  -1    5.20    1.70
  -5  -1   1    3.10    3.30
   5  -1  -1    1.60    3.10
  -5  -1   1    1.10    1.20
  -5  -1   1    4.60    3.00
  -5  -1   1    3.30    1.30
  -5  -1   1    3.80    3.00
  -5  -1   1   -1.20   10.80
   5  -1  -1    4.80    2.40
   5   1  -1    3.90    1.40
   5   1  -1    3.10    1.20
  -5   1   1    5.30    1.70
   5   1  -1    1.40    1.30
  -5   1   1    1.20    2.50
   5   1  -1    4.20    4.10
   5   1  -1    3.50    3.10
   5   1  -1    3.50    1.40
   5   1  -1    4.20    3.20
   5   1  -1   -6.60    4.50
  -5   1   1    0.40    3.50
  -5   1   1    3.30    0.90
  -5   1   1    4.60    2.40
   4  -1  -1  354.96   11.20
  -4  -1   1  376.36   11.40
   4  -1  -1  366.16   11.80
   4  -1  -1  366.56   11.10
  -4  -1   1  377.06   14.50
  -4  -1   1  379.66   10.50
   4  -1  -1  368.86   15.20
   4  -1  -1  359.66   10.10
   4  -1  -1  371.06    9.90
   4  -1  -1  371.56   11.90
  -4  -1   1  367.76   12.60
  -4  -1   1  355.26   12.40
   4  -1  -1  375.96   10.10
   4   1  -1  364.46   10.40
   4   1  -1  373.56   10.50
   4   1  -1  367.46   12.90
  -4   1   1  375.06   11.00
   4   1  -1  367.46   12.60
  -4   1   1  359.56   14.10
   4   1  -1  353.16   10.50
   4   1  -1  361.96   15.10
  -4   1   1  350.36   11.20
   4   1  -1  360.96   11.30
   4   1  -1  379.56   13.20
   3  -1  -1   86.79    4.30
   3  -1  -1   93.39    3.00
   3  -1  -1   88.59    3.10
  -3  -1   1   84.09    3.80
  -3  -1   1   89.59    5.20
  -3  -1   1   91.59    3.00
  -3  -1   1   89.79    4.90
   3  -1  -1   84.49    3.90
   3  -1  -1   88.99    3.60
  -3  -1   1   89.19    6.40
  -3  -1   1   86.69    3.70
  -3  -1   1   81.69    6.20
   3  -1  -1   94.79    4.60
  -3  -1   1   92.09    3.50
  -3  -1   1   87.99    4.50
   3  -1  -1   87.99    2.70
   3  -1  -1   81.79    6.30
   3   1  -1   87.29    5.10
   3   1  -1   81.99    5.10
  -3   1   1   84.99    3.40
  -3   1   1   81.89    3.90
   3   1  -1   78.29    6.50
   3   1  -1   88.09    3.40
   3   1  -1   92.69    3.30
  -3   1   1   97.29    6.30
   3   1  -1   82.19    5.10
   3   1  -1   89.09    3.40
  -2  -1   1 2214.18   55.39
   2  -1  -1 2221.38   53.89
   2  -1  -1 2167.68   56.59
  -2  -1   1 2217.38   56.79
  -2  -1   1 2240.78   54.59
  -2  -1   1 2134.29   54.39
   2  -1  -1 2061.39   53.99
  -2  -1   1 2162.98   55.99
   2  -1  -1 2198.28   54.89
  -2  -1   1 2176.78   53.99
   2  -1  -1 2086.19   55.09
  -2  -1   1 2055.19   55.29
  -2  -1   1 2184.78   54.19
  -2  -1   1 2127.19   54.09
  -2  -1   1 2181.48   55.69
   2  -1  -1 2175.68   54.49
   2   1  -1 2158.28   54.09
  -2   1   1 1928.01   55.59
  -2   1   1 2124.59   54.19
  -2   1   1 1871.41   54.09
   2   1  -1 2073.09   55.69
  -2   1   1 2156.58   56.09
   2   1  -1 2152.18   55.39
   2   1  -1 2172.58   56.89
   2   1  -1 2148.09   54.09
   2   1  -1 2165.78   55.69
   2   1  -1 2197.08   54.59
  -2   1   1 2117.69   54.39
   2   1  -1 2061.19   54.19
  -1  -1   1  487.75   12.70
  -1  -1   1  474.45   13.70
  -1  -1   1  465.25   12.60
   1  -1  -1  501.45   12.70
  -1  -1   1  499.75   14.00
  -1  -1   1  482.25   13.80
  -1  -1   1  491.95   12.70
   1  -1  -1  451.75   13.50
  -1  -1   1  476.85   13.50
   1  -1  -1  494.05   12.50
   1  -1  -1  483.45   13.30
   1  -1  -1  494.85   13.70
  -1  -1   1  504.85   12.60
  -1  -1   1  495.25   12.80
  -1  -1   1  494.15   13.40
   1  -1  -1  467.75   12.60
   1   1  -1  447.86   13.80
  -1   1   1  488.15   13.60
   1   1  -1  478.95   12.80
   1   1  -1  510.25   12.60
  -1   1   1  486.95   12.70
   1   1  -1  480.55   14.00
  -1   1   1  455.05   13.40
   1   1  -1  500.35   13.40
  -1   1   1  482.95   13.20
   1   1  -1  442.86   12.70
   1   1  -1  481.35   12.60
  -1   1   1  501.15   12.60
  -1   1   1  462.75   12.60
   1   1  -1  489.35   13.70
   1   1  -1  497.85   12.70
  -1   1   1  491.05   12.50
   1   1  -1  477.85   13.50
   0  -1  -1 2329.47   58.79
   0  -1   1 2349.67   58.19
   0  -1   1 2349.06   58.69
   0  -1  -1 2375.76   58.59
   0  -1   1 2330.47   58.79
   0  -1  -1 2198.58   58.79
   0  -1  -1 2257.57   58.69
   0  -1  -1 2055.49   57.99
   0   1  -1 2593.14   58.69
   0   1  -1 2395.96   58.59
   0   1  -1 2324.27   58.79
   0   1   1 2256.67   58.59
   0   1   1 2358.76   58.79
   0   1   1 2313.37   58.89
   0   1   1 2317.07   58.69
   0   1  -1 2079.69   57.99
  -1  -1  -1   65.29    2.90
  -1  -1  -1   68.09    2.20
   1  -1   1   67.89    2.10
  -1  -1  -1   67.99    2.30
   1  -1   1   65.89    2.00
  -1  -1  -1   75.59    3.50
  -1  -1  -1   68.29    3.50
   1  -1   1   73.39    3.40
   1  -1   1   63.59    2.70
   1  -1   1   66.69    2.50
   1  -1   1   72.99    2.30
  -1  -1  -1   69.69    2.30
  -1  -1  -1   66.29    3.20
  -1   1  -1   71.09    3.30
   1   1   1   65.89    2.30
  -1   1  -1   73.49    2.40
   1   1   1   65.79    3.30
   1   1   1   68.69    2.20
   1   1   1   71.39    3.70
   1   1   1   70.99    2.40
   1   1   1   63.29    3.00
  -1   1  -1   68.99    2.50
   1   1   1   71.89    3.40
  -1   1  -1   69.39    2.00
  -2  -1  -1   54.39    2.10
   2  -1   1   54.39    3.60
  -2  -1  -1   63.49    4.30
   2  -1   1   60.09    2.30
  -2  -1  -1   62.79    3.90
  -2  -1  -1   44.10    3.50
  -2  -1  -1   50.19    2.10
  -2  -1  -1   53.59    3.20
   2  -1   1   60.39    3.50
  -2  -1  -1   59.79    2.40
  -2  -1  -1   58.09    2.60
  -2  -1  -1   53.29    4.10
   2   1   1   55.29    3.30
   2   1   1   59.49    2.20
   2   1   1   55.99    4.20
   2   1   1   57.19    2.40
   2   1   1   57.69    2.00
  -2   1  -1   56.39    4.00
   2   1   1   54.89    3.10
   2   1   1   61.99    4.10
  -2   1  -1   60.49    2.50
   3  -1   1  682.83   19.80
  -3  -1  -1  677.13   18.70
  -3  -1  -1  676.43   21.10
  -3  -1  -1  687.43   21.40
   3  -1   1  674.63   18.20
  -3  -1  -1  669.83   17.70
  -3  -1  -1  666.33   18.30
  -3  -1  -1  694.73   19.20
   3  -1   1  671.93   20.70
  -3  -1  -1  666.73   20.30
   3   1   1  673.33   18.40
   3   1   1  654.33   21.10
  -3   1  -1  670.73   18.60
  -3   1  -1  659.13   21.10
  -3   1  -1  688.13   19.70
   3   1   1  664.93   20.60
  -4  -1  -1  114.49    7.90
  -4  -1  -1  112.89    5.60
  -4  -1  -1  116.59    3.90
  -4  -1  -1  126.59    7.50
  -4  -1  -1  114.39    5.00
  -4  -1  -1  117.69    4.80
  -4  -1  -1  129.19    8.80
   4  -1   1  107.29    7.90
   4  -1   1  115.89    6.50
   4  -1   1  118.09    4.70
   4   1   1  117.59    4.10
   4   1   1  121.99    8.60
   4   1   1  114.39    4.80
   4   1   1  114.19    7.60
  -4   1  -1  113.19    4.90
   4   1   1  121.19    6.50
  -4   1  -1  127.89    7.80
  -5  -1  -1  308.77   10.20
   5  -1   1  305.67   10.40
  -5  -1  -1  304.97   10.60
  -5  -1  -1  306.87    8.70
  -5  -1  -1  291.57   15.50
  -5  -1  -1  300.67   14.50
   5  -1   1  308.77   10.00
  -5  -1  -1  315.87   13.40
   5  -1   1  305.77   12.30
  -5  -1  -1  311.57   10.70
  -5  -1  -1  288.07   10.40
  -5  -1  -1  305.57    8.70
   5  -1   1  311.57   14.90
   5  -1   1  313.57    8.40
  -5   1  -1  285.07   10.20
   5   1   1  305.67   10.10
   5   1   1  313.47    9.10
   5   1   1  304.47   13.70
   5   1   1  296.67   14.90
   5   1   1  311.07    9.80
  -5   1  -1  292.77   13.80
   5   1   1  306.97   12.50
  -6  -1  -1    8.10    5.40
   6  -1   1   10.00    6.20
   6  -1   1    6.90    1.50
   6  -1   1    4.40    2.00
   6  -1   1    2.20    4.90
  -6  -1  -1    6.00    1.20
   6  -1   1    3.10    1.90
  -6  -1  -1    5.70    1.10
  -6  -1  -1    8.30    3.00
  -6  -1  -1    5.40    1.80
  -6  -1  -1    2.90    2.70
  -6  -1  -1    5.30    5.80
   6  -1   1    5.80    4.20
  -6   1  -1    8.60    4.70
   6   1   1    6.70    2.10
   6   1   1    2.30    2.00
   6   1   1    3.20    1.50
   6   1   1    7.90    5.50
   6   1   1    3.30    5.80
  -6   1  -1    4.80    1.70
   6   1   1    1.00    4.60
   6   1   1    3.60    1.80
   6   1   1    7.50    6.70
  -7  -1  -1   17.80    4.30
   7  -1   1   33.00    7.40
   7  -1   1   31.40    3.30
  -7  -1  -1   24.10    8.20
   7  -1   1   47.60   10.70
   7  -1   1   29.90    3.70
   7   1   1   26.60    9.80
   7   1   1   38.10    8.70
   7   1   1   26.60    3.70
   7   1   1   33.10    6.90
   7   1   1   32.10    3.50
   7   1   1   37.60    4.60
  -8  -1  -1  248.98   11.50
  -8  -1  -1  254.07   19.10
   8  -1   1  261.47   11.40
   8  -1   1  299.57   24.50
  -8   1  -1  261.67   11.50
   8   1   1  212.28   22.80
  -8   1  -1  289.67   19.10
   8   1   1  276.47   11.60
   8  -2  -1  110.59   16.20
  -8  -2   1  120.79    5.50
  -8  -2   1  120.89   12.60
  -8  -2   1   88.29    7.10
   8  -2  -1  130.09    8.00
  -8  -2   1   86.19   11.70
  -8   2   1  104.29   12.10
  -8   2   1  111.59    7.60
   8   2  -1  117.69    8.00
   8   2  -1  134.29   18.40
   7  -2  -1   -6.80    8.70
  -7  -2   1   -1.10    5.90
  -7  -2   1   -7.70    4.70
  -7  -2   1    0.50    1.80
   7  -2  -1    0.80    2.40
   7   2  -1   11.20   14.70
   7   2  -1    0.10    2.30
   7   2  -1    3.00    6.70
   7   2  -1    5.50    2.90
   6  -2  -1 1127.59   30.00
  -6  -2   1 1199.78   31.00
  -6  -2   1 1182.98   34.80
   6  -2  -1 1142.69   32.80
  -6  -2   1 1180.28   34.40
  -6  -2   1 1158.88   31.10
   6  -2  -1 1146.29   39.90
  -6  -2   1 1125.79   34.80
   6  -2  -1 1127.19   31.50
  -6   2   1 1206.38   31.00
   6   2  -1 1135.69   31.00
   6   2  -1 1093.39   32.40
   6   2  -1 1170.18   39.60
  -6   2   1 1098.79   37.20
   6   2  -1 1209.78   34.70
   6   2  -1 1357.16   38.10
   6   2  -1 1183.48   31.30
  -6   2   1 1129.09   32.50
   6   2  -1 1210.08   35.30
   6   2  -1 1121.89   38.50
  -6   2   1 1189.88   30.90
   5  -2  -1   27.70    3.90
  -5  -2   1   20.70    2.50
   5  -2  -1   29.20    2.10
  -5  -2   1   24.90    4.30
  -5  -2   1   23.30    2.50
   5  -2  -1   25.80    5.80
   5  -2  -1   22.90    3.00
  -5  -2   1   14.00    4.40
   5  -2  -1   28.50    3.00
  -5  -2   1   29.80    4.90
   5  -2  -1   27.80    1.80
   5   2  -1   29.00    5.80
  -5   2   1   24.60    1.60
   5   2  -1   28.30    5.30
  -5   2   1   26.50    2.70
   5   2  -1   22.20    2.70
   5   2  -1   19.90    2.50
  -5   2   1   29.80    5.60
   5   2  -1   24.40    4.20
   5   2  -1   32.30    5.10
   5   2  -1   28.10    2.70
  -5   2   1   22.50    2.80
   5   2  -1   28.10    2.50
   4  -2  -1  447.96   17.00
   4  -2  -1  451.05   12.00
   4  -2  -1  435.46   13.60
  -4  -2   1  452.05   15.20
  -4  -2   1  451.85   12.70
  -4  -2   1  437.56   16.30
  -4  -2   1  449.16   15.30
   4  -2  -1  452.55   13.30
  -4  -2   1  438.36   13.30
   4   2  -1  445.16   12.70
   4   2  -1  445.76   15.30
   4   2  -1  452.95   15.60
   4   2  -1  458.45   15.40
   4   2  -1  451.15   12.60
   4   2  -1  453.55   13.50
   4   2  -1  447.66   12.80
   4   2  -1  472.35   17.70
  -4   2   1  433.56   16.30
  -4   2   1  420.66   13.20
  -4   2   1  435.46   13.30
  -4   2   1  442.56   11.90
   3  -2  -1   77.29    3.90
  -3  -2   1   79.69    3.50
  -3  -2   1   75.39    2.90
  -3  -2   1   77.59    3.40
  -3  -2   1   69.49    5.20
   3  -2  -1   73.99    2.50
   3  -2  -1   71.29    3.40
   3  -2  -1   71.69    4.20
   3  -2  -1   69.89    6.20
  -3  -2   1   67.19    5.20
   3  -2  -1   72.99    2.70
  -3  -2   1   70.39    6.40
  -3  -2   1   72.19    4.80
  -3  -2   1   73.69    3.20
  -3  -2   1   67.89    3.20
  -3  -2   1   78.39    5.80
   3   2  -1   74.69    5.50
   3   2  -1   74.79    6.10
   3   2  -1   68.69    5.30
  -3   2   1   72.19    5.70
   3   2  -1   73.79    3.20
   3   2  -1   73.99    3.10
   3   2  -1   65.19    5.00
  -3   2   1   75.19    3.50
   3   2  -1   70.29    3.50
   3   2  -1   69.89    3.20
   2  -2  -1  503.15   13.80
  -2  -2   1  485.25   13.30
   2  -2  -1  476.85   14.10
  -2  -2   1  500.05   15.00
   2  -2  -1  513.85   12.80
  -2  -2   1  491.75   13.30
  -2  -2   1  470.25   14.80
  -2  -2   1  492.85   13.30
   2  -2  -1  484.75   12.90
  -2  -2   1  488.25   13.20
  -2  -2   1  497.45   15.80
  -2  -2   1  498.65   15.00
  -2  -2   1  511.15   13.60
  -2  -2   1  480.55   15.00
   2   2  -1  476.05   14.90
  -2   2   1  477.25   13.00
   2   2  -1  500.15   15.90
  -2   2   1  495.35   15.10
   2   2  -1  485.75   15.10
  -2   2   1  444.66   14.70
  -2   2   1  488.65   13.40
  -2   2   1  507.85   13.00
   2   2  -1  500.75   13.20
   2   2  -1  489.55   13.40
   2   2  -1  516.45   15.10
   2   2  -1  484.95   13.30
   2   2  -1  496.25   13.60
   1  -2  -1   20.20    2.20
   1  -2  -1   19.90    1.40
  -1  -2   1   19.30    2.20
  -1  -2   1   23.30    2.00
  -1  -2   1   18.70    2.10
  -1  -2   1   19.10    1.30
   1  -2  -1   17.20    1.20
   1  -2  -1   19.60    1.00
   1  -2  -1   18.40    1.80
  -1  -2   1   21.20    1.20
  -1  -2   1   19.40    1.50
  -1  -2   1   20.30    1.30
  -1  -2   1   20.70    2.40
  -1   2   1   18.90    0.90
   1   2  -1   22.20    2.40
   1   2  -1   19.50    1.50
   1   2  -1   17.80    2.10
   1   2  -1   11.40    1.70
   1   2  -1   19.70    1.40
  -1   2   1   18.60    1.30
  -1   2   1   19.70    1.50
  -1   2   1   22.80    1.90
  -1   2   1   17.90    2.00
   1   2  -1   22.60    2.50
  -1   2   1   20.10    1.00
   1   2  -1   17.50    1.30
   0  -2   1  812.62   21.90
   0  -2   1  803.82   21.70
   0  -2   1  817.12   20.70
   0  -2  -1  796.62   20.70
   0  -2  -1  769.82   21.90
   0  -2   1  840.52   20.50
   0  -2  -1  811.52   21.80
   0  -2  -1  833.82   21.80
   0  -2   1  800.12   21.20
   0  -2  -1  831.52   21.80
   0  -2  -1  755.12   20.80
   0  -2   1  781.62   21.80
   0  -2  -1  818.02   20.70
   0  -2   1  776.92   20.70
   0   2  -1  816.62   21.60
   0   2   1  803.22   21.80
   0   2   1  817.02   22.10
   0   2  -1  805.42   20.70
   0   2   1  812.12   20.70
   0   2   1  783.62   21.60
   0   2  -1  829.42   20.50
   0   2  -1  780.52   20.70
   0   2   1  801.52   20.70
   0   2  -1  770.62   21.80
   0   2   1  813.32   21.80
   0   2  -1  810.62   21.70
   0   2  -1  859.21   21.30
   0   2  -1  817.82   20.60
   0   2   1  792.22   20.80
   1  -2   1  501.55   13.20
  -1  -2  -1  474.35   14.90
  -1  -2  -1  515.05   13.60
  -1  -2  -1  535.65   13.50
  -1  -2  -1  500.35   13.60
   1  -2   1  530.25   13.00
  -1  -2  -1  483.25   15.10
   1  -2   1  514.95   13.00
   1  -2   1  513.85   13.50
  -1  -2  -1  535.25   15.10
   1  -2   1  527.15   13.60
   1  -2   1  500.85   13.80
  -1  -2  -1  532.55   14.70
  -1   2  -1  523.75   13.90
   1   2   1  489.65   15.50
   1   2   1  519.85   13.60
  -1   2  -1  516.55   13.20
   1   2   1  480.65   14.90
   1   2   1  487.95   13.60
  -1   2  -1  534.15   13.40
  -1   2  -1  531.05   14.30
   1   2   1  493.05   14.90
   2  -2   1 2808.02   69.29
  -2  -2  -1 2658.03   70.99
  -2  -2  -1 2787.72   71.89
  -2  -2  -1 2670.63   69.39
  -2  -2  -1 2758.12   69.59
  -2  -2  -1 2752.62   71.89
  -2  -2  -1 2645.74   71.49
  -2  -2  -1 2826.82   69.79
  -2  -2  -1 2763.22   70.99
   2  -2   1 2747.03   70.59
   2  -2   1 2767.12   70.79
   2   2   1 2738.73   71.79
   2   2   1 2687.23   71.79
   2   2   1 2740.33   71.19
  -2   2  -1 2707.83   71.19
   2   2   1 2727.53   69.59
   2   2   1 2728.63   70.89
  -2   2  -1 2765.52   69.59
   2   2   1 2749.12   69.19
  -3  -2  -1   26.40    1.90
  -3  -2  -1   25.60    1.90
   3  -2   1   24.70    3.70
  -3  -2  -1   28.40    2.20
  -3  -2  -1   21.90    3.00
   3  -2   1   24.00    2.80
  -3  -2  -1   20.50    3.50
  -3  -2  -1   17.20    2.00
  -3  -2  -1   21.10    3.60
  -3  -2  -1   19.90    3.80
  -3  -2  -1   23.60    3.00
   3  -2   1   26.10    2.00
   3   2   1   22.00    3.70
   3   2   1   27.30    3.40
   3   2   1   25.90    2.10
  -3   2  -1   31.60    4.20
   3   2   1   22.90    1.60
   3   2   1   18.00    3.40
  -3   2  -1   22.90    2.20
   3   2   1   22.20    1.80
   3   2   1   23.40    3.10
  -4  -2  -1  511.45   17.40
   4  -2   1  494.65   14.20
   4  -2   1  502.15   15.70
  -4  -2  -1  490.85   13.70
   4  -2   1  483.35   17.50
  -4  -2  -1  477.55   20.30
  -4  -2  -1  511.85   15.90
  -4  -2  -1  490.45   13.70
  -4  -2  -1  497.35   15.90
  -4  -2  -1  474.55   18.20
  -4  -2  -1  466.55   15.10
  -4  -2  -1  493.05   14.80
  -4   2  -1  487.75   17.70
   4   2   1  518.35   14.50
   4   2   1  490.95   16.20
  -4   2  -1  490.15   14.60
   4   2   1  502.35   18.50
   4   2   1  499.75   14.60
   4   2   1  492.15   13.60
   4   2   1  503.05   17.60
   4   2   1  513.05   13.80
   4   2   1  509.15   16.70
  -5  -2  -1   23.20    7.10
  -5  -2  -1   28.60    5.80
   5  -2   1   25.70    5.90
  -5  -2  -1   24.20    5.50
  -5  -2  -1   26.30    2.20
  -5  -2  -1   23.70    2.80
  -5  -2  -1   33.00    6.00
  -5  -2  -1   31.80    3.70
  -5  -2  -1   26.40    2.90
   5  -2   1   31.40    3.00
   5  -2   1   30.30    4.20
   5   2   1   31.70    4.70
   5   2   1   29.90    5.40
   5   2   1   33.20    6.40
   5   2   1   30.70    2.80
  -5   2  -1   28.30    2.80
   5   2   1   24.40    2.30
   5   2   1   31.30    3.10
  -5   2  -1   22.10    5.30
   5   2   1   31.80    5.80
   5   2   1   25.90    3.20
  -6  -2  -1   37.10    2.70
  -6  -2  -1   24.90    6.70
   6  -2   1   30.40    4.20
   6  -2   1   26.20    6.90
  -6  -2  -1   32.00    2.60
  -6  -2  -1   40.80    7.30
   6  -2   1   30.30    5.70
  -6  -2  -1   30.70    4.50
  -6  -2  -1   31.00    3.70
  -6  -2  -1   35.30    4.80
   6  -2   1   31.00    2.30
   6  -2   1   31.90    3.70
   6  -2   1   34.50    3.10
   6   2   1   18.00    6.70
   6   2   1   37.00    6.90
   6   2   1   39.90    4.00
  -6   2  -1   27.90    3.10
  -6   2  -1   24.80    6.30
   6   2   1   41.80    6.20
   6   2   1   24.50    7.30
   6   2   1   26.30    2.80
   6   2   1   30.70    2.90
   6   2   1   32.50    3.30
   7  -2   1   70.09   10.50
   7  -2   1   65.19    5.50
  -7  -2  -1   66.29    6.10
  -7  -2  -1   62.49    5.90
  -7  -2  -1   69.49    3.40
  -7  -2  -1   47.60    9.80
  -7  -2  -1   57.79    5.70
  -7  -2  -1   65.69    3.60
   7   2   1   58.79   11.60
   7   2   1   67.79    5.40
   7   2   1   62.49    9.70
  -7   2  -1   54.09    7.00
   7   2   1   58.29    5.40
  -7   2  -1   74.49   16.30
   7   2   1   69.19    4.40
   7   2   1   68.19    9.20
  -8  -3   1    8.30    8.20
  -8  -3   1   16.30    8.30
   8  -3  -1   29.60   13.40
  -8  -3   1   15.90    3.10
   8  -3  -1   22.10    4.00
  -8  -3   1    9.90    3.90
   8   3  -1   10.20    3.20
   8   3  -1  -10.00   10.70
   8   3  -1   31.10   13.90
  -8   3   1   20.60    8.30
   8   3  -1   11.70    4.10
  -8   3   1   11.20    3.60
   7  -3  -1   46.50   10.60
  -7  -3   1   60.89    7.70
  -7  -3   1   58.99    7.50
  -7  -3   1   59.89    4.40
  -7  -3   1   57.99    4.40
   7  -3  -1   57.59    5.40
  -7   3   1   45.70   10.00
  -7   3   1   53.19    7.20
   7   3  -1   55.69    5.00
   7   3  -1   60.49    8.80
   6  -3  -1   -2.70    9.70
  -6  -3   1    2.70    2.20
   6  -3  -1    1.60    1.50
   6  -3  -1   -3.30    2.10
   6  -3  -1    4.40    4.60
  -6  -3   1   -1.40    1.60
  -6  -3   1    6.80    5.50
  -6  -3   1   10.80    5.80
  -6  -3   1   -0.30    4.30
  -6  -3   1    2.50    4.30
   6  -3  -1   -2.60    2.40
   6   3  -1    3.30    1.90
  -6   3   1   -1.40    1.40
  -6   3   1    2.70    4.60
   6   3  -1   -2.50    2.20
   6   3  -1   -0.30    5.30
   6   3  -1    5.50    6.90
   6   3  -1    3.70    2.50
  -5  -3   1   80.19    8.70
   5  -3  -1   90.19    3.40
   5  -3  -1   89.39    6.10
  -5  -3   1   91.69    8.30
   5  -3  -1   95.39    4.80
  -5  -3   1   82.59    4.50
   5  -3  -1   82.79    8.70
   5  -3  -1   84.69    4.90
  -5  -3   1   90.29    4.40
  -5  -3   1   95.29    7.80
   5  -3  -1   89.39    3.10
   5   3  -1   85.09    4.40
  -5   3   1   88.59    3.00
  -5   3   1   85.19    4.70
   5   3  -1   87.59    4.20
   5   3  -1  102.79    9.60
   5   3  -1   94.89    4.50
   5   3  -1  106.39    8.70
  -5   3   1   79.89    4.50
   5   3  -1   77.79    7.60
   5   3  -1   91.19    4.70
  -5   3   1   88.19    8.00
   5   3  -1   97.99   10.00
  -4  -3   1   -2.30    3.30
   4  -3  -1    3.00    0.80
  -4  -3   1    2.80    3.20
   4  -3  -1    2.50    3.60
   4  -3  -1    4.30    2.20
   4  -3  -1    4.20    1.70
  -4  -3   1    0.10    2.80
  -4  -3   1    3.40    1.20
   4  -3  -1    2.20    0.80
   4  -3  -1    4.70    1.40
  -4  -3   1    1.00    1.10
   4   3  -1    1.70    1.10
   4   3  -1    2.20    3.40
   4   3  -1    1.70    3.10
  -4   3   1    2.30    1.10
  -4   3   1    3.40    0.70
   4   3  -1    1.60    1.20
   4   3  -1    0.70    3.50
   4   3  -1   -0.70    3.80
   4   3  -1    4.00    1.30
  -4   3   1    1.50    3.00
   4   3  -1    4.40    1.20
  -4   3   1    3.80    1.90
  -3  -3   1    2.30    2.50
  -3  -3   1   -2.40    2.50
  -3  -3   1   -0.40    2.50
  -3  -3   1    0.30    1.00
   3  -3  -1    1.90    1.70
  -3  -3   1   -1.20    2.90
  -3  -3   1   -0.40    0.90
  -3  -3   1    1.40    0.90
  -3  -3   1   -0.40    0.90
  -3  -3   1   -1.20    0.90
   3  -3  -1    1.00    1.70
  -3  -3   1   -2.50    2.40
   3  -3  -1    1.60    0.60
   3  -3  -1    0.80    0.70
   3   3  -1    3.00    3.30
   3   3  -1    0.50    1.00
  -3   3   1    1.00    1.10
   3   3  -1   -1.10    0.90
   3   3  -1    2.30    2.70
   3   3  -1    1.20    2.30
   3   3  -1   -2.50    2.20
  -3   3   1    2.00    2.60
   3   3  -1    0.70    0.90
   3   3  -1   -0.80    0.80
  -2  -3   1  367.96   10.10
  -2  -3   1  360.86   11.80
  -2  -3   1  330.27   10.10
   2  -3  -1  360.86    9.50
  -2  -3   1  343.57   12.20
   2  -3  -1  346.47   10.60
  -2  -3   1  349.67   10.00
   2  -3  -1  348.67    9.50
   2  -3  -1  352.66   11.00
  -2  -3   1  343.17   12.10
  -2  -3   1  366.36   10.30
   2  -3  -1  360.66    9.60
  -2  -3   1  350.96   10.10
  -2  -3   1  368.86   12.80
  -2  -3   1  333.97   12.00
  -2   3   1  350.66    9.80
   2   3  -1  359.06   10.20
   2   3  -1  344.47   12.10
   2   3  -1  353.06   12.70
   2   3  -1  374.76   12.40
  -2   3   1  360.46    9.70
  -2   3   1  355.26   11.80
  -2   3   1  353.46   11.00
  -2   3   1  349.57    9.90
   2   3  -1  349.87   12.30
   2   3  -1  338.77   10.10
  -2   3   1  358.06    9.20
  -2   3   1  361.96    9.20
   2   3  -1  361.86   10.30
   2   3  -1  352.96   10.00
  -2   3   1  348.07   10.10
  -1  -3   1  748.23   20.00
  -1  -3   1  740.03   21.70
  -1  -3   1  741.43   21.80
   1  -3  -1  746.03   20.80
   1  -3  -1  742.83   19.80
  -1  -3   1  749.03   21.60
  -1  -3   1  741.63   19.90
   1  -3  -1  735.03   21.20
  -1  -3   1  711.43   20.00
  -1  -3   1  727.13   21.70
  -1  -3   1  746.93   19.90
   1  -3  -1  770.82   20.50
   1  -3  -1  759.42   19.60
  -1   3   1  786.62   19.70
  -1   3   1  763.62   19.50
   1   3  -1  771.22   21.90
   1   3  -1  769.92   21.80
   1   3  -1  766.02   20.10
   1   3  -1  775.02   21.70
  -1   3   1  748.33   21.20
   1   3  -1  794.02   19.90
  -1   3   1  771.22   19.50
  -1   3   1  760.92   19.80
   1   3  -1  773.32   20.10
   1   3  -1  784.72   19.90
   1   3  -1  776.32   21.80
  -1   3   1  747.73   20.50
  -1   3   1  786.62   21.10
  -1   3   1  760.62   20.60
   0  -3   1  220.78    6.30
   0  -3  -1  221.98    6.50
   0  -3   1  217.78    6.40
   0  -3   1  230.98    7.30
   0  -3   1  234.38    6.10
   0  -3   1  225.08    7.80
   0  -3  -1  212.58    7.90
   0  -3  -1  232.58    6.30
   0  -3   1  220.98    7.80
   0  -3  -1  238.58    7.90
   0  -3  -1  221.78    7.60
   0  -3  -1  209.58    7.60
   0  -3   1  242.28    7.70
   0  -3   1  216.68    6.40
   0  -3   1  229.88    6.30
   0  -3   1  227.68    7.80
   0   3  -1  224.48    7.50
   0   3   1  210.78    7.90
   0   3   1  224.48    7.60
   0   3  -1  223.78    7.10
   0   3   1  210.48    7.90
   0   3   1  218.58    6.40
   0   3   1  225.48    6.40
   0   3  -1  217.08    6.40
   0   3   1  227.48    7.80
   0   3  -1  191.38    6.40
   0   3   1  209.28    7.80
   0   3   1  201.88    6.40
   0   3  -1  231.98    6.20
   0   3  -1  187.38    8.00
   0   3   1  209.78    6.40
   0   3  -1  232.28    6.10
   0   3  -1  227.38    7.80
   1  -3   1  743.63   19.70
  -1  -3  -1  730.23   21.80
   1  -3   1  674.93   20.40
  -1  -3  -1  729.93   19.90
   1  -3   1  794.52   19.60
   1  -3   1  740.93   20.70
   1  -3   1  763.92   20.60
   1  -3   1  797.02   19.60
  -1  -3  -1  760.92   22.00
  -1  -3  -1  795.92   22.00
   1  -3   1  772.22   20.60
  -1  -3  -1  790.32   20.10
   1  -3   1  776.62   19.50
  -1  -3  -1  727.63   21.50
  -1  -3  -1  702.43   20.00
   1   3   1  779.42   19.90
  -1   3  -1  778.42   19.90
   1   3   1  761.92   21.60
   1   3   1  797.32   20.10
  -1   3  -1  765.32   19.80
   1   3   1  745.13   21.80
  -1   3  -1  787.12   20.80
  -1   3  -1  786.22   19.30
   1   3   1  748.03   22.00
   1   3   1  763.12   20.20
  -1   3  -1  793.12   19.30
  -1   3  -1  805.32   19.80
  -1   3  -1  729.53   19.60
  -1   3  -1  730.03   20.60
   1   3   1  749.33   20.00
   1   3   1  806.22   22.10
   2  -3   1 2073.49   51.49
   2  -3   1 2005.70   51.39
  -2  -3  -1 1916.21   53.49
  -2  -3  -1 2036.70   53.89
   2  -3   1 2035.70   50.79
  -2  -3  -1 1806.42   55.69
  -2  -3  -1 1981.50   51.69
  -2  -3  -1 1762.72   52.19
  -2  -3  -1 1915.41   54.39
   2  -3   1 2029.20   50.79
  -2  -3  -1 2052.99   51.69
   2   3   1 2044.30   51.79
   2   3   1 2106.69   51.69
  -2   3  -1 2060.59   53.29
   2   3   1 2064.29   54.59
  -2   3  -1 2090.39   51.59
   2   3   1 2056.89   51.99
   2   3   1 2060.69   54.39
   2   3   1 2110.19   54.09
   2   3   1 2029.70   51.49
   2   3   1 2130.79   53.69
  -3  -3  -1 2352.36   67.99
   3  -3   1 2461.55   66.89
  -3  -3  -1 2530.25   64.49
   3  -3   1 2645.44   65.99
  -3  -3  -1 2594.14   67.89
  -3  -3  -1 2475.55   66.99
  -3  -3  -1 2584.24   64.99
  -3  -3  -1 2501.05   65.19
  -3  -3  -1 2536.55   64.59
  -3  -3  -1 2549.54   66.89
  -3  -3  -1 2590.54   68.49
   3  -3   1 2512.55   64.49
   3   3   1 2544.75   65.09
   3   3   1 2550.14   64.49
   3   3   1 2552.14   68.19
   3   3   1 2503.25   64.39
  -3   3  -1 2503.85   67.39
  -3   3  -1 2542.55   64.79
   3   3   1 2484.45   68.19
   3   3   1 2542.65   66.99
   3   3   1 2480.15   64.89
   3   3   1 2539.85   67.29
  -4  -3  -1   15.90    2.00
   4  -3   1    9.40    2.80
  -4  -3  -1    9.50    5.00
  -4  -3  -1   13.80    4.20
  -4  -3  -1   14.00    1.60
   4  -3   1   14.90    1.80
  -4  -3  -1    7.30    2.90
  -4  -3  -1   13.20    2.20
  -4  -3  -1   12.70    1.60
  -4  -3  -1   10.50    3.10
  -4  -3  -1   11.90    4.20
   4  -3   1   11.40    3.50
  -4   3  -1    9.70    3.70
   4   3   1   10.90    3.70
   4   3   1   10.60    4.10
  -4   3  -1   13.50    1.90
   4   3   1   10.70    4.10
   4   3   1   11.70    1.90
   4   3   1   16.30    1.80
   4   3   1   12.80    1.80
   4   3   1   19.40    3.70
   4   3   1   15.20    1.70
  -5  -3  -1 1188.58   31.40
  -5  -3  -1 1149.58   32.80
  -5  -3  -1 1190.28   36.30
   5  -3   1 1200.38   32.20
   5  -3   1 1193.58   36.80
  -5  -3  -1 1151.98   32.90
  -5  -3  -1 1125.99   38.00
  -5  -3  -1 1201.78   34.50
  -5  -3  -1 1213.78   31.40
   5  -3   1 1184.28   33.40
  -5  -3  -1 1178.78   34.40
  -5  -3  -1 1199.78   38.00
  -5   3  -1 1145.79   32.40
   5   3   1 1243.98   31.70
   5   3   1 1163.18   37.70
   5   3   1 1224.18   35.90
   5   3   1 1208.38   36.70
  -5   3  -1 1142.79   36.70
   5   3   1 1205.08   31.50
   5   3   1 1185.08   35.20
   5   3   1 1222.68   32.40
   5   3   1 1192.28   32.60
  -6  -3  -1    8.90    1.90
   6  -3   1    4.00    4.20
  -6  -3  -1    8.90    1.80
  -6  -3  -1    9.10    4.10
  -6  -3  -1    1.20    4.20
   6  -3   1   10.10    3.00
   6  -3   1    4.30    6.90
  -6  -3  -1   12.20    5.70
  -6  -3  -1   13.00    7.20
   6  -3   1    5.70    2.10
  -6  -3  -1    8.00    2.50
   6   3   1    5.90    2.40
   6   3   1    7.10    2.30
   6   3   1    9.00    2.40
   6   3   1    3.00    7.50
   6   3   1    6.20    7.00
  -6   3  -1    3.20    5.50
   6   3   1   11.10    1.90
  -6   3  -1    7.40    2.00
   6   3   1    6.10    6.50
   6   3   1   13.60    6.20
   7  -3   1   92.59    6.20
   7  -3   1  106.79   13.20
  -7  -3  -1   99.79    4.60
  -7  -3  -1   94.39   12.40
  -7  -3  -1   92.69    7.80
  -7  -3  -1   98.69    6.80
   7   3   1   83.49   12.40
  -7   3  -1   89.29    6.70
   7   3   1   93.39   11.30
   7   3   1  117.59   13.50
   7   3   1  106.29    5.50
  -7   3  -1   85.69   10.90
   7   3   1   98.19    6.50
   7   3   1   90.99    6.40
  -7  -4   1    1.50    7.60
   7  -4  -1    5.40    9.80
  -7  -4   1   10.20    2.50
  -7  -4   1    5.10    2.40
  -7  -4   1    5.40    6.80
   7  -4  -1    4.30    2.70
  -7  -4   1    2.60    6.40
  -7   4   1    8.90    6.50
   7   4  -1   -0.70    7.60
   7   4  -1    1.60    2.40
  -7   4   1    5.00    2.80
   7   4  -1   -3.30    8.40
   7   4  -1    6.50    2.80
   6  -4  -1  129.99   13.60
  -6  -4   1  138.39    6.10
  -6  -4   1  138.59   13.00
  -6  -4   1  121.59   10.90
   6  -4  -1  131.49    4.90
  -6  -4   1  140.19   10.90
   6  -4  -1  130.89    7.10
  -6  -4   1  140.89   11.20
  -6  -4   1  135.29    5.90
   6  -4  -1  127.69    8.80
   6   4  -1  124.59   12.60
   6   4  -1  126.69    6.30
  -6   4   1  107.49   10.30
   6   4  -1  135.79    5.90
  -6   4   1  125.99    6.20
   6   4  -1  144.09   12.40
   6   4  -1  128.49   12.00
   6   4  -1  131.69    6.40
   5  -4  -1  156.28    6.50
   5  -4  -1  162.28   11.50
  -5  -4   1  147.99    9.70
   5  -4  -1  156.28    4.90
  -5  -4   1  147.79    6.00
   5  -4  -1  145.79    4.60
  -5  -4   1  157.38    6.50
   5  -4  -1  145.09    6.30
   5  -4  -1  141.99    7.40
  -5  -4   1  164.98   10.80
  -5  -4   1  146.89   11.20
  -5   4   1  145.49    6.30
   5   4  -1  154.18    6.40
  -5   4   1  137.39    9.90
   5   4  -1  148.79    6.10
  -5   4   1  149.79    5.90
   5   4  -1  139.59   11.60
   5   4  -1  155.98   10.10
   5   4  -1  146.89    6.50
   5   4  -1  137.69   10.60
   5   4  -1  157.98    6.20
  -5   4   1  154.88    4.50
  -4  -4   1   92.59    7.30
   4  -4  -1   90.69    3.10
   4  -4  -1   86.69    5.30
  -4  -4   1   87.59    7.90
  -4  -4   1   85.39    4.10
  -4  -4   1   86.19    4.10
   4  -4  -1   85.49    3.10
   4  -4  -1   89.59    4.90
  -4  -4   1   83.79    7.40
  -4   4   1   87.89    4.70
   4   4  -1   88.19    4.10
  -4   4   1   86.69    3.10
   4   4  -1   91.59    4.40
   4   4  -1   76.09    7.20
  -4   4   1   83.79    6.90
   4   4  -1   84.39    4.00
   4   4  -1  102.49    8.80
   4   4  -1  100.29    8.70
   4   4  -1   76.89    7.50
  -4   4   1   84.19    4.20
   4   4  -1   77.49    4.20
   3  -4  -1  544.15   16.00
  -3  -4   1  523.65   18.00
  -3  -4   1  538.55   15.10
  -3  -4   1  559.64   16.10
  -3  -4   1  538.45   15.10
  -3  -4   1  519.45   17.60
  -3  -4   1  546.85   18.00
   3  -4  -1  532.55   15.50
   3  -4  -1  534.15   14.00
   3  -4  -1  550.14   14.20
  -3  -4   1  536.05   17.90
  -3  -4   1  518.05   15.00
  -3  -4   1  513.25   14.70
   3   4  -1  535.55   14.90
   3   4  -1  502.65   15.10
   3   4  -1  531.95   15.20
   3   4  -1  500.25   17.90
   3   4  -1  518.45   18.70
   3   4  -1  521.85   18.10
  -3   4   1  508.15   15.00
  -3   4   1  538.65   17.60
   3   4  -1  526.05   18.10
   3   4  -1  530.55   15.00
  -2  -4   1   23.20    1.90
  -2  -4   1   25.10    3.60
   2  -4  -1   20.90    1.20
  -2  -4   1   14.50    3.00
   2  -4  -1   18.90    2.40
  -2  -4   1   21.00    2.20
  -2  -4   1   24.70    3.40
  -2  -4   1   17.30    1.80
  -2  -4   1   19.00    1.80
   2  -4  -1   20.70    1.70
   2  -4  -1   19.30    1.40
  -2  -4   1   19.00    1.90
  -2  -4   1   18.20    3.40
   2  -4  -1   21.50    2.40
   2  -4  -1   22.60    2.70
  -2  -4   1   20.80    3.40
  -2   4   1   19.20    2.90
   2   4  -1   21.10    2.20
   2   4  -1   14.30    3.00
  -2   4   1   21.90    1.20
  -2   4   1   18.50    1.30
  -2   4   1   20.90    2.00
  -2   4   1   18.60    1.80
   2   4  -1   16.10    3.30
   2   4  -1   20.20    2.00
   2   4  -1   20.50    2.20
  -2   4   1   19.30    1.80
   2   4  -1   18.70    3.20
   2   4  -1   19.60    1.70
   2   4  -1   15.20    3.00
   2   4  -1   19.30    1.90
  -2   4   1   20.50    2.30
   2   4  -1   22.70    3.70
  -2   4   1   17.90    2.10
  -2   4   1   23.00    3.40
   1  -4  -1 1714.93   45.10
   1  -4  -1 1786.02   43.70
   1  -4  -1 1746.43   45.80
  -1  -4   1 1677.13   44.20
  -1  -4   1 1660.93   46.30
   1  -4  -1 1722.03   43.70
   1  -4  -1 1779.92   44.00
  -1  -4   1 1761.52   44.00
  -1  -4   1 1673.03   44.10
  -1  -4   1 1755.62   46.20
  -1  -4   1 1707.53   46.40
   1  -4  -1 1698.43   45.20
   1  -4  -1 1673.73   43.90
  -1  -4   1 1639.44   44.10
  -1  -4   1 1700.33   46.30
   1  -4  -1 1751.92   46.00
   1   4  -1 1719.93   46.40
   1   4  -1 1712.43   46.30
   1   4  -1 1668.73   44.00
  -1   4   1 1742.73   45.90
   1   4  -1 1716.93   44.00
  -1   4   1 1701.33   43.60
   1   4  -1 1802.72   44.10
   1   4  -1 1739.63   44.30
  -1   4   1 1739.63   45.10
  -1   4   1 1742.73   43.70
  -1   4   1 1725.33   44.00
  -1   4   1 1719.33   43.70
   1   4  -1 1649.23   44.10
  -1   4   1 1646.94   44.90
  -1   4   1 1712.13   45.50
   1   4  -1 1785.52   46.40
   1   4  -1 1673.53   46.10
   1   4  -1 1669.63   46.30
   0  -4   1   16.40    1.40
   0  -4  -1   16.30    2.30
   0  -4   1   18.10    1.20
   0  -4   1   19.10    2.50
   0  -4  -1   18.50    2.50
   0  -4   1   17.40    1.30
   0  -4  -1   17.50    1.50
   0  -4  -1   17.60    1.20
   0  -4  -1   11.80    2.20
   0  -4   1   18.50    1.20
   0  -4  -1   16.50    1.30
   0  -4   1   17.40    2.60
   0  -4   1   17.90    2.50
   0  -4   1   20.20    2.40
   0  -4   1   16.30    1.50
   0  -4   1   20.80    2.70
   0  -4  -1   21.50    2.90
   0   4  -1   15.50    1.40
   0   4  -1   17.60    2.30
   0   4  -1   14.30    2.40
   0   4   1   15.50    2.30
   0   4  -1   10.70    2.00
   0   4  -1   14.90    2.60
   0   4   1   15.90    2.20
   0   4  -1   18.60    2.60
   0   4  -1   16.30    1.40
   0   4  -1   17.60    1.50
   0   4   1   16.20    2.60
   0   4  -1   15.60    1.20
   0   4  -1   16.90    1.20
   0   4   1   17.90    1.40
   0   4   1   15.00    1.50
   0   4   1   13.00    2.20
   0   4   1   16.70    1.60
   0   4   1   14.90    1.30
   0   4   1   17.40    1.30
   0   4   1   14.40    2.40
   1  -4   1   45.80    3.70
  -1  -4  -1   46.70    4.10
   1  -4   1   48.90    4.10
   1  -4   1   47.90    3.30
   1  -4   1   43.70    2.00
  -1  -4  -1   44.50    4.40
  -1  -4  -1   48.50    2.30
   1  -4   1   45.70    2.10
   1  -4   1   43.10    1.90
   1  -4   1   44.50    1.90
   1  -4   1   46.30    2.20
   1  -4   1   48.10    3.40
  -1  -4  -1   46.70    3.90
  -1  -4  -1   46.10    4.30
   1  -4   1   41.50    3.40
  -1  -4  -1   46.90    2.40
   1   4   1   42.90    2.10
  -1   4  -1   45.90    1.70
   1   4   1   47.70    4.10
  -1   4  -1   46.30    2.70
   1   4   1   43.80    2.50
   1   4   1   48.10    4.30
  -1   4  -1   40.60    2.70
  -1   4  -1   44.10    1.70
   1   4   1   40.80    3.90
   1   4   1   52.69    4.50
   1   4   1   45.70    2.30
   1   4   1   42.20    2.20
  -1   4  -1   43.80    3.40
   1   4   1   47.40    4.50
  -1   4  -1   42.90    2.00
   2  -4   1  620.54   16.30
  -2  -4  -1  612.74   19.90
   2  -4   1  622.84   17.40
  -2  -4  -1  649.04   20.90
  -2  -4  -1  599.94   19.40
   2  -4   1  635.34   17.20
   2  -4   1  616.54   16.20
  -2  -4  -1  620.44   16.80
  -2  -4  -1  619.44   19.10
   2  -4   1  635.04   16.10
  -2  -4  -1  589.64   17.00
  -2  -4  -1  615.44   19.70
   2  -4   1  640.44   17.50
   2  -4   1  629.64   17.00
  -2  -4  -1  615.04   17.10
  -2  -4  -1  634.44   17.10
   2  -4   1  643.74   16.10
   2   4   1  620.94   16.90
   2   4   1  607.74   17.10
   2   4   1  623.44   17.40
   2   4   1  614.84   19.40
   2   4   1  635.14   20.30
  -2   4  -1  634.64   16.80
  -2   4  -1  622.94   18.70
   2   4   1  614.84   19.80
   3  -4   1  107.79    3.70
  -3  -4  -1  109.79    7.00
   3  -4   1  109.19    3.70
  -3  -4  -1  110.29    4.70
  -3  -4  -1  107.69    7.50
  -3  -4  -1  113.69    4.40
  -3  -4  -1  106.69    7.40
  -3  -4  -1  101.89    7.00
  -3  -4  -1  110.49    8.10
  -3  -4  -1  109.49    4.30
  -3  -4  -1  108.79    4.70
  -3   4  -1  121.59    6.90
   3   4   1  110.89    8.00
   3   4   1  118.39    8.00
  -3   4  -1  107.39    4.40
   3   4   1  104.49    6.80
   3   4   1  108.49    4.30
   3   4   1  102.89    4.50
   3   4   1  108.19    4.80
   3   4   1  112.59    4.20
   3   4   1  109.59    7.60
  -4  -4  -1  153.88    8.90
  -4  -4  -1  168.58    6.00
  -4  -4  -1  168.88    9.20
  -4  -4  -1  162.88    5.90
   4  -4   1  170.38    7.60
   4  -4   1  162.48    5.90
  -4  -4  -1  168.68   10.20
   4  -4   1  177.28    9.40
  -4  -4  -1  158.28    6.50
   4   4   1  163.28   10.90
   4   4   1  181.08   10.60
  -4   4  -1  172.98    9.50
   4   4   1  173.98   10.90
   4   4   1  177.08    9.30
   4   4   1  166.08    6.40
   4   4   1  168.28    6.70
   4   4   1  168.68    5.90
   4   4   1  160.88    6.10
  -4   4  -1  169.98    6.30
  -5  -4  -1  746.93   21.00
   5  -4   1  775.02   21.40
  -5  -4  -1  734.53   26.30
  -5  -4  -1  749.03   22.20
  -5  -4  -1  781.72   21.10
  -5  -4  -1  759.72   24.60
   5  -4   1  766.12   26.30
  -5  -4  -1  773.22   24.80
   5  -4   1  782.12   22.60
  -5  -4  -1  722.03   26.70
   5   4   1  692.73   22.10
   5   4   1  769.12   21.90
   5   4   1  786.12   21.10
  -5   4  -1  732.73   25.80
   5   4   1  740.23   26.60
   5   4   1  814.72   27.90
   5   4   1  705.53   28.40
   5   4   1  792.82   25.40
  -5   4  -1  762.02   21.80
   5   4   1  759.32   21.90
   6  -4   1  126.59    6.40
   6  -4   1  153.88    8.70
  -6  -4  -1  148.09   12.10
  -6  -4  -1  139.99   10.50
  -6  -4  -1  132.29    5.70
   6  -4   1  138.49   13.60
  -6  -4  -1  131.09    6.80
  -6  -4  -1  137.99    5.90
  -6  -4  -1  128.59   10.50
   6   4   1  141.39   14.40
   6   4   1  133.69    6.60
   6   4   1  139.59    5.90
   6   4   1  146.29    7.00
   6   4   1  138.79   13.60
  -6   4  -1  135.29    6.40
   6   4   1  140.09   12.10
  -6   4  -1  111.69   10.90
   6   4   1  139.19   14.20
   6   4   1  145.19    6.90
   7  -4   1 1352.56   45.60
  -7  -4  -1 1386.56   36.60
  -7  -4  -1 1329.27   39.20
  -7  -4  -1 1378.66   41.00
   7  -4   1 1373.86   38.10
  -7  -4  -1 1263.97   45.70
   7   4   1 1420.46   38.80
   7   4   1 1491.05   45.50
  -7   4  -1 1350.26   45.20
   7   4   1 1425.76   47.70
  -7   4  -1 1354.36   38.70
   7   4   1 1356.96   43.60
   7   4   1 1375.56   37.30
   7   4   1 1388.26   38.20
   7  -5  -1   -3.00   10.50
  -7  -5   1   14.30    7.40
  -7  -5   1    7.50    7.60
  -7  -5   1   -3.30    7.00
  -7  -5   1    1.80    2.70
  -7  -5   1    8.30    2.70
   7  -5  -1    5.60    3.40
  -7  -5   1    5.70    2.90
   7   5  -1    4.20    2.50
   7   5  -1    1.00    9.50
   7   5  -1   -9.20   16.70
  -7   5   1   -0.60    6.80
  -7   5   1    7.00    3.40
   6  -5  -1   -0.80    2.00
   6  -5  -1    4.30    5.00
  -6  -5   1   -2.90    5.40
  -6  -5   1    3.10    5.60
  -6  -5   1   -0.10    1.70
   6  -5  -1    2.10    2.20
  -6  -5   1   -0.50    1.80
   6  -5  -1   -2.90    6.90
  -6  -5   1   -0.70    1.60
  -6  -5   1    3.20    5.20
  -6   5   1    3.00    5.20
  -6   5   1    2.70    1.60
   6   5  -1   -0.20    2.20
   6   5  -1    0.60    6.50
  -5  -5   1    6.60    1.90
   5  -5  -1    3.90    5.40
  -5  -5   1    2.50    1.80
   5  -5  -1    5.10    1.90
   5  -5  -1    3.60    1.30
   5  -5  -1    6.70    3.40
   5  -5  -1    3.10    1.00
  -5  -5   1   10.00    5.20
   5  -5  -1    5.40    2.30
  -5  -5   1    3.10    4.90
  -5  -5   1    6.10    1.70
  -5  -5   1    4.90    4.50
  -5  -5   1    1.80    5.90
  -5   5   1    3.80    1.60
   5   5  -1    3.20    1.80
   5   5  -1    3.60    1.70
   5   5  -1   -4.40    5.60
  -5   5   1    7.10    4.70
   5   5  -1    3.90    1.90
   5   5  -1    7.00    2.10
   5   5  -1   -0.60    4.90
   5   5  -1    2.40    1.50
   5   5  -1    4.70    6.40
  -5   5   1    6.00    2.00
   5   5  -1    1.40    4.40
   5   5  -1    1.00    4.90
  -5   5   1    1.80    0.80
  -4  -5   1  378.56   11.90
  -4  -5   1  383.16   14.80
   4  -5  -1  380.96   10.40
  -4  -5   1  385.06   11.20
  -4  -5   1  370.46   15.40
   4  -5  -1  380.06   12.50
  -4  -5   1  366.86   15.20
  -4  -5   1  381.36   11.70
  -4  -5   1  381.96   16.30
   4   5  -1  371.66   11.50
   4   5  -1  380.46   11.60
  -4   5   1  362.46   12.20
   4   5  -1  368.66   15.50
   4   5  -1  366.66   16.50
   4   5  -1  374.36   15.70
  -4   5   1  384.06   10.40
   4   5  -1  362.36   11.60
   4   5  -1  385.06   12.10
  -4   5   1  376.76   11.70
   4   5  -1  377.26   15.80
  -4   5   1  366.56   14.80
   4   5  -1  370.36   11.80
  -3  -5   1  309.37    9.60
   3  -5  -1  316.77    8.90
  -3  -5   1  308.97    9.90
  -3  -5   1  310.97   12.60
   3  -5  -1  307.67    9.00
   3  -5  -1  319.77   10.70
  -3  -5   1  316.07   10.10
  -3  -5   1  309.97   13.10
  -3  -5   1  332.57   13.10
  -3  -5   1  315.97    9.90
  -3  -5   1  328.67   13.70
   3  -5  -1  313.77   11.00
   3  -5  -1  340.97    9.50
   3   5  -1  332.67   13.50
   3   5  -1  347.27   13.70
   3   5  -1  309.37    9.70
   3   5  -1  301.07   13.10
   3   5  -1  325.87    9.90
   3   5  -1  307.87   13.50
   3   5  -1  318.67   13.20
  -3   5   1  319.67   12.50
   3   5  -1  324.27   10.00
   3   5  -1  315.37   10.10
   3   5  -1  299.97    9.90
  -3   5   1  328.47    9.90
  -3   5   1  311.77    9.10
  -3   5   1  325.17   11.20
   2  -5  -1  687.93   17.60
   2  -5  -1  678.83   17.90
  -2  -5   1  652.33   18.30
  -2  -5   1  669.73   18.50
  -2  -5   1  658.43   21.40
   2  -5  -1  638.74   19.90
   2  -5  -1  678.03   17.50
  -2  -5   1  646.84   21.30
   2  -5  -1  689.23   19.00
   2  -5  -1  665.63   19.40
   2   5  -1  668.33   21.50
   2   5  -1  663.43   21.40
   2   5  -1  633.94   18.40
  -2   5   1  670.33   18.70
   2   5  -1  675.33   21.50
   2   5  -1  668.73   18.30
  -2   5   1  689.93   17.40
  -2   5   1  662.93   17.90
  -2   5   1  686.03   18.90
   2   5  -1  678.43   18.40
   2   5  -1  647.44   21.30
   2   5  -1  662.63   18.50
  -2   5   1  657.93   17.40
  -2   5   1  652.93   18.70
  -2   5   1  667.43   17.30
  -2   5   1  665.73   20.10
   1  -5  -1  553.64   16.50
   1  -5  -1  532.55   17.00
  -1  -5   1  512.05   14.90
  -1  -5   1  519.65   17.50
   1  -5  -1  527.75   14.60
   1  -5  -1  523.05   16.90
   1  -5  -1  527.85   14.70
  -1  -5   1  533.25   17.60
   1  -5  -1  534.95   16.30
   1  -5  -1  543.05   14.50
  -1  -5   1  534.35   17.30
  -1  -5   1  507.85   17.40
  -1  -5   1  525.85   14.90
   1  -5  -1  546.45   14.50
  -1  -5   1  540.55   15.10
  -1  -5   1  547.25   14.80
  -1   5   1  537.25   14.30
  -1   5   1  559.54   16.80
  -1   5   1  552.94   14.60
   1   5  -1  540.45   14.80
  -1   5   1  545.05   14.80
  -1   5   1  555.04   14.50
   1   5  -1  523.35   17.50
   1   5  -1  544.15   17.50
   1   5  -1  525.95   14.90
   1   5  -1  525.95   17.10
   1   5  -1  543.15   14.80
   1   5  -1  555.14   14.80
   1   5  -1  514.45   15.00
   1   5  -1  517.95   17.20
  -1   5   1  538.45   16.30
  -1   5   1  532.45   17.10
   1   5  -1  545.05   17.70
  -1   5   1  535.45   16.00
   0  -5  -1 1329.07   33.90
   0  -5   1 1350.56   35.80
   0  -5   1 1332.47   36.20
   0  -5  -1 1316.67   33.90
   0  -5  -1 1328.97   34.10
   0  -5   1 1243.98   36.20
   0  -5   1 1357.36   33.80
   0  -5   1 1298.27   33.90
   0  -5   1 1234.58   33.90
   0  -5  -1 1344.37   36.30
   0  -5  -1 1288.47   36.30
   0  -5  -1 1313.77   34.10
   0  -5   1 1286.17   36.20
   0  -5  -1 1287.47   36.30
   0  -5   1 1300.07   33.80
   0  -5  -1 1343.57   36.80
   0   5  -1 1357.96   35.90
   0   5  -1 1351.86   36.10
   0   5  -1 1255.17   36.10
   0   5  -1 1290.37   34.10
   0   5  -1 1321.47   33.80
   0   5   1 1311.57   34.10
   0   5   1 1225.08   36.60
   0   5  -1 1297.77   34.00
   0   5  -1 1289.37   33.60
   0   5   1 1289.97   33.80
   0   5   1 1275.87   34.10
   0   5   1 1295.47   36.50
   0   5   1 1323.87   33.90
   0   5   1 1282.07   33.90
   0   5  -1 1276.67   36.20
   0   5   1 1291.97   36.20
   0   5  -1 1339.47   33.80
   0   5   1 1357.16   36.50
   0   5  -1 1327.87   35.70
   1  -5   1   -1.50    1.80
   1  -5   1    0.90    0.90
   1  -5   1   -0.40    2.20
  -1  -5  -1   -1.50    0.70
   1  -5   1    0.90    0.70
  -1  -5  -1   -0.90    2.60
  -1  -5  -1   -1.90    2.00
   1  -5   1    0.40    0.80
  -1  -5  -1    3.30    2.30
   1  -5   1    0.80    1.90
   1  -5   1   -0.90    1.90
   1  -5   1   -1.70    1.90
   1  -5   1    0.80    0.80
  -1  -5  -1   -1.00    2.20
  -1  -5  -1   -0.20    1.00
  -1  -5  -1   -0.40    0.80
   1  -5   1    0.30    0.70
   1  -5   1    0.00    2.20
   1  -5   1   -0.70    0.80
  -1   5  -1    0.90    0.70
   1   5   1    6.10    2.80
   1   5   1    1.10    0.90
   1   5   1    0.80    1.00
  -1   5  -1    0.40    0.70
   1   5   1   -0.60    1.00
   1   5   1   -0.10    2.50
   1   5   1    0.80    2.60
  -1   5  -1    0.50    1.60
   1   5   1   -0.80    2.00
   1   5   1    0.90    2.30
  -1   5  -1    0.30    1.80
   1   5   1    1.10    1.20
   1   5   1   -0.30    0.80
   2  -5   1 1087.09   29.00
  -2  -5  -1 1064.79   28.40
  -2  -5  -1 1056.99   28.10
   2  -5   1 1050.29   27.60
  -2  -5  -1 1041.50   31.50
  -2  -5  -1 1081.59   31.10
   2  -5   1 1056.99   29.90
   2  -5   1 1075.29   29.90
   2  -5   1 1046.60   29.30
  -2  -5  -1 1114.59   32.30
   2  -5   1 1080.99   27.90
   2  -5   1 1022.40   29.10
   2  -5   1 1034.60   29.20
   2  -5   1 1070.69   27.60
   2  -5   1 1063.39   27.50
  -2  -5  -1 1067.69   28.50
  -2  -5  -1 1049.89   31.30
   2  -5   1 1077.89   27.80
   2  -5   1 1090.09   27.40
  -2   5  -1 1070.59   30.00
   2   5   1 1070.09   31.60
   2   5   1 1099.59   28.20
   2   5   1 1038.60   28.70
  -2   5  -1 1066.09   28.00
   2   5   1 1045.60   31.80
   2   5   1 1103.69   28.40
   2   5   1 1018.10   30.90
   2   5   1 1085.49   31.70
   2   5   1 1085.79   28.40
   3  -5   1   75.19    2.50
  -3  -5  -1   66.39    6.20
  -3  -5  -1   67.69    3.40
   3  -5   1   69.79    2.40
  -3  -5  -1   68.99    7.50
   3  -5   1   70.89    3.80
   3  -5   1   72.49    2.50
   3  -5   1   71.09    3.80
  -3  -5  -1   73.59    6.70
  -3  -5  -1   68.99    3.60
   3  -5   1   66.39    3.80
   3   5   1   66.89    3.60
   3   5   1   70.09    3.30
   3   5   1   66.49    7.30
   3   5   1   86.19    7.90
   3   5   1   77.29    3.60
  -3   5  -1   68.89    3.50
   3   5   1   72.79    6.90
   3   5   1   68.19    4.00
   3   5   1   61.39    6.20
  -3   5  -1   73.69    5.90
  -4  -5  -1  289.97    9.30
  -4  -5  -1  285.87    9.80
   4  -5   1  274.67    9.00
   4  -5   1  294.47    8.70
   4  -5   1  299.27    9.00
   4  -5   1  280.87   12.60
  -4  -5  -1  284.47    9.30
  -4  -5  -1  292.47   15.00
   4  -5   1  286.97   10.70
  -4  -5  -1  279.57   13.60
  -4  -5  -1  287.37    9.80
  -4  -5  -1  285.77   12.90
  -4  -5  -1  305.97   13.20
   4  -5   1  290.37    7.70
   4   5   1  282.37    9.60
  -4   5  -1  288.57    9.50
   4   5   1  298.77   14.30
  -4   5  -1  283.17   12.70
   4   5   1  296.37    9.20
   4   5   1  298.17   10.00
   4   5   1  251.37   15.70
   4   5   1  291.07   13.00
   4   5   1  294.47   14.60
   4   5   1  245.08   11.70
  -5  -5  -1    1.30    1.40
   5  -5   1    2.40    5.10
  -5  -5  -1    1.80    1.60
  -5  -5  -1    5.90    6.30
  -5  -5  -1   -2.50    4.40
  -5  -5  -1    1.10    1.50
   5  -5   1    5.60    3.20
   5  -5   1    1.80    1.90
   5  -5   1    6.40    1.80
  -5  -5  -1    2.20    4.20
  -5  -5  -1    1.60    4.30
   5   5   1    1.50    1.80
   5   5   1    1.10    4.80
   5   5   1    5.20    2.30
   5   5   1    3.50    1.60
  -5   5  -1    0.60    1.50
   5   5   1    1.30    6.20
   5   5   1    1.00    2.20
  -5   5  -1    2.10    4.50
   5   5   1   -1.60    6.80
   5   5   1    2.10    5.80
  -6  -5  -1   69.29   10.50
   6  -5   1   56.79    4.80
   6  -5   1   80.19    7.10
  -6  -5  -1   59.69    4.30
  -6  -5  -1   69.59    8.20
  -6  -5  -1   67.39    4.60
   6  -5   1   76.89    9.90
  -6  -5  -1   62.19    4.70
  -6  -5  -1   60.49    7.90
   6   5   1   62.69    8.50
   6   5   1   56.49   10.70
   6   5   1   66.39    5.10
   6   5   1   55.89    9.70
   6   5   1   68.29    4.40
   6   5   1   65.49    5.60
  -6   5  -1   59.29    4.40
  -6   5  -1   64.89    8.70
   6   5   1   58.09    5.60
  -7  -5  -1   71.29    8.50
  -7  -5  -1   60.59   10.80
  -7  -5  -1   55.79    4.80
  -7  -5  -1   67.89    6.40
   7  -5   1   53.79   11.70
   7  -5   1   59.49    5.80
  -7   5  -1   72.89   10.40
   7   5   1   59.19    5.90
   7   5   1   81.09   14.10
   7   5   1   66.79   10.30
  -7   5  -1   61.89    5.50
   7   5   1   55.39    5.00
   7   5   1   58.29    5.50
   7   5   1   58.89   11.10
   7  -6  -1   21.70   10.90
  -7  -6   1    2.60    8.20
  -7  -6   1   -0.50    2.60
  -7  -6   1    1.20    2.60
  -7  -6   1   -0.50    2.80
   7  -6  -1   -0.20    2.90
  -7  -6   1    2.80    8.50
  -7  -6   1    1.20    7.50
   7   6  -1    1.80    2.80
  -7   6   1    7.90    7.70
  -7   6   1    0.80    2.80
   7   6  -1   11.10   10.60
   7   6  -1   -7.90    3.10
   7   6  -1   -3.70    9.30
  -6  -6   1  692.53   20.30
   6  -6  -1  678.23   20.70
  -6  -6   1  702.93   20.40
   6  -6  -1  702.63   27.70
  -6  -6   1  663.63   26.60
  -6  -6   1  715.13   26.40
  -6  -6   1  734.73   26.60
  -6  -6   1  658.73   20.90
  -6   6   1  665.23   20.70
  -6   6   1  685.73   25.90
   6   6  -1  636.44   26.60
   6   6  -1  699.33   21.00
   6   6  -1  722.23   27.30
   6   6  -1  674.53   20.80
   5  -6  -1   43.00    6.40
   5  -6  -1   37.90    3.90
   5  -6  -1   37.40    2.20
  -5  -6   1   30.70    8.00
  -5  -6   1   42.40    7.10
  -5  -6   1   32.40   10.20
  -5  -6   1   30.50    6.30
   5  -6  -1   42.30    3.50
  -5  -6   1   36.60    3.50
  -5  -6   1   42.60    3.90
  -5   6   1   45.20    6.90
   5   6  -1   24.40    8.40
   5   6  -1   40.50    4.20
  -5   6   1   41.40    3.30
   5   6  -1   28.50    7.10
   5   6  -1   42.00    4.10
   5   6  -1   41.90    3.50
   5   6  -1   45.50    7.70
   4  -6  -1   32.70    4.20
  -4  -6   1   31.40    5.70
  -4  -6   1   27.80    5.30
  -4  -6   1   27.30    5.40
  -4  -6   1   35.20    5.70
  -4  -6   1   32.10    3.30
   4  -6  -1   31.30    2.10
  -4  -6   1   27.60    2.70
  -4  -6   1   32.50    2.90
   4  -6  -1   31.70    2.20
   4  -6  -1   27.40    3.70
   4   6  -1   34.80    3.30
   4   6  -1   31.90    5.60
   4   6  -1   31.80    3.10
   4   6  -1   26.70    2.70
   4   6  -1   39.20    6.70
  -4   6   1   28.90    4.60
   4   6  -1   27.30    2.70
   4   6  -1   32.10    3.20
   4   6  -1   29.50    6.30
   4   6  -1   32.40    6.10
   4   6  -1   27.80    5.50
  -4   6   1   29.80    2.70
   3  -6  -1   70.59    5.40
  -3  -6   1   72.29    3.90
  -3  -6   1   83.89    7.50
   3  -6  -1   77.99    2.80
  -3  -6   1   71.89    3.60
  -3  -6   1   82.89    6.80
   3  -6  -1   81.99    5.70
   3  -6  -1   77.69    3.10
  -3  -6   1   85.19    7.40
   3  -6  -1   75.99    4.70
  -3  -6   1   75.89    3.80
   3  -6  -1   77.19    3.20
  -3   6   1   80.69    5.80
   3   6  -1   87.69    9.80
  -3   6   1   73.99    3.30
   3   6  -1   71.29    4.10
   3   6  -1   74.09    7.70
   3   6  -1   79.49    8.00
   3   6  -1   75.69    3.90
   3   6  -1   78.69    7.80
   3   6  -1   73.39    7.50
   3   6  -1   73.59    4.00
   3   6  -1   72.89    3.70
   2  -6  -1   28.40    2.10
  -2  -6   1   29.00    2.30
  -2  -6   1   32.40    4.80
   2  -6  -1   31.70    2.20
   2  -6  -1   35.40    3.60
   2  -6  -1   24.50    3.50
  -2  -6   1   27.40    2.60
  -2  -6   1   29.70    4.60
   2  -6  -1   27.70    5.10
   2  -6  -1   24.80    2.30
   2  -6  -1   29.20    1.90
   2   6  -1   25.70    4.10
  -2   6   1   29.60    3.10
   2   6  -1   21.90    4.20
   2   6  -1   22.80    2.40
  -2   6   1   31.50    1.60
   2   6  -1   23.70    2.30
  -2   6   1   28.20    3.20
  -2   6   1   27.40    1.80
  -2   6   1   28.50    1.90
  -2   6   1   27.20    3.10
  -2   6   1   30.60    3.70
   2   6  -1   27.30    4.10
   2   6  -1   28.80    4.50
  -2   6   1   27.70    2.20
   2   6  -1   25.10    2.10
   2   6  -1   26.60    2.40
   1  -6  -1    0.00    1.10
   1  -6  -1    0.30    2.30
  -1  -6   1   -0.10    1.00
  -1  -6   1    0.50    2.80
  -1  -6   1    1.20    0.90
  -1  -6   1    0.30    2.70
  -1  -6   1   -0.30    0.80
   1  -6  -1    0.80    2.20
   1  -6  -1    0.90    0.80
   1  -6  -1    0.40    0.80
   1  -6  -1   -0.90    2.40
  -1  -6   1    2.00    2.70
  -1  -6   1   -0.50    1.00
  -1   6   1   -1.30    2.20
  -1   6   1   -0.50    1.00
  -1   6   1    0.10    1.10
   1   6  -1   -0.30    0.80
  -1   6   1   -0.10    2.10
   1   6  -1    0.00    2.60
   1   6  -1    0.20    2.30
   1   6  -1    0.80    2.60
   1   6  -1    1.10    2.80
   1   6  -1    0.10    0.90
  -1   6   1    5.10    3.10
   1   6  -1   -0.30    0.80
  -1   6   1    0.20    1.00
  -1   6   1    0.90    0.70
   1   6  -1    0.10    1.10
   1   6  -1   -1.20    0.80
  -1   6   1   -0.60    2.00
   0  -6   1    0.10    2.70
   0  -6   1   -0.10    2.20
   0  -6   1   -1.50    2.30
   0  -6  -1    0.90    0.70
   0  -6  -1    2.20    2.50
   0  -6  -1    0.20    1.00
   0  -6   1    1.20    3.00
   0  -6  -1    0.60    1.00
   0  -6   1    0.90    2.40
   0  -6   1    0.10    0.80
   0  -6   1    2.30    0.90
   0  -6  -1    0.20    2.20
   0  -6   1   -0.10    0.90
   0  -6  -1    0.30    0.80
   0  -6   1   -0.50    2.30
   0  -6  -1   -2.00    3.20
   0  -6   1    1.10    0.90
   0   6   1    4.20    2.90
   0   6   1   -0.50    1.30
   0   6  -1    1.60    2.40
   0   6   1   -0.30    2.40
   0   6  -1   -0.70    0.70
   0   6  -1    2.10    2.20
   0   6   1    0.10    0.70
   0   6   1    0.60    0.90
   0   6  -1    0.60    1.00
   0   6  -1    0.30    0.80
   0   6   1   -2.70    2.40
   0   6  -1   -0.90    2.30
   0   6   1    1.60    1.20
   0   6   1    2.20    2.10
   0   6  -1    0.60    2.70
   0   6   1    0.30    0.80
   0   6  -1    1.30    2.80
   0   6  -1   -0.10    0.90
   0   6   1   -0.40    2.40
   0   6  -1    0.60    1.10
  -1  -6  -1   99.69    4.30
   1  -6   1  105.49    4.10
  -1  -6  -1  104.99    6.70
  -1  -6  -1  102.49    4.10
   1  -6   1  115.79    6.50
   1  -6   1  101.49    4.10
   1  -6   1  107.69    6.10
  -1  -6  -1   91.99    7.00
   1  -6   1  109.29    6.20
  -1  -6  -1  104.19    7.00
   1  -6   1  105.29    6.90
   1  -6   1  102.09    3.80
  -1  -6  -1  103.29    4.40
   1  -6   1   98.39    6.30
   1  -6   1  100.79    4.00
  -1  -6  -1  101.89    7.20
   1  -6   1  101.09    6.50
   1  -6   1   98.89    3.90
   1  -6   1  103.09    3.80
   1   6   1  105.39    7.40
  -1   6  -1  102.29    5.60
  -1   6  -1   96.89    6.00
   1   6   1   98.99    6.60
   1   6   1  104.19    4.30
  -1   6  -1   99.99    3.70
   1   6   1  100.09    4.50
   1   6   1  103.09    7.30
   1   6   1  102.79    6.80
   1   6   1  106.29    7.50
  -1   6  -1  103.89    3.60
  -1   6  -1   98.29    5.30
   1   6   1  105.59    4.60
  -1   6  -1  100.89    3.50
   1   6   1  102.09    4.10
   2  -6   1  765.92   22.40
  -2  -6  -1  737.93   20.60
  -2  -6  -1  723.03   23.70
   2  -6   1  747.63   21.90
   2  -6   1  669.23   23.60
  -2  -6  -1  746.33   23.70
   2  -6   1  761.42   19.80
   2  -6   1  733.53   22.00
   2  -6   1  667.13   20.60
   2  -6   1  777.22   20.00
   2  -6   1  759.22   19.90
  -2  -6  -1  748.73   20.40
   2  -6   1  746.93   19.90
  -2  -6  -1  736.43   24.10
   2  -6   1  769.72   21.90
   2  -6   1  798.32   19.80
   2  -6   1  728.43   22.00
  -2  -6  -1  733.73   20.70
   2   6   1  761.62   20.60
   2   6   1  754.22   21.00
   2   6   1  734.83   23.60
   2   6   1  739.53   20.40
   2   6   1  760.52   24.70
   2   6   1  796.52   24.50
   3  -6   1  131.49    4.30
  -3  -6  -1  138.29    5.50
   3  -6   1  131.79    4.30
  -3  -6  -1  131.59    8.90
   3  -6   1  125.79    6.10
   3  -6   1  140.09    6.50
  -3  -6  -1  127.39    5.30
   3  -6   1  128.69    7.60
   3  -6   1  133.79    6.10
   3  -6   1  131.99    4.80
  -3  -6  -1  142.99    9.10
   3  -6   1  132.59    4.20
   3   6   1  119.59    9.70
   3   6   1  127.59    5.10
   3   6   1  137.39    5.80
   3   6   1  137.09    8.70
   3   6   1  141.29    9.70
  -3   6  -1  133.89    5.20
   3   6   1  146.09    9.40
   3   6   1  125.69    5.40
   3   6   1  130.09    5.30
  -3   6  -1  130.99    7.80
  -4  -6  -1   76.39    4.30
  -4  -6  -1   60.59    6.80
   4  -6   1   75.79    5.90
   4  -6   1   81.39    6.40
  -4  -6  -1   93.19    8.70
   4  -6   1   72.99    3.30
  -4  -6  -1   78.79    4.40
  -4  -6  -1   55.49    6.50
  -4  -6  -1   39.20   11.80
   4  -6   1   73.99    2.70
   4  -6   1   74.99    5.20
   4  -6   1   71.59    3.50
   4  -6   1   68.59    4.90
   4  -6   1   67.69    3.50
   4  -6   1   71.59    2.70
  -4  -6  -1   64.59    5.20
  -4   6  -1   71.69    4.20
   4   6   1   68.79    4.20
   4   6   1   85.49    9.10
   4   6   1   73.89    4.40
   4   6   1   79.29    9.10
   4   6   1   74.59    3.80
   4   6   1   79.89    8.50
   4   6   1   71.69    4.80
   4   6   1   61.79    7.60
  -4   6  -1   72.59    7.20
  -5  -6  -1  427.56   19.30
   5  -6   1  451.55   18.50
   5  -6   1  443.96   13.50
  -5  -6  -1  452.95   13.70
  -5  -6  -1  435.86   14.40
   5  -6   1  448.66   15.00
   5  -6   1  448.46   11.70
  -5  -6  -1  463.85   18.80
  -5  -6  -1  435.26   13.70
  -5  -6  -1  466.85   18.70
   5  -6   1  451.45   11.80
   5  -6   1  430.36   12.20
   5  -6   1  435.86   14.70
   5  -6   1  428.56   13.30
   5  -6   1  440.56   13.80
   5   6   1  388.16   14.90
   5   6   1  453.15   14.50
  -5   6  -1  427.66   13.90
   5   6   1  435.26   18.80
   5   6   1  373.16   22.00
  -5   6  -1  436.56   18.30
   5   6   1  438.06   13.60
   5   6   1  445.76   20.40
   6  -6   1    2.90    7.60
  -6  -6  -1   -9.50    6.60
  -6  -6  -1    3.20    6.20
  -6  -6  -1    3.40    6.80
  -6  -6  -1    0.40    2.30
   6  -6   1   -0.70    2.20
   6  -6   1   -0.40    4.90
  -6  -6  -1   -1.90    2.10
   6   6   1   -0.70    1.90
   6   6   1    3.30    2.80
   6   6   1   -7.30    7.80
  -6   6  -1    1.00    1.90
   6   6   1    2.70    2.80
   6   6   1   -5.90    6.80
  -6   6  -1    1.80    5.90
  -7  -6  -1  576.54   26.60
   7  -6   1  545.85   17.50
  -7  -6  -1  522.15   18.50
  -7  -6  -1  528.65   23.80
  -7  -6  -1  540.25   16.80
   7  -6   1  528.75   26.40
   7   6   1  527.75   27.90
   7   6   1  555.64   18.20
  -7   6  -1  552.04   24.70
   7   6   1  551.54   17.00
   7   6   1  535.35   18.20
  -7   6  -1  510.65   17.80
   7   6   1  593.54   26.30
   7   6   1  543.85   28.10
  -7  -7   1   25.50    4.30
  -7  -7   1   32.60   10.10
  -7  -7   1   35.20    9.30
   7  -7  -1   25.60    4.30
  -7  -7   1   31.40    4.40
  -7  -7   1   -1.60    9.60
   7  -7  -1   24.60   12.10
   7   7  -1   35.50    4.00
   7   7  -1   30.70   10.80
  -7   7   1   28.30    4.30
   7   7  -1   28.30   11.90
  -7   7   1   26.60    8.00
   7   7  -1   26.50    4.50
  -6  -7   1  138.09   12.70
   6  -7  -1  130.99    7.10
  -6  -7   1  133.09   12.70
  -6  -7   1  138.89    7.00
  -6  -7   1  162.28   14.70
  -6  -7   1  139.09    7.40
   6  -7  -1  134.89   14.20
   6   7  -1  145.69   16.10
   6   7  -1  135.19   14.80
   6   7  -1  150.78    7.30
  -6   7   1  128.99    6.50
  -6   7   1  143.09   11.70
   6   7  -1  130.29    7.60
  -5  -7   1   22.70    3.00
   5  -7  -1   19.10    2.10
   5  -7  -1   17.60    2.00
  -5  -7   1   25.00    6.20
   5  -7  -1   21.70    5.30
  -5  -7   1   17.70    6.30
  -5  -7   1   18.10    2.80
   5  -7  -1   22.40    3.70
  -5   7   1   15.80    2.60
   5   7  -1   15.70    6.50
   5   7  -1   26.20    3.30
   5   7  -1   23.20    7.70
  -5   7   1   25.20    5.70
  -4  -7   1   25.00    6.10
   4  -7  -1   25.70    4.40
  -4  -7   1   18.50    5.70
  -4  -7   1   28.20    3.20
  -4  -7   1   34.10    6.70
   4  -7  -1   22.20    2.20
  -4  -7   1   19.30    2.30
  -4  -7   1   26.70    5.50
   4  -7  -1   21.70    3.70
   4  -7  -1   23.70    2.70
   4  -7  -1   24.50    2.30
  -4  -7   1   20.40    2.70
   4   7  -1   21.90    2.50
   4   7  -1   28.70    6.30
   4   7  -1   21.20    2.40
   4   7  -1   22.20    5.60
   4   7  -1   11.90    3.00
   4   7  -1   17.80    2.60
  -3  -7   1  423.06   19.80
   3  -7  -1  423.06   11.90
   3  -7  -1  432.86   16.90
   3  -7  -1  397.16   12.00
  -3  -7   1  416.76   12.80
   3  -7  -1  423.96   14.60
  -3  -7   1  431.86   17.40
   3  -7  -1  424.76   12.60
  -3  -7   1  428.26   13.10
   3  -7  -1  432.16   11.70
  -3  -7   1  423.86   12.80
   3  -7  -1  416.86   14.80
  -3  -7   1  412.46   17.10
   3  -7  -1  434.06   13.80
  -3  -7   1  400.96   15.80
  -3   7   1  428.46   12.20
   3   7  -1  433.06   13.10
   3   7  -1  412.66   17.20
   3   7  -1  409.56   12.80
   3   7  -1  422.56   17.50
   3   7  -1  437.06   17.40
   3   7  -1  422.06   13.20
   3   7  -1  407.16   13.00
  -3   7   1  423.86   14.90
   3   7  -1  427.06   17.50
  -2  -7   1    5.00    3.20
   2  -7  -1    7.90    3.20
   2  -7  -1    6.90    1.40
  -2  -7   1    5.60    1.40
   2  -7  -1    6.60    1.20
   2  -7  -1    4.30    1.20
   2  -7  -1    4.00    3.80
  -2  -7   1    7.10    1.40
   2  -7  -1    3.00    2.30
  -2  -7   1    4.90    3.50
   2  -7  -1    6.00    1.20
  -2  -7   1    6.70    4.00
   2  -7  -1    6.80    3.10
  -2  -7   1    3.90    1.50
   2   7  -1    7.90    3.80
   2   7  -1    5.80    3.20
  -2   7   1    7.60    2.90
  -2   7   1    6.30    3.00
  -2   7   1    6.30    1.00
   2   7  -1    5.90    1.10
   2   7  -1    5.00    1.50
  -2   7   1    3.80    1.10
  -2   7   1    7.00    2.40
  -2   7   1    6.90    1.20
   2   7  -1    2.20    3.60
  -2   7   1    5.90    1.30
  -2   7   1    1.90    2.60
   2   7  -1    2.60    1.20
   2   7  -1    4.00    1.40
   2   7  -1    4.60    3.10
   1  -7  -1  360.26   13.60
  -1  -7   1  347.77   10.70
  -1  -7   1  328.67   10.70
  -1  -7   1  357.86   14.00
  -1  -7   1  351.36   10.50
  -1  -7   1  342.07   14.10
   1  -7  -1  349.17   13.10
   1  -7  -1  349.57   10.20
  -1  -7   1  357.36   10.70
   1  -7  -1  349.37   10.30
  -1  -7   1  352.36   14.40
  -1  -7   1  345.57   14.20
   1  -7  -1  351.66   13.10
   1  -7  -1  337.37   10.40
   1   7  -1  343.47   10.70
   1   7  -1  332.27   13.90
   1   7  -1  347.67   10.40
  -1   7   1  346.97   10.30
  -1   7   1  344.87   10.20
   1   7  -1  358.66   13.80
  -1   7   1  341.37   12.30
  -1   7   1  351.56   10.60
   1   7  -1  330.87   13.70
  -1   7   1  351.06    9.90
  -1   7   1  348.17   13.70
  -1   7   1  361.26   13.40
  -1   7   1  342.17   12.90
   1   7  -1  342.47   13.30
   1   7  -1  346.57   10.80
   0  -7   1   29.30    2.30
   0  -7   1   27.90    2.20
   0  -7   1   28.80    4.30
   0  -7  -1   26.50    2.40
   0  -7  -1   33.40    4.80
   0  -7   1   29.20    2.20
   0  -7  -1   23.00    2.40
   0  -7   1   27.70    4.20
   0  -7   1   32.60    4.70
   0  -7   1   26.90    2.20
   0  -7   1   28.00    4.40
   0  -7   1   28.60    2.50
   0  -7  -1   22.80    4.10
   0   7   1   25.20    2.10
   0   7  -1   27.40    3.90
   0   7  -1   26.20    2.10
   0   7  -1   25.60    2.50
   0   7   1   20.00    4.20
   0   7  -1   25.80    4.00
   0   7   1   25.90    2.70
   0   7   1   29.60    4.70
   0   7   1   28.80    2.30
   0   7  -1   24.70    4.00
   0   7   1   27.70    2.10
   0   7   1   26.00    3.80
   0   7   1   22.40    4.00
   0   7  -1   27.00    3.90
   0   7   1   30.50    2.50
   0   7  -1   29.80    2.00
   0   7  -1   30.10    2.10
  -1  -7  -1    3.80    1.10
   1  -7   1    4.90    1.20
   1  -7   1    4.20    1.20
   1  -7   1    3.60    3.00
  -1  -7  -1    1.50    3.30
  -1  -7  -1    7.20    3.40
   1  -7   1    5.40    3.20
   1  -7   1    3.50    1.00
  -1  -7  -1    5.70    1.50
  -1  -7  -1    5.90    1.50
   1  -7   1    3.90    1.10
   1  -7   1    3.20    1.10
   1  -7   1    3.50    1.10
   1  -7   1    5.90    3.00
   1  -7   1    2.10    3.00
   1  -7   1    5.60    3.10
   1   7   1    5.10    1.20
   1   7   1    6.00    3.50
   1   7   1    6.90    1.50
  -1   7  -1    8.40    2.80
  -1   7  -1    4.00    0.90
   1   7   1    4.00    1.10
  -1   7  -1    6.60    1.10
   1   7   1    5.20    1.50
   1   7   1    5.60    3.30
  -1   7  -1    4.80    1.20
  -1   7  -1    7.10    2.60
   1   7   1    7.00    3.20
  -1   7  -1   -0.90    2.70
   2  -7   1   26.60    4.20
   2  -7   1   17.00    1.80
   2  -7   1   21.70    2.10
  -2  -7  -1   20.80    4.30
   2  -7   1   15.70    1.80
   2  -7   1   17.80    1.80
   2  -7   1   17.80    2.10
   2  -7   1   18.80    3.70
   2  -7   1   16.50    4.00
  -2  -7  -1   17.90    4.50
   2  -7   1   18.70    1.80
   2  -7   1   21.50    3.50
   2  -7   1   14.00    3.30
   2  -7   1   17.90    4.20
   2   7   1   18.30    4.30
   2   7   1   21.20    4.50
  -2   7  -1   21.40    2.30
   2   7   1   17.10    1.90
  -2   7  -1   19.60    1.20
  -2   7  -1   19.20    1.30
  -2   7  -1   17.50    2.10
   2   7   1   15.70    3.70
   2   7   1   18.70    2.10
   2   7   1   15.10    2.00
   3  -7   1  716.33   19.40
   3  -7   1  717.83   21.30
   3  -7   1  699.83   21.00
  -3  -7  -1  711.83   20.30
   3  -7   1  714.63   22.10
   3  -7   1  669.73   20.90
  -3  -7  -1  681.03   24.20
   3  -7   1  735.53   19.00
   3  -7   1  719.33   19.00
  -3  -7  -1  703.53   24.60
   3  -7   1  718.93   18.90
   3  -7   1  715.43   18.90
   3  -7   1  718.23   19.30
  -3  -7  -1  705.93   20.20
   3  -7   1  728.43   21.80
   3  -7   1  687.03   22.50
   3   7   1  691.83   19.90
   3   7   1  677.43   24.50
   3   7   1  714.93   20.60
   3   7   1  695.33   20.10
   3   7   1  730.53   25.40
   3   7   1  671.93   23.80
   3   7   1  719.43   20.20
   4  -7   1  146.49    8.10
   4  -7   1  145.29    4.50
   4  -7   1  140.39    8.70
   4  -7   1  133.89    7.50
   4  -7   1  140.59    4.50
   4  -7   1  148.79    5.30
  -4  -7  -1  138.69    6.20
   4  -7   1  142.39    4.80
   4  -7   1  146.89    6.30
   4  -7   1  137.49    6.20
  -4  -7  -1  125.79   10.20
  -4  -7  -1  146.69    6.40
   4  -7   1  137.39    4.70
  -4  -7  -1  133.89   11.30
   4   7   1  144.49    6.20
   4   7   1  150.78    9.50
   4   7   1  133.89   11.00
   4   7   1  129.49   12.10
  -4   7  -1  146.49    6.10
  -4   7  -1  134.89    9.30
   4   7   1  143.39    5.90
   4   7   1  141.59    6.70
  -5  -7  -1  639.64   24.20
   5  -7   1  615.84   18.20
   5  -7   1  646.94   19.20
  -5  -7  -1  657.13   18.80
  -5  -7  -1  645.44   24.30
   5  -7   1  620.34   17.10
   5  -7   1  623.74   19.60
   5  -7   1  603.84   23.60
   5  -7   1  630.24   16.80
  -5  -7  -1  586.04   24.10
   5  -7   1  628.14   16.60
   5  -7   1  625.04   20.00
   5  -7   1  633.54   19.60
  -5  -7  -1  635.34   18.80
   5   7   1  617.24   24.30
  -5   7  -1  625.14   23.10
  -5   7  -1  594.54   18.70
   5   7   1  627.54   19.70
   5   7   1  614.84   25.70
   6  -7   1   13.20    8.30
  -6  -7  -1    2.00    7.00
  -6  -7  -1   -2.80    2.10
  -6  -7  -1  -16.40    8.40
   6  -7   1    2.60    2.50
  -6  -7  -1    0.30    6.90
  -6  -7  -1    2.50    2.60
  -6   7  -1    7.80    5.40
  -6   7  -1   -1.30    2.10
   6   7   1   11.90    8.40
   6   7   1   -0.80    2.90
   6   7   1    2.20    2.30
   6   7   1    4.30    8.90
  -7  -7  -1    3.00    2.90
  -7  -7  -1    1.80    3.20
  -7  -7  -1    9.20    9.60
   7  -7   1    6.70   11.30
  -7  -7  -1    6.80   10.20
  -7  -7  -1   13.10    3.40
   7  -7   1    3.90    3.60
  -7  -7  -1   10.10    7.60
  -7   7  -1    6.10    7.00
   7   7   1   -0.70    4.00
   7   7   1   -3.50   11.90
   7   7   1   -5.90    3.50
  -7   7  -1    7.20    3.20
   7   7   1    9.20    3.00
   7   7   1   -0.70   12.50
   7   7   1   -2.00   11.00
  -7  -8   1   -0.60   10.60
  -7  -8   1    9.60    3.30
   7  -8  -1   11.20    3.60
  -7  -8   1   10.50    3.70
   7  -8  -1   10.80   11.30
  -7  -8   1   10.90    7.90
  -7  -8   1    6.30   11.10
  -7   8   1    4.20    3.00
   7   8  -1   10.10    3.40
   7   8  -1   18.60   12.30
  -7   8   1    9.10    7.10
   7   8  -1    5.80    3.90
   7   8  -1   10.30   12.10
  -6  -8   1  637.24   27.30
   6  -8  -1  661.43   19.20
  -6  -8   1  656.53   21.00
  -6  -8   1  714.63   21.10
   6  -8  -1  675.33   29.30
   6  -8  -1  668.43   19.20
   6  -8  -1  643.04   20.60
  -6  -8   1  735.53   29.40
   6   8  -1  712.93   29.20
   6   8  -1  691.83   20.70
   6   8  -1  667.03   21.20
   6   8  -1  667.93   29.00
   5  -8  -1  321.77    9.70
  -5  -8   1  318.17   18.20
  -5  -8   1  331.07   11.50
   5  -8  -1  316.47    9.20
  -5  -8   1  289.87   11.10
   5  -8  -1  303.07   12.00
   5  -8  -1  307.87    9.20
   5  -8  -1  304.87   12.10
   5  -8  -1  290.17   14.00
  -5  -8   1  290.47   15.70
   5   8  -1  311.27   11.60
   5   8  -1  319.97   18.20
  -4  -8   1  198.88    8.00
  -4  -8   1  197.88    7.80
  -4  -8   1  185.18    7.30
  -4  -8   1  206.38   13.70
   4  -8  -1  191.08    6.60
   4  -8  -1  202.28    6.60
   4  -8  -1  195.48   10.70
   4  -8  -1  189.38    8.20
  -4  -8   1  197.48   12.00
  -4  -8   1  177.78   12.90
   4  -8  -1  202.08    9.80
   4   8  -1  197.28   13.50
   4   8  -1  189.48    8.00
   4   8  -1  179.98   10.10
   3  -8  -1  163.38    5.80
   3  -8  -1  159.38    8.50
   3  -8  -1  156.48    6.40
   3  -8  -1  153.48    5.80
   3  -8  -1  161.58    9.00
  -3  -8   1  157.58   11.40
  -3  -8   1  158.08   11.10
  -3  -8   1  160.18    6.70
   3  -8  -1  175.98    9.50
   3  -8  -1  161.58    5.50
  -3  -8   1  161.68    6.40
   3   8  -1  146.39   11.30
   3   8  -1  174.78   11.40
  -3   8   1  163.18    6.00
   3   8  -1  133.19   10.60
   3   8  -1  158.68    6.90
  -3   8   1  167.28    5.60
   3   8  -1  151.98    6.40
  -3   8   1  162.08    5.60
  -3   8   1  155.38    9.40
   3   8  -1  155.38    6.40
  -2  -8   1  225.28   12.20
  -2  -8   1  207.18   11.90
   2  -8  -1  221.38   10.50
   2  -8  -1  208.68   11.70
   2  -8  -1  205.78    6.90
   2  -8  -1  209.88   10.10
   2  -8  -1  218.78    7.40
   2  -8  -1  212.38   10.30
   2  -8  -1  204.28    7.20
   2  -8  -1  211.78    7.00
  -2  -8   1  213.78    7.60
  -2  -8   1  217.28    7.80
  -2  -8   1  200.28    7.70
  -2  -8   1  212.98   11.70
  -2   8   1  212.68    7.40
   2   8  -1  214.58   11.60
  -2   8   1  210.28    6.70
  -2   8   1  213.08    8.70
  -2   8   1  210.78    9.70
  -2   8   1  198.78   10.60
   2   8  -1  223.38    7.50
  -2   8   1  215.48    6.40
   2   8  -1  210.38    7.90
  -2   8   1  201.88    9.60
  -2   8   1  212.88    7.00
   2   8  -1  206.18   11.90
   2   8  -1  233.48   11.70
   1  -8  -1    2.10    1.00
  -1  -8   1    1.20    1.10
   1  -8  -1    2.50    3.30
   1  -8  -1    4.90    3.20
  -1  -8   1    0.90    1.00
  -1  -8   1    5.30    3.80
  -1  -8   1    3.80    1.10
   1  -8  -1    1.60    1.30
  -1  -8   1    2.70    3.50
  -1  -8   1    6.20    4.20
  -1  -8   1    1.90    1.10
   1  -8  -1   -3.40    2.80
   1  -8  -1    0.70    1.10
  -1   8   1    3.20    3.40
   1   8  -1    1.60    3.50
  -1   8   1    2.20    2.80
   1   8  -1    3.00    3.60
  -1   8   1    0.00    3.30
  -1   8   1    1.30    1.10
  -1   8   1    7.50    3.90
   1   8  -1    0.00    1.20
   1   8  -1    1.00    1.00
  -1   8   1    0.80    1.20
  -1   8   1    2.40    0.80
   1   8  -1   -2.50    3.50
   1   8  -1    1.80    1.20
  -1   8   1    4.10    1.60
   0  -8   1   37.20    5.00
   0  -8   1   34.80    5.50
   0  -8  -1   40.90    2.80
   0  -8  -1   41.80    4.60
   0  -8  -1   38.10    3.00
   0  -8   1   33.20    2.60
   0  -8   1   38.80    5.10
   0  -8  -1   31.90    4.60
   0  -8   1   41.10    3.00
   0  -8  -1   47.60    5.80
   0  -8   1   40.70    2.70
   0  -8   1   37.80    2.60
   0  -8   1   41.30    5.60
   0  -8   1   38.30    3.00
   0   8   1   39.20    5.10
   0   8   1   41.90    2.60
   0   8  -1   37.00    2.40
   0   8  -1   38.40    2.50
   0   8   1   39.20    2.90
   0   8  -1   42.20    5.10
   0   8   1   44.30    3.40
   0   8   1   34.20    4.80
   0   8  -1   41.90    3.00
   0   8  -1   38.00    5.30
   0   8  -1   33.80    4.50
   0   8   1   37.40    2.50
   0   8  -1   47.30    5.70
   0   8   1   28.90    4.50
   0   8  -1   38.10    2.70
   1  -8   1   36.50    2.50
  -1  -8  -1   37.70    3.00
   1  -8   1   36.10    5.00
   1  -8   1   43.60    5.40
   1  -8   1   41.50    5.20
   1  -8   1   38.60    2.80
  -1  -8  -1   35.00    5.50
  -1  -8  -1   28.60    6.00
   1  -8   1   38.90    2.50
   1  -8   1   38.10    4.70
   1  -8   1   31.70    5.20
   1  -8   1   37.80    2.50
   1  -8   1   38.40    2.60
   1   8   1   35.20    3.10
   1   8   1   32.40    2.40
   1   8   1   40.00    2.70
  -1   8  -1   38.20    4.60
   1   8   1   44.00    6.00
   1   8   1   39.90    5.30
   1   8   1   39.10    5.50
  -1   8  -1   43.30    4.40
  -1   8  -1   31.20    4.60
  -1   8  -1   36.90    2.20
  -1   8  -1   39.70    2.50
  -1   8  -1   35.90    2.40
  -2  -8  -1  489.75   19.20
   2  -8   1  497.05   17.50
   2  -8   1  482.95   14.10
   2  -8   1  497.25   14.10
   2  -8   1  516.55   17.90
   2  -8   1  480.45   17.00
   2  -8   1  489.25   14.00
   2  -8   1  465.65   17.20
   2  -8   1  505.85   14.20
   2  -8   1  495.55   14.40
   2  -8   1  531.75   17.90
   2  -8   1  490.15   17.30
   2  -8   1  496.55   14.00
   2   8   1  487.55   14.50
   2   8   1  494.75   14.70
  -2   8  -1  500.25   13.10
   2   8   1  487.55   18.70
   2   8   1  486.65   15.10
   2   8   1  500.45   18.80
  -2   8  -1  495.85   14.80
   2   8   1  488.45   19.50
   3  -8   1    3.40    2.80
   3  -8   1    0.80    1.10
  -3  -8  -1    5.90    4.60
   3  -8   1    0.00    1.00
   3  -8   1   -0.30    1.40
  -3  -8  -1    3.70    4.30
   3  -8   1    5.80    3.10
   3  -8   1    1.80    1.30
   3  -8   1    3.10    4.20
   3  -8   1    4.60    4.10
   3  -8   1   -5.70    3.50
   3  -8   1    9.90    5.10
   3  -8   1    0.50    1.00
   3  -8   1    4.00    1.50
  -3  -8  -1    0.30    1.50
   3   8   1    2.70    1.60
   3   8   1    3.80    4.50
   3   8   1    0.70    1.30
   3   8   1    1.80    1.80
   3   8   1    1.30    4.70
   3   8   1    2.20    5.50
  -4  -8  -1   96.79    5.00
  -4  -8  -1   88.59    5.40
   4  -8   1   93.59    9.00
   4  -8   1   92.59    8.10
   4  -8   1   97.79    4.10
   4  -8   1   82.39    8.60
   4  -8   1   88.99    6.20
   4  -8   1   99.79    3.70
  -4  -8  -1   79.19    9.10
   4  -8   1  101.09    4.10
  -4  -8  -1  100.39    9.60
   4  -8   1  104.29    8.20
   4  -8   1   97.49    3.70
   4  -8   1   98.19    6.30
   4  -8   1   96.99    4.90
   4  -8   1   93.59    4.40
   4   8   1   81.99    7.00
   4   8   1  109.79    6.10
   4   8   1   85.39   10.10
   5  -8   1   68.29    7.00
   5  -8   1   59.09    5.40
  -5  -8  -1   72.19    9.50
   5  -8   1   69.99    6.80
   5  -8   1   67.39    6.20
   5  -8   1   75.29    9.80
   5  -8   1   64.19    3.90
  -5  -8  -1   56.89    8.40
   5  -8   1   63.39    3.40
  -5  -8  -1   70.79    5.30
  -5   8  -1   63.99    8.10
  -5   8  -1   64.79    4.60
   5   8   1   62.59    9.90
   5   8   1   58.09    5.40
   5   8   1   57.79    9.30
   6  -8   1  121.89    6.60
  -6  -8  -1  147.89   14.10
   6  -8   1  161.88   16.00
  -6  -8  -1  114.59    7.70
  -6  -8  -1  117.79   12.20
  -6  -8  -1  150.28   14.90
  -6  -8  -1  140.89    7.60
   6   8   1  126.59    8.00
  -6   8  -1  129.49   11.70
   6   8   1  125.29    6.80
   6   8   1  148.79   15.20
  -6   8  -1  128.59    6.80
  -6  -9   1   12.20    3.90
   6  -9  -1   10.90   10.30
   6  -9  -1    7.90    1.50
   6  -9  -1    8.40    1.50
   6  -9  -1   11.20    3.90
   6  -9  -1   13.00    4.10
  -6  -9   1    4.80   13.70
  -6  -9   1   12.50    4.20
  -6  -9   1   32.50   10.50
   6   9  -1    9.70    2.90
   6   9  -1    8.10    9.90
  -5  -9   1   13.10    6.60
  -5  -9   1   10.40    7.50
   5  -9  -1   10.00    4.30
   5  -9  -1   10.00    1.70
  -5  -9   1   10.00    2.50
  -5  -9   1   12.70    2.90
   5  -9  -1   12.50    2.40
   5  -9  -1    7.50    6.70
   5   9  -1   12.20    8.00
   5   9  -1    5.10    2.80
   4  -9  -1  104.49    8.60
  -4  -9   1   99.49   10.50
   4  -9  -1   95.79    4.50
  -4  -9   1  102.59    5.50
  -4  -9   1   90.29    9.90
   4  -9  -1  104.69    4.50
   4  -9  -1   89.39    7.80
   4  -9  -1   93.39    6.00
   4  -9  -1  113.59   12.30
   4  -9  -1   96.29    7.80
  -4  -9   1  101.19    5.80
   4   9  -1   72.29    9.50
   4   9  -1   96.19    5.90
   3  -9  -1   11.30    1.80
   3  -9  -1    5.70    4.90
   3  -9  -1    9.80    8.00
   3  -9  -1    9.10    1.80
   3  -9  -1    9.70    1.60
   3  -9  -1    7.10    4.20
   3  -9  -1    7.60    1.80
  -3  -9   1   13.80    5.60
   3  -9  -1    3.40    4.50
  -3  -9   1    8.40    2.00
   3  -9  -1    3.60    3.50
  -3  -9   1    4.40    5.40
   3   9  -1    7.50    5.80
   3   9  -1   10.80    2.00
   3   9  -1    3.10    5.20
  -3   9   1    8.60    2.80
  -3   9   1    9.30    1.20
   3   9  -1    6.90    2.10
  -3   9   1   10.00    1.10
  -3   9   1    8.80    2.70
   2  -9  -1   89.49    4.50
   2  -9  -1   96.09    9.40
  -2  -9   1  101.49    4.80
   2  -9  -1  104.99   10.10
   2  -9  -1   80.59    8.30
  -2  -9   1   89.09    9.40
  -2  -9   1   94.89    5.10
   2  -9  -1   82.69    7.60
  -2  -9   1   97.99    9.90
   2  -9  -1   91.69    4.30
  -2  -9   1   92.89    4.90
  -2  -9   1   91.89    9.70
   2  -9  -1   89.19    4.40
   2  -9  -1   92.99    4.40
   2   9  -1   86.69    4.40
  -2   9   1   90.69    8.00
   2   9  -1  101.59    9.90
   2   9  -1   88.69    4.50
  -2   9   1   97.59    3.70
  -2   9   1   92.49    4.10
  -2   9   1   93.89    7.70
   2   9  -1   90.89    9.10
   2   9  -1   99.89    9.30
   2   9  -1   90.09    5.10
  -2   9   1   90.99    6.60
  -2   9   1   96.59    4.30
   1  -9  -1  200.58    7.20
  -1  -9   1  190.78    7.20
  -1  -9   1  196.28    7.10
  -1  -9   1  198.48    7.50
   1  -9  -1  187.18    7.00
   1  -9  -1  196.28    6.90
  -1  -9   1  206.48   12.10
  -1  -9   1  195.78    7.30
   1  -9  -1  197.08    7.30
   1  -9  -1  223.88   11.50
  -1  -9   1  171.48   11.70
   1  -9  -1  197.18   11.00
  -1  -9   1  190.88   11.80
   1  -9  -1  177.98   10.80
  -1   9   1  194.58    7.10
   1   9  -1  201.88   11.70
  -1   9   1  194.28    6.40
  -1   9   1  214.08   10.90
  -1   9   1  199.68    7.70
   1   9  -1  204.38    7.00
   1   9  -1  173.88   10.70
   1   9  -1  189.88    6.90
   1   9  -1  196.78   11.20
   1   9  -1  191.38    7.50
  -1   9   1  199.58   13.20
   1   9  -1  219.58   16.80
  -1   9   1  190.38    9.50
   0  -9   1 1164.18   36.80
   0  -9   1 1209.78   37.10
   0  -9  -1 1267.67   32.50
   0  -9   1 1148.89   35.90
   0  -9   1 1192.28   32.30
   0  -9   1 1191.18   32.40
   0  -9   1 1184.18   32.10
   0  -9  -1 1154.38   32.40
   0  -9   1 1231.58   34.30
   0  -9   1 1176.58   31.90
   0  -9  -1 1188.28   36.90
   0   9   1 1196.38   32.50
   0   9  -1 1205.38   31.90
   0   9   1 1199.28   35.70
   0   9  -1 1194.98   32.40
   0   9   1 1149.89   36.50
   0   9  -1 1222.58   31.90
   0   9  -1 1236.08   35.60
   0   9  -1 1188.38   36.40
   0   9  -1 1210.38   31.80
   0   9  -1 1182.58   35.90
   0   9  -1 1239.78   35.90
   0   9   1 1196.88   32.10
   0   9   1 1126.89   35.90
   0   9   1 1226.68   36.80
   0   9   1 1195.58   31.80
   0   9   1 1167.98   32.00
  -1  -9  -1    3.40    1.30
   1  -9   1    4.00    1.40
   1  -9   1    4.70    1.60
   1  -9   1    4.50    1.40
   1  -9   1    0.80    3.90
   1  -9   1    7.20    4.10
  -1  -9  -1    5.90    4.20
   1  -9   1    4.20    1.80
  -1  -9  -1    5.00    1.30
   1  -9   1    3.70    1.20
   1  -9   1    5.10    4.10
   1  -9   1    4.80    1.30
   1  -9   1    0.70    4.30
   1   9   1   -1.10    3.90
   1   9   1    6.20    4.20
  -1   9  -1   -1.70    3.90
   1   9   1    4.20    4.00
  -1   9  -1    4.10    3.80
   1   9   1    1.10    1.50
  -1   9  -1    5.60    1.60
  -1   9  -1    3.70    1.30
  -1   9  -1    3.60    1.20
   1   9   1    4.50    1.40
  -1   9  -1    3.00    3.20
   2  -9   1  870.71   28.80
   2  -9   1  931.21   25.50
   2  -9   1  922.31   25.20
   2  -9   1  949.51   29.10
  -2  -9  -1  900.51   26.00
  -2  -9  -1  930.91   31.20
   2  -9   1  961.10   29.30
   2  -9   1  909.21   25.20
   2  -9   1  920.51   29.40
   2  -9   1  910.91   25.20
   2  -9   1  916.11   29.40
   2  -9   1  927.11   25.10
  -2  -9  -1  940.71   31.20
   2  -9   1  925.41   28.70
   2  -9   1  914.81   25.10
  -2   9  -1  945.51   25.90
   2   9   1  919.61   31.40
   2   9   1  932.61   34.40
   2   9   1  910.71   25.70
  -2   9  -1  954.50   24.00
   2   9   1  917.31   26.30
  -2   9  -1  912.61   26.10
  -2   9  -1  940.51   24.10
   3  -9   1   52.69    6.20
   3  -9   1   41.50    5.10
   3  -9   1   42.30    3.50
   3  -9   1   55.19    6.80
   3  -9   1   49.20    3.30
  -3  -9  -1   45.70    4.10
   3  -9   1   48.00    6.90
   3  -9   1   49.90    7.30
   3  -9   1   43.70    3.10
   3  -9   1   44.20    3.60
   3  -9   1   45.50    3.00
  -3  -9  -1   68.09    8.60
   3  -9   1   45.70    3.40
   3  -9   1   44.80    5.50
   3   9   1   43.40    4.70
   3   9   1   47.80    3.70
   3   9   1   37.00   11.50
   3   9   1   55.89    9.40
   4  -9   1    1.60    1.40
   4  -9   1    5.30    3.50
   4  -9   1    2.00    1.80
  -4  -9  -1    1.50    6.40
   4  -9   1    8.40    5.70
   4  -9   1   -0.20    5.10
  -4  -9  -1    0.30    2.20
   4  -9   1    4.40    5.20
   4  -9   1    0.30    1.70
   4  -9   1    0.90    1.20
   4   9   1    0.90    6.50
   4   9   1    2.60    2.20
   5  -9   1  100.99    8.90
   5  -9   1   86.69    5.50
   5  -9   1   85.99    5.70
  -5  -9  -1   97.59   11.80
  -5  -9  -1   90.79   10.10
  -5  -9  -1   86.19    6.30
   5   9   1   98.39    6.60
   5   9   1   81.29   11.60
  -6  -9  -1   12.20    7.70
   6  -9   1    2.30    2.80
  -6  -9  -1    0.90    2.90
  -6  -9  -1   -4.20    9.70
   6  -9   1   11.10    9.50
  -6  -9  -1    2.50    3.30
   6   9   1   22.80   18.60
   6   9   1    4.30   10.80
  -6   9  -1    0.70    3.00
   6   9   1    5.50    3.70
   6   9   1    0.40    2.60
  -6   9  -1    4.40    6.90
  -6 -10   1   26.50    4.80
   6 -10  -1   39.60    5.50
  -6 -10   1   35.70    8.90
   6 -10  -1   31.30    3.10
  -6 -10   1   34.70   11.60
  -6 -10   1   24.40    3.90
   6 -10  -1   26.80    3.50
   6  10  -1   11.60   11.90
   6  10  -1   24.80    4.70
  -5 -10   1    1.10    2.10
  -5 -10   1   -0.50    8.30
   5 -10  -1   -0.90    1.70
  -5 -10   1    6.60    5.90
   5 -10  -1    7.80    5.30
  -5 -10   1    1.70    2.50
   5 -10  -1   -0.20    1.70
   5 -10  -1   -3.80    4.70
   5  10  -1   -0.30    2.90
   5  10  -1   -3.80    8.90
   4 -10  -1   24.00    7.40
   4 -10  -1   27.20    6.40
  -4 -10   1   27.10    6.70
   4 -10  -1   25.00    5.60
  -4 -10   1   41.20    9.60
   4 -10  -1   23.10    2.50
  -4 -10   1   27.00    3.70
   4 -10  -1   19.10    5.10
   4 -10  -1   21.50    2.80
   4 -10  -1   26.90    3.00
  -4 -10   1   27.80    3.60
   4  10  -1   36.90    9.40
   4  10  -1   31.30    4.00
   3 -10  -1  283.87    9.30
  -3 -10   1  283.97   21.00
  -3 -10   1  295.67   10.50
   3 -10  -1  274.67    9.30
   3 -10  -1  278.07    9.30
   3 -10  -1  280.17   13.70
  -3 -10   1  260.47   16.40
   3 -10  -1  272.07   14.90
   3 -10  -1  285.57   13.70
  -3  10   1  287.27   10.40
   3  10  -1  262.77   16.40
  -3  10   1  285.27    8.00
  -3  10   1  258.37   11.20
  -3  10   1  257.97    8.30
   3  10  -1  270.77    9.90
   3  10  -1  285.67   10.70
  -2 -10   1   50.29   10.20
  -2 -10   1   57.89    4.10
   2 -10  -1   73.89    8.10
   2 -10  -1   75.59    7.90
  -2 -10   1   50.09    4.20
  -2 -10   1   46.70    7.50
   2 -10  -1   57.39    3.70
   2 -10  -1   54.69    3.90
   2 -10  -1   58.99    7.20
   2 -10  -1   54.99    4.10
   2 -10  -1   58.69    3.90
  -2  10   1   52.79    3.80
  -2  10   1   57.69    6.60
  -2  10   1   56.79    3.00
  -2  10   1   56.09    6.50
   2  10  -1   42.80    7.20
  -2  10   1   58.59    3.60
   2  10  -1   59.19    7.70
   2  10  -1   53.89    3.70
   2  10  -1   54.59    4.50
  -2  10   1   49.10    6.70
  -1 -10   1    3.40    1.60
   1 -10  -1    2.80    5.30
   1 -10  -1    3.60    1.90
   1 -10  -1    0.80    4.30
  -1 -10   1    4.90    2.20
  -1 -10   1    6.10    5.00
   1 -10  -1   11.90    7.60
  -1 -10   1   -0.60    5.00
   1 -10  -1    2.70    1.60
   1 -10  -1    2.30    1.50
  -1  10   1    0.20    3.70
   1  10  -1    3.30    1.80
   1  10  -1    0.60    1.50
  -1  10   1    0.40    1.70
   1  10  -1    5.90   11.40
   1  10  -1   -3.20    5.00
   1  10  -1    1.60    4.70
  -1  10   1    2.30    5.60
   1  10  -1    5.50    1.60
  -1  10   1    3.80    1.30
  -1  10   1    2.50    1.90
   1  10  -1    3.10    2.00
  -1  10   1    0.10    4.60
   1  10  -1    3.30    5.30
   0 -10   1  470.55   14.80
   0 -10  -1  503.25   15.30
   0 -10   1  496.55   14.80
   0 -10   1  477.65   15.30
   0 -10  -1  515.35   20.30
   0 -10   1  470.45   19.50
   0 -10   1  484.45   15.20
   0 -10   1  492.95   15.00
   0 -10   1  502.45   19.90
   0  10  -1  488.05   18.60
   0  10   1  466.75   20.10
   0  10  -1  494.45   14.50
   0  10  -1  494.85   14.60
   0  10   1  498.25   14.80
   0  10  -1  494.35   19.70
   0  10   1  490.85   19.90
   0  10   1  456.95   19.30
   0  10  -1  496.65   19.60
   0  10  -1  488.85   14.40
   0  10  -1  498.15   18.90
   0  10   1  497.95   15.20
   0  10   1  503.05   14.90
   0  10  -1  516.65   15.30
   0  10   1  500.85   14.50
   0  10   1  532.05   19.10
   1 -10   1  124.99   10.00
   1 -10   1  121.59    5.70
  -1 -10  -1  118.19   10.80
  -1 -10  -1  119.69    5.60
   1 -10   1  118.19    5.30
   1 -10   1  122.29    5.80
   1 -10   1  130.39   10.20
   1 -10   1  110.79    5.30
  -1 -10  -1  115.79    5.60
   1 -10   1  131.19   11.80
   1 -10   1  129.49   11.20
   1 -10   1   98.69   10.30
   1 -10   1  126.09    5.50
   1  10   1  123.29    5.90
  -1  10  -1  122.79    5.10
  -1  10  -1  133.89    9.80
  -1  10  -1  107.99    8.20
   1  10   1  117.89    9.40
   1  10   1  117.09    5.30
   1  10   1  120.59   10.20
  -1  10  -1  126.29    4.70
   1  10   1  127.59   11.20
  -2 -10  -1    0.90    4.80
   2 -10   1   -0.50    4.30
   2 -10   1    2.50    1.90
   2 -10   1    3.80    5.10
   2 -10   1    0.30    1.10
   2 -10   1   -4.70    5.50
   2 -10   1   -1.00    4.30
  -2 -10  -1    1.80    1.70
   2 -10   1    2.20    5.80
   2 -10   1   -0.60    1.80
  -2 -10  -1   10.40    6.10
  -2 -10  -1    2.90    1.60
   2 -10   1   -2.20    1.70
   2 -10   1   -0.30    1.50
   2 -10   1    1.40    5.60
   2 -10   1    2.10    1.60
   2  10   1   -2.90    5.10
   2  10   1   -0.40    1.30
  -2  10  -1    2.40    3.20
  -2  10  -1   -6.10    3.60
  -2  10  -1    1.10    1.00
   2  10   1    0.20    1.70
  -2  10  -1    2.20    1.40
   3 -10   1   40.30    5.70
   3 -10   1   41.20    5.60
   3 -10   1   40.90    7.20
   3 -10   1   38.30    3.30
   3 -10   1   37.70    4.00
   3 -10   1   40.50    6.90
  -3 -10  -1   44.50    8.60
   3 -10   1   39.00    3.40
   3 -10   1   42.00    3.70
   3 -10   1   41.10    3.10
   3 -10   1   42.50    4.70
  -3 -10  -1   41.30    4.30
   3 -10   1   44.20    9.40
   3 -10   1   54.99    7.60
   3  10   1   31.90    7.90
   3  10   1   26.30    3.30
  -4 -10  -1  232.08   16.90
   4 -10   1  200.48   10.80
   4 -10   1  222.18    7.30
   4 -10   1  216.28    7.30
   4 -10   1  205.18   14.60
   4 -10   1  204.98    7.90
   4 -10   1  234.98   11.30
   4 -10   1  224.38   14.00
   4 -10   1  220.98    7.90
   4 -10   1  205.78   13.20
   4 -10   1  209.78    7.60
  -4 -10  -1  216.98    9.30
   4  10   1  213.38   17.50
   4  10   1  217.38    9.60
   5 -10   1  502.15   16.50
  -5 -10  -1  515.05   17.10
  -5 -10  -1  490.25   25.60
   5 -10   1  491.45   16.40
   5 -10   1  500.85   13.80
   5 -10   1  511.85   13.90
   5  10   1  543.45   27.30
   5  10   1  510.35   17.60
  -6 -10  -1  138.79    8.10
  -6 -10  -1  174.28   16.50
  -6 -10  -1  149.88    9.10
   6 -10   1  131.59    7.70
  -6 -10  -1  162.78   17.50
   6 -10   1  117.49   14.80
   6  10   1  150.48    9.50
   6  10   1  140.29   17.40
   6  10   1  154.68    8.10
   5 -11  -1   10.10    6.40
   5 -11  -1    1.60    1.90
  -5 -11   1    5.80    3.50
  -5 -11   1   11.00    6.90
   5 -11  -1    6.10    5.60
  -5 -11   1    5.60    2.90
   5 -11  -1    6.30    2.20
  -5 -11   1   11.60   10.50
   5  11  -1    5.90   10.80
   5  11  -1    8.10    3.70
   4 -11  -1   62.59    7.70
   4 -11  -1   88.09    5.60
   4 -11  -1   77.69    4.40
  -4 -11   1   73.59    6.00
  -4 -11   1   72.89    5.00
  -4 -11   1   69.29    9.40
  -4 -11   1   91.09   12.60
   4 -11  -1   74.99    8.40
   4 -11  -1   82.79   11.40
   4 -11  -1   78.19    4.70
   4  11  -1   72.99   11.80
   4  11  -1   75.59    6.20
   3 -11  -1   79.99    8.50
  -3 -11   1   92.39    8.40
   3 -11  -1   85.39    4.90
   3 -11  -1   79.49   10.20
   3 -11  -1   78.29    4.40
  -3 -11   1   87.99   10.30
   3 -11  -1   71.19    5.10
   3 -11  -1   99.09    9.10
  -3 -11   1   88.49   16.90
  -3  11   1   86.49    6.40
   3  11  -1   74.79    5.80
  -3  11   1   92.39    4.10
  -3  11   1   92.29    7.90
   3  11  -1   79.49   10.70
  -3  11   1   78.89    3.20
   2 -11  -1    8.50    6.70
  -2 -11   1    6.70    2.20
   2 -11  -1    2.20    7.00
   2 -11  -1    2.70    5.20
   2 -11  -1    6.80    2.20
  -2 -11   1    8.30    6.70
  -2 -11   1    6.50    2.60
   2 -11  -1    5.40    2.20
   2 -11  -1    9.80    2.40
   2  11  -1   11.90    6.40
  -2  11   1   12.00    4.60
  -2  11   1    6.60    6.50
  -2  11   1    7.10    2.10
  -2  11   1    5.80    1.50
  -2  11   1    9.10    2.20
  -2  11   1   10.60    5.90
   2  11  -1    7.20    2.40
  -1 -11   1  519.25   16.60
   1 -11  -1  540.85   21.80
   1 -11  -1  509.15   21.40
   1 -11  -1  538.45   16.30
  -1 -11   1  532.45   22.80
   1 -11  -1  519.85   16.20
  -1  11   1  542.05   21.90
   1  11  -1  499.05   22.00
   1  11  -1  541.45   15.90
  -1  11   1  541.75   21.00
   1  11  -1  503.55   21.00
  -1  11   1  505.55   15.70
  -1  11   1  556.94   15.40
   1  11  -1  540.65   16.20
  -1  11   1  526.15   16.10
  -1  11   1  543.55   19.50
   1  11  -1  528.95   16.60
   0 -11   1  159.38    6.90
   0 -11   1  224.78   22.30
   0 -11  -1  170.18   12.80
   0 -11   1  169.18    7.40
   0 -11   1  165.68   13.00
   0 -11  -1  157.08    7.20
   0  11   1  178.48   11.60
   0  11  -1  154.08   12.50
   0  11   1  166.08    7.30
   0  11  -1  162.98    6.50
   0  11  -1  176.88   11.90
   0  11   1  158.08   12.60
   0  11  -1  149.79   10.70
   0  11   1  162.78    6.40
   0  11  -1  171.28    6.40
   0  11  -1  169.98    7.30
   0  11   1  167.78    6.70
  -1 -11  -1   79.19    4.90
   1 -11   1   68.19    4.80
   1 -11   1   81.89    5.10
  -1 -11  -1   78.19    8.90
  -1 -11  -1   72.69    5.00
   1 -11   1   68.59    9.30
   1 -11   1   60.99    7.90
   1 -11   1   80.09    4.60
   1 -11   1   70.99    5.30
   1 -11   1   66.39    4.70
   1 -11   1   69.99    8.80
   1 -11   1   69.09    9.60
   1 -11   1   75.69    9.00
   1  11   1   72.89    5.10
  -1  11  -1   72.29    3.80
  -1  11  -1  102.09    8.40
   1  11   1   81.49    5.20
   1  11   1   88.99    9.80
  -1  11  -1   83.19    8.30
  -1  11  -1   74.89    4.60
   2 -11   1    6.70    5.30
   2 -11   1   10.00    2.80
  -2 -11  -1    6.70    2.00
   2 -11   1   10.10    6.90
   2 -11   1    5.80    2.00
   2 -11   1   13.00    6.90
   2 -11   1   10.80    2.30
  -2 -11  -1    9.10    2.20
   2 -11   1    8.20    3.90
   2 -11   1    9.30    2.30
   2 -11   1    9.50    2.30
   2 -11   1    2.50    6.80
  -2 -11  -1   16.30    6.20
  -2  11  -1   10.80    3.70
   2  11   1    8.70    2.50
  -2  11  -1   11.40    1.40
  -2  11  -1    8.80    1.80
  -2  11  -1    5.10    4.80
   2  11   1   15.10    7.20
   3 -11   1  157.28   11.00
   3 -11   1  154.68   13.90
   3 -11   1  137.99    6.80
   3 -11   1  141.39    6.60
   3 -11   1  138.49    6.20
  -3 -11  -1  138.19   14.80
   3 -11   1  146.39   12.60
   3 -11   1  148.19    6.10
   3 -11   1  149.39    6.20
   3 -11   1  117.59   10.40
  -3 -11  -1  135.09    7.40
   3 -11   1  143.79   14.10
   3  11   1  140.19    7.40
   3  11   1  143.59   15.30
   4 -11   1  367.26   11.50
   4 -11   1  362.76   12.30
   4 -11   1  373.76   11.90
   4 -11   1  384.26   15.90
   4 -11   1  366.56   19.70
   4 -11   1  374.96   16.10
   4 -11   1  369.26   11.40
   4 -11   1  382.56   18.90
   4  11   1  389.06   33.20
   4  11   1  365.96   17.70
  -5 -11  -1  384.76   14.80
   5 -11   1  376.16   11.20
  -5 -11  -1  394.86   24.60
  -5 -11  -1  361.96   21.00
   5 -11   1  374.76   15.20
  -5 -11  -1  358.86   14.10
   5  11   1  386.16   14.70
   5  11   1  444.06   26.60
  -5 -12   1  263.07   12.00
  -5 -12   1  228.18   10.20
   5 -12  -1  234.58   15.40
   5 -12  -1  230.98   15.20
   5 -12  -1  246.78    8.90
  -5 -12   1  280.87   24.90
  -5 -12   1  243.68   17.00
   5 -12  -1  225.68    8.70
   5  12  -1  242.48   11.60
   5  12  -1  224.48   22.80
   4 -12  -1   78.09    5.20
  -4 -12   1   82.29   10.70
  -4 -12   1   76.39   12.60
   4 -12  -1   78.09    9.50
   4 -12  -1  108.69   11.70
  -4 -12   1   85.99    6.80
   4 -12  -1   80.29    5.20
  -4 -12   1   78.19    5.40
   4  12  -1   69.99   12.30
   4  12  -1   83.99    6.80
  -3 -12   1   47.50   10.40
   3 -12  -1   42.90   10.20
  -3 -12   1   42.40    5.00
   3 -12  -1   56.69    8.60
  -3 -12   1   49.30    9.80
   3 -12  -1   47.10    4.00
   3 -12  -1   47.30    4.60
   3 -12  -1   40.80    9.10
  -3  12   1   45.50    5.30
   3  12  -1   53.09    9.70
  -3  12   1   47.50    2.70
   3  12  -1   43.40    5.20
   2 -12  -1    8.10    8.30
  -2 -12   1    4.80    2.70
  -2 -12   1   15.70    7.30
  -2 -12   1    7.30    2.10
   2 -12  -1    8.80    5.80
   2 -12  -1    9.00    2.50
  -2  12   1    3.40    7.90
   2  12  -1    3.40    8.00
  -2  12   1   11.70    2.50
  -2  12   1    9.10    1.80
   2  12  -1   16.70    3.20
  -2  12   1    7.20    5.20
  -2  12   1   10.00    6.20
  -2  12   1    5.30    2.60
  -1 -12   1   23.60    7.50
   1 -12  -1   25.80    7.10
  -1 -12   1   26.50    3.30
   1 -12  -1   29.50    3.60
  -1  12   1   17.40    8.60
   1  12  -1   21.20    7.00
  -1  12   1   26.30    3.10
  -1  12   1   18.80    3.20
   1  12  -1   26.10    3.30
   1  12  -1   21.60    8.10
   1  12  -1   29.00    3.30
  -1  12   1   29.00    6.20
  -1  12   1   28.00    7.60
  -1  12   1   19.00    3.00
   1  12  -1   19.70    7.60
   0 -12  -1   19.40    7.00
   0 -12   1   16.80    7.30
   0 -12   1   20.70    3.10
   0 -12  -1   18.90    2.80
   0  12   1   31.80    7.20
   0  12  -1   17.80    7.00
   0  12  -1   22.50    8.50
   0  12  -1   28.70    3.30
   0  12   1   25.60    7.80
   0  12   1   17.30    3.30
   0  12  -1   19.90    8.90
   0  12  -1   14.90    2.40
   0  12  -1   19.60    3.40
  -1 -12  -1  201.28    9.10
   1 -12   1  217.68    8.70
  -1 -12  -1  225.08    9.10
   1 -12   1  229.78   15.20
  -1 -12  -1  217.98   16.30
   1 -12   1  215.18   15.00
  -1  12  -1  227.88   12.60
   1  12   1  210.78   15.70
  -1  12  -1  225.18    7.60
  -1  12  -1  215.38   14.90
  -1  12  -1  212.78    8.20
   1  12   1  221.78    9.20
   2 -12   1  196.28   15.40
   2 -12   1  228.58   14.90
  -2 -12  -1  219.28    9.30
  -2 -12  -1  219.58   17.40
   2 -12   1  225.58    8.90
  -2 -12  -1  253.37   11.00
   2  12   1  215.88   17.00
  -2  12  -1  225.68    7.60
   2  12   1  228.98    9.80
  -2  12  -1  215.58   12.30
  -2  12  -1  227.08    7.20
  -2  12  -1  239.18   11.00
  -3 -12  -1   22.50    3.60
   3 -12   1   23.60    3.10
   3 -12   1   20.20    3.80
   3 -12   1   17.90    7.70
   3 -12   1   27.50    3.00
   3 -12   1   20.80    9.70
   3 -12   1   22.90    7.10
   3 -12   1   14.00    6.20
   3 -12   1   26.20    3.20
  -3 -12  -1   32.00    9.90
   3  12   1   24.50    3.80
   3  12   1   15.90    9.50
   4 -12   1  412.56   21.70
   4 -12   1  422.26   18.50
   4 -12   1  394.06   13.50
   4 -12   1  425.86   13.00
  -4 -12  -1  401.76   24.80
   4 -12   1  431.26   18.50
  -4 -12  -1  422.46   15.20
   4 -12   1  423.96   13.00
   4  12   1  431.56   15.60
   4  12   1  397.96   24.90
   5 -12   1   28.70    6.60
   5 -12   1   19.80    2.60
  -5 -12  -1   14.20    8.20
  -5 -12  -1   17.90   12.10
   5 -12   1   21.20    2.50
   5 -12   1   31.80    6.50
  -5 -12  -1   19.80    4.60
  -5 -12  -1   17.30    3.80
   5  12   1   14.70    4.50
   5  12   1   35.50   14.40
  -4 -13   1   97.19   15.90
  -4 -13   1  132.49   13.50
  -4 -13   1  125.79    6.80
   4 -13  -1  112.49    6.50
  -4 -13   1  115.19    8.10
   4 -13  -1  104.49    8.10
   4 -13  -1  109.09   11.60
   4  13  -1  142.59    8.40
   4  13  -1  122.99   15.40
  -3 -13   1   42.90    4.90
   3 -13  -1   42.10    4.30
   3 -13  -1   21.00    8.50
   3 -13  -1   48.80    4.60
  -3 -13   1   43.90   11.70
   3  13  -1   45.00    4.80
   3  13  -1   21.40   10.80
   2 -13  -1    2.80    6.90
  -2 -13   1    1.80    3.30
   2 -13  -1   -0.20    2.20
  -2 -13   1   20.30    9.60
  -2 -13   1    9.00    3.40
   2  13  -1    2.50    2.30
  -2  13   1    4.80    3.30
  -2  13   1    0.60    1.70
  -2  13   1    1.60    5.80
   2  13  -1   13.40    9.80
  -2  13   1    5.60    9.30
   2  13  -1    6.10    3.10
  -1 -13   1    0.60    2.60
   1 -13  -1    1.60    2.70
  -1 -13   1  -13.10    7.70
   1 -13  -1    6.40    7.30
  -1  13   1   -1.50    9.60
  -1  13   1    2.00    1.90
   1  13  -1    1.30    2.10
   1  13  -1   -1.50    2.40
   1  13  -1   14.20    7.60
   1  13  -1   -0.80    7.10
  -1  13   1   -0.10    5.90
  -1  13   1    1.10    2.90
   0 -13   1  153.48   16.10
   0 -13  -1  162.68    9.90
   0 -13  -1  166.18   20.60
   0 -13   1  165.78    8.20
   0  13  -1  187.68   13.40
   0  13  -1  157.98    6.80
   0  13  -1  163.58    7.10
   0  13   1  164.18    8.20
   0  13   1  170.28   13.90
   0  13   1  157.18    6.80
   0  13  -1  165.88   15.60
   0  13  -1  170.58    8.00
   0  13   1  155.28   15.80
   0  13  -1  200.78   16.50
   1 -13   1    4.90    7.30
   1 -13   1    3.50    8.80
  -1 -13  -1   -2.70    8.00
   1 -13   1    1.80    2.50
  -1 -13  -1    5.50    3.00
  -1  13  -1   12.20    9.90
  -1  13  -1    2.70    6.00
   1  13   1    2.30    2.70
  -1  13  -1   -5.60    2.80
  -1  13  -1    3.70    1.70
   1  13   1    1.30    8.30
   1  13   1    8.50    8.00
   2 -13   1  285.77   17.20
  -2 -13  -1  263.87   20.00
   2 -13   1  214.58   16.90
   2 -13   1  227.58    9.50
  -2 -13  -1  257.57   10.70
  -2 -13  -1  252.57   10.40
   2 -13   1  245.28    9.70
   2  13   1  241.88   11.90
  -2  13  -1  246.68    7.90
   2  13   1  274.97   21.90
  -2  13  -1  243.78   12.40
   3 -13   1  108.69   10.60
  -3 -13  -1  101.09   14.30
  -3 -13  -1  102.29   18.80
   3 -13   1  103.79    6.10
   3 -13   1  107.49    5.70
  -3 -13  -1  105.19    7.40
   3 -13   1  112.19   11.00
   3 -13   1   93.19    6.20
   3 -13   1   80.49   12.10
   3  13   1  107.39    7.50
   3  13   1   99.99   14.30
   4 -13   1    1.70    7.60
   4 -13   1   15.80    2.80
   4 -13   1   12.50    3.00
  -4 -13  -1    8.50   11.70
   4 -13   1   13.60    7.50
  -4 -13  -1   15.60    4.00
   4  13   1   -7.30   12.70
   4  13   1   17.60    4.60
   4 -14  -1   71.59    6.30
   4 -14  -1   48.10   11.40
   4 -14  -1   68.39    5.90
  -4 -14   1   51.59   16.50
  -4 -14   1   68.79    7.80
   4 -14  -1   82.19   12.00
  -3 -14   1  330.47   25.30
   3 -14  -1  349.37   19.60
  -3 -14   1  315.57   13.30
   3 -14  -1  285.47   11.30
   3 -14  -1  298.87   20.40
  -3 -14   1  314.87   25.40
   3 -14  -1  316.77   11.90
  -3 -14   1  300.07   12.70
   3  14  -1  330.07   14.50
   3  14  -1  257.97   23.90
   3  14  -1  347.87   32.60
   2 -14  -1    9.30    8.60
  -2 -14   1   -3.60   10.30
   2 -14  -1    5.80    3.10
  -2 -14   1    3.90    3.20
   2  14  -1    4.90    2.90
   2  14  -1   17.20   11.00
   2  14  -1   -3.20    3.20
  -2  14   1   -3.50    6.70
   2  14  -1   -0.80    2.40
  -2  14   1    4.60    2.20
  -1 -14   1   44.10    5.30
  -1 -14   1   34.20   11.20
   1 -14  -1   25.60    9.20
   1 -14  -1   24.90    3.50
  -1  14   1   40.90    4.10
  -1  14   1   31.50    4.10
   1  14  -1   35.60   11.10
  -1  14   1   16.30    7.60
   1  14  -1   23.70    3.10
   1  14  -1   26.30    4.10
   1  14  -1   27.40    9.40
   1  14  -1   31.60    3.40
   1  14  -1   21.00    9.00
  -1  14   1   42.00    9.90
   0 -14  -1   36.20    4.50
   0 -14  -1   32.50   10.40
   0 -14   1   40.90    4.70
   0 -14   1   42.10   11.10
   0  14  -1   30.10    3.50
   0  14  -1   70.99   10.90
   0  14   1   40.30    4.20
   0  14   1   33.90    4.40
   0  14  -1   27.40    8.80
   0  14   1   21.50    3.20
   0  14   1   39.10    8.90
   0  14   1   43.00   10.30
   0  14  -1   31.40    3.40
   1 -14   1    2.20    8.60
   1 -14   1    8.30    9.50
  -1 -14  -1   16.70    9.70
  -1 -14  -1    6.80    3.30
   1 -14   1    1.30    2.80
  -1  14  -1   -0.40    2.00
   1  14   1   -1.50    2.20
   1  14   1    0.30    5.30
   1  14   1   -0.20   17.20
  -1  14  -1   -6.10    7.00
   2 -14   1   41.30    4.50
   2 -14   1   51.09   12.10
  -2 -14  -1   31.20    4.30
  -2 -14  -1   59.29   12.70
   2 -14   1   49.30   10.30
  -2 -14  -1   42.90    5.10
   2 -14   1   38.80    4.10
   2  14   1   45.20    5.00
   2  14   1   20.10   11.50
   3 -14   1   15.20    9.60
  -3 -14  -1   35.20    5.20
   3 -14   1   21.80   11.30
   3 -14   1   24.90   15.50
  -3 -14  -1   32.90   12.30
   3 -14   1   36.20    4.20
   3 -14   1   28.20    3.60
  -3 -14  -1   62.09   14.20
   3  14   1   26.90   12.50
  -2 -15   1    4.20    3.80
   2 -15  -1    8.00    3.70
  -2 -15   1    7.00   12.70
   2 -15  -1   -7.10   10.20
   2  15  -1    4.00    3.60
   2  15  -1    4.50   11.70
   2  15  -1   -6.70   11.20
   2  15  -1    1.50    3.30
   2  15  -1   -4.80   10.50
   1 -15  -1  268.17   11.50
  -1 -15   1  262.07   11.90
   1 -15  -1  262.77   22.20
  -1 -15   1  317.37   25.10
   1  15  -1  310.67   23.40
  -1  15   1  287.17   22.10
  -1  15   1  234.28   18.40
   1  15  -1  280.27   20.90
   1  15  -1  256.77   10.70
   1  15  -1  271.27   11.90
   1  15  -1  285.67   21.50
  -1  15   1  270.77   11.80
   1  15  -1  280.17   10.70
  -1  15   1  272.37   10.00
   0 -15  -1  219.58   21.50
   0 -15  -1  211.98   10.50
   0 -15   1  235.58   22.70
   0 -15   1  209.08   10.40
   0  15  -1  210.98    9.30
   0  15   1  219.58    9.50
   0  15   1  219.88    8.90
   0  15  -1  251.57   17.90
   0  15  -1  206.58   19.40
   0  15   1  218.58   10.50
   0  15   1  223.78   19.60
   0  15   1  188.18   20.50
   0  15  -1  210.48    8.90
   0  15   1  189.88   17.10
   1 -15   1   74.69   13.80
   1 -15   1   60.49   24.00
  -1 -15  -1   82.19   13.80
  -1 -15  -1   82.59    7.40
   1 -15   1   63.29    9.50
   1  15   1   91.79   12.00
   1  15   1   79.09    5.80
   1  15   1   68.69    7.70
  -1  15  -1   73.19    5.20
   1  15   1  100.59   14.70
  -1  15  -1   72.49   10.00
  -2 -15  -1   26.40    4.40
  -2 -15  -1   25.20   17.40
  -2 -15  -1   26.00    4.60
   2 -15   1   34.90    4.50
  -2 -15  -1   29.90   12.50
   2 -15   1   37.60   11.10
   2  15   1   27.30    5.00
   2  15   1   27.20   13.40
   0 -16  -1  101.19   16.00
   0 -16  -1   96.49    8.80
   0  16   1   99.49   15.90
   0  16   1   85.89    8.60
   8   0  -2  609.84   20.50
  -8   0   2  584.44   26.70
   8   0  -2  612.94   31.60
  -8   0   2  651.13   21.20
  -8   0   2  654.53   17.40
  -8   0   2  604.74   20.30
  -7   0   2   -1.30    5.40
  -7   0   2   -1.50    1.50
   7   0  -2    2.30    4.70
   7   0  -2    1.90    1.60
  -7   0   2    1.20    4.70
   6   0  -2   -0.20    1.80
   6   0  -2   -4.10    3.70
   6   0  -2    2.20    1.50
  -6   0   2    0.00    1.30
  -6   0   2    5.30    3.60
   6   0  -2    0.90    6.10
   6   0  -2   -0.50    1.80
  -6   0   2    3.20    3.70
  -6   0   2    0.60    1.60
  -6   0   2    1.60    4.30
  -5   0   2    0.50    3.20
   5   0  -2   -3.20    1.40
   5   0  -2    0.70    3.60
   5   0  -2   -0.90    3.10
  -5   0   2   -1.10    3.00
  -5   0   2   -1.60    1.40
  -5   0   2    3.40    2.60
  -5   0   2   -0.30    1.20
   5   0  -2   -2.40    1.30
   5   0  -2   -0.50    1.00
   5   0  -2    0.30    5.00
  -4   0   2 2551.44   63.29
   4   0  -2 2507.75   69.49
  -4   0   2 2488.95   63.99
  -4   0   2 2551.94   65.09
   4   0  -2 2489.45   64.19
  -4   0   2 2530.25   64.39
  -4   0   2 2455.35   67.89
   4   0  -2 2575.94   65.09
   4   0  -2 2470.35   66.59
  -4   0   2 2488.75   64.79
  -4   0   2 2481.55   66.39
   3   0  -2   -0.10    2.00
   3   0  -2    0.70    1.00
  -3   0   2    0.00    0.90
  -3   0   2   -0.50    1.60
  -3   0   2   -0.60    0.60
  -3   0   2   -0.80    2.10
   3   0  -2   -0.50    0.70
   3   0  -2   -2.50    1.90
   3   0  -2    0.40    1.00
   3   0  -2    0.60    2.90
  -3   0   2    0.90    2.40
  -3   0   2   -0.60    1.00
  -3   0   2   -2.30    1.90
  -3   0   2   -1.20    0.70
   2   0  -2   53.79    3.60
   2   0  -2   43.20    2.20
  -2   0   2   48.30    3.60
  -2   0   2   45.60    3.70
   2   0  -2   46.80    2.30
  -2   0   2   46.20    2.20
   2   0  -2   49.60    2.00
  -2   0   2   43.10    2.90
  -2   0   2   43.00    2.00
   2   0  -2   47.90    3.80
  -2   0   2   47.20    1.80
   2   0  -2   46.80    4.20
  -2   0   2   46.70    2.10
  -2   0   2   46.90    3.40
   1   0  -2   -0.60    0.40
  -1   0   2    0.70    1.30
  -1   0   2   -0.10    0.50
  -1   0   2    0.10    0.40
  -1   0   2    1.40    1.30
   1   0  -2   -0.90    1.40
  -1   0   2    0.20    1.00
   1   0  -2    0.40    0.50
   1   0  -2    0.50    1.20
   1   0  -2    0.10    0.60
   1   0  -2   -1.40    1.20
  -1   0   2    0.60    0.60
   0   0  -2 1222.58   30.90
   0   0  -2 1117.99   29.90
   0   0   2 1182.88   31.20
   0   0   2 1135.69   29.80
   0   0  -2 1206.48   29.80
   0   0  -2 1135.59   31.20
   0   0   2 1166.08   29.90
  -1   0  -2   -0.10    1.40
   1   0   2   -0.10    0.80
  -1   0  -2   -0.50    0.90
  -1   0  -2   -0.40    0.30
   1   0   2    0.10    1.30
  -1   0  -2    1.10    0.50
  -1   0  -2    0.10    0.30
  -1   0  -2    0.40    0.90
   1   0   2   -1.20    0.90
   1   0   2    0.50    0.90
   1   0   2    0.50    0.50
   1   0   2    0.20    0.30
  -1   0  -2    1.00    1.10
   1   0   2    0.40    0.40
  -2   0  -2  440.76   14.20
  -2   0  -2  450.05   12.30
   2   0   2  453.05   11.60
   2   0   2  437.06   11.70
   2   0   2  444.36   11.80
   2   0   2  451.25   13.40
   2   0   2  453.75   14.50
  -2   0  -2  428.16   12.70
  -2   0  -2  429.36   11.60
   2   0   2  437.86   12.50
  -2   0  -2  428.96   13.30
  -2   0  -2  451.85   11.90
  -2   0  -2  416.86   14.00
   2   0   2  461.15   13.00
  -3   0  -2   -0.80    1.10
   3   0   2    1.00    1.50
  -3   0  -2   -0.90    2.40
   3   0   2   -1.50    1.40
  -3   0  -2    0.30    0.60
   3   0   2    1.50    2.30
   3   0   2    0.90    0.50
  -3   0  -2   -0.40    1.30
   3   0   2    0.40    0.70
  -3   0  -2    2.50    1.50
  -3   0  -2   -0.40    0.50
  -3   0  -2   -0.30    2.70
   3   0   2    2.40    2.40
  -3   0  -2    0.80    3.00
   3   0   2    0.10    0.70
  -3   0  -2   -0.90    0.80
  -4   0  -2 2093.49   54.29
  -4   0  -2 2075.89   55.19
  -4   0  -2 2169.88   56.09
  -4   0  -2 2165.58   55.29
   4   0   2 2149.98   55.49
   4   0   2 2181.28   58.79
  -4   0  -2 2163.18   59.89
   4   0   2 2155.98   54.39
  -4   0  -2 2152.88   55.39
  -4   0  -2 2145.09   58.69
   4   0   2 2153.58   55.89
  -4   0  -2 2118.19   58.39
  -4   0  -2 2172.48   54.19
   4   0   2 2175.08   58.99
  -5   0  -2    0.00    5.70
  -5   0  -2    0.30    5.00
  -5   0  -2   -6.10    4.70
  -5   0  -2    1.60    1.60
   5   0   2    1.70    1.50
   5   0   2    1.90    4.60
  -5   0  -2   -1.00    1.40
   5   0   2    1.90    3.10
   5   0   2    1.00    0.80
   5   0   2    6.10    4.70
   6   0   2  323.27   12.90
   6   0   2  345.47   18.40
   6   0   2  327.37   14.00
  -6   0  -2  313.87   11.50
   6   0   2  339.07   11.20
   6   0   2  328.07   11.00
   6   0   2  310.77    9.70
  -6   0  -2  306.97   16.10
   6   0   2  330.47   16.20
   6   0   2  329.97    9.50
   7   0   2    5.50    8.00
   7   0   2    2.30    7.00
  -7   0  -2    0.30    6.30
   7   0   2   -3.30    2.70
  -7   0  -2    2.70    2.80
   7   0   2    6.50    8.90
   7   0   2    1.20    2.80
  -8  -1   2   34.00    4.40
  -8  -1   2   37.70    9.50
   8  -1  -2   34.60    4.40
   8  -1  -2   46.20   13.40
  -8  -1   2   52.29    7.70
  -8  -1   2   34.30    3.30
  -8   1   2   38.40    4.80
   8   1  -2   33.00    4.60
  -8   1   2   32.80    8.70
  -7  -1   2   40.40    3.80
  -7  -1   2   34.30    6.00
   7  -1  -2   43.20    4.80
   7  -1  -2   36.50    3.00
  -7  -1   2   37.70    7.30
   7  -1  -2   32.20    5.40
   7   1  -2   34.10    9.30
  -7   1   2   38.50    9.00
   7   1  -2   33.10    6.50
  -7   1   2   34.90    4.10
   7   1  -2   36.50    3.50
  -7   1   2   40.10    2.90
  -7   1   2   35.30    5.30
   7   1  -2   36.30    3.90
   6  -1  -2  837.02   25.40
  -6  -1   2  835.72   26.10
   6  -1  -2  816.52   26.30
  -6  -1   2  821.82   25.20
   6  -1  -2  866.31   25.60
  -6  -1   2  854.01   22.70
  -6  -1   2  775.22   28.40
   6  -1  -2  843.42   22.50
   6  -1  -2  817.72   22.30
   6  -1  -2  850.61   31.50
   6   1  -2  808.82   26.30
   6   1  -2  829.22   25.10
   6   1  -2  813.72   27.50
   6   1  -2  847.52   22.40
   6   1  -2  836.12   22.90
  -6   1   2  805.92   28.70
   6   1  -2  847.22   22.80
  -6   1   2  806.72   24.00
   5  -1  -2   95.79    4.00
   5  -1  -2   97.29    6.80
  -5  -1   2   98.99    7.50
   5  -1  -2   97.89    7.70
   5  -1  -2  102.69   10.40
  -5  -1   2   90.19    9.30
   5  -1  -2   97.69    4.10
  -5  -1   2   97.09    8.20
  -5  -1   2   99.69    4.30
   5  -1  -2  100.09    5.20
  -5  -1   2  100.69    4.70
   5   1  -2  101.09    4.50
   5   1  -2   99.59    4.00
  -5   1   2  101.19    6.70
   5   1  -2  103.09    6.80
  -5   1   2   96.39    4.80
  -5   1   2   93.89    8.00
   5   1  -2   88.89    9.80
   5   1  -2  104.09    7.70
  -5   1   2   96.99    3.90
   5   1  -2  106.69    8.20
   5   1  -2   96.19    4.30
  -5   1   2   99.99    4.50
   5   1  -2  100.09    5.00
  -4  -1   2  284.07   10.20
  -4  -1   2  257.77   11.20
   4  -1  -2  269.87   10.30
  -4  -1   2  269.07   10.80
  -4  -1   2  271.37    7.60
   4  -1  -2  271.17    7.90
  -4  -1   2  262.67    9.50
   4  -1  -2  270.17   10.40
   4  -1  -2  269.07    8.00
  -4  -1   2  264.87    8.60
  -4  -1   2  269.27    8.20
   4  -1  -2  268.27   13.00
   4  -1  -2  275.17    9.00
  -4   1   2  262.87   10.10
   4   1  -2  268.57    7.90
   4   1  -2  264.77    8.10
   4   1  -2  262.77   10.90
  -4   1   2  259.57    8.70
   4   1  -2  250.27   10.90
   4   1  -2  263.97    9.00
  -4   1   2  262.27    8.10
   4   1  -2  263.87   12.80
   4   1  -2  266.27    9.90
   4   1  -2  271.87    8.30
  -4   1   2  272.27    8.00
  -4   1   2  250.37   11.40
   3  -1  -2 1785.22   44.30
   3  -1  -2 1713.63   45.10
  -3  -1   2 1732.03   47.10
  -3  -1   2 1707.53   46.10
  -3  -1   2 1678.33   44.60
  -3  -1   2 1738.23   44.40
   3  -1  -2 1663.23   48.20
  -3  -1   2 1768.52   44.90
  -3  -1   2 1640.74   46.80
  -3  -1   2 1750.22   44.30
   3  -1  -2 1682.43   46.50
  -3  -1   2 1710.83   46.30
   3  -1  -2 1703.73   44.50
   3  -1  -2 1777.92   46.30
  -3   1   2 1883.91   45.50
  -3   1   2 1769.22   44.40
  -3   1   2 1778.22   44.00
   3   1  -2 1729.23   47.00
  -3   1   2 1708.03   44.40
  -3   1   2 1746.83   43.70
   3   1  -2 1765.52   46.00
   3   1  -2 1724.73   45.20
   3   1  -2 1776.32   44.50
  -3   1   2 1733.23   47.30
   3   1  -2 1650.73   48.40
  -3   1   2 1735.83   44.90
   3   1  -2 1786.62   44.30
   3   1  -2 1701.33   44.70
   3   1  -2 1724.23   46.80
  -3   1   2 1697.33   46.40
  -2  -1   2   46.90    3.70
   2  -1  -2   40.80    3.80
   2  -1  -2   43.00    2.20
  -2  -1   2   46.70    3.50
  -2  -1   2   47.90    2.10
   2  -1  -2   48.90    2.00
  -2  -1   2   48.70    3.40
  -2  -1   2   47.70    2.10
  -2  -1   2   47.10    2.30
  -2  -1   2   50.39    4.00
  -2  -1   2   49.50    2.10
   2  -1  -2   46.00    3.60
   2   1  -2   48.20    2.40
   2   1  -2   49.60    4.30
  -2   1   2   45.20    2.00
  -2   1   2   47.50    3.70
  -2   1   2   49.40    2.20
   2   1  -2   51.19    2.40
   2   1  -2   43.30    3.60
   2   1  -2   48.20    4.10
  -2   1   2   53.29    3.80
  -2   1   2   45.60    3.40
   2   1  -2   47.00    2.10
  -2   1   2   47.10    2.20
   1  -1  -2 3602.64   92.09
  -1  -1   2 3497.55   92.49
   1  -1  -2 3567.74   92.39
  -1  -1   2 3721.93   91.09
  -1  -1   2 3701.83   92.19
  -1  -1   2 3575.14   92.29
  -1   1   2 3657.93   92.09
   1   1  -2 3593.84   92.19
   1   1  -2 3823.62   91.29
  -1   1   2 3546.85   91.49
   1   1  -2 3681.83   92.29
   1   1  -2 3540.05   90.69
  -1   1   2 3456.15   92.29
   1   1  -2 3692.53   92.59
   1   1  -2 3345.27   90.79
   0  -1  -2    5.20    1.40
   0  -1   2    4.00    0.80
   0  -1  -2    5.20    0.60
   0  -1   2    4.10    1.30
   0  -1  -2    4.80    1.40
   0  -1  -2    5.30    0.70
   0  -1   2    3.90    0.80
   0  -1  -2    2.70    1.40
   0  -1  -2    5.10    1.20
   0  -1  -2    2.20    0.70
   0  -1   2    6.10    1.60
   0   1   2    5.50    1.50
   0   1  -2    4.10    1.40
   0   1   2    5.10    1.70
   0   1  -2    2.90    0.70
   0   1   2    4.90    1.30
   0   1  -2    5.60    0.90
   0   1   2    2.80    0.70
   0   1  -2    4.50    0.60
   0   1  -2    4.50    1.30
   0   1  -2    5.10    0.50
   0   1   2    4.10    0.70
   1  -1   2    1.60    1.10
  -1  -1  -2    3.30    1.60
   1  -1   2    1.60    0.60
   1  -1   2    1.60    0.90
  -1  -1  -2    2.90    1.10
  -1  -1  -2    2.30    0.50
   1  -1   2    2.10    0.60
  -1  -1  -2    2.70    0.50
  -1  -1  -2    1.10    1.10
  -1  -1  -2    1.60    0.60
  -1  -1  -2    3.00    1.30
   1  -1   2    2.50    0.40
   1   1   2    2.00    0.50
  -1   1  -2    2.60    0.60
   1   1   2    1.50    0.50
  -1   1  -2    2.30    0.40
   1   1   2    2.90    1.60
   1   1   2    2.50    1.30
  -1   1  -2    3.20    1.30
  -1   1  -2    2.80    0.60
  -1   1  -2    2.10    0.90
   1   1   2    1.80    0.60
  -1   1  -2    0.80    1.00
   1   1   2    2.60    1.40
   1   1   2    2.90    1.00
  -2  -1  -2 1154.68   31.50
   2  -1   2 1171.68   29.30
   2  -1   2 1149.58   31.90
  -2  -1  -2 1143.89   32.10
   2  -1   2 1155.18   29.10
  -2  -1  -2 1080.89   30.80
   2  -1   2 1121.99   30.00
   2  -1   2 1166.28   29.50
  -2  -1  -2 1140.69   30.00
  -2  -1  -2 1139.99   32.10
   2  -1   2 1165.78   30.70
   2  -1   2 1174.18   28.90
  -2  -1  -2 1119.59   29.40
  -2  -1  -2 1160.28   29.60
   2   1   2 1125.89   31.00
  -2   1  -2 1120.59   29.80
   2   1   2 1160.78   29.60
  -2   1  -2 1143.39   30.50
   2   1   2 1133.09   30.70
  -2   1  -2 1116.69   29.00
   2   1   2 1112.39   29.50
   2   1   2 1173.88   29.30
  -2   1  -2 1132.89   29.80
  -2   1  -2 1167.18   31.70
  -2   1  -2 1180.18   29.30
   2   1   2 1125.99   31.30
   2   1   2 1163.88   32.40
   3  -1   2 1042.50   25.90
   3  -1   2  997.50   26.60
  -3  -1  -2 1008.00   26.30
   3  -1   2 1052.69   26.40
  -3  -1  -2 1027.00   29.70
  -3  -1  -2  995.80   27.30
  -3  -1  -2 1009.10   29.50
   3  -1   2 1002.40   29.30
   3  -1   2 1008.80   28.90
   3  -1   2 1041.90   26.70
  -3  -1  -2 1036.60   26.90
  -3  -1  -2 1039.50   28.00
  -3  -1  -2 1006.30   30.20
   3   1   2 1023.50   28.20
   3   1   2 1004.20   27.90
   3   1   2 1033.80   30.00
  -3   1  -2  985.50   26.30
   3   1   2 1039.70   26.50
  -3   1  -2 1028.70   29.90
  -3   1  -2 1021.20   27.20
  -3   1  -2  992.20   26.20
   3   1   2 1038.10   26.90
   3   1   2 1029.30   26.30
  -3   1  -2 1001.30   25.70
   3   1   2  974.60   29.40
  -4  -1  -2   12.60    4.40
  -4  -1  -2    8.00    2.20
  -4  -1  -2    8.20    1.10
  -4  -1  -2    6.30    3.70
   4  -1   2   12.80    3.50
   4  -1   2    6.50    3.50
  -4  -1  -2    8.90    1.70
  -4  -1  -2   11.20    3.90
   4  -1   2    7.10    1.80
   4  -1   2    9.50    1.50
  -4  -1  -2    6.90    1.40
   4   1   2    7.10    2.60
  -4   1  -2    7.80    1.50
   4   1   2    8.50    3.80
   4   1   2    8.80    1.50
   4   1   2    9.20    3.60
   4   1   2    8.70    1.10
  -4   1  -2    9.10    3.50
  -5  -1  -2  114.39    5.60
  -5  -1  -2   91.39    9.50
   5  -1   2  113.09    3.70
   5  -1   2  117.19    5.20
  -5  -1  -2  116.09    3.90
  -5  -1  -2  117.49    5.60
  -5  -1  -2  125.79    6.10
   5  -1   2  106.39    9.10
  -5  -1  -2  130.19   10.40
  -5  -1  -2  117.29    4.00
   5  -1   2  117.49    5.80
  -5  -1  -2  120.99    6.20
   5  -1   2  117.79   10.00
  -5  -1  -2  113.89   11.40
   5   1   2  118.79    9.90
   5   1   2  114.19    7.50
   5   1   2  123.49    4.60
   5   1   2  121.09   10.30
   5   1   2  119.29    4.30
   5   1   2  116.59    8.50
  -5   1  -2  110.09    9.10
  -5   1  -2  108.59    5.40
   5   1   2  114.49    5.20
  -6  -1  -2  143.69    6.70
   6  -1   2  160.48    6.90
  -6  -1  -2  158.78    4.80
  -6  -1  -2  159.78    4.80
   6  -1   2  179.78   10.20
  -6  -1  -2  143.29   12.00
  -6  -1  -2  152.98    6.90
   6  -1   2  159.78   11.80
   6  -1   2  147.59   13.30
   6  -1   2  162.38    8.20
   6  -1   2  152.68    5.00
   6  -1   2  159.08    5.70
  -6  -1  -2  154.68   14.20
  -6  -1  -2  143.39    7.00
  -6   1  -2  139.69    6.90
   6   1   2  151.98    6.80
   6   1   2  165.48   13.10
   6   1   2  154.88    5.60
   6   1   2  158.28    6.10
   6   1   2  152.18   10.00
   6   1   2  151.98    6.90
   6   1   2  147.29   11.70
  -6   1  -2  148.89   11.80
   6   1   2  150.48   13.60
   7  -1   2   84.29    5.90
  -7  -1  -2   77.09    6.10
   7  -1   2   77.89   10.00
   7  -1   2   92.19   12.30
   7  -1   2   69.69    5.60
  -7  -1  -2   49.60    8.40
  -7   1  -2   72.39    6.10
   7   1   2   86.19    6.30
   7   1   2   87.39   11.70
  -7   1  -2   85.89   11.40
   7   1   2   86.49   10.70
   7   1   2   78.39    4.40
   7   1   2   79.59    5.80
   7   1   2   87.89    8.70
  -8  -2   2   38.00    5.10
  -8  -2   2   76.19    9.50
  -8  -2   2   54.79   10.10
   8  -2  -2   42.10   13.40
  -8  -2   2   44.30    4.90
   8  -2  -2   58.39    6.70
  -8   2   2   36.50    5.10
   8   2  -2   54.09    6.30
  -8   2   2   54.79    9.80
   7  -2  -2  114.59    8.40
   7  -2  -2  153.78   15.80
  -7  -2   2  124.69    5.70
  -7  -2   2  118.19   12.20
   7  -2  -2  105.79    6.80
  -7  -2   2  112.89   11.20
   7  -2  -2  119.39    4.60
   7   2  -2  109.19   11.00
   7   2  -2  132.19   11.50
  -7   2   2  109.09    7.80
   7   2  -2  119.79    5.80
   7   2  -2  121.19    5.60
  -7   2   2  123.29    4.40
   6  -2  -2   67.79    4.00
  -6  -2   2   89.79    8.70
  -6  -2   2   71.79    4.10
  -6  -2   2   67.19    7.20
   6  -2  -2   59.89    9.50
   6  -2  -2   78.39    7.30
  -6  -2   2   63.19    4.30
  -6  -2   2   61.69    8.00
  -6   2   2   68.09    8.30
   6   2  -2   73.69    4.20
   6   2  -2   66.09    4.70
  -6   2   2   70.59    3.30
   6   2  -2   78.59    7.10
   6   2  -2   84.89    9.00
  -6   2   2   65.89    6.50
   6   2  -2   69.19    4.00
  -6   2   2   63.49    4.40
   6   2  -2   61.39    7.20
   5  -2  -2  462.55   13.20
   5  -2  -2  472.75   16.20
  -5  -2   2  452.75   18.20
  -5  -2   2  488.35   16.90
   5  -2  -2  487.95   13.30
   5  -2  -2  468.15   14.70
  -5  -2   2  462.55   14.40
   5  -2  -2  486.95   20.10
  -5  -2   2  478.45   13.80
  -5  -2   2  485.05   17.30
   5  -2  -2  461.25   15.60
  -5   2   2  471.75   14.50
   5   2  -2  466.35   16.60
   5   2  -2  465.25   13.60
  -5   2   2  434.16   18.10
   5   2  -2  469.35   14.70
   5   2  -2  492.05   14.00
   5   2  -2  484.85   20.20
   5   2  -2  488.85   13.90
   5   2  -2  465.35   17.60
   5   2  -2  469.25   18.00
   4  -2  -2  213.58    8.90
  -4  -2   2  206.48   10.10
   4  -2  -2  211.18    6.30
  -4  -2   2  203.38    6.30
   4  -2  -2  205.78    7.30
   4  -2  -2  204.28   11.20
  -4  -2   2  204.08    6.70
  -4  -2   2  212.58    6.90
  -4  -2   2  227.08    9.00
   4  -2  -2  198.88    6.40
   4  -2  -2  198.58    8.70
  -4  -2   2  194.18    7.10
  -4  -2   2  208.78    9.60
  -4  -2   2  216.08    9.80
  -4   2   2  194.88    9.90
   4   2  -2  212.28    6.80
  -4   2   2  203.28    7.20
   4   2  -2  211.38    9.30
  -4   2   2  198.58    6.30
   4   2  -2  207.08    7.00
   4   2  -2  208.68    7.40
   4   2  -2  194.68    9.80
   4   2  -2  200.38   11.60
  -4   2   2  211.78    8.50
   4   2  -2  207.68    6.70
   4   2  -2  201.78    9.90
  -3  -2   2  293.27    8.80
  -3  -2   2  288.07    8.80
   3  -2  -2  284.27   10.00
  -3  -2   2  289.37   11.20
  -3  -2   2  291.77   14.30
  -3  -2   2  287.37   10.80
  -3  -2   2  288.87    8.50
  -3  -2   2  292.27   10.90
   3  -2  -2  270.27   10.20
  -3  -2   2  275.87   11.10
   3  -2  -2  283.37    8.40
   3  -2  -2  297.37    8.20
  -3  -2   2  290.67    8.40
   3   2  -2  284.67    8.80
  -3   2   2  288.47    9.00
  -3   2   2  293.57    8.30
   3   2  -2  287.07   12.20
   3   2  -2  290.07   11.30
   3   2  -2  284.97   10.50
  -3   2   2  285.17   11.30
  -3   2   2  285.57    8.80
   3   2  -2  275.07   11.00
  -3   2   2  296.57   10.40
   3   2  -2  288.47    8.50
   3   2  -2  274.87    9.00
   3   2  -2  296.17    8.60
  -3   2   2  292.87    7.80
  -2  -2   2  110.79    3.90
  -2  -2   2  112.79    6.10
  -2  -2   2  105.79    5.60
  -2  -2   2  116.39    3.80
  -2  -2   2  114.29    4.10
   2  -2  -2  109.99    5.70
   2  -2  -2  112.69    3.90
  -2  -2   2  111.49    5.80
   2  -2  -2  105.99    5.10
  -2  -2   2  111.19    3.90
  -2  -2   2   91.09    9.10
   2  -2  -2  113.59    3.60
  -2  -2   2  114.19    5.30
  -2   2   2  114.39    4.00
   2   2  -2  104.69    4.10
   2   2  -2  109.29    5.40
  -2   2   2  108.09    3.80
  -2   2   2  115.29    3.80
   2   2  -2  117.49    3.90
   2   2  -2  107.39    4.10
   2   2  -2  110.99    3.90
  -2   2   2  108.09    3.70
   2   2  -2  113.19    6.30
   2   2  -2  112.89    6.40
   2   2  -2  117.49    5.80
  -2   2   2  113.39    5.50
  -2   2   2  110.99    5.50
  -2   2   2  103.19    5.30
  -1  -2   2 4030.30  100.49
  -1  -2   2 3901.71  100.59
  -1  -2   2 4146.49   99.19
  -1  -2   2 3853.31   98.89
   1  -2  -2 3534.85   98.79
  -1  -2   2 4030.10  100.99
   1  -2  -2 3936.51  100.69
  -1  -2   2 3748.02  100.69
   1  -2  -2 4023.60  100.29
   1  -2  -2 4021.60   99.69
   1   2  -2 4086.79   99.19
   1   2  -2 3648.54   98.99
   1   2  -2 3973.10   98.89
  -1   2   2 4061.89  100.29
   1   2  -2 3805.22  100.69
  -1   2   2 3965.10  100.69
   1   2  -2 3860.11  100.99
   1   2  -2 3883.11  100.59
  -1   2   2 3993.40   99.69
   0  -2   2  152.18    4.10
   0  -2   2  147.99    4.80
   0  -2   2  149.49    6.00
   0  -2  -2  144.19    5.70
   0  -2   2  150.98    4.50
   0  -2  -2  153.48    5.80
   0  -2  -2  149.09    4.70
   0  -2  -2  143.59    6.10
   0  -2  -2  150.68    4.40
   0  -2   2  142.99    4.60
   0  -2   2  137.39    5.70
   0  -2  -2  153.48    5.90
   0  -2  -2  144.69    4.40
   0   2   2  149.59    4.40
   0   2  -2  145.69    6.00
   0   2   2  140.49    6.10
   0   2   2  147.69    6.00
   0   2  -2  153.58    4.40
   0   2  -2  157.98    5.70
   0   2  -2  150.08    4.10
   0   2   2  143.59    5.70
   0   2  -2  145.39    4.80
   0   2   2  141.89    5.60
   0   2   2  145.39    4.40
   0   2  -2  148.69    4.60
  -1  -2  -2 9819.92  246.68
   1  -2   2 9999.00  245.88
  -1  -2  -2 9800.32  247.48
   1   2   2 9807.12  246.68
  -1   2  -2 9321.87  246.08
  -1   2  -2 9927.21  245.78
   2  -2   2   45.60    1.90
  -2  -2  -2   43.60    3.50
   2  -2   2   42.00    4.00
   2  -2   2   44.20    1.70
  -2  -2  -2   40.90    2.20
  -2  -2  -2   48.10    2.40
   2  -2   2   45.00    2.10
   2  -2   2   43.40    1.40
   2  -2   2   41.70    3.20
  -2  -2  -2   43.00    3.80
  -2  -2  -2   42.70    2.00
   2  -2   2   41.60    2.60
  -2  -2  -2   49.10    4.50
  -2  -2  -2   47.10    4.80
  -2   2  -2   44.60    1.70
   2   2   2   41.30    4.30
   2   2   2   41.60    4.20
   2   2   2   43.80    2.10
  -2   2  -2   42.10    4.00
  -2   2  -2   43.50    2.40
  -2   2  -2   42.80    2.60
   2   2   2   42.50    4.60
   2   2   2   42.50    3.80
   2   2   2   42.40    2.30
   2   2   2   43.20    2.30
  -3  -2  -2   31.40    4.40
  -3  -2  -2   21.00    1.70
  -3  -2  -2   24.60    3.10
   3  -2   2   21.20    3.30
  -3  -2  -2   26.20    1.90
  -3  -2  -2   27.00    2.30
   3  -2   2   24.50    3.50
   3  -2   2   25.80    1.90
  -3  -2  -2   24.90    2.20
  -3  -2  -2   26.10    4.10
  -3  -2  -2   24.90    3.10
  -3  -2  -2   21.40    3.50
   3   2   2   25.40    1.90
  -3   2  -2   29.40    4.20
  -3   2  -2   23.40    2.10
   3   2   2   18.20    3.60
   3   2   2   25.60    1.70
   3   2   2   19.00    3.00
   3   2   2   19.90    3.80
   3   2   2   24.00    2.00
   3   2   2   27.00    3.50
  -4  -2  -2  225.88    8.30
   4  -2   2  210.08   10.10
  -4  -2  -2  213.48   10.90
  -4  -2  -2  196.98   10.80
   4  -2   2  204.88    6.90
  -4  -2  -2  209.18    8.70
  -4  -2  -2  212.28    8.80
  -4  -2  -2  207.48    6.60
  -4  -2  -2  211.38    6.50
  -4  -2  -2  232.98   13.70
   4  -2   2  220.48    9.90
  -4  -2  -2  199.08    7.60
   4   2   2  234.38   11.50
  -4   2  -2  198.88    7.40
  -4   2  -2  207.18   10.30
   4   2   2  205.88    9.10
   4   2   2  221.58   11.10
   4   2   2  216.48    7.30
   4   2   2  206.08    6.50
   5  -2   2    8.10    4.00
  -5  -2  -2    3.30    6.50
  -5  -2  -2    2.20    2.90
   5  -2   2   -2.40    4.40
  -5  -2  -2   -0.20    1.30
  -5  -2  -2    1.90    5.30
   5  -2   2    1.50    1.40
  -5  -2  -2   -1.00    1.90
  -5  -2  -2    0.60    1.10
  -5  -2  -2    0.40    4.20
   5   2   2   -4.30    4.80
   5   2   2    3.00    4.60
   5   2   2    0.60    5.00
   5   2   2    1.10    1.50
   5   2   2   -0.60    1.10
   5   2   2   -1.60    1.80
  -5   2  -2   -0.70    4.20
  -5   2  -2    2.20    1.70
   5   2   2   -0.30    3.50
   5   2   2    0.30    1.50
  -6  -2  -2    5.50    1.50
   6  -2   2    7.00    3.70
  -6  -2  -2    5.90    3.50
   6  -2   2    5.60    6.50
  -6  -2  -2   14.00    7.90
  -6  -2  -2    3.70    3.70
   6  -2   2    3.80    3.20
  -6  -2  -2    4.00    1.40
   6  -2   2    0.80    1.90
  -6  -2  -2    3.80    4.90
   6  -2   2    8.60    5.70
  -6  -2  -2    1.20    1.90
   6   2   2    7.00    6.80
   6   2   2    7.10    2.30
   6   2   2    1.10    4.90
   6   2   2    8.40    6.80
   6   2   2    4.00    2.20
   6   2   2    1.70    1.60
  -6   2  -2    4.50    1.80
  -6   2  -2    7.80    5.20
   6   2   2    8.00    2.60
   6   2   2   11.00    6.80
  -7  -2  -2   11.80    1.70
  -7  -2  -2   10.10    4.10
   7  -2   2   10.90    2.80
  -7  -2  -2    6.30    4.30
   7  -2   2   24.30    9.90
  -7  -2  -2   13.50    1.60
  -7  -2  -2    6.80    3.50
   7  -2   2   13.30    2.90
   7  -2   2    6.00    7.30
  -7  -2  -2   10.50    8.70
   7   2   2   25.80    9.50
  -7   2  -2    4.40    2.90
   7   2   2  -11.80    8.60
   7   2   2   10.40    2.90
   7   2   2   11.30    2.30
   7   2   2    8.00    7.10
   7   2   2   10.70    3.60
  -7   2  -2   14.90    7.40
  -8  -3   2  104.69   12.50
   8  -3  -2  116.09    8.30
  -8  -3   2  146.39   16.40
  -8  -3   2  119.69    7.70
  -8  -3   2  126.79    6.90
   8  -3  -2  113.19   18.50
  -8   3   2  133.09   14.60
  -8   3   2  123.69    7.90
   7  -3  -2   86.29    6.00
   7  -3  -2   84.79    7.20
  -7  -3   2   89.79    9.70
  -7  -3   2   92.29    9.50
   7  -3  -2   81.49    3.60
  -7  -3   2   90.59    5.30
  -7  -3   2   85.59    5.40
   7  -3  -2   85.09   12.70
  -7  -3   2   66.79   10.30
   7   3  -2  106.59    9.90
   7   3  -2   91.59    9.60
  -7   3   2   76.09    5.90
   7   3  -2   78.29    5.10
  -7   3   2   56.79   10.00
   7   3  -2   81.69    5.30
  -7   3   2   78.99    5.80
   6  -3  -2 2224.58   60.79
  -6  -3   2 2271.67   60.79
  -6  -3   2 2402.26   64.19
   6  -3  -2 2319.67   62.09
   6  -3  -2 2260.47   58.49
   6  -3  -2 2295.17   58.79
  -6  -3   2 2269.67   65.99
   6  -3  -2 2295.97   60.89
  -6  -3   2 2390.86   59.69
  -6  -3   2 2236.68   63.49
   6   3  -2 2308.17   64.29
  -6   3   2 2335.27   60.49
   6   3  -2 2188.88   64.69
   6   3  -2 2290.67   59.49
  -6   3   2 2209.48   65.79
   6   3  -2 2364.86   63.69
   6   3  -2 2297.27   59.69
  -6   3   2 2267.17   60.69
  -6   3   2 2290.37   58.39
   6   3  -2 2267.67   59.79
  -5  -3   2    6.90    4.40
   5  -3  -2    4.80    1.30
  -5  -3   2    2.70    1.50
  -5  -3   2    3.50    1.50
   5  -3  -2    2.40    1.50
   5  -3  -2    2.20    1.10
  -5  -3   2   -1.20    4.60
   5  -3  -2    3.60    3.80
   5  -3  -2    3.10    2.80
  -5  -3   2    3.80    4.00
   5  -3  -2   12.50    5.70
   5   3  -2    5.10    5.40
   5   3  -2    4.00    4.00
   5   3  -2    0.60    1.30
   5   3  -2    2.00    4.30
   5   3  -2    9.10    6.00
   5   3  -2    1.90    1.50
  -5   3   2   -0.70    4.20
   5   3  -2    3.60    1.50
   5   3  -2    6.20    1.90
  -5   3   2    1.20    1.50
  -4  -3   2  728.23   19.70
  -4  -3   2  697.53   22.10
   4  -3  -2  680.83   24.20
  -4  -3   2  713.83   23.20
   4  -3  -2  701.03   19.00
  -4  -3   2  720.63   22.80
   4  -3  -2  729.33   21.20
  -4  -3   2  716.53   19.70
   4  -3  -2  699.03   21.30
  -4  -3   2  722.33   20.00
   4  -3  -2  698.53   20.10
  -4  -3   2  701.93   19.20
   4  -3  -2  732.23   18.90
  -4  -3   2  700.13   22.90
   4   3  -2  719.83   19.60
   4   3  -2  710.03   22.60
  -4   3   2  702.23   20.00
  -4   3   2  693.93   23.30
   4   3  -2  686.33   24.50
   4   3  -2  707.13   23.10
   4   3  -2  693.93   20.30
   4   3  -2  707.13   19.80
  -4   3   2  720.13   21.20
   4   3  -2  739.73   19.70
   4   3  -2  735.83   23.50
  -4   3   2  713.33   19.00
   3  -3  -2  895.21   22.70
  -3  -3   2  894.61   23.30
  -3  -3   2  878.91   26.00
  -3  -3   2  867.81   25.80
   3  -3  -2  867.01   22.80
  -3  -3   2  863.31   23.10
  -3  -3   2  839.82   23.20
  -3  -3   2  849.61   25.90
  -3  -3   2  862.31   23.30
  -3  -3   2  862.81   26.20
   3  -3  -2  890.01   24.70
   3  -3  -2  838.52   24.90
  -3   3   2  878.61   24.90
   3   3  -2  832.52   23.60
   3   3  -2  862.51   23.20
  -3   3   2  873.51   23.50
  -3   3   2  895.71   22.20
   3   3  -2  834.72   23.40
  -3   3   2  846.72   25.90
   3   3  -2  892.31   25.90
   3   3  -2  866.71   23.20
   3   3  -2  814.62   27.00
  -3   3   2  898.51   22.20
  -3   3   2  883.91   23.40
   3   3  -2  858.71   26.30
   3   3  -2  854.61   26.30
  -3   3   2  860.01   22.80
  -3   3   2  886.31   23.30
  -2  -3   2 1456.05   40.20
   2  -3  -2 1403.86   39.30
   2  -3  -2 1481.45   37.30
  -2  -3   2 1425.86   37.70
  -2  -3   2 1314.57   40.80
  -2  -3   2 1343.37   38.00
  -2  -3   2 1387.46   40.10
   2  -3  -2 1494.95   37.20
  -2  -3   2 1510.65   37.70
  -2  -3   2 1509.45   37.60
   2  -3  -2 1501.75   39.00
  -2  -3   2 1491.65   40.50
  -2  -3   2 1518.15   37.30
  -2  -3   2 1478.05   39.00
   2  -3  -2 1430.06   37.30
   2   3  -2 1482.25   40.40
  -2   3   2 1459.15   37.40
  -2   3   2 1479.55   37.00
   2   3  -2 1299.87   41.40
   2   3  -2 1349.47   38.10
   2   3  -2 1504.25   37.80
  -2   3   2 1493.15   38.60
  -2   3   2 1458.55   37.40
  -2   3   2 1476.95   37.60
  -2   3   2 1472.75   36.70
  -2   3   2 1483.85   39.60
   2   3  -2 1459.65   37.60
  -2   3   2 1487.95   39.50
   2   3  -2 1418.86   40.40
   2   3  -2 1432.76   39.70
   2   3  -2 1399.16   37.70
  -1  -3   2  181.28    7.30
  -1  -3   2  182.98    5.80
  -1  -3   2  191.38    5.20
  -1  -3   2  185.28    7.70
  -1  -3   2  182.78    5.80
   1  -3  -2  176.68    5.40
   1  -3  -2  183.58    5.70
   1  -3  -2  181.98    7.00
  -1  -3   2  187.48    5.60
   1  -3  -2  181.48    7.40
  -1  -3   2  180.88    7.60
  -1  -3   2  190.58    6.10
   1  -3  -2  185.68    6.60
   1   3  -2  185.98    5.90
  -1   3   2  188.98    6.70
  -1   3   2  185.38    5.40
   1   3  -2  184.38    5.60
  -1   3   2  176.08    7.50
   1   3  -2  176.98    7.20
   1   3  -2  184.18    5.60
   1   3  -2  185.78    7.50
   1   3  -2  184.28    7.80
  -1   3   2  179.78    5.70
  -1   3   2  185.88    7.00
   0  -3   2 1028.50   25.50
   0  -3  -2  929.81   26.00
   0  -3   2 1001.20   27.60
   0  -3   2 1009.10   25.50
   0  -3  -2 1002.40   25.90
   0  -3   2  984.30   26.60
   0  -3  -2  984.90   25.90
   0  -3   2  988.90   27.70
   0  -3  -2  998.80   27.70
   0  -3   2  975.60   26.00
   0  -3  -2  986.00   27.70
   0  -3   2 1036.20   25.20
   0  -3   2 1011.20   25.90
   0  -3  -2  973.60   28.00
   0  -3  -2  999.20   27.60
   0   3  -2 1027.30   26.50
   0   3  -2  981.50   27.70
   0   3   2  951.10   27.50
   0   3  -2 1049.40   27.40
   0   3   2  980.40   25.90
   0   3   2 1018.20   28.20
   0   3   2 1009.90   26.10
   0   3   2  968.50   27.70
   0   3  -2 1017.70   25.70
   0   3  -2 1044.20   25.50
   0   3  -2  993.60   26.00
  -1  -3  -2 1106.49   31.20
   1  -3   2 1124.49   28.50
   1  -3   2 1089.09   29.80
   1  -3   2 1122.79   28.70
   1  -3   2 1012.50   29.00
  -1  -3  -2 1118.79   30.70
  -1  -3  -2 1106.29   30.90
   1  -3   2 1153.08   28.30
   1  -3   2 1127.49   28.00
  -1  -3  -2 1039.50   28.80
   1  -3   2 1014.80   31.50
   1  -3   2 1121.49   29.40
  -1  -3  -2 1136.59   30.50
  -1  -3  -2 1137.19   28.70
  -1  -3  -2 1122.89   28.70
   1   3   2 1118.29   31.40
  -1   3  -2 1134.49   28.10
  -1   3  -2 1138.59   28.90
   1   3   2 1059.99   28.90
   1   3   2 1122.89   28.70
  -1   3  -2 1171.28   28.10
  -1   3  -2 1145.59   29.30
  -1   3  -2 1048.10   29.70
   1   3   2 1116.89   28.70
  -1   3  -2 1150.98   28.30
   1   3   2 1071.19   30.50
   1   3   2 1072.39   30.50
  -1   3  -2 1134.39   29.00
   1   3   2 1090.49   31.10
  -1   3  -2 1065.29   28.40
  -2  -3  -2  586.44   19.60
   2  -3   2  536.65   14.10
  -2  -3  -2  532.85   17.20
  -2  -3  -2  566.84   14.70
   2  -3   2  542.15   14.90
   2  -3   2  534.95   15.10
   2  -3   2  555.94   14.00
  -2  -3  -2  535.55   16.70
  -2  -3  -2  550.64   17.70
   2  -3   2  547.75   14.00
   2  -3   2  530.35   14.80
  -2  -3  -2  565.94   15.10
  -2  -3  -2  542.85   14.90
  -2   3  -2  547.05   16.60
  -2   3  -2  548.65   14.80
   2   3   2  532.05   16.80
   2   3   2  544.95   18.10
  -2   3  -2  545.05   14.10
   2   3   2  535.55   14.90
   2   3   2  530.15   15.00
   2   3   2  535.55   17.40
  -2   3  -2  543.55   15.20
   2   3   2  505.55   17.10
   2   3   2  549.15   14.80
  -3  -3  -2  113.89    4.20
  -3  -3  -2   96.69    7.30
   3  -3   2  106.59    6.50
  -3  -3  -2  111.19    4.70
  -3  -3  -2  117.29    7.70
  -3  -3  -2  105.59    6.30
   3  -3   2  113.79    6.30
   3  -3   2  113.69    4.00
  -3  -3  -2  117.89    8.00
  -3  -3  -2  110.29    4.50
  -3  -3  -2  103.59    6.40
  -3  -3  -2  113.19    4.30
   3   3   2  120.39    7.30
  -3   3  -2  114.19    6.80
   3   3   2  106.79    6.40
   3   3   2  108.89    8.00
   3   3   2  109.79    4.40
  -3   3  -2  113.69    4.50
   3   3   2  109.49    4.30
   3   3   2  112.49    4.10
   3   3   2  111.29    6.80
  -4  -3  -2   47.60    2.80
  -4  -3  -2   51.49    2.80
   4  -3   2   51.89    5.80
  -4  -3  -2   49.20    3.40
  -4  -3  -2   54.29    5.50
   4  -3   2   48.40    5.50
  -4  -3  -2   69.79    8.00
  -4  -3  -2   34.30    5.40
   4  -3   2   51.49    2.90
  -4  -3  -2   57.69    3.70
  -4  -3  -2   47.30    5.30
   4   3   2   51.09    6.00
   4   3   2   52.19    3.20
  -4   3  -2   47.10    5.70
   4   3   2   51.59    2.80
   4   3   2   51.19    3.20
  -4   3  -2   50.39    3.40
   4   3   2   50.79    6.00
   4   3   2   55.59    6.50
   4   3   2   53.39    7.10
   5  -3   2   47.20    3.50
  -5  -3  -2   49.99    5.20
   5  -3   2   55.29    6.00
  -5  -3  -2   43.80    3.70
  -5  -3  -2   45.60    5.10
   5  -3   2   57.19    7.20
  -5  -3  -2   60.29    8.20
  -5  -3  -2   48.30   10.10
  -5  -3  -2   51.29    3.10
  -5  -3  -2   52.79    3.10
  -5  -3  -2   53.69    7.30
  -5  -3  -2   60.39    6.60
   5   3   2   62.09    4.40
   5   3   2   52.79    3.90
   5   3   2   56.49    5.70
   5   3   2   49.50    6.30
   5   3   2   54.29    8.10
   5   3   2   56.69    3.20
   5   3   2   65.89    8.30
   5   3   2   45.50    9.70
  -5   3  -2   65.79    7.80
  -5   3  -2   51.69    3.90
   6  -3   2  262.87   13.70
  -6  -3  -2  291.47   12.60
   6  -3   2  275.37   15.30
  -6  -3  -2  283.97    8.70
   6  -3   2  278.57    9.70
  -6  -3  -2  252.77   15.60
  -6  -3  -2  259.57   10.30
   6   3   2  269.67    9.60
   6   3   2  291.47   14.60
  -6   3  -2  264.17   10.10
   6   3   2  277.57   10.50
   6   3   2  299.97   17.40
   6   3   2  217.68   27.20
   6   3   2  270.27    9.00
  -6   3  -2  269.37   15.00
   6   3   2  269.17   17.30
   7  -3   2    9.30    9.10
  -7  -3  -2    4.40    5.50
   7  -3   2    3.70    2.90
  -7  -3  -2    5.30    3.40
  -7  -3  -2    4.90    1.90
  -7  -3  -2  -16.30    7.80
  -7  -3  -2    7.30    5.60
  -7  -3  -2    0.00    1.70
  -7   3  -2    5.60    2.90
   7   3   2    9.60   10.00
   7   3   2    6.00    2.20
  -7   3  -2    6.60    7.10
   7   3   2    4.10    3.60
   7   3   2   -5.20    9.10
   7   3   2    2.50    2.80
   7   3   2    5.00    8.00
  -7  -4   2   23.40    3.20
   7  -4  -2   18.10    2.10
  -7  -4   2   23.80    3.20
  -7  -4   2   26.00    8.30
   7  -4  -2   25.50    3.90
   7  -4  -2   24.20    4.10
  -7  -4   2   11.30    7.70
   7   4  -2   15.60    7.90
   7   4  -2   21.20    3.20
  -7   4   2    9.50    3.10
   7   4  -2   15.80    7.60
   7   4  -2   19.50    3.10
  -7   4   2   15.40    6.80
  -6  -4   2   83.09    9.40
  -6  -4   2   54.49    7.80
  -6  -4   2   65.69    4.50
   6  -4  -2   55.19   10.70
   6  -4  -2   62.09    4.90
  -6  -4   2   76.19    8.70
  -6  -4   2   66.49    4.70
   6  -4  -2   70.39    3.30
   6  -4  -2   60.59    5.90
   6  -4  -2   66.99    6.40
  -6   4   2   64.09    4.70
  -6   4   2   67.19    3.10
   6   4  -2   80.99    5.50
   6   4  -2   73.99    4.90
   6   4  -2   63.49    8.30
  -6   4   2   77.09    6.00
   6   4  -2   71.49    4.50
   6   4  -2   60.39   10.00
   6   4  -2   72.39    8.30
  -6   4   2   57.89    8.00
   5  -4  -2  303.47   12.50
   5  -4  -2  311.47   12.40
  -5  -4   2  317.57   13.40
  -5  -4   2  301.17   14.60
  -5  -4   2  313.97    9.50
  -5  -4   2  292.77   14.70
   5  -4  -2  324.17   16.20
   5  -4  -2  317.07   10.80
  -5  -4   2  313.57   10.30
  -5  -4   2  309.87   10.60
  -5  -4   2  318.87   14.70
   5  -4  -2  315.97    9.60
   5  -4  -2  324.47    9.30
   5   4  -2  317.97   10.30
   5   4  -2  321.17   10.40
   5   4  -2  309.27   10.40
   5   4  -2  326.57   15.70
   5   4  -2  346.67   15.30
   5   4  -2  314.47   14.40
  -5   4   2  314.37   14.60
  -5   4   2  305.97   10.70
   5   4  -2  305.47   10.80
   4  -4  -2 2836.72   75.59
  -4  -4   2 2954.10   74.19
   4  -4  -2 2932.51   73.09
  -4  -4   2 2994.30   74.19
   4  -4  -2 2856.71   73.19
  -4  -4   2 2881.11   73.69
  -4  -4   2 2897.41   77.79
  -4  -4   2 2866.51   77.69
  -4  -4   2 2878.31   74.19
   4  -4  -2 2969.40   75.49
  -4  -4   2 2915.01   77.19
  -4  -4   2 2726.03   77.39
   4   4  -2 2899.81   78.09
   4   4  -2 2834.02   74.59
  -4   4   2 2987.70   75.59
  -4   4   2 2795.32   77.79
  -4   4   2 2771.12   74.29
  -4   4   2 2860.31   73.19
   4   4  -2 2837.12   79.49
   4   4  -2 2804.72   82.49
   4   4  -2 2948.00   74.09
   4   4  -2 2934.01   77.59
   4   4  -2 2930.21   74.19
   4   4  -2 2751.42   74.99
   3  -4  -2  589.64   17.90
  -3  -4   2  587.64   19.00
  -3  -4   2  599.44   16.40
   3  -4  -2  596.84   15.80
  -3  -4   2  573.54   19.40
  -3  -4   2  572.74   19.60
  -3  -4   2  591.84   16.40
  -3  -4   2  597.64   19.90
   3  -4  -2  578.94   18.30
  -3  -4   2  603.64   16.70
   3  -4  -2  570.14   16.00
  -3  -4   2  583.84   16.60
  -3   4   2  593.54   16.50
   3   4  -2  594.54   20.60
   3   4  -2  599.14   16.50
   3   4  -2  592.54   20.00
   3   4  -2  574.54   16.50
  -3   4   2  564.54   16.50
   3   4  -2  596.74   16.70
  -3   4   2  602.14   15.30
   3   4  -2  586.04   19.50
  -3   4   2  584.94   18.20
   3   4  -2  586.94   19.90
  -3   4   2  579.54   16.30
  -3   4   2  597.44   15.20
   3   4  -2  589.54   16.80
  -3   4   2  556.64   19.00
  -3   4   2  594.44   16.00
  -2  -4   2 1181.38   34.60
  -2  -4   2 1236.68   33.30
  -2  -4   2 1216.98   31.80
  -2  -4   2 1214.68   34.90
  -2  -4   2 1252.07   34.90
  -2  -4   2 1282.07   31.50
  -2  -4   2 1210.58   32.00
   2  -4  -2 1213.78   31.50
   2  -4  -2 1221.68   33.30
   2  -4  -2 1256.57   31.30
  -2  -4   2 1219.48   32.00
   2  -4  -2 1247.38   31.90
  -2  -4   2 1233.18   35.00
  -2  -4   2 1258.17   31.90
   2  -4  -2 1190.88   33.70
  -2   4   2 1183.88   31.50
   2   4  -2 1187.18   31.80
   2   4  -2 1154.28   34.70
   2   4  -2 1168.28   34.40
   2   4  -2 1247.48   31.80
   2   4  -2 1193.98   31.90
  -2   4   2 1205.48   32.80
   2   4  -2 1170.78   32.00
  -2   4   2 1235.28   33.30
   2   4  -2 1129.89   34.60
  -2   4   2 1165.68   31.90
  -2   4   2 1195.98   30.90
  -2   4   2 1198.88   31.10
  -2   4   2 1268.17   31.30
  -2   4   2 1158.58   33.70
  -1  -4   2 1777.02   47.70
   1  -4  -2 1689.73   44.90
  -1  -4   2 1818.82   44.90
  -1  -4   2 1768.52   47.60
  -1  -4   2 1798.52   45.10
   1  -4  -2 1798.92   47.50
   1  -4  -2 1846.12   46.30
   1  -4  -2 1835.32   46.80
  -1  -4   2 1691.23   45.10
  -1  -4   2 1729.93   47.60
   1  -4  -2 1801.62   44.70
  -1  -4   2 1855.11   47.20
   1  -4  -2 1720.43   47.20
   1  -4  -2 1831.72   45.00
  -1  -4   2 1775.42   45.20
   1   4  -2 1773.12   44.80
   1   4  -2 1706.63   46.90
  -1   4   2 1738.93   45.00
  -1   4   2 1555.44   45.10
  -1   4   2 1752.82   47.40
   1   4  -2 1586.74   48.30
  -1   4   2 1831.52   44.70
  -1   4   2 1547.25   47.20
   1   4  -2 1724.53   45.20
   1   4  -2 1667.63   45.40
   1   4  -2 1764.72   47.70
  -1   4   2 1809.22   46.60
   0  -4  -2   18.40    1.70
   0  -4   2   17.40    2.30
   0  -4  -2   16.40    2.00
   0  -4  -2   18.50    1.50
   0  -4   2   16.50    1.60
   0  -4   2   16.90    2.70
   0  -4  -2   15.20    2.60
   0  -4   2   17.50    1.80
   0  -4   2   18.90    1.50
   0  -4   2   16.30    1.30
   0  -4   2   17.20    3.30
   0  -4   2   11.60    2.30
   0  -4  -2   17.40    4.30
   0  -4  -2   15.30    2.80
   0   4  -2   19.80    1.40
   0   4  -2   16.90    1.20
   0   4  -2   16.80    1.60
   0   4   2   20.50    2.80
   0   4  -2   17.70    2.20
   0   4   2   18.20    1.40
   0   4   2   18.60    1.80
   0   4  -2   21.20    2.60
   0   4  -2   14.60    2.50
   0   4  -2   18.30    1.50
   0   4   2   21.60    3.00
   0   4   2   19.40    3.10
   0   4   2   19.00    1.50
   0   4   2   18.50    2.90
   0   4  -2   17.00    2.70
  -1  -4  -2 1227.98   33.60
   1  -4   2 1264.87   34.90
   1  -4   2 1275.17   33.00
   1  -4   2 1305.57   32.80
   1  -4   2 1297.47   34.80
  -1  -4  -2 1254.27   36.10
  -1  -4  -2 1251.37   36.80
  -1  -4  -2 1295.57   33.80
  -1  -4  -2 1257.77   33.40
  -1  -4  -2 1280.27   36.20
   1  -4   2 1321.27   33.90
  -1  -4  -2 1242.18   35.80
   1  -4   2 1288.37   33.20
  -1   4  -2 1300.17   33.20
  -1   4  -2 1354.06   33.90
   1   4   2 1257.07   35.70
   1   4   2 1293.17   36.50
   1   4   2 1289.87   33.70
   1   4   2 1267.97   36.40
   1   4   2 1268.77   33.40
  -1   4  -2 1294.97   32.80
  -1   4  -2 1315.07   34.10
   1   4   2 1255.97   33.30
  -1   4  -2 1294.17   35.00
  -1   4  -2 1337.27   32.70
  -1   4  -2 1361.06   34.00
  -2  -4  -2  555.94   18.40
  -2  -4  -2  589.84   19.00
  -2  -4  -2  543.35   18.60
   2  -4   2  581.44   14.90
  -2  -4  -2  574.64   15.80
   2  -4   2  574.24   15.00
   2  -4   2  571.74   16.50
  -2  -4  -2  579.24   15.90
  -2  -4  -2  568.04   15.90
   2  -4   2  554.74   16.30
   2  -4   2  589.24   16.30
   2   4   2  568.84   16.00
  -2   4  -2  557.14   15.00
   2   4   2  578.34   18.70
   2   4   2  564.64   15.80
  -2   4  -2  580.54   17.30
   2   4   2  560.74   18.80
   2   4   2  573.94   15.60
   2   4   2  557.44   18.20
   2   4   2  548.55   19.20
  -2   4  -2  573.84   16.30
  -2   4  -2  595.04   15.50
   3  -4   2    4.60    1.50
   3  -4   2    5.70    1.20
  -3  -4  -2    1.50    2.50
  -3  -4  -2    3.00    3.50
   3  -4   2    3.40    0.50
  -3  -4  -2    3.70    1.20
   3  -4   2    6.80    1.50
  -3  -4  -2    4.40    1.20
  -3  -4  -2    1.90    2.10
   3  -4   2    3.80    2.60
   3  -4   2    3.30    0.90
   3  -4   2    6.70    1.30
  -3  -4  -2    4.60    1.00
   3  -4   2    4.20    0.60
   3   4   2    3.60    2.80
   3   4   2    4.50    1.60
   3   4   2    4.70    1.20
   3   4   2    6.30    3.80
   3   4   2    2.90    3.40
  -3   4  -2    2.50    2.90
   3   4   2    4.40    1.00
   3   4   2    3.60    1.20
   3   4   2    5.50    3.80
  -3   4  -2    6.40    1.40
   4  -4   2  343.97   13.70
  -4  -4  -2  343.47   11.50
   4  -4   2  355.76   10.50
  -4  -4  -2  342.17   13.70
  -4  -4  -2  362.96   10.70
  -4  -4  -2  353.86   11.20
  -4  -4  -2  344.77   16.20
  -4  -4  -2  359.06   14.10
  -4  -4  -2  358.06   15.60
   4  -4   2  348.27   13.30
  -4  -4  -2  350.76   10.70
  -4  -4  -2  335.97   15.30
   4   4   2  356.06   15.20
   4   4   2  360.96   15.30
   4   4   2  370.16   16.00
   4   4   2  341.27   11.00
   4   4   2  350.56   10.50
   4   4   2  342.47   13.90
  -4   4  -2  335.37   14.30
  -4   4  -2  348.47   11.00
   4   4   2  364.26   10.90
   4   4   2  360.06   11.50
  -5  -4  -2   23.60    6.30
  -5  -4  -2   27.70    7.40
  -5  -4  -2   30.40    5.00
   5  -4   2   34.80    6.00
  -5  -4  -2   33.90    5.00
  -5  -4  -2   22.90    3.00
  -5  -4  -2   27.90    2.70
   5  -4   2   28.00    3.10
   5  -4   2   24.30    4.80
  -5  -4  -2   24.00    2.60
   5   4   2   30.50    2.80
  -5   4  -2   20.70    5.40
   5   4   2   27.60    3.00
   5   4   2   21.70    6.40
   5   4   2   26.70    6.70
   5   4   2   26.70    5.80
  -5   4  -2   22.30    2.80
   5   4   2   20.30    3.10
   5   4   2   32.50    7.40
   5   4   2   23.10    2.80
  -6  -4  -2   51.39    8.40
   6  -4   2   76.39    9.70
  -6  -4  -2   54.29    7.00
  -6  -4  -2   57.29    4.70
   6  -4   2   58.19    4.50
  -6  -4  -2   54.09    6.50
   6  -4   2   57.69    6.80
  -6  -4  -2   63.29    3.80
  -6  -4  -2   72.69    4.30
   6   4   2   58.59    4.70
  -6   4  -2   58.99    4.50
   6   4   2   59.39    5.70
   6   4   2   70.19   10.40
   6   4   2   70.49   10.20
   6   4   2   52.19    8.20
   6   4   2   64.59   10.10
  -6   4  -2   52.79    7.90
   6   4   2   70.69    5.50
   6   4   2   59.79    4.10
  -7  -4  -2    8.50    2.20
  -7  -4  -2   10.20    3.30
  -7  -4  -2   11.10    8.80
  -7  -4  -2   -6.00    6.30
   7  -4   2    2.10    8.80
   7  -4   2    5.20    2.80
   7   4   2    7.40    4.00
   7   4   2   -6.40   10.10
   7   4   2    2.20   10.10
   7   4   2    7.80    8.50
  -7   4  -2   11.10    3.30
   7   4   2    1.00    2.80
   7   4   2    4.70    2.30
  -7   4  -2    0.70    7.40
   7  -5  -2    9.00   11.20
  -7  -5   2   11.40    3.20
  -7  -5   2   -3.50    8.10
  -7  -5   2    5.30    2.80
   7  -5  -2   13.90    3.40
   7  -5  -2    9.30    3.20
  -7  -5   2   10.30    2.80
  -7  -5   2    8.80    6.80
  -7  -5   2    5.40    8.30
   7   5  -2    7.20    2.70
   7   5  -2    5.70    8.60
  -7   5   2   12.50    3.40
   7   5  -2    3.80    9.80
  -7   5   2   11.70    7.60
   7   5  -2   10.00    3.20
   6  -5  -2   11.50    2.60
  -6  -5   2   11.50    2.70
  -6  -5   2   14.80    6.10
   6  -5  -2   17.40    4.10
  -6  -5   2   31.10    8.60
  -6  -5   2   14.60    6.40
   6  -5  -2   14.60    1.70
   6  -5  -2   23.70    5.80
   6  -5  -2   12.50    2.20
  -6  -5   2   14.60    2.60
   6   5  -2   14.20    6.60
  -6   5   2   17.50    2.00
   6   5  -2   12.00    7.10
  -6   5   2    9.50    2.00
  -6   5   2   14.60    3.60
   6   5  -2   13.70    2.80
   6   5  -2   15.90    2.70
  -6   5   2   18.90    5.00
  -5  -5   2  166.58   12.80
   5  -5  -2  156.68    5.50
  -5  -5   2  155.98    6.70
  -5  -5   2  152.78    5.90
  -5  -5   2  162.78   11.20
   5  -5  -2  164.88    6.80
   5  -5  -2  151.78    9.10
  -5  -5   2  165.58    6.70
   5  -5  -2  152.18    5.50
   5  -5  -2  168.48    8.30
  -5  -5   2  164.78   11.50
  -5  -5   2  158.68   10.50
   5  -5  -2  162.18   12.70
  -5   5   2  153.38   10.50
   5   5  -2  161.28    7.30
   5   5  -2  159.08    6.80
   5   5  -2  164.98   15.00
   5   5  -2  152.78    7.30
  -5   5   2  150.18    6.70
   5   5  -2  159.38    6.70
   5   5  -2  173.88   12.50
   5   5  -2  164.38   11.60
  -4  -5   2    0.30    1.50
   4  -5  -2    0.20    1.00
  -4  -5   2   -3.90    4.00
  -4  -5   2    0.50    1.40
   4  -5  -2   -1.40    2.90
  -4  -5   2   -4.70    4.70
   4  -5  -2   -0.70    2.60
  -4  -5   2    2.20    1.20
   4  -5  -2   -0.10    1.00
  -4  -5   2   -0.30    1.60
  -4  -5   2    1.20    3.60
  -4  -5   2    0.00    3.80
   4   5  -2   -0.70    4.00
   4   5  -2    2.60    3.90
   4   5  -2    0.70    1.30
   4   5  -2    1.70    1.60
  -4   5   2    1.80    1.10
  -4   5   2   -0.40    0.90
   4   5  -2    6.60    4.50
   4   5  -2    1.20    1.30
  -4   5   2    0.20    3.00
  -4   5   2    1.50    2.50
   4   5  -2   -0.40    1.50
   4   5  -2    0.80    4.90
  -3  -5   2 2892.71   72.39
  -3  -5   2 2814.12   72.39
   3  -5  -2 2416.76   71.89
  -3  -5   2 2808.32   72.09
  -3  -5   2 2768.02   75.79
  -3  -5   2 2828.62   76.09
  -3  -5   2 2842.12   74.89
   3  -5  -2 2903.21   74.29
   3  -5  -2 2857.51   71.59
  -3  -5   2 2790.92   71.99
  -3  -5   2 2867.21   76.09
   3  -5  -2 2471.35   75.49
  -3   5   2 2874.31   71.99
   3   5  -2 2787.42   72.39
   3   5  -2 2788.32   76.69
   3   5  -2 2828.92   76.29
   3   5  -2 2740.83   75.69
  -3   5   2 2891.61   70.79
  -3   5   2 3055.29   74.49
  -3   5   2 2906.71   70.89
   3   5  -2 2771.32   72.29
  -3   5   2 2878.51   72.19
   3   5  -2 2778.52   72.39
  -3   5   2 2830.12   71.59
  -2  -5   2  182.88    5.80
   2  -5  -2  178.08    5.90
   2  -5  -2  153.38    5.90
  -2  -5   2  182.78    6.20
   2  -5  -2  173.88    8.30
   2  -5  -2  177.48    6.90
  -2  -5   2  178.88    9.40
  -2  -5   2  168.78    9.10
  -2  -5   2  178.98    6.40
   2  -5  -2  168.88    8.90
  -2  -5   2  178.38    6.10
  -2  -5   2  192.18    7.90
  -2   5   2  177.28    7.30
  -2   5   2  176.78    8.10
   2   5  -2  173.78    9.30
  -2   5   2  179.48    5.60
   2   5  -2  177.08    9.20
  -2   5   2  177.98    5.40
   2   5  -2  186.38    6.40
  -2   5   2  176.18    8.40
  -2   5   2  180.48    5.40
   2   5  -2  178.48    6.40
   2   5  -2  188.48    9.20
  -2   5   2  181.28    6.90
  -2   5   2  174.48    6.00
   2   5  -2  174.28    6.10
  -1  -5   2 3743.93  107.49
  -1  -5   2 4327.07  110.59
   1  -5  -2 4136.59  109.89
   1  -5  -2 4205.88  107.09
  -1  -5   2 4230.08  107.39
  -1  -5   2 4078.89  109.99
  -1  -5   2 4316.17  110.69
  -1  -5   2 4163.68  107.49
   1  -5  -2 4280.07  107.29
   1  -5  -2 4222.88  108.99
  -1  -5   2 4324.07  107.69
  -1  -5   2 4207.98  110.39
   1  -5  -2 4267.87  107.39
   1  -5  -2 4235.18  109.39
   1  -5  -2 4303.47  110.19
  -1   5   2 4216.88  110.19
   1   5  -2 4225.58  107.29
  -1   5   2 4237.58  109.09
   1   5  -2 4301.37  110.39
   1   5  -2 4373.86  107.39
   1   5  -2 4193.38  110.29
   1   5  -2 4314.57  110.19
  -1   5   2 4309.87  107.09
   1   5  -2 4388.96  109.79
  -1   5   2 4205.28  107.39
  -1   5   2 4310.87  109.09
   1   5  -2 4194.48  107.49
   1   5  -2 4187.88  107.59
   1   5  -2 4446.65  107.29
   1   5  -2 4129.59  110.49
   0  -5  -2   40.90    4.60
   0  -5   2   45.80    2.20
   0  -5  -2   48.10    4.70
   0  -5   2   43.60    5.00
   0  -5   2   47.10    4.30
   0  -5  -2   43.90    2.30
   0  -5   2   47.50    2.50
   0  -5   2   48.40    2.60
   0  -5   2   56.59    5.20
   0  -5   2   47.90    2.70
   0  -5  -2   57.29    5.40
   0  -5  -2   48.00    4.70
   0  -5  -2   47.20    2.80
   0  -5  -2   47.30    2.50
   0   5   2   43.00    4.80
   0   5   2   41.40    2.40
   0   5  -2   46.70    2.20
   0   5   2   41.30    2.90
   0   5   2   43.00    2.30
   0   5  -2   48.60    4.10
   0   5   2   45.50    2.80
   0   5  -2   46.90    2.70
   0   5   2   35.00    4.10
   0   5  -2   45.20    2.40
   0   5  -2   42.10    4.30
   0   5  -2   45.50    4.50
   0   5   2   44.60    5.10
   0   5  -2   46.30    5.10
   0   5  -2   45.40    2.40
   0   5   2   49.00    4.60
   0   5   2   34.40    4.10
   1  -5   2  491.25   13.60
   1  -5   2  469.65   14.40
  -1  -5  -2  485.45   13.80
   1  -5   2  474.35   15.40
   1  -5   2  494.95   13.20
   1  -5   2  498.55   16.10
  -1  -5  -2  483.65   13.50
   1  -5   2  475.85   13.30
   1  -5   2  476.75   13.20
   1  -5   2  510.95   15.60
   1  -5   2  493.55   12.90
  -1  -5  -2  493.95   16.40
   1  -5   2  477.45   15.40
  -1  -5  -2  466.35   16.50
   1   5   2  491.25   13.50
   1   5   2  466.45   13.90
  -1   5  -2  485.95   12.90
  -1   5  -2  493.65   14.40
   1   5   2  481.05   16.80
  -1   5  -2  494.95   15.50
   1   5   2  472.35   14.00
   1   5   2  457.85   16.70
   1   5   2  480.95   16.20
  -1   5  -2  499.45   12.80
  -1   5  -2  492.65   14.40
   1   5   2  505.35   17.00
   1   5   2  460.95   15.90
   1   5   2  463.15   13.50
  -1   5  -2  457.45   13.30
   2  -5   2   37.10    1.90
  -2  -5  -2   37.40    2.50
   2  -5   2   41.80    3.70
   2  -5   2   33.90    2.00
   2  -5   2   35.90    1.90
  -2  -5  -2   37.70    2.60
  -2  -5  -2   33.70    4.30
   2  -5   2   37.50    3.60
  -2  -5  -2   47.80    5.50
   2  -5   2   29.60    3.20
  -2  -5  -2   35.50    2.30
   2  -5   2   37.20    3.80
  -2  -5  -2   28.60    3.90
   2  -5   2   35.00    1.90
   2   5   2   39.20    4.90
   2   5   2   32.50    2.30
   2   5   2   39.90    2.70
   2   5   2   37.60    2.90
  -2   5  -2   38.00    2.30
   2   5   2   40.30    2.60
  -2   5  -2   41.00    2.00
   2   5   2   29.50    4.20
  -2   5  -2   36.50    3.80
  -2   5  -2   47.80    3.90
   2   5   2   32.50    4.50
   2   5   2   35.80    2.30
   2   5   2   35.60    5.40
   3  -5   2  698.03   19.30
  -3  -5  -2  687.43   23.70
   3  -5   2  672.73   17.80
   3  -5   2  681.33   17.80
   3  -5   2  708.73   19.10
  -3  -5  -2  678.13   19.30
   3  -5   2  679.53   18.90
  -3  -5  -2  699.13   22.60
  -3  -5  -2  669.03   19.10
   3  -5   2  703.53   17.80
   3  -5   2  698.13   17.90
  -3  -5  -2  664.43   22.40
  -3  -5  -2  665.93   19.10
   3  -5   2  697.53   19.40
  -3   5  -2  713.53   19.00
   3   5   2  696.73   19.20
   3   5   2  669.23   22.20
   3   5   2  664.03   23.90
   3   5   2  676.03   19.70
  -3   5  -2  685.33   21.70
   3   5   2  681.83   22.90
   3   5   2  704.43   23.40
   3   5   2  684.83   18.90
   3   5   2  671.23   19.20
   4  -5   2  132.59    5.10
   4  -5   2  129.99    8.40
  -4  -5  -2  120.69    9.20
  -4  -5  -2  120.19    9.80
  -4  -5  -2  132.59    5.30
  -4  -5  -2  120.29    8.90
   4  -5   2  130.69    4.90
   4  -5   2  128.79    5.10
  -4  -5  -2  127.29    5.50
  -4  -5  -2  129.59    5.70
   4  -5   2  121.29    8.00
  -4  -5  -2  128.89   11.30
  -4  -5  -2  120.99    5.80
   4   5   2  140.19   10.60
  -4   5  -2  130.69    5.60
  -4   5  -2  126.89    8.80
   4   5   2  124.89   11.30
   4   5   2  124.99    6.10
   4   5   2  131.29    5.80
   4   5   2  143.79    9.50
   4   5   2  122.59    5.10
   4   5   2  129.89    5.60
   4   5   2  115.19   11.00
   5  -5   2  101.19    5.00
  -5  -5  -2   85.29    9.60
  -5  -5  -2  101.39    5.70
  -5  -5  -2  102.99    5.10
   5  -5   2  103.29    8.40
   5  -5   2  107.59   10.00
  -5  -5  -2   80.39    5.20
  -5  -5  -2  113.99   10.40
  -5  -5  -2  120.79   10.20
   5   5   2  106.99   11.00
   5   5   2  111.69    5.40
   5   5   2  105.89    4.90
  -5   5  -2   99.09    5.40
   5   5   2  122.09   10.30
  -5   5  -2   95.89    9.40
   5   5   2  109.29    5.80
   5   5   2  118.19   11.60
   5   5   2  100.49   10.80
   5   5   2  104.19    6.10
  -6  -5  -2  109.29    6.20
  -6  -5  -2  106.39    5.60
  -6  -5  -2   96.49   11.50
   6  -5   2  113.89   10.00
   6  -5   2  101.89   10.90
  -6  -5  -2  100.99   11.20
  -6  -5  -2   99.69   10.70
  -6  -5  -2  108.69    5.20
   6  -5   2  114.79    5.80
   6   5   2  100.89    6.80
   6   5   2  115.19    7.10
   6   5   2   92.19   11.70
   6   5   2  102.89   10.90
  -6   5  -2  114.19   11.10
  -6   5  -2  101.89    6.00
   6   5   2  128.49   14.30
   6   5   2  102.49   11.60
   6   5   2   99.49    6.00
   6   5   2  102.09    5.70
   7  -5   2   58.79    5.50
  -7  -5  -2   63.89    8.90
   7  -5   2   56.59   11.70
  -7  -5  -2   59.59   10.60
  -7  -5  -2   54.09    4.60
  -7  -5  -2   36.80    4.70
   7   5   2   65.69   12.10
   7   5   2   56.29    4.80
   7   5   2   75.59   10.70
  -7   5  -2   42.80    4.90
  -7   5  -2   45.50    8.70
   7   5   2   55.09    5.00
   7   5   2   70.29   13.30
  -7  -6   2   48.40   10.30
  -7  -6   2   48.40    5.00
  -7  -6   2   50.99    5.50
  -7  -6   2   44.50    9.70
   7  -6  -2   43.30    5.00
  -7  -6   2   52.79   10.20
  -7  -6   2   48.20    5.60
   7  -6  -2   42.60   12.90
   7   6  -2   50.59   11.80
   7   6  -2   28.90   10.70
  -7   6   2   49.50    5.20
   7   6  -2   58.59    6.10
   7   6  -2   45.20    4.40
  -7   6   2   28.70    8.10
  -6  -6   2   12.90    7.00
   6  -6  -2   11.30    1.70
  -6  -6   2    9.10    6.20
  -6  -6   2   13.00    2.70
   6  -6  -2   13.20    8.70
  -6  -6   2   18.00    3.10
   6  -6  -2    6.90    3.60
   6  -6  -2   -1.20    6.10
  -6  -6   2    8.20    6.80
   6  -6  -2    8.40    2.70
   6  -6  -2    7.60    2.40
  -6   6   2    9.60    5.00
  -6   6   2   15.20    3.60
   6   6  -2   10.70    2.90
   6   6  -2    1.90    7.70
   6   6  -2   14.10    2.90
   6   6  -2   11.70    7.50
  -6   6   2    9.90    1.50
  -6   6   2    9.30    2.40
   6   6  -2   11.00    7.60
   5  -6  -2  114.89    8.80
  -5  -6   2  102.89    9.60
   5  -6  -2  115.39    7.70
  -5  -6   2  122.69    5.90
  -5  -6   2  118.59    5.30
  -5  -6   2  120.49    6.00
   5  -6  -2  120.39    4.80
  -5  -6   2  114.59   10.60
  -5  -6   2  114.89   11.40
  -5  -6   2  109.79   11.00
   5  -6  -2  124.69    4.70
   5   6  -2  140.19   11.80
  -5   6   2  123.69    9.80
   5   6  -2  122.89    6.10
   5   6  -2  124.59    6.10
   5   6  -2  111.09   11.70
  -5   6   2  126.29    5.90
   5   6  -2   99.29   11.80
   5   6  -2  116.39    6.10
  -4  -6   2 1161.88   36.40
  -4  -6   2 1186.48   31.80
   4  -6  -2 1126.09   30.50
  -4  -6   2 1156.28   31.30
   4  -6  -2 1180.88   33.60
  -4  -6   2 1170.58   35.90
  -4  -6   2 1153.78   31.50
   4  -6  -2 1142.19   30.40
   4  -6  -2 1124.89   33.10
  -4  -6   2 1157.58   31.90
  -4  -6   2 1137.89   35.20
   4   6  -2 1200.18   31.90
   4   6  -2 1164.38   31.50
   4   6  -2 1118.89   37.30
   4   6  -2 1167.18   36.80
  -4   6   2 1178.08   33.50
   4   6  -2 1135.69   31.90
   4   6  -2 1196.68   36.30
   4   6  -2 1198.68   37.00
   4   6  -2 1165.68   31.80
  -4   6   2 1182.88   30.60
  -4   6   2 1145.59   31.60
   4   6  -2 1207.88   37.00
  -4   6   2 1113.09   35.50
   4   6  -2 1154.08   31.60
   3  -6  -2   39.70    4.60
   3  -6  -2   38.70    2.40
  -3  -6   2   33.80    5.10
  -3  -6   2   55.99    6.30
   3  -6  -2   39.40    3.50
   3  -6  -2   41.70    4.80
  -3  -6   2   40.30    4.90
  -3  -6   2   41.20    2.80
   3  -6  -2   39.60    2.50
  -3  -6   2   34.80    3.90
  -3  -6   2   40.10    3.20
  -3  -6   2   52.59    6.80
  -3  -6   2   42.80    3.00
  -3   6   2   38.60    3.60
   3   6  -2   44.80    3.30
   3   6  -2   42.90    2.90
  -3   6   2   40.40    2.70
  -3   6   2   37.80    4.50
  -3   6   2   41.30    2.10
   3   6  -2   37.60    5.80
   3   6  -2   42.20    3.20
   3   6  -2   49.40    6.70
   3   6  -2   42.20    5.80
   3   6  -2   37.20    5.50
   3   6  -2   45.70    3.10
   2  -6  -2  192.18    6.20
   2  -6  -2  209.18    8.10
  -2  -6   2  190.38   10.10
   2  -6  -2  190.48    8.70
  -2  -6   2  193.38    6.90
  -2  -6   2  200.38   10.30
   2  -6  -2  200.28    6.60
  -2  -6   2  190.58   10.30
  -2  -6   2  198.28    6.80
  -2  -6   2  198.48    6.80
   2  -6  -2  187.38    9.10
  -2   6   2  197.38    6.60
  -2   6   2  192.08    9.40
   2   6  -2  181.28   10.00
   2   6  -2  199.08    6.80
  -2   6   2  200.18    6.00
   2   6  -2  195.18    7.00
   2   6  -2  197.28   10.30
   2   6  -2  197.48   10.40
  -2   6   2  180.88    8.00
  -2   6   2  194.48    6.10
  -2   6   2  197.18    8.00
   2   6  -2  199.98    6.80
   2   6  -2  201.28   10.10
  -1  -6   2  315.57    9.80
   1  -6  -2  320.87   12.50
   1  -6  -2  255.87   15.00
   1  -6  -2  315.27    9.70
  -1  -6   2  326.07   12.90
   1  -6  -2  322.67   12.10
  -1  -6   2  314.77    9.40
  -1  -6   2  304.27   12.20
   1  -6  -2  311.37    9.30
  -1  -6   2  317.67    9.70
  -1  -6   2  336.07   13.40
  -1   6   2  309.87    9.10
  -1   6   2  322.47    9.50
  -1   6   2  336.27    9.80
  -1   6   2  322.57   11.90
   1   6  -2  323.67    9.40
  -1   6   2  311.17   11.40
   1   6  -2  317.47   12.70
   1   6  -2  320.47   12.00
  -1   6   2  313.47    9.40
   1   6  -2  312.87   12.80
   1   6  -2  314.57    9.60
   1   6  -2  303.97   12.60
   1   6  -2  301.57    9.80
  -1   6   2  326.27   12.90
  -1   6   2  312.57   12.50
   0  -6  -2  731.03   19.90
   0  -6   2  731.33   22.60
   0  -6  -2  740.33   19.70
   0  -6  -2  722.43   22.70
   0  -6   2  751.92   19.70
   0  -6   2  649.14   19.70
   0  -6  -2  729.43   22.60
   0  -6   2  719.93   19.70
   0  -6  -2  706.23   22.90
   0  -6   2  645.44   22.70
   0  -6   2  716.23   22.80
   0  -6  -2  738.13   19.60
   0   6  -2  712.33   19.70
   0   6  -2  715.83   22.60
   0   6   2  722.33   22.60
   0   6  -2  734.13   19.40
   0   6   2  708.43   20.00
   0   6   2  713.33   19.40
   0   6  -2  741.83   19.50
   0   6   2  723.23   22.10
   0   6   2  719.23   23.40
   0   6   2  731.53   19.90
   0   6   2  732.93   19.60
   0   6  -2  725.43   21.40
   0   6  -2  727.93   22.10
   0   6   2  702.43   22.50
   0   6  -2  738.33   22.00
   0   6  -2  738.63   19.20
   1  -6   2 2229.88   59.89
   1  -6   2 2219.48   56.59
   1  -6   2 2171.08   56.49
  -1  -6  -2 2117.39   56.99
  -1  -6  -2 2141.29   60.39
   1  -6   2 2206.58   56.09
   1  -6   2 2142.99   59.09
   1  -6   2 2191.28   59.19
   1  -6   2 2229.88   58.29
   1  -6   2 2198.78   56.89
   1   6   2 2210.98   59.99
  -1   6  -2 2256.57   57.89
  -1   6  -2 2264.87   56.09
   1   6   2 2186.08   56.79
  -1   6  -2 2192.88   57.89
   1   6   2 2235.38   56.99
   1   6   2 2151.38   56.69
   1   6   2 2190.38   57.19
  -1   6  -2 2274.07   56.59
   1   6   2 2162.78   60.69
  -1   6  -2 2235.28   58.19
  -1   6  -2 2229.48   56.19
   1   6   2 2162.28   57.29
  -1   6  -2 2253.17   55.99
  -1   6  -2 2269.67   59.19
   1   6   2 2200.98   60.89
   2  -6   2    3.80    2.70
   2  -6   2    4.70    1.10
   2  -6   2    6.50    1.10
   2  -6   2    6.30    1.20
  -2  -6  -2    8.90    3.40
   2  -6   2    3.20    2.60
  -2  -6  -2    6.40    1.40
  -2  -6  -2    5.70    1.30
  -2  -6  -2    8.00    3.80
   2  -6   2    5.40    1.00
   2  -6   2    4.50    2.40
   2  -6   2    6.30    1.10
   2  -6   2    6.00    2.50
   2  -6   2    5.90    1.00
  -2  -6  -2    5.30    4.80
   2  -6   2    6.90    3.30
   2  -6   2    7.10    2.40
   2   6   2    9.30    3.00
   2   6   2    4.20    3.10
   2   6   2    5.30    4.00
   2   6   2    5.60    1.10
   2   6   2    1.30    1.10
   2   6   2    6.20    1.20
   2   6   2    6.30    1.70
   3  -6   2   83.89    5.80
  -3  -6  -2   90.99    4.60
   3  -6   2   96.29    5.20
  -3  -6  -2  101.59    4.60
   3  -6   2   96.79    5.80
   3  -6   2   96.29    3.80
   3  -6   2   95.19    3.40
   3  -6   2   81.99    6.70
   3  -6   2   94.29    3.40
   3  -6   2   94.09    3.30
   3  -6   2  105.69    5.50
  -3  -6  -2  100.09    7.90
   3  -6   2   95.09    3.40
  -3  -6  -2   88.89   10.10
  -3  -6  -2   91.49    4.30
  -3  -6  -2   85.59    7.90
   3   6   2   87.19    7.90
   3   6   2   96.09    4.40
  -3   6  -2   95.99    6.80
   3   6   2   81.29    9.10
   3   6   2  100.09    4.60
   3   6   2   98.19    9.50
   3   6   2   84.79    7.70
   3   6   2   92.79    4.10
  -3   6  -2   95.79    4.30
   3   6   2   90.79    5.00
   4  -6   2  298.17    8.20
   4  -6   2  280.57   10.20
   4  -6   2  290.07    8.20
   4  -6   2  298.67    9.20
   4  -6   2  294.27   12.50
  -4  -6  -2  308.87   10.00
   4  -6   2  291.47   12.90
  -4  -6  -2  283.97   10.30
  -4  -6  -2  297.97    9.80
  -4  -6  -2  306.47   14.40
  -4  -6  -2  295.77   13.90
  -4  -6  -2  261.27   14.40
   4  -6   2  304.27   10.30
   4   6   2  291.87   10.60
   4   6   2  298.27   14.00
  -4   6  -2  284.07   13.20
   4   6   2  298.47   16.00
   4   6   2  307.57   16.30
  -4   6  -2  289.97    9.80
   4   6   2  284.87   14.80
   4   6   2  305.27   10.10
   4   6   2  294.97   10.10
   4   6   2  298.97    9.60
   5  -6   2   77.99    8.50
  -5  -6  -2   96.99   10.50
  -5  -6  -2   83.49    4.90
   5  -6   2   79.89    8.40
   5  -6   2   71.19    5.40
  -5  -6  -2   72.99    4.90
  -5  -6  -2   79.69    4.40
   5  -6   2   78.59    4.50
  -5  -6  -2   90.19    9.50
  -5  -6  -2   98.79   11.00
   5  -6   2   73.79    5.50
   5   6   2   82.79    7.80
   5   6   2   79.79    5.90
   5   6   2   76.89    5.30
  -5   6  -2   79.49    4.80
   5   6   2   66.59   10.60
  -5   6  -2   92.39    9.50
   5   6   2   88.19   13.40
   5   6   2   99.69   10.50
   5   6   2   83.89    4.50
  -6  -6  -2   58.59    4.60
  -6  -6  -2   42.00    5.50
  -6  -6  -2   53.19    8.40
  -6  -6  -2   50.29   11.10
  -6  -6  -2   61.29    4.90
   6  -6   2   46.50    9.60
   6  -6   2   51.29    6.70
   6  -6   2   45.30    4.30
  -6  -6  -2   48.00    8.30
   6   6   2   53.49    4.20
   6   6   2   54.89    6.30
   6   6   2   41.70    4.40
   6   6   2   63.19   11.50
   6   6   2   54.89    9.40
  -6   6  -2   56.69    8.50
  -6   6  -2   48.40    4.50
   6   6   2   56.59   10.50
  -7  -6  -2  133.09   11.60
   7  -6   2  113.99    7.10
   7  -6   2  128.39   14.40
  -7  -6  -2  105.99   13.60
  -7  -6  -2  121.09    6.60
  -7  -6  -2  108.39    7.50
   7   6   2  107.89    7.80
   7   6   2  113.29   27.90
   7   6   2  116.39   13.20
   7   6   2  122.59   11.90
  -7   6  -2  104.39    7.00
   7   6   2  115.29    6.70
   7   6   2  119.49   15.40
  -7   6  -2  105.99   12.70
  -7  -7   2   82.19    7.50
  -7  -7   2   82.89   11.60
  -7  -7   2   84.19    6.50
   7  -7  -2  106.79    7.30
  -7  -7   2   78.19    6.60
   7  -7  -2   94.59   14.50
  -7  -7   2   89.09   12.70
  -7  -7   2  103.09   13.10
   7   7  -2  100.39    7.50
  -7   7   2   79.59    6.30
  -7   7   2   81.29   11.10
   7   7  -2   91.59   13.70
   7   7  -2   71.19    6.70
  -6  -7   2 1303.57   44.00
  -6  -7   2 1385.96   37.60
   6  -7  -2 1382.76   35.30
   6  -7  -2 1355.06   45.70
  -6  -7   2 1306.17   43.60
  -6  -7   2 1356.26   37.90
   6  -7  -2 1360.46   37.90
  -6  -7   2 1416.56   45.10
   6  -7  -2 1346.87   37.90
   6   7  -2 1356.86   37.70
   6   7  -2 1370.06   45.70
   6   7  -2 1386.76   37.60
  -6   7   2 1397.66   37.40
  -6   7   2 1248.68   43.60
   6   7  -2 1349.86   44.30
  -6   7   2 1284.87   37.90
   6   7  -2 1411.36   44.90
   5  -7  -2   68.79    3.60
  -5  -7   2   64.59    8.10
  -5  -7   2   55.39    8.10
  -5  -7   2   70.39    5.30
   5  -7  -2   70.49    7.40
   5  -7  -2   73.19    4.00
  -5  -7   2   74.29    4.70
   5  -7  -2   72.19    7.30
  -5  -7   2   53.59    8.10
  -5  -7   2   64.29    4.30
   5   7  -2   76.19    9.40
   5   7  -2   66.39    5.20
   5   7  -2   72.39    5.20
   5   7  -2   60.99    8.50
  -4  -7   2  210.78   13.20
  -4  -7   2  220.88   13.40
  -4  -7   2  225.18    8.40
  -4  -7   2  205.78    7.80
   4  -7  -2  211.68    7.10
   4  -7  -2  220.48   11.00
   4  -7  -2  216.28    7.20
  -4  -7   2  204.48   11.50
  -4  -7   2  215.58    8.00
   4  -7  -2  217.88   10.80
  -4   7   2  236.18   11.00
   4   7  -2  228.08    8.60
   4   7  -2  213.88    8.40
   4   7  -2  212.68   13.00
   4   7  -2  226.38   14.20
   4   7  -2  215.98   13.60
   4   7  -2  217.78    8.30
  -4   7   2  224.58    7.30
   3  -7  -2    6.60    1.40
  -3  -7   2    7.00    4.30
  -3  -7   2    8.20    1.80
   3  -7  -2    6.40    2.60
   3  -7  -2    4.60    3.60
   3  -7  -2    7.00    3.40
  -3  -7   2    7.80    1.50
  -3  -7   2    5.60    3.90
   3  -7  -2    5.40    1.30
  -3  -7   2    8.60    3.80
  -3  -7   2    6.50    1.50
  -3   7   2    9.10    3.10
  -3   7   2    9.10    1.20
   3   7  -2    8.40    4.10
   3   7  -2    8.50    1.60
   3   7  -2    8.50    1.70
  -3   7   2    7.20    1.60
  -3   7   2    9.40    2.60
  -3   7   2    9.50    3.80
   3   7  -2    7.10    1.60
   3   7  -2    3.50    4.30
  -3   7   2    6.60    0.90
   3   7  -2    6.90    4.90
   3   7  -2    8.60    4.80
   3   7  -2    4.30    1.40
  -2  -7   2  421.56   13.20
   2  -7  -2  437.86   12.90
   2  -7  -2  447.76   15.90
   2  -7  -2  457.75   12.70
  -2  -7   2  430.76   17.20
  -2  -7   2  444.86   13.20
   2  -7  -2  456.65   14.90
  -2  -7   2  433.66   17.20
   2  -7  -2  433.26   16.10
  -2  -7   2  450.65   13.50
  -2  -7   2  437.26   17.30
   2   7  -2  443.96   17.00
  -2   7   2  442.86   12.30
  -2   7   2  451.55   13.10
   2   7  -2  450.25   17.30
  -2   7   2  419.06   15.40
  -2   7   2  451.55   12.60
  -2   7   2  440.86   14.90
   2   7  -2  425.16   13.40
   2   7  -2  434.16   13.40
   2   7  -2  412.96   13.10
  -2   7   2  465.55   16.60
  -2   7   2  441.86   12.50
  -2   7   2  453.45   14.80
   2   7  -2  456.55   13.20
   2   7  -2  455.65   17.50
   2   7  -2  434.16   17.10
  -1  -7   2  145.69    5.50
  -1  -7   2  142.19    5.60
   1  -7  -2  140.09    5.20
   1  -7  -2  151.48    8.20
   1  -7  -2  153.58    8.50
  -1  -7   2  146.39    9.10
  -1  -7   2  152.98    5.30
   1  -7  -2  141.19    8.30
  -1  -7   2  145.09    8.70
   1  -7  -2  145.69    5.50
  -1   7   2  149.29    7.70
  -1   7   2  141.59    8.90
  -1   7   2  154.48    5.40
   1   7  -2  136.29    8.80
  -1   7   2  142.39    5.40
  -1   7   2  145.89    9.00
   1   7  -2  154.38    8.80
   1   7  -2  135.99    5.30
   1   7  -2  140.49    8.80
  -1   7   2  145.69    5.70
  -1   7   2  144.49    5.00
   1   7  -2  142.39    5.20
   1   7  -2  141.89    8.30
  -1   7   2  140.59    8.10
   0  -7  -2    0.00    1.00
   0  -7   2    1.50    2.60
   0  -7  -2    2.20    3.10
   0  -7  -2   -3.10    2.30
   0  -7   2    0.60    1.00
   0  -7   2    0.70    0.80
   0  -7   2   -1.90    2.80
   0  -7   2   -6.00    3.10
   0  -7   2    0.90    0.90
   0   7  -2   -2.90    2.50
   0   7  -2   -0.90    0.80
   0   7  -2   -0.70    0.80
   0   7   2   -3.80    2.60
   0   7   2    1.60    3.10
   0   7   2    1.60    0.90
   0   7  -2    2.10    3.00
   0   7   2   -0.60    1.10
   0   7  -2    2.60    2.90
   0   7   2    1.80    3.00
   0   7   2    1.90    1.20
   0   7   2    1.20    0.90
   0   7  -2   -0.50    2.70
   0   7   2   -2.40    3.30
   0   7  -2    0.70    0.80
   0   7  -2   -0.10    0.90
   1  -7   2  111.49    7.50
  -1  -7  -2  109.19    4.80
   1  -7   2  110.79    8.10
   1  -7   2  118.49    4.40
  -1  -7  -2  107.49    7.80
   1  -7   2  111.89    4.40
   1  -7   2  112.89    4.10
   1  -7   2  105.79    8.10
   1  -7   2  103.19    6.80
   1  -7   2  117.19    7.70
   1  -7   2  111.59    4.40
   1   7   2  101.69    7.70
   1   7   2  126.69    8.70
   1   7   2  114.09    4.60
  -1   7  -2  115.89    4.10
   1   7   2  110.19    7.50
  -1   7  -2  108.69    4.30
   1   7   2  120.79    8.40
  -1   7  -2  112.69    3.90
  -1   7  -2  118.89    7.00
  -1   7  -2  119.69    6.40
  -1   7  -2  108.89    4.20
   1   7   2  109.79    5.10
   1   7   2  109.19    4.40
   1   7   2  112.89    5.00
  -1   7  -2  112.99    6.40
  -1   7  -2  103.29    7.20
   2  -7   2 1055.99   30.40
   2  -7   2 1027.20   27.50
   2  -7   2 1054.39   27.40
   2  -7   2 1026.50   27.60
   2  -7   2 1016.10   30.50
   2  -7   2 1018.50   30.20
   2  -7   2 1052.69   30.20
   2  -7   2 1042.90   27.60
   2  -7   2 1036.20   28.00
   2  -7   2 1049.89   29.90
   2  -7   2 1063.49   31.40
  -2  -7  -2 1024.30   34.50
  -2  -7  -2 1004.50   28.10
  -2  -7  -2 1090.59   32.60
  -2  -7  -2 1061.09   28.50
  -2  -7  -2 1033.00   33.20
   2  -7   2 1027.70   27.50
   2   7   2 1057.29   28.30
   2   7   2 1012.10   32.10
   2   7   2 1050.09   33.10
   2   7   2 1044.70   28.10
   2   7   2 1053.09   28.90
   2   7   2 1104.09   28.80
   2   7   2 1013.60   31.90
   3  -7   2  206.78    8.80
   3  -7   2  202.98    6.40
   3  -7   2  208.68    6.50
   3  -7   2  199.18   10.00
   3  -7   2  211.18    6.60
  -3  -7  -2  206.58   11.90
  -3  -7  -2  182.08   12.10
  -3  -7  -2  205.58    7.40
   3  -7   2  211.18    9.50
  -3  -7  -2  215.98    7.80
   3  -7   2  225.58   11.00
   3  -7   2  209.08    6.70
   3  -7   2  206.68    6.50
  -3  -7  -2  210.98   11.50
   3  -7   2  202.68    8.60
   3  -7   2  217.18    9.60
   3  -7   2  207.28    7.10
   3   7   2  199.38   13.10
   3   7   2  199.08   12.80
   3   7   2  206.48    7.50
   3   7   2  208.08   11.40
   3   7   2  214.38    8.30
  -3   7  -2  221.68   10.30
   3   7   2  212.88   12.00
  -3   7  -2  206.48    7.10
   3   7   2  204.58    7.70
   3   7   2  203.78    7.30
  -4  -7  -2   27.60    3.10
  -4  -7  -2   28.00    5.70
   4  -7   2   27.10    3.10
   4  -7   2   24.90    5.40
   4  -7   2   23.60    4.10
  -4  -7  -2   31.00    6.10
   4  -7   2   25.00    4.30
   4  -7   2   23.60    1.60
   4  -7   2   29.10    2.30
   4  -7   2   24.30    2.10
  -4  -7  -2   29.10    3.30
   4  -7   2   23.90    2.60
   4  -7   2   35.30    3.70
   4  -7   2   24.50    1.60
  -4   7  -2   28.00    3.10
   4   7   2   26.70    2.90
   4   7   2   21.90    3.10
   4   7   2   32.20    8.50
   4   7   2   30.20    5.60
   4   7   2   28.10    3.30
  -4   7  -2   18.90    5.00
   4   7   2   28.90    7.10
   4   7   2   29.70    3.10
   4   7   2   22.00    6.30
  -5  -7  -2    4.20    1.70
   5  -7   2    7.60    2.20
  -5  -7  -2    8.60    3.00
   5  -7   2    6.30    1.30
   5  -7   2   21.50    6.00
   5  -7   2    0.50    5.40
  -5  -7  -2   -3.60    5.20
  -5  -7  -2    6.10    2.50
   5  -7   2    7.00    3.70
   5  -7   2   13.50    4.40
  -5  -7  -2    2.30    5.70
   5  -7   2    5.60    2.10
   5  -7   2    1.70    4.80
   5  -7   2    6.10    1.50
  -5  -7  -2    4.10    6.20
   5   7   2    1.60    7.50
  -5   7  -2    3.30    1.80
   5   7   2    2.70    2.00
   5   7   2    5.20    6.30
   5   7   2    8.00    2.90
  -5   7  -2    8.30    5.30
  -6  -7  -2  610.04   18.20
   6  -7   2  587.04   17.90
  -6  -7  -2  556.04   26.30
  -6  -7  -2  622.54   18.40
   6  -7   2  591.24   24.80
  -6  -7  -2  612.94   25.30
  -6  -7  -2  571.14   19.50
  -6  -7  -2  593.94   24.70
   6   7   2  608.64   19.60
   6   7   2  592.84   24.80
   6   7   2  579.74   27.80
   6   7   2  585.24   18.00
  -6   7  -2  574.64   18.40
  -6   7  -2  590.24   24.10
   6   7   2  615.74   19.00
  -7  -7  -2    4.20    3.60
   7  -7   2   -7.10   10.90
  -7  -7  -2  -11.30    9.60
  -7  -7  -2   -4.40    8.90
   7  -7   2   -2.40    3.40
  -7  -7  -2    1.20    2.80
  -7  -7  -2  -19.30    8.50
  -7  -7  -2    4.00    3.10
   7   7   2    8.70   10.70
  -7   7  -2   26.80    9.40
   7   7   2    2.90   12.40
   7   7   2   -1.20   12.60
   7   7   2   -0.10    4.20
   7   7   2    4.20    3.00
   7   7   2    2.50    3.40
  -7   7  -2    0.70    2.80
   7  -8  -2  205.08   23.00
  -7  -8   2  122.69    9.20
  -7  -8   2  158.88    8.40
  -7  -8   2  142.09   16.20
   7  -8  -2  157.08    9.10
  -7  -8   2  141.99   14.60
   7   8  -2  146.99   16.60
   7   8  -2  143.19   17.40
   7   8  -2  167.18    9.50
   7   8  -2  165.08    8.70
   6  -8  -2    7.80   10.00
   6  -8  -2   22.60    5.10
   6  -8  -2   20.20    2.20
  -6  -8   2   22.30    3.80
   6  -8  -2   23.60    3.60
  -6  -8   2   20.30    7.20
  -6  -8   2   17.90    3.10
  -6  -8   2    9.90    8.50
   6   8  -2   17.90    9.80
   6   8  -2   13.90    3.70
   6   8  -2   28.70   10.20
   6   8  -2   20.90    4.20
  -5  -8   2  288.07   17.60
  -5  -8   2  280.27   16.70
   5  -8  -2  271.07    9.00
   5  -8  -2  271.17   12.60
   5  -8  -2  269.27    8.80
  -5  -8   2  266.57   15.10
   5  -8  -2  281.27   14.60
  -5  -8   2  294.47   10.80
  -5  -8   2  282.17    9.90
  -5  -8   2  270.17   10.10
   5   8  -2  279.57   10.70
   5   8  -2  267.17   17.40
   5   8  -2  270.37   10.50
   5   8  -2  281.17   17.60
  -4  -8   2  169.98   13.20
   4  -8  -2  183.08    6.70
  -4  -8   2  191.58    7.50
  -4  -8   2  184.98    7.40
  -4  -8   2  182.48    7.90
  -4  -8   2  187.88   11.80
  -4  -8   2  189.88   13.60
   4  -8  -2  188.68    6.90
   4  -8  -2  193.48   10.60
   4   8  -2  211.98   14.50
   4   8  -2  200.28    8.00
  -4   8   2  178.58    6.80
   4   8  -2  190.98    8.10
   4   8  -2  207.98   14.30
  -4   8   2  185.98   10.80
  -3  -8   2  479.55   14.50
  -3  -8   2  448.56   17.20
  -3  -8   2  459.75   13.70
   3  -8  -2  433.26   17.10
   3  -8  -2  446.56   15.20
   3  -8  -2  450.85   13.50
  -3  -8   2  444.76   19.00
  -3  -8   2  445.86   15.00
  -3  -8   2  466.65   19.30
   3  -8  -2  405.96   18.90
  -3   8   2  469.55   13.70
   3   8  -2  477.45   19.30
  -3   8   2  463.75   14.70
   3   8  -2  462.25   14.30
  -3   8   2  462.55   12.70
  -3   8   2  452.85   12.50
  -3   8   2  493.55   17.60
   3   8  -2  464.45   19.60
   3   8  -2  450.25   19.30
   3   8  -2  457.95   14.40
  -3   8   2  482.55   15.40
   3   8  -2  459.65   14.40
   3   8  -2  458.75   19.40
   3   8  -2  448.96   17.00
   2  -8  -2  117.99    5.00
   2  -8  -2  117.59    7.90
  -2  -8   2  121.09    9.80
   2  -8  -2  106.19    5.00
  -2  -8   2  112.89    5.60
  -2  -8   2  118.39    9.60
  -2  -8   2   89.59    9.40
   2  -8  -2  100.99    8.10
  -2   8   2  118.99    7.10
  -2   8   2  111.59    4.20
  -2   8   2  111.59    4.60
   2   8  -2  127.49    9.80
   2   8  -2  114.99    5.30
   2   8  -2  105.79    5.10
   2   8  -2  104.39    9.30
  -2   8   2  109.99    7.50
   2   8  -2  115.39    4.90
   2   8  -2  116.99    8.70
  -2   8   2  114.99    8.70
  -2   8   2  112.59    5.10
   2   8  -2  123.59    9.40
  -2   8   2  115.19    8.80
  -2   8   2  115.69    4.60
  -1  -8   2  857.21   30.30
   1  -8  -2  842.82   27.80
   1  -8  -2  866.61   24.20
   1  -8  -2  857.61   23.90
  -1  -8   2  879.31   24.90
   1  -8  -2  888.41   27.80
  -1  -8   2  868.81   24.40
  -1  -8   2  870.41   24.40
  -1  -8   2  899.31   29.10
   1  -8  -2  850.11   27.20
   1   8  -2  867.41   28.40
   1   8  -2  856.11   24.50
  -1   8   2  887.01   23.60
  -1   8   2  892.11   24.10
  -1   8   2  868.21   27.40
  -1   8   2  891.21   26.80
   1   8  -2  888.81   24.10
   1   8  -2  902.41   27.40
  -1   8   2  885.61   24.00
   1   8  -2  916.71   28.30
   1   8  -2  894.21   23.90
  -1   8   2  909.31   28.70
  -1   8   2  890.01   28.00
   1   8  -2  883.71   28.50
  -1   8   2  903.01   24.50
   0  -8  -2   64.79    3.70
   0  -8   2   67.39    3.30
   0  -8  -2   56.19    6.20
   0  -8   2   79.89    7.80
   0  -8  -2   66.79    7.10
   0  -8   2   59.99    3.40
   0  -8   2   63.89    3.50
   0  -8   2   72.59    7.10
   0   8   2   68.39    3.40
   0   8   2   54.99    6.50
   0   8  -2   56.19    5.90
   0   8   2   70.39    4.10
   0   8   2   63.19   10.90
   0   8  -2   73.59    7.00
   0   8  -2   67.99    6.10
   0   8   2   69.39    6.70
   0   8   2   65.69    7.00
   0   8   2   63.39    3.20
   0   8   2   61.79    6.40
   0   8  -2   60.79    3.40
   0   8  -2   68.19    6.60
   0   8  -2   64.09    3.20
   0   8  -2   71.69    3.20
   0   8   2   70.89    3.90
   0   8  -2   63.59    3.40
   1  -8   2 1733.73   51.39
   1  -8   2 1831.72   47.70
   1  -8   2 1824.12   51.49
  -1  -8  -2 1773.82   52.69
   1  -8   2 1900.41   50.59
   1  -8   2 1814.92   47.80
   1  -8   2 1815.02   47.90
  -1  -8  -2 1819.62   48.30
   1  -8   2 1868.11   47.40
   1  -8   2 1791.22   47.70
   1  -8   2 1790.02   51.59
  -1   8  -2 1859.71   47.10
   1   8   2 1843.02   52.99
   1   8   2 1877.21   48.60
   1   8   2 1849.31   53.29
   1   8   2 1840.52   48.50
  -1   8  -2 1806.82   50.19
  -1   8  -2 1881.51   47.40
   1   8   2 1842.82   48.00
  -1   8  -2 1881.21   47.10
   1   8   2 1819.42   52.09
   1   8   2 1850.91   51.79
  -1   8  -2 1791.52   49.50
   1   8   2 1855.61   48.00
  -1   8  -2 1825.82   49.70
   2  -8   2  384.26   11.30
  -2  -8  -2  374.46   12.10
   2  -8   2  376.56   11.40
   2  -8   2  390.86   11.20
   2  -8   2  373.06   14.50
   2  -8   2  397.46   15.10
  -2  -8  -2  392.86   16.50
   2  -8   2  378.86   14.40
  -2  -8  -2  358.86   11.80
   2  -8   2  380.66   15.00
  -2  -8  -2  349.27   16.40
   2  -8   2  390.96   14.40
   2  -8   2  375.36   11.80
   2  -8   2  385.36   15.80
   2  -8   2  376.16   11.30
   2  -8   2  368.16   11.30
   2   8   2  384.86   17.30
  -2   8  -2  388.56   11.50
  -2   8  -2  401.16   11.40
   2   8   2  376.36   15.90
  -2   8  -2  393.66   10.10
   2   8   2  372.56   11.70
   2   8   2  379.66   11.90
  -2   8  -2  395.26   10.10
   2   8   2  384.56   12.50
   2   8   2  384.76   16.50
   3  -8   2   48.70    3.10
   3  -8   2   49.80    4.90
   3  -8   2   51.69    5.80
   3  -8   2   52.69    2.90
   3  -8   2   47.60    2.80
   3  -8   2   49.60    6.10
  -3  -8  -2   36.50    7.50
   3  -8   2   53.79    3.70
   3  -8   2   53.59    3.30
  -3  -8  -2   57.69    7.80
   3  -8   2   48.10    3.00
   3  -8   2   51.89    5.60
  -3  -8  -2   49.80    4.10
   3  -8   2   42.90    5.70
   3  -8   2   53.29    6.40
  -3  -8  -2   42.60    3.90
   3   8   2   59.79   10.50
   3   8   2   46.50    3.40
   3   8   2   53.99    4.40
   3   8   2   51.09    6.80
   3   8   2   40.40    7.20
   4  -8   2  308.77    8.80
   4  -8   2  311.37    9.20
   4  -8   2  310.87   10.90
   4  -8   2  299.07   14.50
   4  -8   2  326.67   13.00
  -4  -8  -2  323.47   16.50
   4  -8   2  300.17    9.70
  -4  -8  -2  314.77   10.90
   4  -8   2  301.57    8.70
   4  -8   2  312.47   10.90
   4  -8   2  309.37   13.70
   4  -8   2  308.57   10.00
   4  -8   2  300.97    9.50
   4  -8   2  301.67   14.60
   4   8   2  300.97   10.70
   4   8   2  304.37   18.40
   4   8   2  312.07   11.60
  -4   8  -2  304.87   14.20
   4   8   2  290.97   15.80
  -4   8  -2  313.47   10.30
  -5  -8  -2   73.39    5.50
  -5  -8  -2   65.39    9.30
  -5  -8  -2   72.29   10.30
  -5  -8  -2   57.99    9.00
   5  -8   2   68.69    4.70
   5  -8   2   75.69    9.60
   5  -8   2   71.59    5.10
   5  -8   2   55.99    7.40
   5  -8   2   64.29    4.40
  -5  -8  -2   60.19    5.60
   5  -8   2   70.79    3.50
   5  -8   2   67.09    8.80
   5  -8   2   87.49   11.50
   5  -8   2   67.09    6.80
   5   8   2   70.69   11.20
  -5   8  -2   74.09    8.80
   5   8   2   75.89    6.00
  -5   8  -2   75.19    4.80
  -6  -8  -2   12.40    3.60
  -6  -8  -2   15.70    3.70
   6  -8   2   12.50    3.00
  -6  -8  -2   14.10    3.00
  -6  -8  -2    5.20    8.90
  -6  -8  -2   21.60    7.50
   6  -8   2   20.00    9.40
  -6  -8  -2   22.60    8.60
  -6   8  -2    8.40    6.60
   6   8   2   15.10    2.90
   6   8   2   -3.20   10.70
   6   8   2   18.20    4.00
   6   8   2    0.80    8.90
  -6   8  -2   13.20    2.80
   6   8   2    8.60    3.20
   6  -9  -2  186.38    6.80
  -6  -9   2  192.58   19.80
   6  -9  -2  182.88   11.40
   6  -9  -2  201.58    6.90
  -6  -9   2  187.78   15.10
  -6  -9   2  199.68    9.80
   6  -9  -2  206.48   11.70
  -6  -9   2  193.68    8.90
   5  -9  -2    4.50    2.30
  -5  -9   2    0.00    1.90
  -5  -9   2    6.40    7.90
  -5  -9   2   -4.20    5.20
  -5  -9   2    2.40    2.40
  -5  -9   2    0.40    2.10
   5  -9  -2    1.30    1.70
  -5  -9   2   -4.10    7.50
   5  -9  -2  -11.10    7.00
   5  -9  -2   -4.20    4.90
  -5   9   2   -1.50    4.90
   5   9  -2    1.00    2.60
   5   9  -2   11.00    8.30
  -4  -9   2   -5.30    5.80
  -4  -9   2    2.30    1.80
  -4  -9   2  -10.30   13.00
   4  -9  -2    2.80    1.90
   4  -9  -2    3.30    1.50
  -4  -9   2    2.80    4.70
  -4  -9   2    1.30    1.90
   4  -9  -2    2.30    4.30
   4  -9  -2    0.20    6.10
   4  -9  -2    0.00    3.20
  -4   9   2   -0.60    4.50
   4   9  -2    1.60    2.20
   4   9  -2    5.20    7.20
   4   9  -2    1.60    6.50
   4   9  -2    3.10    2.20
  -4   9   2   -0.90    1.70
   3  -9  -2  919.11   25.60
   3  -9  -2  943.71   25.80
   3  -9  -2  950.50   30.00
  -3  -9   2  928.11   25.90
  -3  -9   2  927.01   29.70
  -3  -9   2  985.10   26.90
   3  -9  -2  951.50   28.00
   3  -9  -2  880.61   29.70
  -3  -9   2  977.30   32.80
  -3   9   2  929.71   30.20
   3   9  -2  960.40   32.60
   3   9  -2  897.71   26.30
  -3   9   2  916.61   25.90
   3   9  -2  948.61   26.80
  -3   9   2  920.81   25.10
  -3   9   2  972.20   28.80
  -3   9   2  945.71   24.50
  -3   9   2  942.71   26.90
   3   9  -2  941.61   26.70
   3   9  -2  914.01   32.20
   2  -9  -2  667.83   21.90
   2  -9  -2  654.83   22.80
   2  -9  -2  638.34   18.60
   2  -9  -2  654.23   22.90
  -2  -9   2  657.83   20.00
   2  -9  -2  651.93   18.30
  -2  -9   2  640.44   24.40
  -2  -9   2  627.54   27.20
  -2  -9   2  654.73   19.20
  -2   9   2  631.94   18.00
   2   9  -2  651.23   24.20
  -2   9   2  656.93   23.20
   2   9  -2  662.13   18.70
   2   9  -2  585.84   21.70
  -2   9   2  643.84   22.10
   2   9  -2  629.54   23.80
  -2   9   2  649.74   18.80
   2   9  -2  611.94   19.00
   2   9  -2  696.73   23.90
  -2   9   2  666.33   20.80
   2   9  -2  646.64   19.20
   2   9  -2  644.74   23.70
  -2   9   2  648.54   18.20
  -2   9   2  648.94   17.70
  -2   9   2  644.14   21.50
   1  -9  -2  792.12   26.10
   1  -9  -2  789.52   22.50
   1  -9  -2  838.12   27.00
   1  -9  -2  749.92   26.50
  -1  -9   2  820.02   27.00
  -1  -9   2  792.22   27.40
  -1  -9   2  786.72   22.20
  -1  -9   2  802.72   22.80
   1  -9  -2  807.72   22.20
  -1  -9   2  758.92   22.50
   1   9  -2  794.62   22.70
  -1   9   2  770.72   27.10
   1   9  -2  811.72   22.10
   1   9  -2  799.82   26.80
   1   9  -2  794.42   27.20
  -1   9   2  801.32   22.70
  -1   9   2  793.42   21.70
  -1   9   2  804.92   22.30
  -1   9   2  806.52   26.00
  -1   9   2  789.82   26.80
   1   9  -2  825.72   26.10
   1   9  -2  790.52   22.30
  -1   9   2  790.92   25.30
   1   9  -2  828.82   27.40
   1   9  -2  788.12   22.30
  -1   9   2  826.82   22.30
   0  -9   2   82.49    8.50
   0  -9   2   65.19    4.10
   0  -9  -2   58.09    6.40
   0  -9   2   68.29    7.10
   0  -9   2   60.69    3.60
   0  -9   2   59.79    3.50
   0  -9  -2   60.79    3.90
   0  -9   2   64.79    7.60
   0  -9   2   64.09    3.70
   0   9   2   59.89    4.10
   0   9   2   66.29    3.50
   0   9  -2   57.69    6.60
   0   9   2   66.39    3.40
   0   9  -2   65.29    3.30
   0   9   2   68.19    7.60
   0   9  -2   59.29    6.50
   0   9   2   61.99    8.20
   0   9  -2   58.59    3.70
   0   9   2   54.49    3.90
   0   9  -2   73.79    7.10
   0   9   2   64.99    4.20
   0   9  -2   67.19    3.40
   0   9   2   77.59    8.70
   0   9   2   59.59    7.20
   0   9   2   65.29    6.90
   1  -9   2  372.86   15.80
  -1  -9  -2  369.56   16.50
   1  -9   2  365.96   11.10
  -1  -9  -2  371.16   11.90
   1  -9   2  378.96   15.60
   1  -9   2  375.26   16.20
   1  -9   2  358.06   14.80
  -1  -9  -2  351.16   16.10
   1  -9   2  349.87   11.50
   1  -9   2  373.46   11.40
   1  -9   2  362.76   11.30
  -1  -9  -2  340.07   11.70
   1  -9   2  344.67   11.30
   1   9   2  383.06   15.50
  -1   9  -2  367.26   10.80
  -1   9  -2  386.86   14.10
   1   9   2  347.57   11.30
   1   9   2  373.56   17.10
   1   9   2  353.86   15.80
  -1   9  -2  372.86   14.40
   1   9   2  369.66   16.90
  -1   9  -2  371.66   10.60
  -1   9  -2  377.36   13.70
   1   9   2  349.77   11.40
   1   9   2  377.46   12.20
  -1   9  -2  365.66   10.90
   1   9   2  369.46   12.10
   2  -9   2  186.08   12.60
   2  -9   2  194.88   11.60
   2  -9   2  178.08   10.60
   2  -9   2  183.38   12.70
   2  -9   2  204.18    7.70
   2  -9   2  198.18    7.00
   2  -9   2  194.08   12.70
   2  -9   2  196.28    7.60
   2  -9   2  190.38    7.50
  -2  -9  -2  198.88    7.70
  -2  -9  -2  201.58   12.70
   2  -9   2  196.48    6.90
   2  -9   2  210.88   10.70
   2  -9   2  187.18    7.00
  -2   9  -2  196.78    5.80
  -2   9  -2  201.38    6.20
  -2   9  -2  198.58    8.10
   2   9   2  189.18   13.00
   2   9   2  195.58    7.30
  -2   9  -2  187.68    8.80
   2   9   2  190.88    7.90
   2   9   2  187.38   12.00
   3  -9   2  694.23   19.50
   3  -9   2  767.12   24.10
   3  -9   2  700.53   19.30
   3  -9   2  699.03   19.40
  -3  -9  -2  707.93   26.60
  -3  -9  -2  673.83   20.70
   3  -9   2  723.23   22.80
   3  -9   2  695.53   22.50
   3  -9   2  721.63   19.40
   3  -9   2  714.93   19.50
   3  -9   2  692.43   23.70
   3  -9   2  723.43   20.10
   3  -9   2  722.33   23.90
   3  -9   2  728.53   24.80
   3   9   2  603.24   34.90
   3   9   2  658.93   22.00
   3   9   2  633.94   24.60
   4  -9   2  155.28    8.40
   4  -9   2  166.38    6.10
   4  -9   2  156.38    6.20
   4  -9   2  167.78   11.00
   4  -9   2  133.09   11.20
   4  -9   2  178.88   13.10
   4  -9   2  165.08    6.90
   4  -9   2  164.88    5.60
   4  -9   2  164.78    6.60
   4  -9   2  169.58    8.60
   4  -9   2  189.88   12.90
  -4  -9  -2  170.48   14.40
  -4  -9  -2  158.58    7.60
   4  -9   2  158.78    5.50
   4   9   2  130.99   14.90
   4   9   2  159.88    8.00
  -5  -9  -2   23.20    9.00
   5  -9   2   27.60    6.40
   5  -9   2   19.00    6.50
   5  -9   2   27.70    3.20
  -5  -9  -2   27.20    3.90
   5  -9   2   27.30    2.90
  -5  -9  -2   23.50    7.30
   5  -9   2   18.30    7.40
   5   9   2   24.30   10.60
   5   9   2   28.40    4.10
   5   9   2   11.80    8.30
  -6  -9  -2   36.90    4.50
  -6  -9  -2   31.50    4.30
  -6  -9  -2   30.70   10.90
  -6  -9  -2   28.20    9.20
   6   9   2   37.30    5.80
   6   9   2   43.90   12.80
   6   9   2   31.30    4.00
  -6   9  -2   29.50    5.90
   6   9   2   19.50   11.10
   6   9   2   37.00    5.40
   6 -10  -2    4.20    5.90
  -6 -10   2    0.70    7.70
   6 -10  -2    1.90    2.10
   6 -10  -2    3.40    2.10
  -6 -10   2    2.20    4.00
  -6 -10   2    2.20    2.70
   6 -10  -2   -5.70    5.70
  -6 -10   2   -5.00   10.60
   6  10  -2  -21.70   11.20
   6  10  -2    8.20    3.80
   5 -10  -2   61.49    7.50
   5 -10  -2   66.59    4.40
  -5 -10   2   80.79   20.70
   5 -10  -2   66.69    4.50
   5 -10  -2   78.99    8.40
  -5 -10   2   64.89   10.00
  -5 -10   2   66.49    5.00
  -5 -10   2   53.49    7.20
   5  10  -2   72.49   12.50
   5  10  -2   84.19    6.60
   4 -10  -2 1007.60   31.90
  -4 -10   2  965.30   35.10
  -4 -10   2 1054.39   36.70
  -4 -10   2  989.10   33.00
   4 -10  -2 1020.20   29.10
   4 -10  -2  981.30   40.60
   4 -10  -2  990.60   28.90
  -4 -10   2  994.20   28.90
  -4 -10   2  982.10   28.10
   4 -10  -2  987.60   27.40
  -4  10   2  996.00   27.60
  -4  10   2 1032.80   32.70
   4  10  -2  987.80   36.10
   4  10  -2  985.30   29.00
   3 -10  -2  178.38   11.20
  -3 -10   2  178.98   14.50
   3 -10  -2  160.08   13.80
  -3 -10   2  165.88    7.60
   3 -10  -2  163.88    7.00
  -3 -10   2  160.98   14.00
   3 -10  -2  160.38    6.80
   3 -10  -2  175.98   11.80
  -3  10   2  171.78    8.70
  -3  10   2  169.08    7.10
   3  10  -2  167.98    7.70
  -3  10   2  154.48   12.20
  -3  10   2  165.68   10.90
   3  10  -2  167.08   13.90
  -3  10   2  168.98    5.50
  -3  10   2  160.28    6.10
  -2 -10   2  413.76   13.70
  -2 -10   2  414.46   13.80
   2 -10  -2  408.46   17.10
   2 -10  -2  450.25   15.60
   2 -10  -2  402.46   17.90
   2 -10  -2  411.66   13.20
   2 -10  -2  453.65   27.40
  -2 -10   2  441.36   20.10
  -2  10   2  414.16   13.40
  -2  10   2  375.76   17.90
  -2  10   2  405.56   12.10
  -2  10   2  415.36   12.80
   2  10  -2  428.86   19.20
   2  10  -2  422.36   13.90
   2  10  -2  416.36   13.10
  -2  10   2  430.16   17.90
  -2  10   2  419.66   12.70
  -2  10   2  423.86   17.00
  -2  10   2  432.66   15.80
   1 -10  -2  273.27   16.10
  -1 -10   2  332.87   11.00
   1 -10  -2  312.27   15.70
   1 -10  -2  351.46   16.00
  -1 -10   2  335.37   16.80
   1 -10  -2  345.97   11.30
  -1 -10   2  354.86   17.40
  -1 -10   2  328.47   16.90
  -1 -10   2  339.17   11.60
  -1  10   2  324.47   15.50
   1  10  -2  352.36   15.90
   1  10  -2  352.16   10.90
  -1  10   2  342.67   10.40
   1  10  -2  342.77   10.70
  -1  10   2  330.07   16.70
  -1  10   2  342.87   11.50
   1  10  -2  328.17   15.30
   1  10  -2  342.07   20.30
  -1  10   2  338.17   14.50
  -1  10   2  334.67   10.90
   1  10  -2  334.67   12.20
   1  10  -2  324.87   11.40
  -1  10   2  337.97   11.00
   1  10  -2  342.37   16.40
  -1  10   2  315.67   16.80
   0 -10   2  237.98    8.40
   0 -10   2  228.28    8.60
   0 -10   2  238.98   13.60
   0 -10  -2  234.18    8.70
   0 -10  -2  210.98   13.60
   0 -10  -2  238.98   13.50
   0 -10   2  220.88    8.10
   0 -10   2  210.98    8.60
   0 -10   2  233.88   13.80
   0  10  -2  224.78    7.80
   0  10  -2  226.28   13.20
   0  10   2  224.78    7.80
   0  10   2  231.98    8.20
   0  10  -2  235.78    8.20
   0  10   2  239.48    9.10
   0  10   2  235.88    8.70
   0  10  -2  221.38    7.80
   0  10   2  195.68   10.60
   0  10   2  255.27   14.00
   0  10   2  232.58   12.20
   0  10   2  226.88   21.90
   0  10   2  245.78   13.20
   0  10   2  228.98   14.50
   0  10  -2  220.08   12.10
   0  10  -2  240.18   12.00
  -1 -10  -2   72.29    4.50
   1 -10   2   69.99    4.50
   1 -10   2   63.79    7.70
  -1 -10  -2   69.49    4.40
   1 -10   2   57.29    8.00
   1 -10   2   69.49    4.10
   1 -10   2   90.49    9.30
   1 -10   2   66.19    7.60
   1 -10   2   71.09    4.30
   1 -10   2   75.29    4.60
  -1 -10  -2   66.19    8.30
   1 -10   2   78.49    4.70
   1 -10   2   75.49    8.20
  -1  10  -2   80.59    8.60
  -1  10  -2   78.09    7.40
  -1  10  -2   69.29    3.70
   1  10   2   68.59    4.10
  -1  10  -2   74.19    3.90
  -1  10  -2   72.69    3.60
   1  10   2   63.89    4.70
  -1  10  -2   79.49    7.60
   1  10   2   71.09    8.70
   2 -10   2    5.80    6.40
   2 -10   2    2.70    4.90
   2 -10   2    1.90    1.80
   2 -10   2    0.90    1.80
   2 -10   2   -0.40    5.80
  -2 -10  -2    1.50    5.10
   2 -10   2    3.50    1.60
   2 -10   2    4.30    1.60
   2 -10   2    2.90    4.20
  -2 -10  -2    2.70    1.60
  -2 -10  -2    6.80    5.20
   2 -10   2    2.60    2.40
   2 -10   2    8.90    5.60
   2 -10   2    3.30    1.50
   2  10   2    4.80    2.40
  -2  10  -2    3.60    1.00
   2  10   2    5.30    2.60
  -2  10  -2    4.70    1.30
  -2  10  -2    0.40    3.60
   2  10   2    7.50    6.90
  -2  10  -2   -2.30    2.90
   3 -10   2    5.60    4.30
   3 -10   2    7.60    2.30
   3 -10   2    7.80    1.60
   3 -10   2   10.80    2.60
   3 -10   2    6.60    1.70
   3 -10   2   15.90    6.50
   3 -10   2   11.20    2.20
   3 -10   2    9.30    7.10
  -3 -10  -2   10.60    6.60
   3 -10   2    5.50    5.90
   3 -10   2    3.40    6.60
   3 -10   2   13.20    4.50
  -3 -10  -2    9.10    2.30
   3 -10   2    6.50    1.90
   3  10   2    9.90    2.60
   3  10   2   20.70    7.80
   4 -10   2  491.95   20.40
   4 -10   2  491.85   17.70
   4 -10   2  516.85   15.80
   4 -10   2  493.25   15.70
   4 -10   2  506.45   15.00
  -4 -10  -2  525.85   24.20
  -4 -10  -2  539.05   17.00
   4 -10   2  494.35   22.00
   4 -10   2  518.15   22.90
   4 -10   2  507.05   14.50
   4  10   2  543.45   25.50
   4  10   2  523.45   17.30
   5 -10   2   84.39    9.40
  -5 -10  -2   82.89    6.80
   5 -10   2   74.79    8.60
   5 -10   2   77.79    5.80
  -5 -10  -2   74.19   11.60
  -5 -10  -2   72.39    6.30
   5 -10   2   74.69    4.70
  -5 -10  -2   84.29   12.00
   5 -10   2   61.29    5.60
   5  10   2  100.19   14.20
   5  10   2   63.69    6.60
  -6 -10  -2    0.30    8.00
  -6 -10  -2   10.30    4.30
   6 -10   2    4.90    3.30
  -6 -10  -2    9.40    3.40
  -6 -10  -2   18.00   12.90
   6 -10   2   24.70   10.70
   6  10   2    3.00   13.50
   6  10   2    7.70    4.40
   6  10   2   14.50    3.50
   5 -11  -2   90.79    9.70
  -5 -11   2   81.89    5.70
   5 -11  -2   75.19    8.70
  -5 -11   2   83.69    7.50
  -5 -11   2   94.19   13.70
   5 -11  -2   81.59    5.30
  -5 -11   2  106.39   11.10
   5 -11  -2   88.09    5.20
   5  11  -2   97.19    7.40
   5  11  -2   92.79   13.50
   4 -11  -2  462.15   13.90
   4 -11  -2  429.36   19.20
  -4 -11   2  446.96   19.70
  -4 -11   2  417.56   15.10
  -4 -11   2  469.75   29.10
   4 -11  -2  434.86   13.70
  -4 -11   2  430.76   14.20
  -4 -11   2  428.36   23.80
   4 -11  -2  431.96   18.80
   4  11  -2  380.06   22.30
   4  11  -2  444.76   15.20
   3 -11  -2  361.66   16.30
   3 -11  -2  362.76   17.20
  -3 -11   2  339.47   20.00
  -3 -11   2  351.36   12.60
   3 -11  -2  362.66   11.70
  -3 -11   2  350.06   20.00
  -3  11   2  338.67   11.10
   3  11  -2  345.87   20.40
  -3  11   2  356.66   17.00
  -3  11   2  342.27   10.10
   3  11  -2  339.77   13.00
  -3  11   2  350.76   13.80
  -2 -11   2   71.19    9.90
   2 -11  -2   69.29    8.70
  -2 -11   2   59.89    4.50
   2 -11  -2   63.49    4.60
  -2 -11   2   62.39    5.10
   2 -11  -2   69.39    8.30
  -2  11   2   68.69    3.60
  -2  11   2   65.59    6.70
  -2  11   2   57.69    4.40
   2  11  -2   47.10    8.20
  -2  11   2   57.69    8.60
  -2  11   2   75.19    7.70
   2  11  -2   53.49    4.80
  -2  11   2   53.49    8.90
  -2  11   2   56.29    4.90
  -2  11   2   63.09    4.80
   2  11  -2   56.09    4.80
   1 -11  -2  843.52   23.90
  -1 -11   2  864.01   30.80
   1 -11  -2  840.42   29.00
  -1 -11   2  834.22   24.20
   1 -11  -2  849.52   29.40
  -1  11   2  861.61   27.50
  -1  11   2  782.12   23.60
   1  11  -2  859.71   29.10
   1  11  -2  719.93   25.50
   1  11  -2  833.82   28.60
   1  11  -2  850.41   23.30
  -1  11   2  777.32   29.50
  -1  11   2  822.22   22.80
   1  11  -2  790.52   33.40
  -1  11   2  836.22   23.60
  -1  11   2  849.02   28.80
   0 -11  -2   60.69    8.00
   0 -11   2   44.70    4.90
   0 -11  -2   61.09    4.50
   0 -11   2   50.99   10.40
   0 -11   2   50.69    4.50
   0 -11   2   59.69    8.50
   0  11  -2   62.39    3.70
   0  11  -2   66.19    8.00
   0  11   2   57.29    8.50
   0  11   2   64.39    4.60
   0  11   2   55.99    7.30
   0  11  -2   58.09    3.70
   0  11   2   52.19    5.70
   0  11  -2   54.29    7.40
   1 -11   2   44.60    8.20
   1 -11   2   33.00    4.00
  -1 -11  -2   37.70    4.00
   1 -11   2   35.40    4.20
   1 -11   2   41.80    4.00
   1 -11   2   38.00    9.20
   1 -11   2   40.30    3.70
   1 -11   2   40.70    7.50
   1 -11   2   35.70    6.80
  -1 -11  -2   35.30    7.30
  -1 -11  -2   36.40    3.90
   1  11   2   39.60    9.50
  -1  11  -2   36.80    3.00
  -1  11  -2   31.10    3.50
   1  11   2   36.70    4.20
  -1  11  -2   40.00    6.00
  -1  11  -2   36.20    6.50
   2 -11   2   43.40    8.00
  -2 -11  -2   55.89    8.60
   2 -11   2   50.49    9.20
   2 -11   2   52.79    3.60
  -2 -11  -2   39.40    8.60
   2 -11   2   53.89    8.10
   2 -11   2   55.49    4.10
   2 -11   2   59.09    4.20
   2 -11   2   45.60    8.10
  -2 -11  -2   45.80    4.60
   2 -11   2   53.19    5.10
   2 -11   2   57.79    4.40
  -2  11  -2   45.60    5.00
  -2  11  -2   70.99    7.80
   2  11   2   51.39    9.00
   2  11   2   51.19    4.90
  -2  11  -2   53.79    2.80
  -2  11  -2   55.59    3.30
   3 -11   2  405.46   17.30
   3 -11   2  408.06   12.70
   3 -11   2  400.16   12.40
   3 -11   2  400.46   13.30
  -3 -11  -2  385.76   24.80
   3 -11   2  402.46   12.50
   3 -11   2  384.36   18.80
   3 -11   2  366.76   19.70
   3 -11   2  386.66   20.50
  -3 -11  -2  390.56   15.40
   3 -11   2  400.46   17.00
   3 -11   2  386.16   12.80
   3  11   2  421.16   21.90
   3  11   2  404.06   14.30
   4 -11   2  165.68    6.50
   4 -11   2  171.68    6.50
   4 -11   2  179.48   11.10
   4 -11   2  160.58   11.20
   4 -11   2  178.48    7.10
   4 -11   2  173.98   14.20
   4  11   2  159.98    8.70
   4  11   2  195.48   18.60
  -5 -11  -2    2.30    7.50
  -5 -11  -2    0.40    2.80
   5 -11   2    6.30    4.60
   5 -11   2   -1.00    1.50
  -5 -11  -2    6.10   11.30
   5 -11   2   -0.60    1.60
   5 -11   2    1.00    4.60
   5 -11   2   -0.60    2.70
  -5 -11  -2    2.90    4.00
   5  11   2    5.00    3.70
   5  11   2  -17.20   11.30
  -5 -12   2  220.78   20.40
  -5 -12   2  199.98   17.00
  -5 -12   2  196.58   10.90
   5 -12  -2  198.88    8.30
  -5 -12   2  180.68    9.20
   5 -12  -2  177.28   11.40
   5 -12  -2  213.28   16.30
   5  12  -2  197.08   10.40
   5  12  -2  220.98   23.00
  -4 -12   2   39.80   10.90
   4 -12  -2   45.80    8.50
   4 -12  -2   49.30    8.50
   4 -12  -2   49.10    4.40
  -4 -12   2   33.70    4.10
   4 -12  -2   46.10    4.70
  -4 -12   2   48.00    5.50
  -4 -12   2   50.09    8.50
  -4 -12   2   41.60    4.60
  -4 -12   2   50.09   12.00
   4  12  -2   46.70    5.00
   4  12  -2   26.90   11.10
  -3 -12   2  505.05   26.20
  -3 -12   2  430.86   24.00
   3 -12  -2  446.46   21.10
   3 -12  -2  442.96   14.50
   3 -12  -2  479.85   17.60
  -3 -12   2  441.56   15.40
  -3  12   2  453.15   16.70
   3  12  -2  424.86   15.70
  -3  12   2  443.16   12.70
   3  12  -2  436.66   14.60
   3  12  -2  446.96   25.10
   2 -12  -2   13.30    7.00
   2 -12  -2    5.10    2.20
  -2 -12   2    1.40    2.70
   2 -12  -2   -0.60    7.30
  -2 -12   2   11.40    8.10
  -2  12   2    3.70    6.60
   2  12  -2    1.40    1.90
  -2  12   2    2.70    1.70
  -2  12   2    3.40    2.60
  -2  12   2    8.30    8.80
  -2  12   2    9.10    5.00
  -2  12   2    7.10    2.40
   2  12  -2   -0.10    2.30
   2  12  -2   -1.80    7.80
   1 -12  -2 1120.19   37.10
  -1 -12   2 1082.79   38.20
  -1 -12   2 1080.79   31.10
   1 -12  -2 1107.29   30.80
   1  12  -2 1080.59   30.90
  -1  12   2 1114.89   29.60
   1  12  -2 1097.09   30.90
  -1  12   2 1122.09   36.30
   1  12  -2 1101.19   37.50
  -1  12   2 1089.59   30.50
   1  12  -2 1078.79   36.20
  -1  12   2 1173.18   40.30
   1  12  -2  910.51   32.60
   0 -12  -2  219.08   15.60
   0 -12  -2  233.68    9.40
   0 -12   2  273.07   16.80
   0 -12   2  234.28    9.50
   0  12   2  221.38   14.00
   0  12  -2  241.58    8.40
   0  12   2  231.78    8.70
   0  12  -2  232.38   17.50
   0  12  -2  241.18    8.60
   0  12  -2  241.98   14.30
   0  12   2  182.88   22.60
   1 -12   2  779.42   29.00
   1 -12   2  738.43   29.00
  -1 -12  -2  792.32   30.20
   1 -12   2  773.72   22.70
  -1 -12  -2  780.22   23.00
  -1 -12  -2  753.32   22.90
  -1  12  -2  753.72   25.60
   1  12   2  751.42   30.10
   1  12   2  782.62   23.30
  -1  12  -2  743.83   21.40
  -1  12  -2  763.22   21.20
  -1  12  -2  789.72   26.70
   2 -12   2  384.86   18.80
   2 -12   2  385.96   12.50
  -2 -12  -2  375.16   20.70
  -2 -12  -2  381.26   13.40
  -2 -12  -2  360.06   21.10
   2 -12   2  352.16   12.40
   2 -12   2  377.66   19.50
  -2  12  -2  378.56   15.20
  -2  12  -2  377.86   11.00
  -2  12  -2  368.76   14.00
  -2  12  -2  375.66   10.70
   2  12   2  387.26   21.70
   2  12   2  359.16   13.60
   3 -12   2   12.90    6.30
   3 -12   2   13.10    2.50
   3 -12   2    8.30    2.50
   3 -12   2   14.10    6.20
  -3 -12  -2   23.30    9.10
  -3 -12  -2   12.20    3.00
   3 -12   2   11.00    2.20
   3 -12   2   14.60    8.40
   3  12   2   12.90    3.40
   3  12   2   16.90    9.60
  -4 -12  -2   34.50    5.00
   4 -12   2   41.30   10.10
  -4 -12  -2   41.50   11.70
   4 -12   2   35.90    4.00
   4 -12   2   41.10    7.50
   4 -12   2   36.20    3.90
   4 -12   2   29.60    3.50
   4 -12   2   42.10    7.00
   4  12   2   47.30   12.50
  -5 -12  -2    2.90    3.20
   5 -12   2   14.40    6.00
   5 -12   2    6.10    2.00
   5 -12   2    5.20    5.80
  -5 -12  -2    2.00    4.00
   5 -12   2   -2.70    2.00
  -5 -12  -2   14.60   12.80
  -5 -12  -2   -9.00    7.80
   5  12   2   17.80   12.80
   5  12   2    2.20    5.70
  -4 -13   2   57.69   13.20
   4 -13  -2   75.79    5.80
   4 -13  -2   83.39    6.10
   4 -13  -2   99.19   11.70
   4 -13  -2   69.39   16.90
  -4 -13   2   86.09    6.00
  -4 -13   2   95.29   11.80
   4  13  -2   79.09   14.20
   4  13  -2   84.39    8.40
   4  13  -2   70.09    7.10
  -3 -13   2  158.08   16.50
   3 -13  -2  129.59    7.30
  -3 -13   2  153.98   15.80
  -3 -13   2  143.99    8.40
  -3 -13   2  139.59    8.00
   3 -13  -2  141.89   15.70
   3  13  -2  134.49    7.80
   3  13  -2  124.99    7.00
   3  13  -2  159.68   17.60
   2 -13  -2  853.91   25.20
   2 -13  -2  881.91   32.50
  -2 -13   2  887.81   35.40
  -2 -13   2  869.41   26.20
   2  13  -2  828.52   27.20
   2  13  -2  844.42   24.80
  -2  13   2  848.52   24.70
  -2  13   2  851.21   30.70
   2  13  -2  808.12   37.10
  -2  13   2  871.51   23.60
   2  13  -2  833.62   31.90
  -2  13   2  890.41   28.90
   1 -13  -2  156.28   15.10
  -1 -13   2  130.09    7.80
  -1 -13   2  139.09   13.40
   1 -13  -2  141.99    7.40
  -1  13   2  130.19    7.70
  -1  13   2  133.59   15.00
   1  13  -2  156.78    6.80
   1  13  -2  142.49    9.10
   1  13  -2  145.29   14.10
  -1  13   2  143.29   12.80
   1  13  -2  158.38   14.00
  -1  13   2  136.19    6.20
   0 -13  -2    7.40    2.60
   0 -13   2    6.20    3.20
   0 -13   2   11.20    8.10
   0 -13  -2    9.40    7.70
   0  13   2    9.40    8.30
   0  13  -2   16.00    7.10
   0  13  -2    5.00    2.70
   0  13  -2    6.90    8.50
   0  13   2    9.70    3.00
   0  13   2    7.10    7.10
   0  13  -2   11.40    2.30
   1 -13   2   -0.70    2.40
   1 -13   2   -5.40    7.50
  -1 -13  -2    2.20    3.10
  -1 -13  -2   -3.00    8.50
   1 -13   2    0.40    9.50
   1  13   2    5.40    3.00
  -1  13  -2   -1.00    8.90
  -1  13  -2    1.90    1.80
  -1  13  -2    7.00    6.10
   1  13   2   -9.30    8.30
  -1  13  -2   -4.70    2.80
   2 -13   2  122.39   12.30
  -2 -13  -2  128.99   14.00
   2 -13   2  106.29    6.20
   2 -13   2  111.19    7.50
   2 -13   2  101.99    6.30
   2 -13   2   97.89   11.80
  -2 -13  -2   91.09    6.90
  -2 -13  -2   96.89    6.60
   2  13   2   89.39    7.40
  -2  13  -2   93.99    9.40
   2  13   2  103.89   13.90
  -2  13  -2  106.19    4.40
   3 -13   2   -3.20    7.30
  -3 -13  -2   -2.90    3.10
   3 -13   2   19.10    9.60
   3 -13   2    1.50    2.60
   3 -13   2   -1.00    7.00
  -3 -13  -2    0.50    9.70
   3 -13   2    3.80    2.20
   3 -13   2    1.80    2.60
   3  13   2    4.90   10.40
   3  13   2    0.70    3.10
   4 -13   2    5.30    2.70
   4 -13   2   18.10    7.70
  -4 -13  -2    0.80   12.80
   4 -13   2   14.80   10.40
  -4 -13  -2   -2.20    3.60
   4 -13   2    4.80    2.60
   4 -13   2   -3.20    2.80
   4 -13   2    5.70    7.50
  -3 -14   2  322.57   13.80
  -3 -14   2  301.97   12.70
   3 -14  -2  301.97   21.40
  -3 -14   2  294.57   25.30
  -3 -14   2  316.07   26.30
   3 -14  -2  304.07   12.00
   3  14  -2  298.47   23.30
   3  14  -2  298.07   11.80
   3  14  -2  251.27   21.30
   2 -14  -2  120.59    7.60
  -2 -14   2  115.59    8.60
  -2 -14   2  122.79   15.50
   2 -14  -2  129.69   14.30
  -2  14   2  127.19    5.90
   2  14  -2  122.29   14.20
   2  14  -2  110.29    6.80
   2  14  -2  125.09   14.50
   2  14  -2  118.19    7.00
  -2  14   2  119.09   13.40
   2  14  -2  115.29   13.00
  -2  14   2  114.29    7.30
   2  14  -2  119.69    7.40
  -2  14   2  106.99   12.90
   1 -14  -2   64.79   11.10
  -1 -14   2   68.09    7.00
   1 -14  -2   65.09    6.30
  -1 -14   2   76.59   13.20
   1  14  -2   60.69   11.00
  -1  14   2   75.19    6.50
  -1  14   2   60.69    9.60
   1  14  -2   60.79    5.00
  -1  14   2  105.29   12.20
  -1  14   2   69.99    5.00
   1  14  -2   72.09    5.40
   1  14  -2   66.89   10.70
   0 -14   2   21.10   15.80
   0 -14   2   25.90   10.90
   0 -14  -2   26.20    3.90
   0 -14  -2   28.70    9.70
   0 -14   2   31.30    4.30
   0  14  -2   30.40    9.20
   0  14   2   29.80    4.40
   0  14  -2   35.70    9.20
   0  14   2   39.70    4.20
   0  14  -2   27.90    3.60
   0  14  -2   40.30    4.50
   0  14   2   25.70    8.70
   0  14   2   31.80   10.50
  -1 -14  -2   65.69    6.40
  -1 -14  -2   67.29   11.70
   1 -14   2   57.89    6.40
   1 -14   2   74.59   12.00
   1 -14   2   53.59    5.90
   1 -14   2   45.40   11.70
  -1  14  -2   55.49    8.60
  -1  14  -2   62.89    4.50
   1  14   2   64.59    6.70
   1  14   2   68.09   12.10
   1  14   2   53.19    5.00
   1  14   2   71.49   13.50
  -2 -14  -2  140.09   16.20
   2 -14   2  122.59    7.40
   2 -14   2  117.79   13.20
   2 -14   2  112.79   14.00
  -2 -14  -2  126.89    8.00
   2 -14   2  119.09    7.30
  -2 -14  -2  131.99    8.40
  -2 -14  -2  110.99   14.10
   2  14   2  119.69    8.30
   2  14   2  127.19   16.60
  -3 -14  -2   14.70    4.30
   3 -14   2   28.40    9.80
   3 -14   2   19.10    3.60
   3 -14   2   13.80    3.50
  -3 -14  -2   27.20   13.20
   3 -14   2   22.10    9.70
   3 -14   2    4.60   10.70
   3 -14   2   19.20    3.40
   3  14   2    1.50   15.40
   2 -15  -2   73.19   14.20
  -2 -15   2  105.09    9.40
  -2 -15   2   86.89   17.10
   2 -15  -2  100.39    8.10
  -2  15   2  111.09    6.20
   2  15  -2  118.49    8.70
  -2  15   2  122.29    7.90
   2  15  -2   97.29   14.20
   2  15  -2  118.09    7.10
   2  15  -2  126.39   14.90
  -2  15   2  121.59   14.40
  -2  15   2  114.59   11.90
  -1 -15   2  443.76   16.70
  -1 -15   2  391.56   28.10
   1 -15  -2  452.45   26.50
   1 -15  -2  453.65   16.30
   1  15  -2  402.56   23.40
   1  15  -2  421.86   14.80
  -1  15   2  439.76   14.20
   1  15  -2  443.76   14.80
  -1  15   2  471.25   22.60
  -1  15   2  445.16   26.40
   1  15  -2  440.46   24.70
  -1  15   2  439.56   15.70
   0 -15  -2   28.30   11.70
   0 -15  -2   21.60    4.10
   0 -15   2   31.20    5.10
   0 -15   2   13.00   12.70
   0  15  -2   33.40    3.80
   0  15  -2   23.10   10.30
   0  15  -2   32.40    4.10
   0  15   2   39.90    5.20
   0  15   2   44.50   10.80
   0  15   2   21.50   12.90
   0  15   2   27.00    3.70
   0  15  -2   28.10   11.60
   1 -15   2   61.19    6.10
  -1 -15  -2   60.79    7.20
   1 -15   2   79.19   13.90
  -1 -15  -2   75.69   14.00
   1 -15   2   67.99    7.30
   1  15   2   71.39   11.30
   1  15   2   73.29    5.60
  -1  15  -2   57.79    6.20
   1  15   2   63.49   14.80
   1  15   2   55.29    6.90
  -2 -15  -2   30.80   13.10
  -2 -15  -2   10.40    3.50
   2 -15   2   11.10    3.60
   2 -15   2   13.50    4.10
  -2 -15  -2   22.40   14.10
   2 -15   2   22.20   11.60
   2 -15   2   15.50   11.80
   2 -15   2   12.00    3.50
  -2 -15  -2   20.10    4.70
   2  15   2   -5.10   21.80
   2  15   2    5.90    6.80
   8   0  -3    7.00    7.50
   8   0  -3   -0.60    2.40
  -8   0   3   -1.10    2.30
  -8   0   3   10.70    8.00
  -8   0   3   -2.20    3.00
  -8   0   3   -9.00    7.40
  -7   0   3  109.79   11.30
   7   0  -3  106.79    9.40
   7   0  -3  113.29    5.60
  -7   0   3  110.89   10.60
  -7   0   3  118.19    5.50
  -6   0   3   -1.10    1.30
   6   0  -3   -3.20    6.10
  -6   0   3    1.80    3.30
  -6   0   3   -4.00    4.00
   6   0  -3    0.10    1.30
  -6   0   3   -8.30    4.50
   6   0  -3    3.00    4.60
  -6   0   3    0.00    1.50
   6   0  -3    0.50    2.00
   5   0  -3  752.52   28.00
  -5   0   3  759.22   19.90
  -5   0   3  764.82   21.70
   5   0  -3  764.52   22.20
   5   0  -3  791.82   25.00
  -5   0   3  757.42   24.30
   5   0  -3  757.52   21.10
  -5   0   3  772.82   21.00
   5   0  -3  767.92   20.90
   5   0  -3  774.62   24.70
  -5   0   3  759.52   22.00
  -5   0   3  730.83   25.50
  -5   0   3  756.32   21.50
  -4   0   3   -1.00    0.80
   4   0  -3    0.00    1.10
   4   0  -3    0.70    1.00
   4   0  -3   -5.50    2.40
  -4   0   3    0.60    1.00
  -4   0   3    0.50    0.90
   4   0  -3    0.70    4.00
  -4   0   3   -1.00    1.00
  -4   0   3    0.50    2.70
   4   0  -3    0.10    1.00
  -4   0   3   -3.20    2.80
  -4   0   3   -1.10    2.30
  -4   0   3   -1.50    2.70
   4   0  -3    1.80    3.20
  -3   0   3 1898.21   47.70
  -3   0   3 1835.12   47.60
  -3   0   3 1826.22   47.30
  -3   0   3 1877.21   48.60
  -3   0   3 1763.92   49.60
  -3   0   3 1820.42   49.90
   3   0  -3 1856.81   50.59
   3   0  -3 1814.12   51.69
  -3   0   3 1835.62   50.39
   3   0  -3 1836.12   47.40
   3   0  -3 1894.41   50.09
   3   0  -3 1792.32   48.00
   3   0  -3 1862.51   47.70
  -3   0   3 1889.71   47.10
  -2   0   3   -1.60    2.00
   2   0  -3    0.90    2.00
  -2   0   3    0.90    0.80
   2   0  -3    0.60    0.70
  -2   0   3   -1.50    1.90
   2   0  -3   -0.20    1.00
   2   0  -3   -0.40    2.20
  -2   0   3   -0.20    2.00
  -2   0   3   -2.00    1.00
   2   0  -3    0.90    0.90
   2   0  -3    0.10    2.20
  -2   0   3    1.00    0.90
   1   0  -3 4358.86  108.89
  -1   0   3 4110.89  106.29
  -1   0   3 4273.17  108.79
  -1   0   3 4183.08  108.39
   1   0  -3 3978.50  106.49
   1   0  -3 4393.36  108.29
   0   0  -3   -0.30    1.40
   0   0   3    0.30    0.70
   0   0   3    0.40    1.50
   0   0  -3    0.30    0.70
   0   0  -3    0.20    1.20
   0   0  -3    0.10    0.40
   0   0   3    0.50    1.50
   0   0   3    0.00    0.40
   0   0   3   -0.70    1.60
   1   0   3  121.29    4.40
  -1   0  -3  125.29    4.60
  -1   0  -3  135.89    3.70
  -1   0  -3  122.19    5.80
   1   0   3  127.29    3.60
   1   0   3  123.29    5.40
  -1   0  -3  125.09    4.20
   1   0   3  122.29    4.20
   1   0   3  131.89    6.60
  -1   0  -3  131.79    3.90
  -1   0  -3  121.39    5.10
   1   0   3  119.59    5.80
   1   0   3  127.79    4.00
   2   0   3   -0.40    0.60
   2   0   3   -0.60    1.70
  -2   0  -3   -0.30    1.10
   2   0   3   -0.70    1.50
  -2   0  -3    0.20    0.80
   2   0   3    1.30    1.70
  -2   0  -3    1.80    1.80
  -2   0  -3    1.90    0.80
   2   0   3   -0.80    2.50
   2   0   3   -0.70    0.80
  -2   0  -3    1.90    2.50
   2   0   3   -0.60    0.60
  -2   0  -3   -2.50    1.10
  -2   0  -3   -1.30    1.60
  -2   0  -3    0.40    0.40
  -3   0  -3 5265.47  131.69
   3   0   3 5313.07  135.89
   3   0   3 5230.78  133.19
  -3   0  -3 5128.99  131.29
  -3   0  -3 5185.68  132.89
   3   0   3 5239.18  131.69
  -3   0  -3 5065.69  135.29
  -3   0  -3 5253.67  133.89
   3   0   3 5234.48  133.89
   3   0   3 5263.37  131.29
  -3   0  -3 5216.88  135.49
   3   0   3 5293.27  132.89
  -3   0  -3 5199.88  132.39
  -4   0  -3   -0.20    1.80
  -4   0  -3   -1.00    1.30
   4   0   3   -2.40    3.40
   4   0   3    0.10    1.00
   4   0   3    0.80    2.40
  -4   0  -3    2.70    3.70
  -4   0  -3    5.70    4.60
   4   0   3   -0.30    3.50
  -4   0  -3   -1.00    0.70
   4   0   3    1.30    0.70
  -4   0  -3   -0.30    1.40
  -4   0  -3   -4.60    3.80
  -4   0  -3   -0.50    1.90
  -4   0  -3    1.30    0.80
  -5   0  -3   21.50    2.30
  -5   0  -3   13.60    6.70
   5   0   3   17.10    3.70
  -5   0  -3   17.50    2.30
   5   0   3   17.70    5.30
  -5   0  -3   13.50    2.20
   5   0   3   16.20    2.20
  -5   0  -3   15.10    2.40
  -5   0  -3   13.20    5.10
   5   0   3   14.30    1.50
   5   0   3   10.90    5.60
  -6   0  -3   -0.50    1.80
   6   0   3   -2.30    1.20
   6   0   3   -3.30    6.60
  -6   0  -3   10.60    5.70
   6   0   3   -7.00    6.30
   6   0   3    2.40    2.10
   6   0   3   -5.40    4.60
  -7   0  -3   60.89    9.30
  -7   0  -3   75.89    6.00
   7   0   3   65.09    6.30
   7   0   3   71.69    5.80
   7   0   3   61.69   11.50
   7   0   3   72.59   11.80
  -8  -1   3   13.90    3.30
   8  -1  -3   10.40    2.60
  -8  -1   3    3.60    2.80
   8  -1  -3   -2.30    6.90
  -8  -1   3   -1.50    7.30
  -8  -1   3    2.60    7.40
   8   1  -3    2.80    7.80
   8   1  -3   11.80    2.90
  -8   1   3   -1.60    2.30
  -8   1   3   -6.50    7.00
  -8   1   3    9.50    3.60
  -8   1   3   13.70    7.80
  -7  -1   3   36.90    7.70
   7  -1  -3   50.69    3.80
  -7  -1   3   43.70    7.60
   7  -1  -3   47.20    6.70
  -7  -1   3   50.29    4.40
   7   1  -3   52.59    8.20
  -7   1   3   31.30    9.50
   7   1  -3   50.19    4.30
  -6  -1   3    2.60    1.50
   6  -1  -3    5.60    6.30
   6  -1  -3    0.70    4.60
  -6  -1   3    2.30    4.40
   6  -1  -3    1.20    1.50
  -6  -1   3    7.90    5.30
  -6  -1   3   -2.50    4.60
   6  -1  -3    1.10    2.00
  -6  -1   3   -0.30    1.70
  -6   1   3   -6.20    4.40
   6   1  -3   -0.10    1.60
   6   1  -3   -5.10    6.50
   6   1  -3    2.30    2.20
  -6   1   3   -1.50    4.20
   6   1  -3   -1.20    4.60
  -6   1   3   -1.50    1.40
   5  -1  -3   12.70    4.90
   5  -1  -3    8.30    1.80
   5  -1  -3    7.80    1.60
   5  -1  -3    5.50    5.50
  -5  -1   3    5.90    3.40
  -5  -1   3    6.90    1.20
  -5  -1   3    4.40    3.80
   5  -1  -3    5.60    1.90
  -5  -1   3    8.20    1.70
  -5  -1   3   12.60    3.80
  -5  -1   3    9.90    4.30
   5  -1  -3    4.00    3.70
  -5  -1   3    5.60    1.70
   5   1  -3    7.00    2.10
   5   1  -3    7.90    1.80
  -5   1   3    4.90    1.60
  -5   1   3   12.10    3.90
  -5   1   3   14.40    4.20
  -5   1   3    7.90    2.10
   5   1  -3    3.20    5.20
   5   1  -3    8.80    1.90
   5   1  -3    4.10    3.80
  -5   1   3    9.40    1.70
   4  -1  -3   11.60    3.30
  -4  -1   3    7.00    3.30
  -4  -1   3   14.50    3.60
  -4  -1   3   11.50    3.60
   4  -1  -3   11.90    4.30
  -4  -1   3   11.20    1.40
  -4  -1   3   11.70    3.50
  -4  -1   3   11.40    1.50
   4  -1  -3   10.90    1.60
  -4  -1   3   10.30    1.50
   4  -1  -3   10.50    1.50
   4  -1  -3   11.70    1.60
  -4  -1   3   14.20    1.90
   4  -1  -3   10.90    3.70
  -4   1   3   10.80    2.80
  -4   1   3   11.50    1.20
   4   1  -3    8.60    1.70
  -4   1   3   11.30    1.80
   4   1  -3   18.20    4.70
  -4   1   3   10.20    3.40
   4   1  -3   10.70    1.60
   4   1  -3   14.20    3.80
  -4   1   3   15.30    2.20
  -4   1   3   12.60    1.60
   4   1  -3   12.50    1.70
   4   1  -3   14.50    3.70
  -4   1   3   12.20    1.20
  -4   1   3    9.80    2.90
   3  -1  -3   12.30    1.70
  -3  -1   3   11.80    1.50
   3  -1  -3    9.20    3.60
  -3  -1   3   16.00    3.20
   3  -1  -3   11.20    3.30
   3  -1  -3    9.70    1.20
  -3  -1   3    9.70    3.00
  -3  -1   3   12.70    2.80
  -3  -1   3   10.30    1.60
  -3  -1   3   11.40    1.30
  -3  -1   3   10.50    1.30
   3  -1  -3   11.10    3.10
   3  -1  -3    9.80    1.50
  -3  -1   3    7.60    2.60
  -3   1   3   13.30    1.20
   3   1  -3   12.60    1.60
  -3   1   3    8.70    1.40
   3   1  -3    7.60    1.50
  -3   1   3   12.70    2.10
   3   1  -3   15.60    3.40
  -3   1   3    9.30    2.80
  -3   1   3   13.80    3.60
  -3   1   3   13.60    2.80
   3   1  -3   13.10    3.40
  -3   1   3   11.30    1.20
  -3   1   3   11.90    1.60
   3   1  -3    9.60    1.40
   3   1  -3    6.90    3.30
   2  -1  -3  602.64   16.60
  -2  -1   3  627.24   16.70
  -2  -1   3  624.24   16.40
  -2  -1   3  639.44   19.30
  -2  -1   3  619.34   17.70
   2  -1  -3  593.54   19.00
  -2  -1   3  627.04   16.20
  -2  -1   3  634.44   18.90
   2  -1  -3  607.04   18.40
  -2  -1   3  607.34   18.10
  -2  -1   3  613.94   16.50
   2  -1  -3  622.64   16.30
  -2   1   3  613.54   18.50
   2   1  -3  551.94   19.90
  -2   1   3  615.04   16.30
   2   1  -3  573.84   16.90
  -2   1   3  625.44   16.40
  -2   1   3  589.94   18.90
   2   1  -3  591.04   19.20
   2   1  -3  598.64   19.30
   2   1  -3  599.24   16.70
   2   1  -3  600.04   16.70
  -2   1   3  624.14   18.10
  -2   1   3  592.54   16.60
  -1  -1   3 2837.02   71.89
  -1  -1   3 2805.92   74.29
   1  -1  -3 2928.61   71.89
  -1  -1   3 2836.72   72.09
   1  -1  -3 2725.03   74.19
  -1  -1   3 2838.72   74.09
   1  -1  -3 2800.92   72.09
   1  -1  -3 2975.30   73.99
  -1   1   3 2910.21   71.89
  -1   1   3 2521.95   74.39
   1   1  -3 2809.02   71.79
   1   1  -3 2726.13   73.69
   1   1  -3 2855.41   71.89
   1   1  -3 2722.23   73.39
  -1   1   3 2763.02   74.29
   1   1  -3 3004.30   72.29
  -1   1   3 2816.22   72.09
   1   1  -3 2810.52   72.09
  -1   1   3 2898.51   73.99
   1   1  -3 2868.51   74.49
   1   1  -3 3064.19   71.39
   0  -1  -3   14.80    2.10
   0  -1   3   19.20    1.30
   0  -1  -3   19.10    1.20
   0  -1  -3   20.50    2.40
   0  -1  -3   14.00    2.40
   0  -1   3   17.20    2.30
   0  -1   3   12.10    2.20
   0  -1   3   16.50    1.50
   0  -1  -3   17.70    1.60
   0  -1  -3   18.80    1.20
   0   1   3   14.10    2.40
   0   1  -3   18.50    1.20
   0   1   3   16.90    1.30
   0   1  -3   17.00    2.20
   0   1  -3   18.60    1.60
   0   1  -3   16.90    1.00
   0   1   3   22.30    2.70
   0   1   3   19.20    2.80
   0   1  -3   15.60    2.50
   0   1  -3   20.10    1.90
   0   1   3   15.20    1.50
   1  -1   3 2540.95   64.59
  -1  -1  -3 2558.44   65.59
  -1  -1  -3 2549.15   64.29
   1  -1   3 2423.46   67.19
  -1  -1  -3 2603.54   64.49
   1  -1   3 2480.85   66.29
  -1  -1  -3 2518.25   66.69
  -1  -1  -3 2504.65   64.69
   1  -1   3 2605.54   65.99
  -1  -1  -3 2627.54   66.09
   1  -1   3 2591.54   64.39
  -1  -1  -3 2449.35   67.59
   1   1   3 2567.24   67.59
  -1   1  -3 2529.25   65.39
   1   1   3 2476.65   64.69
  -1   1  -3 2454.95   64.49
   1   1   3 2568.84   65.49
  -1   1  -3 2502.15   66.19
   1   1   3 2567.44   66.89
  -1   1  -3 2609.54   64.19
   1   1   3 2561.64   64.29
   1   1   3 2544.95   66.29
  -1   1  -3 2639.14   64.39
  -1   1  -3 2676.53   65.59
   1   1   3 2496.85   64.49
  -2  -1  -3   10.50    1.30
   2  -1   3    4.80    1.70
  -2  -1  -3   11.40    2.40
   2  -1   3    9.50    1.10
  -2  -1  -3    8.90    3.30
   2  -1   3    9.10    1.10
   2  -1   3    8.70    1.70
  -2  -1  -3   13.60    2.70
   2  -1   3    8.70    2.90
  -2  -1  -3   11.90    1.60
  -2  -1  -3   10.40    1.10
   2  -1   3    9.40    2.00
  -2  -1  -3    9.90    1.20
  -2  -1  -3   10.60    3.00
   2  -1   3    8.00    0.80
  -2  -1  -3    9.50    1.90
  -2   1  -3    8.50    1.10
   2   1   3   12.40    2.20
   2   1   3   10.00    1.30
  -2   1  -3    6.10    2.90
  -2   1  -3   10.00    1.70
  -2   1  -3   10.70    1.50
   2   1   3    8.90    2.50
   2   1   3    8.30    2.80
  -2   1  -3   10.50    2.10
   2   1   3    9.30    1.10
   2   1   3   10.10    2.10
  -2   1  -3    9.40    0.90
   2   1   3    9.20    1.10
  -3  -1  -3  104.79    4.50
  -3  -1  -3  105.79    4.20
  -3  -1  -3  110.79    7.70
   3  -1   3  106.49    3.50
   3  -1   3  108.39    5.90
  -3  -1  -3  103.59    7.10
  -3  -1  -3  107.19    5.70
  -3  -1  -3  110.49    7.30
   3  -1   3  101.09    4.80
   3  -1   3  106.29    3.30
   3  -1   3  102.59    4.70
   3  -1   3  105.19    3.70
   3  -1   3  115.29    7.70
  -3  -1  -3  107.99    3.80
  -3   1  -3  102.29    3.40
   3   1   3  102.39    5.70
   3   1   3  101.19    6.30
  -3   1  -3  111.29    6.10
  -3   1  -3  104.69    3.70
  -3   1  -3  105.29    4.80
  -3   1  -3  105.59    4.40
   3   1   3  113.09    6.10
   3   1   3  101.99    3.80
   3   1   3  108.99    7.80
   3   1   3  103.09    3.60
  -3   1  -3  104.89    7.00
   3   1   3  102.39    3.90
   4  -1   3 2369.46   59.19
  -4  -1  -3 2300.97   65.09
   4  -1   3 2455.75   60.59
  -4  -1  -3 2365.46   61.49
  -4  -1  -3 2300.27   64.49
   4  -1   3 2365.46   60.09
  -4  -1  -3 2387.86   60.39
   4  -1   3 2283.97   63.09
  -4  -1  -3 2385.16   59.59
   4  -1   3 2308.57   64.29
  -4  -1  -3 2266.07   61.09
  -4  -1  -3 2350.36   63.99
   4   1   3 2306.87   64.99
  -4   1  -3 2328.67   59.59
  -4   1  -3 2275.67   59.59
   4   1   3 2348.36   63.69
   4   1   3 2440.86   62.09
  -4   1  -3 2380.26   58.89
  -4   1  -3 2305.17   64.59
   4   1   3 2332.27   60.29
  -4   1  -3 2227.68   60.89
   4   1   3 2378.16   59.59
   5  -1   3   76.59    2.90
  -5  -1  -3   87.49    9.40
  -5  -1  -3   84.49    5.80
  -5  -1  -3   76.69    3.10
   5  -1   3   92.69    8.50
  -5  -1  -3   70.99    4.70
  -5  -1  -3   80.99    9.10
  -5  -1  -3   62.09    8.60
   5  -1   3   85.39    9.00
  -5  -1  -3   71.49    5.70
   5  -1   3   73.79    5.70
  -5  -1  -3   69.99    4.50
  -5  -1  -3   75.79    3.20
   5  -1   3   82.49    4.20
   5   1   3   89.59    9.30
   5   1   3   80.69    7.10
   5   1   3   80.29    4.30
  -5   1  -3   72.19    4.60
   5   1   3   79.39    3.40
  -5   1  -3   60.89    7.50
   5   1   3   63.89    7.90
   6  -1   3  165.78   13.30
  -6  -1  -3  166.48    7.10
   6  -1   3  163.38    6.90
  -6  -1  -3  169.88    7.10
  -6  -1  -3  163.88    7.50
  -6  -1  -3  157.88   12.90
   6  -1   3  168.28   13.50
   6  -1   3  163.08    5.40
   6  -1   3  165.48    8.90
   6   1   3  157.58   10.60
   6   1   3  171.88   14.10
   6   1   3  165.28    5.80
  -6   1  -3  158.18    7.40
   6   1   3  167.78   14.30
  -6   1  -3  158.58   12.00
   6   1   3  161.98    6.70
   6   1   3  174.48   13.10
   6   1   3  176.38    7.20
   7  -1   3  -11.60    8.60
  -7  -1  -3   -6.10    6.30
   7  -1   3    9.80    9.60
  -7  -1  -3    9.60    3.00
   7  -1   3    7.00    2.80
   7   1   3   16.00    3.90
   7   1   3    8.80    3.10
   7   1   3    5.30   10.40
  -7   1  -3    8.70    7.70
  -7   1  -3    4.00    3.20
   7   1   3    6.60   10.00
   8  -2  -3  111.19    5.40
  -8  -2   3   99.89   13.40
   8  -2  -3  110.09    7.90
  -8  -2   3  103.89    7.30
   8  -2  -3  106.99    9.30
   8   2  -3  125.49   12.60
  -8   2   3   90.39   13.90
   8   2  -3  109.99    6.70
  -8   2   3  108.69    7.40
  -7  -2   3   13.90    7.40
  -7  -2   3   16.50    2.90
  -7  -2   3   25.70    6.90
  -7  -2   3    7.20    2.20
   7  -2  -3   15.20    2.20
   7  -2  -3   15.90    5.80
  -7   2   3    6.50    6.60
   7   2  -3   15.10    2.80
   7   2  -3   11.00    7.00
   6  -2  -3  216.58   13.40
  -6  -2   3  200.98   12.60
  -6  -2   3  183.88   12.30
  -6  -2   3  210.58    7.80
   6  -2  -3  200.08    7.30
  -6  -2   3  225.28   12.40
   6  -2  -3  201.18    7.10
  -6  -2   3  188.48    8.00
   6  -2  -3  210.48   11.30
  -6   2   3  179.78   12.00
   6   2  -3  204.78    7.80
   6   2  -3  226.18   13.50
  -6   2   3  202.68    7.00
   6   2  -3  195.98    7.90
   6   2  -3  207.68   14.90
  -6   2   3  219.48   11.20
   5  -2  -3   24.80    2.60
   5  -2  -3   17.60    4.80
  -5  -2   3   20.30    2.60
  -5  -2   3   15.50    4.70
  -5  -2   3   25.40    2.80
   5  -2  -3   24.30    2.90
   5  -2  -3   19.70    4.30
  -5  -2   3   17.60    4.10
  -5  -2   3   20.90    2.40
  -5  -2   3   24.70    5.20
  -5  -2   3   18.40    2.20
  -5  -2   3   25.70    4.80
   5  -2  -3   18.10    2.10
  -5   2   3   12.00    4.40
  -5   2   3   31.10    4.40
   5   2  -3   15.70    2.30
   5   2  -3   23.40    5.50
   5   2  -3   18.10    2.40
  -5   2   3   24.00    2.60
   5   2  -3   16.80    2.20
  -5   2   3   22.90    2.70
   5   2  -3   18.50    4.80
  -4  -2   3  608.04   20.60
  -4  -2   3  674.43   21.50
   4  -2  -3  656.93   18.80
  -4  -2   3  653.33   18.00
  -4  -2   3  657.83   18.30
   4  -2  -3  649.04   18.00
  -4  -2   3  656.93   21.80
   4  -2  -3  645.64   21.00
  -4  -2   3  633.44   20.80
  -4  -2   3  665.43   17.90
   4  -2  -3  656.83   23.30
   4  -2  -3  690.13   20.90
   4  -2  -3  672.13   17.80
  -4  -2   3  664.03   18.40
   4   2  -3  678.13   19.00
   4   2  -3  668.53   18.50
  -4   2   3  572.14   21.70
  -4   2   3  643.24   18.50
  -4   2   3  648.04   21.70
   4   2  -3  683.03   23.80
   4   2  -3  670.73   18.20
   4   2  -3  654.33   21.70
  -4   2   3  621.44   18.10
   4   2  -3  659.23   22.00
  -4   2   3  659.13   17.90
  -4   2   3  628.54   20.60
  -3  -2   3   37.20    4.10
  -3  -2   3   32.40    4.20
   3  -2  -3   32.70    2.50
  -3  -2   3   39.10    2.40
   3  -2  -3   33.70    2.10
   3  -2  -3   39.10    4.10
  -3  -2   3   35.70    2.30
  -3  -2   3   34.60    4.10
   3  -2  -3   35.70    4.30
  -3  -2   3   35.70    2.40
  -3  -2   3   31.70    4.10
  -3  -2   3   34.80    2.60
  -3   2   3   35.80    4.10
  -3   2   3   34.70    1.50
  -3   2   3   32.30    2.40
   3   2  -3   39.90    2.40
  -3   2   3   39.30    2.80
  -3   2   3   34.90    2.30
   3   2  -3   34.20    2.70
  -3   2   3   33.30    4.10
  -3   2   3   44.60    2.80
   3   2  -3   39.60    2.70
   3   2  -3   38.40    5.60
   3   2  -3   39.30    4.60
  -3   2   3   36.90    2.00
  -3   2   3   35.90    4.10
   3   2  -3   37.30    4.30
   2  -2  -3  416.86   11.90
  -2  -2   3  424.16   11.80
  -2  -2   3  424.46   14.80
  -2  -2   3  397.16   14.30
   2  -2  -3  413.76   14.40
   2  -2  -3  403.26   11.90
  -2  -2   3  411.46   11.80
  -2  -2   3  437.66   12.90
  -2  -2   3  425.46   12.10
  -2  -2   3  428.16   11.40
  -2  -2   3  432.26   14.00
  -2  -2   3  408.36   11.80
   2  -2  -3  387.66   14.20
  -2  -2   3  420.06   14.30
   2   2  -3  421.06   14.80
   2   2  -3  407.26   14.50
  -2   2   3  406.86   11.80
  -2   2   3  400.06   13.60
  -2   2   3  424.46   12.50
   2   2  -3  424.66   11.70
   2   2  -3  416.96   14.10
   2   2  -3  400.36   11.90
  -2   2   3  398.56   14.20
   2   2  -3  421.56   12.10
  -2   2   3  425.16   11.50
  -1  -2   3  496.35   13.00
  -1  -2   3  500.75   12.50
   1  -2  -3  476.55   15.70
   1  -2  -3  470.65   13.40
  -1  -2   3  484.45   15.60
  -1  -2   3  481.05   14.70
  -1  -2   3  469.45   13.40
  -1  -2   3  500.25   13.10
   1  -2  -3  480.05   13.10
  -1  -2   3  496.85   13.30
  -1  -2   3  487.55   15.80
   1  -2  -3  471.55   15.00
   1   2  -3  480.45   13.10
   1   2  -3  486.45   13.20
   1   2  -3  502.35   13.30
  -1   2   3  459.15   15.60
  -1   2   3  465.85   14.90
   1   2  -3  486.35   14.90
   1   2  -3  474.25   15.80
   1   2  -3  508.95   12.60
  -1   2   3  487.95   13.10
   1   2  -3  480.55   15.30
  -1   2   3  472.75   15.10
   1   2  -3  474.85   13.50
   0  -2  -3  161.28    5.40
   0  -2   3  168.68    7.10
   0  -2  -3  175.18    5.10
   0  -2   3  164.68    5.40
   0  -2   3  174.08    5.30
   0  -2   3  162.88    7.10
   0  -2  -3  170.78    5.20
   0  -2  -3  181.08    6.90
   0  -2  -3  173.78    7.00
   0  -2  -3  164.38    7.40
   0   2  -3  177.98    5.60
   0   2   3  161.58    5.50
   0   2  -3  174.98    5.10
   0   2  -3  174.38    4.70
   0   2   3  161.58    5.20
   0   2  -3  169.08    5.40
   0   2  -3  161.98    6.50
   0   2   3  169.68    7.00
   0   2   3  163.78    7.50
   0   2   3  172.68    7.40
   0   2  -3  159.88    7.10
  -1  -2  -3    7.00    2.80
  -1  -2  -3    3.50    0.90
  -1  -2  -3    7.00    2.30
  -1  -2  -3    6.30    1.00
  -1  -2  -3    4.70    0.80
   1  -2   3    8.50    2.00
   1  -2   3    4.40    0.90
   1  -2   3    5.20    0.80
  -1  -2  -3    4.80    2.10
   1  -2   3    5.80    1.90
  -1  -2  -3    5.70    2.10
  -1   2  -3    5.00    0.90
  -1   2  -3    4.70    0.70
  -1   2  -3    7.20    1.80
   1   2   3    5.00    0.90
   1   2   3    8.30    2.70
   1   2   3    5.30    2.10
  -1   2  -3    6.00    1.40
   1   2   3    4.80    0.90
   1   2   3    6.10    1.70
  -1   2  -3    1.40    1.60
  -1   2  -3    6.00    0.90
   1   2   3    4.50    2.20
   1   2   3    6.50    1.20
  -2  -2  -3 1629.54   42.00
   2  -2   3 1617.94   43.10
  -2  -2  -3 1641.84   44.40
   2  -2   3 1630.14   42.60
   2  -2   3 1645.34   41.60
   2  -2   3 1561.64   44.90
   2  -2   3 1633.54   41.10
  -2  -2  -3 1676.43   41.70
  -2  -2  -3 1675.43   42.00
  -2  -2  -3 1639.34   44.30
   2  -2   3 1662.53   41.40
  -2  -2  -3 1590.34   43.40
   2  -2   3 1589.84   42.00
   2   2   3 1593.94   43.90
   2   2   3 1661.33   45.90
   2   2   3 1643.54   44.10
  -2   2  -3 1644.24   43.00
  -2   2  -3 1652.63   41.90
   2   2   3 1648.64   41.80
  -2   2  -3 1633.34   43.80
   2   2   3 1608.24   44.50
  -2   2  -3 1610.44   41.50
   2   2   3 1601.24   41.80
   2   2   3 1599.44   42.10
   3  -2   3  489.65   12.70
  -3  -2  -3  481.65   17.40
   3  -2   3  480.75   13.80
  -3  -2  -3  480.95   14.20
  -3  -2  -3  461.15   17.20
  -3  -2  -3  490.25   13.70
  -3  -2  -3  491.05   13.40
  -3  -2  -3  478.25   15.70
   3  -2   3  475.95   13.00
  -3  -2  -3  490.45   16.70
   3  -2   3  473.35   16.90
   3  -2   3  490.15   15.00
  -3   2  -3  471.65   13.80
   3   2   3  484.95   15.60
   3   2   3  453.15   15.80
  -3   2  -3  484.55   12.60
   3   2   3  506.35   17.90
   3   2   3  484.75   13.60
   3   2   3  492.15   13.60
   3   2   3  472.25   16.30
  -3   2  -3  481.35   16.50
  -3   2  -3  469.75   13.60
   3   2   3  481.95   13.20
  -4  -2  -3   76.39    6.10
  -4  -2  -3   86.59    3.60
  -4  -2  -3   82.39    4.40
   4  -2   3   85.69    3.60
  -4  -2  -3   82.69    4.30
  -4  -2  -3   79.89    9.00
   4  -2   3   89.99    7.70
   4  -2   3   74.49    3.30
   4  -2   3   92.99    7.20
  -4  -2  -3   82.19    7.90
  -4  -2  -3   81.99    9.20
  -4  -2  -3   79.69    3.40
  -4  -2  -3   73.99    6.00
   4  -2   3   74.39    5.80
   4   2   3   87.49    6.70
   4   2   3   80.49    4.00
   4   2   3   94.59    7.80
   4   2   3   88.59    9.00
  -4   2  -3   83.29    4.40
  -4   2  -3   76.49    7.40
   4   2   3   84.19    3.50
  -5  -2  -3    5.00    3.40
  -5  -2  -3   10.50    1.50
   5  -2   3   17.60    5.30
  -5  -2  -3    8.10    2.50
   5  -2   3    9.10    2.70
  -5  -2  -3   12.10    2.20
  -5  -2  -3   28.60    7.20
  -5  -2  -3   10.40    5.50
   5  -2   3   13.20    5.10
  -5  -2  -3    7.60    6.90
   5  -2   3   12.90    1.90
   5   2   3    7.70    4.60
  -5   2  -3   10.30    2.20
   5   2   3    9.70    1.60
  -5   2  -3   13.50    4.80
   5   2   3   20.40    6.90
   5   2   3   18.40    5.70
   5   2   3   10.50    2.20
   6  -2   3 1094.39   35.50
  -6  -2  -3 1088.89   30.90
   6  -2   3 1038.30   29.50
   6  -2   3 1085.99   29.70
  -6  -2  -3 1041.00   37.10
  -6  -2  -3 1115.79   28.50
  -6  -2  -3 1056.49   31.00
   6  -2   3 1082.29   34.80
  -6  -2  -3 1084.49   28.30
   6  -2   3 1068.49   27.80
  -6  -2  -3 1079.19   31.00
   6   2   3 1098.19   37.20
  -6   2  -3 1062.79   36.10
   6   2   3 1076.59   29.30
   6   2   3 1100.99   34.90
   6   2   3 1080.29   28.90
   6   2   3 1085.79   30.10
  -6   2  -3 1054.39   30.70
   6   2   3 1092.89   36.30
   6   2   3 1095.89   33.20
   6   2   3 1123.29   30.80
   7  -2   3   54.19    9.90
  -7  -2  -3   53.79   11.30
  -7  -2  -3   53.69    4.80
   7  -2   3   44.90   16.80
  -7  -2  -3   33.90    4.60
  -7  -2  -3   49.60    5.60
   7  -2   3   51.49    6.80
   7   2   3   40.00    4.10
   7   2   3   53.59    6.50
  -7   2  -3   43.00    9.10
   7   2   3   48.40    8.70
   7   2   3   47.40   12.10
   7   2   3   49.40    5.30
   7   2   3   44.60   10.90
  -7   2  -3   48.40    5.60
  -7  -3   3   54.49    8.50
  -7  -3   3   56.09    5.10
  -7  -3   3   64.79    9.10
  -7  -3   3   57.39    5.00
  -7   3   3   47.00    9.10
  -7   3   3   51.39    5.40
   7   3  -3   74.69   10.30
   7   3  -3   59.59    5.10
   6  -3  -3    6.50    4.60
  -6  -3   3   -5.80    6.40
   6  -3  -3    3.20    6.10
   6  -3  -3    7.70    2.20
  -6  -3   3    5.40    2.00
  -6  -3   3    5.50    2.20
  -6  -3   3    4.20    5.20
  -6  -3   3    4.70    5.40
   6  -3  -3    5.80    1.60
  -6   3   3    2.70    4.80
   6   3  -3    3.80    5.90
   6   3  -3    6.40    8.20
  -6   3   3    3.30    2.10
  -6   3   3    6.30    4.50
   6   3  -3    4.30    2.60
   6   3  -3    5.40    2.00
  -6   3   3    5.60    1.70
  -5  -3   3   -0.60    1.50
  -5  -3   3    2.90    4.10
   5  -3  -3    2.00    1.40
  -5  -3   3   -0.40    1.20
   5  -3  -3    2.00    1.50
  -5  -3   3    1.20    1.50
  -5  -3   3    3.90    4.40
   5  -3  -3    0.50    1.60
   5  -3  -3   -3.60    4.00
  -5  -3   3   -1.00    1.60
  -5  -3   3   -1.20    3.60
  -5  -3   3   -2.80    4.60
   5  -3  -3    0.10    3.50
  -5   3   3    1.90    3.30
   5   3  -3    2.50    4.60
   5   3  -3   -0.20    1.90
  -5   3   3   -0.10    3.40
  -5   3   3    1.20    1.30
   5   3  -3    1.30    1.50
  -5   3   3    0.20    1.30
   5   3  -3   -0.90    5.70
   5   3  -3   -0.80    1.50
  -4  -3   3  108.59    8.40
  -4  -3   3   95.29    4.40
   4  -3  -3   97.89    6.90
  -4  -3   3  100.79    7.90
  -4  -3   3   97.09    4.40
  -4  -3   3  100.49    7.20
   4  -3  -3  108.99    7.30
   4  -3  -3   98.19    4.20
   4  -3  -3   97.59    4.00
  -4  -3   3  101.19    4.60
  -4  -3   3   96.49    4.10
  -4  -3   3   87.29    7.80
  -4   3   3   96.19    5.20
   4   3  -3   92.89    8.20
   4   3  -3   93.69    8.20
  -4   3   3  103.79    7.20
   4   3  -3   94.29    4.60
  -4   3   3   88.39    6.80
  -4   3   3   97.89    4.10
   4   3  -3  105.09    4.80
  -4   3   3  100.89    3.30
  -4   3   3   97.79    4.40
   4   3  -3   90.69    4.30
   4   3  -3  113.29    9.30
   3  -3  -3   94.49    6.40
  -3  -3   3   90.49    3.80
  -3  -3   3   99.49    7.30
  -3  -3   3   95.09    7.30
  -3  -3   3   91.79    6.80
   3  -3  -3   82.29    5.90
  -3  -3   3   88.49    3.70
  -3  -3   3   86.39    3.80
  -3  -3   3   88.69    4.10
   3  -3  -3   88.09    3.50
   3  -3  -3   79.49    3.70
  -3  -3   3   97.59    6.20
   3   3  -3   88.19    3.70
   3   3  -3   82.59    4.00
  -3   3   3   96.09    5.50
  -3   3   3   85.09    6.00
  -3   3   3   81.69    3.20
   3   3  -3   93.49    7.30
   3   3  -3   86.39    4.00
  -3   3   3   88.99    3.70
  -3   3   3   83.59    3.50
  -3   3   3   84.69    3.80
   3   3  -3   91.09    7.10
  -3   3   3   87.49    6.20
   2  -3  -3   46.90    2.40
  -2  -3   3   49.40    2.30
  -2  -3   3   51.69    2.80
  -2  -3   3   50.39    5.30
   2  -3  -3   48.00    2.80
  -2  -3   3   58.69    5.60
   2  -3  -3   49.40    5.20
  -2  -3   3   43.20    2.90
  -2  -3   3   48.70    5.40
   2  -3  -3   44.50    4.50
  -2  -3   3   47.60    4.10
  -2  -3   3   47.70    2.70
  -2  -3   3   50.59    2.70
  -2  -3   3   45.40    4.70
  -2   3   3   46.90    4.60
   2   3  -3   54.69    5.80
   2   3  -3   48.30    2.50
  -2   3   3   50.89    5.10
  -2   3   3   45.80    2.80
   2   3  -3   49.40    5.10
   2   3  -3   47.30    2.70
  -2   3   3   47.60    2.40
   2   3  -3   51.49    3.10
  -2   3   3   46.50    3.60
  -1  -3   3 1396.06   37.20
  -1  -3   3 1438.86   34.50
  -1  -3   3 1383.96   35.10
   1  -3  -3 1302.77   37.90
  -1  -3   3 1419.36   35.10
  -1  -3   3 1386.96   35.50
  -1  -3   3 1371.16   38.20
   1  -3  -3 1291.07   36.50
   1  -3  -3 1315.07   35.50
   1  -3  -3 1275.97   40.80
   1  -3  -3 1419.96   37.10
  -1  -3   3 1323.47   38.10
  -1   3   3 1330.37   38.10
   1   3  -3 1340.47   38.30
  -1   3   3 1375.96   35.60
   1   3  -3 1384.86   37.80
  -1   3   3 1382.56   35.30
  -1   3   3 1350.86   37.00
   1   3  -3 1342.67   35.70
   1   3  -3 1363.36   37.10
   1   3  -3 1368.86   35.20
  -1   3   3 1381.76   37.50
   1   3  -3 1421.06   35.40
   0  -3   3    4.90    2.00
   0  -3  -3    5.80    1.00
   0  -3  -3   14.50    2.70
   0  -3   3    9.10    2.40
   0  -3  -3    9.50    2.50
   0  -3  -3   10.70    1.20
   0  -3   3   12.10    1.00
   0  -3   3   10.00    1.60
   0  -3   3    6.80    1.10
   0  -3   3    8.00    1.10
   0  -3  -3    7.10    2.30
   0   3   3    8.00    2.60
   0   3  -3    9.40    1.10
   0   3  -3   10.30    2.40
   0   3   3   11.80    2.50
   0   3  -3   12.90    1.10
   0   3  -3   12.30    1.70
   0   3   3   10.60    1.40
   0   3  -3    7.60    2.10
   0   3  -3    8.60    1.20
   0   3   3    9.00    2.80
   0   3   3    8.80    1.10
   1  -3   3 2419.46   61.59
   1  -3   3 2517.65   61.19
  -1  -3  -3 2462.05   61.69
   1  -3   3 2510.45   63.39
  -1  -3  -3 2403.16   65.19
   1  -3   3 2465.95   62.19
  -1  -3  -3 2412.36   62.19
   1  -3   3 2489.65   61.49
  -1  -3  -3 2450.45   63.99
  -1  -3  -3 2408.36   61.99
   1  -3   3 2367.86   63.39
  -1  -3  -3 2360.46   64.39
  -1   3  -3 2403.56   62.89
  -1   3  -3 2605.54   61.09
   1   3   3 2387.76   63.89
   1   3   3 2305.97   64.89
   1   3   3 2329.07   61.99
  -1   3  -3 2341.77   61.29
  -1   3  -3 2478.15   62.39
   1   3   3 2324.67   61.59
  -1   3  -3 2607.04   62.09
   1   3   3 2356.66   63.59
   1   3   3 2260.97   64.49
  -1   3  -3 2365.66   63.49
   1   3   3 2392.86   61.59
  -1   3  -3 2443.26   61.59
  -1   3  -3 2487.05   61.09
  -2  -3  -3    4.80    2.40
  -2  -3  -3    4.90    1.10
  -2  -3  -3    4.80    1.20
  -2  -3  -3    8.90    3.20
   2  -3   3    6.20    0.70
  -2  -3  -3    6.20    1.00
   2  -3   3    5.60    0.80
   2  -3   3    6.00    1.80
  -2  -3  -3    6.00    2.40
   2  -3   3    6.80    1.50
   2  -3   3    5.40    0.90
   2  -3   3    5.20    1.80
  -2   3  -3    5.80    0.90
  -2   3  -3    5.20    1.70
   2   3   3    6.10    2.60
   2   3   3    5.70    2.50
   2   3   3    4.80    1.00
   2   3   3    4.00    3.00
   2   3   3    3.30    1.00
   2   3   3    5.10    2.50
   2   3   3    5.40    1.20
  -2   3  -3    6.90    1.30
  -2   3  -3    6.80    2.30
  -3  -3  -3   13.70    4.30
  -3  -3  -3   21.40    3.50
  -3  -3  -3   18.00    2.10
  -3  -3  -3   19.50    3.90
   3  -3   3   17.80    3.60
   3  -3   3   19.50    1.20
   3  -3   3   21.50    2.10
  -3  -3  -3   19.80    2.30
  -3  -3  -3   20.10    2.00
   3  -3   3   18.20    2.80
   3  -3   3   17.90    1.60
   3   3   3   17.00    1.70
   3   3   3   21.00    3.80
   3   3   3   17.60    3.40
  -3   3  -3   18.10    3.60
   3   3   3   17.60    1.90
  -3   3  -3   18.10    1.90
  -3   3  -3   19.30    2.10
   3   3   3   20.20    1.90
  -3   3  -3   18.20    1.20
   3   3   3   19.40    4.50
   3   3   3   16.60    3.50
  -4  -3  -3  316.67   10.90
   4  -3   3  329.17    9.70
  -4  -3  -3  325.57   10.00
  -4  -3  -3  327.27   14.70
  -4  -3  -3  331.87   13.00
  -4  -3  -3  325.17   10.60
  -4  -3  -3  312.27    9.80
   4  -3   3  343.37   14.10
  -4  -3  -3  336.77   15.70
   4  -3   3  346.37    9.80
  -4  -3  -3  316.47   12.90
   4  -3   3  332.97   12.70
  -4   3  -3  326.17   10.60
   4   3   3  324.37   14.30
   4   3   3  332.37   13.30
   4   3   3  326.87   10.40
   4   3   3  333.67   15.40
  -4   3  -3  360.46   14.30
   4   3   3  340.97    9.90
  -5  -3  -3  291.17    9.10
  -5  -3  -3  293.37   12.60
  -5  -3  -3  287.37    8.90
  -5  -3  -3  283.17   15.00
   5  -3   3  282.67   13.80
  -5  -3  -3  277.17   12.40
  -5  -3  -3  272.87   10.30
   5  -3   3  285.37    9.20
  -5  -3  -3  277.97   16.90
   5  -3   3  292.77   13.70
   5   3   3  294.07    9.80
   5   3   3  284.97   15.40
   5   3   3  285.27    9.00
   5   3   3  291.67    9.60
  -5   3  -3  266.67   13.80
   5   3   3  310.57   15.40
   5   3   3  295.47   13.60
   5   3   3  296.47   16.40
  -5   3  -3  283.07   10.10
  -6  -3  -3  135.49    6.30
  -6  -3  -3  126.59   11.70
   6  -3   3  175.18   13.90
  -6  -3  -3  145.99   12.70
   6  -3   3  142.99    6.40
  -6  -3  -3  143.49    7.00
   6  -3   3  160.98   12.80
   6   3   3  133.39   15.60
   6   3   3  147.69    5.90
  -6   3  -3  131.39   12.20
   6   3   3  147.09   11.70
   6   3   3  155.18   17.30
  -6   3  -3  149.19    7.20
   6   3   3  151.98    7.30
   6   3   3  138.89    9.70
   7  -3   3   70.99    6.00
   7  -3   3   49.30   11.30
  -7  -3  -3   52.89    6.00
  -7  -3  -3   56.49   11.80
  -7  -3  -3   63.19    7.20
  -7  -3  -3   62.39    4.00
   7   3   3   52.69    4.90
   7   3   3   57.69    9.90
   7   3   3   61.39   11.50
  -7   3  -3   53.09   10.50
  -7   3  -3   55.19    5.50
   7   3   3   59.69    5.40
   7   3   3   67.99    7.30
   7   3   3   55.29   12.40
   7  -4  -3  184.68   11.30
  -7  -4   3  165.08    9.40
  -7  -4   3  124.09   15.70
   7  -4  -3  185.88    9.10
   7  -4  -3  177.08    6.50
  -7  -4   3  195.48   16.40
  -7  -4   3  184.88    8.20
  -7   4   3  177.18    8.70
   7   4  -3  197.08    8.40
   7   4  -3  190.18   16.80
  -7   4   3  196.28   14.60
  -6  -4   3   89.29    5.40
  -6  -4   3   99.59    5.70
  -6  -4   3   76.99   10.00
  -6  -4   3  109.59   10.60
   6  -4  -3   95.59    4.80
   6  -4  -3  107.49   11.30
   6  -4  -3  115.99    8.90
  -6  -4   3   98.09    9.50
   6  -4  -3   94.49    4.40
   6   4  -3   96.79    5.60
  -6   4   3   91.09    5.20
  -6   4   3   83.09    9.50
   6   4  -3  101.99   10.30
   5  -4  -3   71.89    3.90
   5  -4  -3   74.39    4.60
   5  -4  -3   77.19    3.90
   5  -4  -3   80.89    8.30
  -5  -4   3   85.39    8.50
  -5  -4   3   78.19    4.70
   5  -4  -3   78.39    7.60
  -5  -4   3   87.29    9.10
  -5  -4   3   80.49    8.10
  -5  -4   3   71.79    4.40
  -5  -4   3   84.99    8.50
  -5  -4   3   73.79    4.60
  -5  -4   3   77.89    4.00
   5   4  -3   72.19    8.90
  -5   4   3   59.69    7.00
  -5   4   3   77.59    3.80
   5   4  -3   81.19    4.90
   5   4  -3   69.59    8.70
  -5   4   3   88.89    7.60
   5   4  -3   75.69    4.80
  -5   4   3   74.59    4.40
   5   4  -3   68.99    4.60
   5   4  -3   91.49    9.20
   5   4  -3   79.39    4.40
  -4  -4   3    4.60    1.70
   4  -4  -3    4.50    3.40
  -4  -4   3    5.40    4.10
   4  -4  -3    2.50    1.30
  -4  -4   3    2.80    1.50
  -4  -4   3    0.50    3.50
  -4  -4   3    0.40    4.50
   4  -4  -3    3.60    1.30
  -4  -4   3    5.50    1.70
  -4  -4   3    4.30    1.20
   4  -4  -3    3.30    3.20
  -4  -4   3    3.60    3.50
   4   4  -3   10.30    4.20
   4   4  -3    8.20    3.70
  -4   4   3    4.00    3.70
   4   4  -3    4.80    1.50
  -4   4   3    3.10    0.90
   4   4  -3    4.30    1.60
  -4   4   3    6.60    3.60
  -4   4   3    4.30    2.50
  -4   4   3    4.80    1.40
   4   4  -3    7.00    4.40
   4   4  -3    3.70    1.60
   4   4  -3    2.60    1.60
   4   4  -3    6.30    4.80
  -4   4   3    4.50    0.90
  -4   4   3    2.20    2.10
   3  -4  -3  506.45   13.90
   3  -4  -3  490.65   17.10
  -3  -4   3  509.15   14.70
  -3  -4   3  509.95   14.50
  -3  -4   3  507.75   14.50
   3  -4  -3  489.05   14.20
  -3  -4   3  493.75   18.10
  -3  -4   3  497.75   18.20
  -3  -4   3  511.05   17.90
  -3  -4   3  506.35   16.60
   3  -4  -3  495.05   16.50
  -3  -4   3  502.85   14.10
   3   4  -3  512.05   18.80
  -3   4   3  499.45   15.70
   3   4  -3  481.15   18.20
   3   4  -3  497.05   14.70
   3   4  -3  482.75   14.70
  -3   4   3  495.25   13.70
  -3   4   3  519.45   13.60
  -3   4   3  491.15   17.00
  -3   4   3  520.95   14.20
  -2  -4   3  182.28    9.20
  -2  -4   3  170.68    6.10
  -2  -4   3  178.28    9.00
  -2  -4   3  183.78    5.60
  -2  -4   3  179.88    9.30
   2  -4  -3  187.38    6.20
   2  -4  -3  190.68    8.30
  -2  -4   3  181.88    9.00
  -2  -4   3  175.58    6.30
  -2  -4   3  187.08    6.30
  -2  -4   3  180.28    7.20
   2  -4  -3  180.28    8.70
   2  -4  -3  181.38    7.00
  -2  -4   3  185.18    6.10
   2  -4  -3  177.48    5.80
   2   4  -3  181.78    9.30
  -2   4   3  175.98    7.80
   2   4  -3  181.08    6.10
  -2   4   3  183.68    6.20
  -2   4   3  179.48    5.70
   2   4  -3  176.58    6.00
  -2   4   3  171.78    7.00
   2   4  -3  184.58    9.20
  -2   4   3  173.28    8.70
   2   4  -3  171.08    6.30
  -1  -4   3  969.50   29.50
   1  -4  -3  959.50   29.20
  -1  -4   3 1036.70   29.90
   1  -4  -3 1070.59   31.30
   1  -4  -3  963.00   26.60
   1  -4  -3  988.20   26.40
  -1  -4   3  990.40   26.80
  -1  -4   3  960.00   26.70
  -1  -4   3 1018.40   28.70
   1  -4  -3  990.00   29.50
  -1  -4   3 1024.80   26.50
   1  -4  -3  984.70   28.30
  -1  -4   3 1076.89   25.70
   1  -4  -3  977.60   26.70
  -1  -4   3 1038.50   26.40
  -1  -4   3 1045.60   27.00
  -1  -4   3  936.11   29.40
   1   4  -3 1010.70   26.50
   1   4  -3 1017.10   28.60
  -1   4   3  985.00   28.70
  -1   4   3 1042.30   28.70
   1   4  -3 1034.40   30.00
   1   4  -3 1014.00   26.90
   1   4  -3 1017.40   29.50
  -1   4   3  999.10   26.80
   1   4  -3 1028.10   26.40
  -1   4   3 1023.10   26.40
  -1   4   3  987.90   29.60
   0  -4  -3    8.70    2.80
   0  -4   3    4.10    2.60
   0  -4   3    6.40    1.20
   0  -4  -3   10.90    3.30
   0  -4   3    6.90    1.80
   0  -4  -3    8.20    2.80
   0  -4  -3    8.30    1.60
   0  -4  -3    8.50    1.30
   0  -4  -3    8.60    1.20
   0  -4   3    5.80    2.70
   0  -4   3    7.00    0.90
   0  -4  -3    8.10    2.80
   0  -4   3    7.30    1.40
   0   4  -3    8.60    2.80
   0   4  -3   11.80    2.70
   0   4  -3    8.70    1.90
   0   4  -3    5.50    1.20
   0   4   3    4.80    2.60
   0   4   3    7.10    1.20
   0   4   3    5.60    2.40
   0   4   3    8.40    2.60
   0   4   3    6.00    2.60
   0   4  -3    8.80    1.10
   0   4   3    4.30    1.20
   0   4  -3    7.00    0.90
   0   4   3    6.30    1.20
   1  -4   3    2.30    2.30
  -1  -4  -3   -1.80    2.30
  -1  -4  -3    4.10    2.60
  -1  -4  -3    0.20    0.80
   1  -4   3    2.00    1.40
   1  -4   3   -0.30    1.00
   1  -4   3   -0.70    0.70
   1  -4   3    1.00    0.50
   1  -4   3    0.60    0.90
  -1  -4  -3   -0.40    1.00
  -1  -4  -3    0.30    0.90
  -1  -4  -3   -6.00    2.40
   1  -4   3   -1.50    1.70
   1  -4   3    0.80    2.20
   1   4   3   -0.40    0.70
  -1   4  -3   -0.20    0.70
  -1   4  -3    0.40    1.70
  -1   4  -3    0.60    0.70
  -1   4  -3    1.40    2.00
   1   4   3   -0.50    0.80
  -1   4  -3    0.40    0.60
   1   4   3    1.30    2.30
  -1   4  -3   -0.10    0.80
   1   4   3    0.00    1.10
  -1   4  -3   -0.70    1.90
   1   4   3    2.90    2.80
  -1   4  -3    0.30    1.70
   1   4   3    2.70    2.50
   1   4   3    0.40    2.50
  -2  -4  -3  459.25   15.60
  -2  -4  -3  443.76   13.10
   2  -4   3  459.95   11.90
   2  -4   3  438.06   14.00
  -2  -4  -3  458.55   13.00
   2  -4   3  466.25   12.30
   2  -4   3  442.56   12.30
  -2  -4  -3  452.25   12.80
   2  -4   3  458.25   14.00
   2  -4   3  444.66   12.90
  -2  -4  -3  480.15   16.40
  -2  -4  -3  437.76   15.90
   2   4   3  447.46   12.80
  -2   4  -3  467.45   12.60
   2   4   3  436.46   15.50
   2   4   3  469.25   19.00
  -2   4  -3  481.75   14.40
   2   4   3  446.06   12.90
   2   4   3  476.35   15.70
   2   4   3  445.86   17.00
   2   4   3  446.26   13.20
  -2   4  -3  464.45   12.40
  -2   4  -3  449.76   14.10
   3  -4   3  912.21   24.50
  -3  -4  -3  908.51   24.60
   3  -4   3  916.91   23.00
   3  -4   3  899.61   23.00
  -3  -4  -3  885.81   26.40
   3  -4   3  871.41   24.20
   3  -4   3  900.71   27.40
  -3  -4  -3  892.71   24.20
  -3  -4  -3  868.71   28.60
  -3  -4  -3  874.11   27.30
   3  -4   3  909.41   25.50
  -3  -4  -3  903.91   23.70
   3  -4   3  911.21   23.40
  -3   4  -3  921.11   24.10
  -3   4  -3  898.51   23.00
   3   4   3  883.11   24.00
   3   4   3  936.91   29.50
   3   4   3  850.31   27.10
  -3   4  -3  880.41   26.70
  -3   4  -3  903.51   24.00
   3   4   3  880.61   24.30
   3   4   3  880.41   24.20
   3   4   3  877.61   27.80
  -4  -4  -3   35.60    2.80
  -4  -4  -3   31.10    5.60
   4  -4   3   34.40    2.50
   4  -4   3   34.90    3.60
   4  -4   3   39.50    5.70
  -4  -4  -3   50.59    7.30
   4  -4   3   34.30    4.80
  -4  -4  -3   31.00    3.60
  -4  -4  -3   38.10    3.00
  -4  -4  -3   28.90    4.80
  -4  -4  -3   36.60    3.30
  -4  -4  -3   36.00    4.70
   4   4   3   39.20    2.70
  -4   4  -3   32.40    3.20
   4   4   3   34.40    5.80
   4   4   3   37.00    5.70
   4   4   3   41.20    3.10
   4   4   3   38.00    7.00
  -4   4  -3   34.40    5.90
   5  -4   3   -5.90    5.00
  -5  -4  -3   -0.90    1.70
  -5  -4  -3   -1.80    1.60
   5  -4   3    3.40    5.10
   5  -4   3    1.60    1.50
  -5  -4  -3   -1.50    5.50
  -5  -4  -3   -4.00    3.80
  -5  -4  -3    1.70    1.40
  -5  -4  -3    2.40    4.20
   5   4   3    1.00    1.50
   5   4   3   -3.50    5.00
   5   4   3   -0.80    1.80
   5   4   3   -0.10    6.80
   5   4   3    9.40    6.20
   5   4   3    3.10    2.30
  -5   4  -3   -3.20    4.10
   5   4   3    0.00    2.30
  -5   4  -3   -0.90    1.70
   5   4   3   -2.80    6.60
  -6  -4  -3  363.16   13.20
  -6  -4  -3  366.46   19.10
  -6  -4  -3  365.56   11.40
  -6  -4  -3  389.26   11.60
  -6  -4  -3  364.06   16.00
   6  -4   3  366.26   11.80
   6  -4   3  386.26   18.30
   6  -4   3  356.56   17.20
  -6  -4  -3  392.26   16.40
   6   4   3  361.16   20.00
   6   4   3  341.77   21.20
   6   4   3  380.26   21.50
   6   4   3  350.16   12.50
   6   4   3  364.86   11.70
   6   4   3  371.16   17.30
  -6   4  -3  353.46   17.90
   6   4   3  365.36   12.60
  -6   4  -3  350.96   12.60
   6   4   3  365.66   13.40
   7  -4   3   54.09   11.30
  -7  -4  -3   46.10    8.00
  -7  -4  -3   55.09    6.00
  -7  -4  -3   42.40    4.30
   7  -4   3   45.30    4.40
  -7  -4  -3   55.79   10.10
  -7   4  -3   48.90    5.10
   7   4   3   40.90    9.60
   7   4   3   44.40    5.70
   7   4   3   34.60    4.50
   7   4   3   40.80    4.90
   7   4   3   30.10   11.40
  -7   4  -3   44.60    9.40
   7   4   3   57.29   12.70
  -7  -5   3   -5.10    8.50
   7  -5  -3   -1.00    3.20
  -7  -5   3   -0.50    3.10
  -7  -5   3   16.80   11.10
  -7  -5   3    1.60    4.80
   7  -5  -3    5.20    1.80
   7  -5  -3   -0.40    5.20
  -7   5   3    3.90    2.20
  -7   5   3    0.10    1.60
  -7   5   3    1.20    4.70
   7   5  -3    8.00    9.20
  -7   5   3    3.10    5.90
   7   5  -3    3.70    3.00
  -6  -5   3   11.90    5.30
   6  -5  -3   10.30    2.40
  -6  -5   3    1.00    6.40
   6  -5  -3    8.30    6.50
  -6  -5   3    7.70    8.40
  -6  -5   3    5.00    6.40
  -6  -5   3    8.30    2.50
  -6  -5   3    8.60    2.30
   6  -5  -3   10.70    4.80
   6  -5  -3    8.90    1.90
  -6   5   3   12.70    2.50
   6   5  -3   18.30    7.40
   6   5  -3    6.90    2.50
   6   5  -3    4.10    2.30
  -6   5   3    9.20    5.10
   6   5  -3   16.10    6.90
   5  -5  -3   26.10    2.80
   5  -5  -3   25.40    3.00
  -5  -5   3   22.90    5.90
  -5  -5   3   18.90    2.80
  -5  -5   3   21.50    2.90
   5  -5  -3   13.60    4.30
  -5  -5   3   30.40    7.10
  -5  -5   3   23.20    3.10
   5  -5  -3   18.80    5.40
  -5  -5   3   31.40    6.30
  -5  -5   3   21.60    2.50
  -5  -5   3   24.20    5.50
   5   5  -3   26.10    3.30
  -5   5   3   19.30    2.90
  -5   5   3   29.70    4.90
   5   5  -3   26.00    2.90
   5   5  -3   17.50    3.00
   5   5  -3   16.70    3.70
  -5   5   3   24.60    6.20
   5   5  -3   22.20    5.80
  -5   5   3   23.20    2.50
   5   5  -3   22.00    6.90
  -4  -5   3  359.16   14.50
   4  -5  -3  345.77   14.10
  -4  -5   3  343.47   15.50
  -4  -5   3  353.46   11.60
  -4  -5   3  360.86   15.80
   4  -5  -3  357.36   10.70
  -4  -5   3  378.86   11.40
   4  -5  -3  346.77   10.80
  -4  -5   3  376.16   11.80
   4  -5  -3  371.06   14.10
  -4  -5   3  365.86   11.30
  -4  -5   3  362.86   16.40
   4   5  -3  369.26   17.30
  -4   5   3  364.56    9.70
   4   5  -3  364.16   11.50
  -4   5   3  362.36   14.00
   4   5  -3  366.16   11.80
   4   5  -3  361.46   11.90
   4   5  -3  358.46   16.70
   4   5  -3  388.56   17.00
  -4   5   3  345.27   11.10
   4   5  -3  362.06   11.50
  -4   5   3  367.46   15.20
   4   5  -3  360.16   15.40
  -4   5   3  361.86   10.90
  -4   5   3  354.36   11.50
  -4   5   3  376.96   11.10
   3  -5  -3   58.09    3.20
  -3  -5   3   55.09    6.00
   3  -5  -3   59.09    6.30
   3  -5  -3   53.39    5.70
  -3  -5   3   55.19    3.20
  -3  -5   3   58.59    3.60
  -3  -5   3   55.69    5.60
  -3  -5   3   51.99    4.20
  -3  -5   3   57.39    3.80
   3  -5  -3   60.09    2.90
  -3  -5   3   58.99    3.00
  -3  -5   3   44.60    5.90
  -3  -5   3   70.29    7.10
  -3   5   3   57.89    2.70
  -3   5   3   59.99    6.30
   3   5  -3   59.39    3.60
   3   5  -3   57.39    6.90
  -3   5   3   63.19    3.10
  -3   5   3   56.29    3.70
  -3   5   3   57.99    5.90
   3   5  -3   67.99    7.00
  -3   5   3   55.79    2.10
  -3   5   3   52.29    3.20
  -3   5   3   43.80    4.80
   3   5  -3   57.89    3.40
  -2  -5   3  456.95   14.40
  -2  -5   3  432.16   16.70
  -2  -5   3  449.76   16.90
   2  -5  -3  460.35   12.90
   2  -5  -3  439.76   16.00
  -2  -5   3  464.65   16.60
   2  -5  -3  433.46   13.10
  -2  -5   3  469.55   12.60
   2  -5  -3  475.55   14.30
  -2  -5   3  445.66   13.30
  -2  -5   3  457.75   13.20
   2  -5  -3  454.05   15.60
  -2  -5   3  453.65   13.50
   2   5  -3  468.45   13.20
   2   5  -3  431.76   16.90
  -2   5   3  446.86   12.60
   2   5  -3  466.55   16.50
  -2   5   3  449.46   15.20
  -2   5   3  477.35   14.50
  -2   5   3  469.35   13.30
   2   5  -3  440.96   13.50
  -2   5   3  472.25   12.60
  -2   5   3  472.55   16.40
   1  -5  -3    0.50    1.10
   1  -5  -3   -2.50    2.20
  -1  -5   3    2.80    0.80
  -1  -5   3    2.50    1.00
  -1  -5   3    1.90    2.70
  -1  -5   3    2.90    1.00
  -1  -5   3    0.30    1.50
   1  -5  -3    0.70    2.50
   1  -5  -3    6.10    3.40
  -1  -5   3    2.50    3.00
  -1  -5   3    2.40    2.40
  -1  -5   3    1.60    0.90
  -1   5   3    4.90    2.30
  -1   5   3    4.40    3.00
   1   5  -3    4.60    2.70
  -1   5   3    2.30    1.30
   1   5  -3    1.80    0.90
   1   5  -3    2.10    2.60
  -1   5   3    2.60    2.30
   1   5  -3    2.30    1.10
  -1   5   3    2.20    0.90
   0  -5   3   85.99    2.60
   0  -5  -3   83.59    3.50
   0  -5   3   87.29    5.10
   0  -5   3   76.89    6.10
   0  -5  -3   80.79    6.10
   0  -5  -3   83.49    6.40
   0  -5   3   82.79    3.10
   0  -5  -3   82.99    6.10
   0  -5  -3   85.79    6.40
   0  -5   3   81.39    3.60
   0  -5   3   86.39    6.30
   0  -5  -3   86.39    3.90
   0  -5   3   79.49    3.70
   0  -5   3   84.69    3.80
   0   5   3   82.39    3.60
   0   5  -3   79.89    3.70
   0   5  -3   81.59    5.60
   0   5   3   82.29    3.40
   0   5   3   73.59    5.90
   0   5   3   78.09    6.50
   0   5  -3   87.49    4.70
   0   5  -3   85.59    3.40
   0   5  -3   87.89    6.10
   0   5   3   86.69    5.90
   0   5  -3   84.79    3.00
   0   5   3   84.89    6.50
   0   5  -3   81.99    6.30
   0   5  -3   79.89    3.40
   0   5   3   81.69    4.00
  -1  -5  -3  118.49    7.40
  -1  -5  -3  122.29    4.70
   1  -5   3  124.59    3.80
   1  -5   3  122.59    4.40
   1  -5   3  123.99    6.80
  -1  -5  -3  120.89    4.80
   1  -5   3  125.29    4.50
  -1  -5  -3  131.69    5.30
   1  -5   3  116.39    6.40
  -1  -5  -3  122.69    7.80
   1  -5   3  126.29    5.30
  -1   5  -3  122.49    4.50
  -1   5  -3  128.09    4.00
   1   5   3  119.59    4.50
   1   5   3  122.19    7.20
  -1   5  -3  120.29    6.90
   1   5   3  116.19    7.90
  -1   5  -3  121.39    4.00
  -1   5  -3  119.99    6.00
   1   5   3  120.69    7.20
   1   5   3  119.49    4.50
  -1   5  -3  124.39    5.80
   1   5   3  131.19    8.20
   1   5   3  112.69    4.90
  -2  -5  -3   51.89    5.50
  -2  -5  -3   49.90    3.00
   2  -5   3   48.30    4.50
   2  -5   3   49.20    2.00
  -2  -5  -3   40.70    4.90
   2  -5   3   52.19    2.40
  -2  -5  -3   55.69    2.90
   2  -5   3   56.09    4.40
  -2  -5  -3   49.40    5.60
   2  -5   3   52.59    2.40
   2  -5   3   48.00    3.70
  -2  -5  -3   53.29    3.00
   2   5   3   48.30    3.00
   2   5   3   49.30    2.90
  -2   5  -3   53.09    4.50
   2   5   3   51.99    6.30
  -2   5  -3   50.19    2.50
   2   5   3   49.90    2.70
  -2   5  -3   50.99    4.60
  -2   5  -3   52.89    2.40
   2   5   3   53.49    5.80
   2   5   3   42.40    4.90
   3  -5   3   89.69    5.60
  -3  -5  -3   83.09    9.20
   3  -5   3   90.49    3.40
  -3  -5  -3   86.99    4.40
   3  -5   3   90.19    4.90
  -3  -5  -3   87.49    4.00
   3  -5   3   95.29    3.40
   3  -5   3   88.99    3.10
   3  -5   3   92.69    5.40
   3  -5   3   89.19    3.20
  -3  -5  -3   97.69    7.80
  -3  -5  -3   91.89    7.20
   3  -5   3   89.19    5.60
  -3  -5  -3   92.19    4.10
   3   5   3   89.69    4.10
   3   5   3   87.59    4.20
   3   5   3   85.29    8.00
   3   5   3   86.99    7.60
   3   5   3   85.99    9.20
   3   5   3   91.69    4.00
  -3   5  -3   86.99    6.50
  -3   5  -3   90.39    4.00
  -4  -5  -3 2218.98   63.59
  -4  -5  -3 2161.98   63.99
  -4  -5  -3 2171.48   58.19
   4  -5   3 2145.79   60.99
   4  -5   3 2262.47   55.89
   4  -5   3 2208.08   56.69
  -4  -5  -3 2218.08   57.59
  -4  -5  -3 2301.87   57.59
   4  -5   3 2235.38   57.39
  -4  -5  -3 2147.79   61.29
  -4  -5  -3 2238.08   61.59
   4  -5   3 2190.58   59.69
  -4  -5  -3 2139.49   58.39
   4   5   3 2219.98   57.79
   4   5   3 2187.78   57.79
  -4   5  -3 2252.77   57.69
  -4   5  -3 2214.38   61.19
   4   5   3 2210.58   61.69
   4   5   3 2202.28   62.59
   4   5   3 2164.88   63.99
   4   5   3 2216.08   57.39
   4   5   3 2243.08   58.69
   4   5   3 2270.07   63.29
  -5  -5  -3   19.00    6.70
  -5  -5  -3   25.80    3.00
   5  -5   3   24.40    6.20
  -5  -5  -3   24.80    2.90
  -5  -5  -3   21.90    6.00
  -5  -5  -3   25.30    3.30
  -5  -5  -3   26.50    5.60
   5  -5   3   21.10    2.50
   5  -5   3   26.80    5.80
   5   5   3   21.10    2.70
   5   5   3   20.50    9.00
  -5   5  -3   27.30    3.20
   5   5   3   20.70    6.10
   5   5   3   20.40    2.40
  -5   5  -3   17.90    5.80
   5   5   3   23.80    3.50
   5   5   3   31.60    7.00
  -6  -5  -3  615.04   22.70
  -6  -5  -3  597.84   17.50
   6  -5   3  578.54   23.30
   6  -5   3  608.54   17.40
  -6  -5  -3  580.14   17.20
  -6  -5  -3  592.24   22.50
   6  -5   3  576.04   22.30
   6   5   3  581.84   26.00
   6   5   3  582.24   18.20
  -6   5  -3  577.04   23.60
   6   5   3  578.44   23.50
   6   5   3  584.04   19.10
  -6   5  -3  564.84   18.20
   6   5   3  632.94   28.00
   6   5   3  570.94   17.40
  -7  -5  -3    3.70    8.20
  -7  -5  -3   -2.20    2.80
  -7  -5  -3   12.90    8.10
   7  -5   3    3.00    3.30
  -7  -5  -3   15.80    8.50
  -7  -5  -3    7.30    2.70
  -7  -5  -3    2.00    2.90
   7   5   3   -4.40    3.30
  -7   5  -3    2.10    2.90
   7   5   3   17.50   13.10
   7   5   3    9.50    3.00
   7   5   3    5.60    4.20
   7   5   3   12.90   10.00
   7   5   3   28.90   11.70
  -7   5  -3   12.40    8.40
   7  -6  -3   69.89    4.20
   7  -6  -3   74.89    7.40
  -7  -6   3   64.89    9.40
  -7  -6   3   88.59   12.50
   7  -6  -3   81.49    6.80
  -7  -6   3   72.69    5.90
  -7  -6   3   85.49    7.00
  -7   6   3   72.09    6.10
   7   6  -3   68.29    6.80
   7   6  -3   87.39    6.40
  -7   6   3   65.99    9.40
   7   6  -3   75.29   13.40
   7   6  -3   82.69   12.60
  -6  -6   3  101.39    6.00
   6  -6  -3  100.49    9.30
  -6  -6   3  103.09    5.30
  -6  -6   3  115.19   12.90
   6  -6  -3  100.79    9.60
   6  -6  -3  102.99    5.70
  -6  -6   3  114.79    6.80
  -6  -6   3  105.69   11.20
  -6  -6   3  128.19   12.60
   6  -6  -3  117.19    5.00
   6   6  -3  112.69    6.40
   6   6  -3  113.89   12.10
  -6   6   3   87.19    9.70
   6   6  -3  106.29   11.00
  -6   6   3  113.89    5.90
   6   6  -3  113.09    6.70
   5  -6  -3   37.30    3.50
   5  -6  -3   42.60    5.80
  -5  -6   3   37.80    3.60
  -5  -6   3   39.40    4.20
  -5  -6   3   37.40    3.70
   5  -6  -3   45.40    6.60
  -5  -6   3   47.70    7.50
  -5  -6   3   51.09    7.60
   5  -6  -3   39.00    3.20
  -5  -6   3   30.10    6.90
  -5   6   3   33.00    3.50
  -5   6   3   34.00    6.30
   5   6  -3   39.70    4.40
   5   6  -3   38.70    8.20
   5   6  -3   36.00    7.00
   5   6  -3   37.60    4.10
  -5   6   3   37.50    3.10
  -5   6   3   43.30    6.00
  -4  -6   3  879.51   28.30
  -4  -6   3  938.81   25.50
  -4  -6   3  924.91   30.00
   4  -6  -3  900.51   24.20
   4  -6  -3  880.51   27.90
  -4  -6   3  955.30   30.60
  -4  -6   3  890.51   30.50
  -4  -6   3  884.81   24.80
  -4  -6   3  859.51   25.30
   4  -6  -3  888.41   24.40
   4  -6  -3  917.31   27.80
  -4  -6   3  885.91   24.90
   4   6  -3  901.81   30.70
   4   6  -3  791.52   30.20
   4   6  -3  909.61   29.80
   4   6  -3  912.11   25.60
  -4   6   3  933.51   28.20
  -4   6   3  892.21   24.30
  -4   6   3  931.51   24.20
  -4   6   3  899.81   24.50
   4   6  -3  909.41   25.30
   4   6  -3  912.51   31.30
   4   6  -3  880.31   25.40
   3  -6  -3  616.14   18.00
  -3  -6   3  658.63   18.60
  -3  -6   3  656.93   23.00
  -3  -6   3  658.13   23.40
   3  -6  -3  634.04   21.50
   3  -6  -3  665.63   18.50
  -3  -6   3  624.54   20.50
  -3  -6   3  666.43   18.80
  -3  -6   3  630.04   22.90
  -3  -6   3  652.23   17.90
   3  -6  -3  634.04   17.80
  -3  -6   3  652.03   18.70
   3  -6  -3  633.84   21.20
  -3   6   3  683.43   18.60
   3   6  -3  648.04   18.60
   3   6  -3  657.03   18.90
   3   6  -3  638.14   22.60
  -3   6   3  670.33   19.90
   3   6  -3  650.43   23.40
   3   6  -3  643.04   18.60
  -3   6   3  635.44   20.50
  -3   6   3  649.64   17.00
  -3   6   3  641.24   17.40
  -3   6   3  648.34   21.70
   3   6  -3  640.44   22.90
  -3   6   3  635.14   17.50
  -3   6   3  644.84   18.20
  -2  -6   3   86.49    4.20
   2  -6  -3   82.99    3.50
   2  -6  -3   84.09    3.90
  -2  -6   3   76.49    3.80
   2  -6  -3   81.59    6.90
   2  -6  -3   82.99    6.60
   2  -6  -3   84.69    5.60
  -2  -6   3   81.19    8.20
  -2  -6   3   74.89    7.40
  -2  -6   3   80.99    4.00
  -2  -6   3   85.29    5.30
  -2  -6   3   89.69    7.70
  -2  -6   3   84.69    3.30
  -2   6   3   95.09    5.90
  -2   6   3   79.09    3.40
   2   6  -3   80.89    4.10
   2   6  -3   76.49    7.10
  -2   6   3   81.19    4.00
   2   6  -3   83.19    7.80
  -2   6   3   82.09    3.70
  -2   6   3   77.49    7.40
  -2   6   3   88.09    5.90
   2   6  -3   79.09    3.90
   2   6  -3   80.39    3.90
   2   6  -3   89.59    8.20
  -2   6   3   80.09    7.00
  -2   6   3   84.39    3.50
  -1  -6   3  770.12   21.80
  -1  -6   3  813.52   24.40
  -1  -6   3  778.22   25.50
   1  -6  -3  789.52   21.80
  -1  -6   3  819.82   22.00
   1  -6  -3  841.82   25.40
   1  -6  -3  791.92   24.00
  -1  -6   3  803.12   21.40
  -1   6   3  791.62   21.30
   1   6  -3  797.52   25.30
   1   6  -3  816.02   21.40
  -1   6   3  798.32   21.60
  -1   6   3  771.52   21.90
   1   6  -3  789.92   24.10
  -1   6   3  785.32   25.40
  -1   6   3  807.72   24.30
   1   6  -3  781.32   25.40
   1   6  -3  756.52   21.90
   1   6  -3  814.82   21.80
  -1   6   3  781.02   24.00
   0  -6   3    3.10    1.00
   0  -6   3    4.20    2.60
   0  -6  -3    0.70    2.70
   0  -6   3    0.40    0.90
   0  -6  -3    1.60    3.00
   0  -6   3    0.00    0.80
   0  -6   3    1.60    2.50
   0  -6  -3    1.30    0.90
   0  -6   3   -0.60    2.40
   0  -6   3    1.40    0.80
   0  -6   3    0.00    2.40
   0   6  -3    1.30    2.90
   0   6   3    1.50    1.10
   0   6  -3    5.60    3.00
   0   6   3    2.30    1.20
   0   6  -3    1.70    0.90
   0   6  -3    1.70    1.00
   0   6  -3    2.30    0.80
   0   6   3    1.90    0.70
   0   6  -3   -0.40    2.20
   0   6  -3    2.10    1.00
   0   6  -3   -1.90    2.80
   0   6   3    5.40    3.30
   0   6   3    2.90    3.10
   0   6   3   -0.20    3.10
   0   6   3    0.60    0.90
   0   6   3   -0.80    2.40
   1  -6   3  385.46   12.80
   1  -6   3  386.66   14.40
  -1  -6  -3  386.66   11.90
   1  -6   3  407.86   12.00
   1  -6   3  393.36   11.50
   1  -6   3  403.96   11.50
  -1  -6  -3  382.66   15.20
   1  -6   3  388.86   14.10
   1  -6   3  414.46   10.90
   1  -6   3  415.06   15.40
  -1   6  -3  401.56   13.20
  -1   6  -3  405.96   11.00
   1   6   3  407.26   15.00
   1   6   3  395.86   11.60
   1   6   3  377.06   12.10
  -1   6  -3  385.56   11.50
   1   6   3  385.36   15.70
   1   6   3  386.66   11.70
  -1   6  -3  414.26   13.10
  -1   6  -3  399.46   14.30
   1   6   3  387.76   12.30
  -1   6  -3  413.86   11.00
   1   6   3  401.56   14.70
  -2  -6  -3   97.69    4.60
  -2  -6  -3   93.59    7.50
   2  -6   3  102.19    3.50
   2  -6   3  104.19    6.70
  -2  -6  -3  108.19    9.20
   2  -6   3   98.79    3.90
   2  -6   3   98.19    5.60
   2  -6   3   94.59    6.00
   2  -6   3   96.89    3.90
  -2  -6  -3  101.79    4.50
   2   6   3  103.49    8.90
  -2   6  -3  114.89    6.30
  -2   6  -3  102.39    3.90
   2   6   3   99.99    4.20
   2   6   3   92.49    7.70
   2   6   3   97.89    4.30
  -2   6  -3  104.79    3.90
   2   6   3   97.19    4.50
   2   6   3   99.69    7.50
   2   6   3   96.09    4.90
  -2   6  -3  106.59    6.20
   3  -6   3  777.92   20.60
   3  -6   3  788.42   22.80
   3  -6   3  784.42   23.00
   3  -6   3  768.22   20.50
  -3  -6  -3  777.92   22.00
   3  -6   3  768.82   22.40
  -3  -6  -3  784.62   27.00
  -3  -6  -3  773.62   25.70
   3  -6   3  772.02   20.50
   3   6   3  787.92   22.70
   3   6   3  765.62   21.70
   3   6   3  781.22   21.60
  -3   6  -3  805.32   21.40
   3   6   3  780.22   26.10
   3   6   3  779.22   27.50
  -3   6  -3  777.72   24.00
   3   6   3  779.82   22.00
   3   6   3  778.02   22.70
   3   6   3  771.02   25.70
   3   6   3  785.32   27.80
  -4  -6  -3   17.50    2.70
  -4  -6  -3   19.40    5.70
  -4  -6  -3   22.30    2.80
   4  -6   3   25.90    1.90
   4  -6   3   30.40    2.50
  -4  -6  -3   21.90    6.10
   4  -6   3   29.80    5.40
  -4  -6  -3   25.30    2.80
  -4  -6  -3   21.00    5.60
   4  -6   3   26.60    4.90
   4  -6   3   23.30    3.70
   4  -6   3   23.80    4.60
   4   6   3   23.60    8.30
  -4   6  -3   23.30    2.60
   4   6   3   25.70    6.90
   4   6   3   23.00    2.50
   4   6   3   29.50    2.80
   4   6   3   28.70    6.50
   4   6   3   28.70    6.30
   4   6   3   19.80    3.00
   4   6   3   21.70    3.10
  -4   6  -3   24.10    5.60
   5  -6   3   26.90    2.60
   5  -6   3   27.60    3.70
   5  -6   3   17.30    1.80
   5  -6   3   19.70    5.70
  -5  -6  -3   30.10    6.70
  -5  -6  -3   21.80    2.50
  -5  -6  -3   21.70    3.10
  -5  -6  -3   18.10    2.90
  -5  -6  -3   18.80    5.80
   5  -6   3   14.60    6.10
  -5  -6  -3   21.20    6.30
  -5   6  -3   19.30    2.90
   5   6   3   14.70    3.30
   5   6   3   30.80    8.60
   5   6   3   21.30    7.50
   5   6   3   24.00    2.80
  -5   6  -3   18.20    6.10
  -6  -6  -3  612.64   27.30
  -6  -6  -3  623.24   18.70
  -6  -6  -3  641.84   24.70
  -6  -6  -3  612.24   20.50
  -6  -6  -3  641.44   19.00
   6  -6   3  639.54   23.70
  -6  -6  -3  648.34   25.20
   6  -6   3  623.64   24.70
   6  -6   3  628.54   18.50
   6   6   3  632.04   18.80
   6   6   3  638.14   26.10
   6   6   3  619.04   19.50
   6   6   3  641.24   27.90
  -6   6  -3  635.44   19.50
  -6   6  -3  614.24   24.90
   6   6   3  658.83   29.90
   6   6   3  626.64   20.50
  -7  -6  -3  140.69    8.80
  -7  -6  -3  163.88   13.90
  -7  -6  -3  175.18   17.60
  -7  -6  -3  158.88    7.70
   7   6   3  175.18   10.40
  -7   6  -3  148.39   14.60
   7   6   3  141.09   16.60
   7   6   3  153.48   18.20
  -7   6  -3  156.58    8.20
   7   6   3  161.88    7.80
   7   6   3  139.29    8.70
   7  -7  -3  165.08   18.50
  -7  -7   3  129.69    7.50
  -7  -7   3  133.99    8.80
   7  -7  -3  137.39    8.50
   7  -7  -3  101.39   10.70
   7  -7  -3  117.19    5.40
  -7  -7   3  124.59   14.40
  -7  -7   3  134.49   14.10
   7   7  -3  145.39   15.80
   7   7  -3  136.69    8.20
   7   7  -3  114.09    8.30
   7   7  -3  153.88   15.00
  -7   7   3  134.39   14.30
   7   7  -3  117.29   15.30
   7   7  -3  116.89    7.50
  -7   7   3  129.09    7.80
   6  -7  -3   -6.40    5.00
  -6  -7   3    0.30    2.00
  -6  -7   3    5.40    6.40
   6  -7  -3    2.60    1.90
  -6  -7   3    2.60    2.90
  -6  -7   3   -7.10    7.70
  -6  -7   3    4.20    2.40
   6  -7  -3    0.60    2.70
  -6  -7   3    8.20    7.90
   6   7  -3   -6.80    8.60
   6   7  -3    3.00    2.80
   6   7  -3   22.80    9.70
   6   7  -3    2.00    2.60
   6   7  -3   -5.20    7.80
  -5  -7   3   12.20    2.50
   5  -7  -3    9.40    2.30
   5  -7  -3   13.80    2.20
   5  -7  -3   14.40    4.60
  -5  -7   3   15.10    3.00
   5  -7  -3    8.20    6.20
  -5  -7   3   13.70    5.30
  -5  -7   3   16.70    2.80
  -5  -7   3   14.30    7.10
  -5  -7   3    7.40    6.90
  -5   7   3   13.30    5.10
   5   7  -3   13.90    2.90
  -5   7   3   15.70    2.20
   5   7  -3   13.30    3.10
   5   7  -3   23.20    8.30
   5   7  -3   12.00    7.10
   4  -7  -3    8.50    1.90
  -4  -7   3   12.80    2.20
  -4  -7   3   10.80    2.00
   4  -7  -3    7.50    1.80
  -4  -7   3   13.50    4.50
  -4  -7   3   12.30    5.50
  -4  -7   3   12.20    6.50
   4  -7  -3   12.80    4.90
  -4  -7   3   17.20    2.70
   4  -7  -3    3.90    4.40
   4   7  -3   10.40    5.50
   4   7  -3   13.50    2.30
  -4   7   3   16.10    3.00
   4   7  -3   16.60    6.40
  -4   7   3   11.60    2.50
   4   7  -3    8.90    2.10
  -4   7   3   13.20    2.00
   4   7  -3   10.70    2.20
  -4   7   3   12.20    4.60
  -3  -7   3   11.40    2.30
  -3  -7   3   11.10    4.90
   3  -7  -3    7.50    4.30
   3  -7  -3    6.20    3.60
  -3  -7   3    4.90    5.70
   3  -7  -3    7.80    1.60
  -3  -7   3   10.00    1.80
  -3  -7   3   10.30    4.00
  -3  -7   3    8.20    1.90
  -3  -7   3    6.70    1.60
   3  -7  -3    7.20    1.60
  -3  -7   3    3.60    3.90
   3  -7  -3   11.70    3.20
   3   7  -3    7.50    1.60
   3   7  -3   14.10    5.10
  -3   7   3   11.70    4.40
  -3   7   3   11.80    3.30
   3   7  -3   11.70    2.20
   3   7  -3    4.60    1.50
   3   7  -3    9.90    4.90
  -3   7   3   11.10    4.30
   3   7  -3    8.30    1.90
  -3   7   3    9.90    1.90
  -3   7   3   10.10    3.00
   3   7  -3    8.90    4.60
  -3   7   3    9.00    1.70
   3   7  -3    5.40    4.30
  -3   7   3    8.40    1.30
  -3   7   3    8.70    1.40
  -2  -7   3  121.49    6.70
   2  -7  -3  126.69    7.60
   2  -7  -3  130.89    8.60
  -2  -7   3  138.39    9.70
  -2  -7   3  133.79    7.00
  -2  -7   3  132.69    5.70
  -2  -7   3  130.89    9.60
   2  -7  -3  130.69    5.40
   2  -7  -3  124.99    5.00
  -2  -7   3  127.19    5.20
  -2  -7   3  132.99    4.70
   2  -7  -3  134.59    8.80
  -2  -7   3  123.19    9.30
   2   7  -3  135.09    5.30
  -2   7   3  130.79    4.90
  -2   7   3  132.79    7.60
  -2   7   3  132.69    4.80
   2   7  -3  135.39    5.70
  -2   7   3  131.19    9.30
   2   7  -3  126.69    8.90
  -2   7   3  139.59    5.30
   2   7  -3  124.39    9.80
  -2   7   3  136.29    7.90
  -2   7   3  133.89    5.50
  -2   7   3  124.79    9.00
   2   7  -3  141.39    9.90
   1  -7  -3  923.31   29.20
  -1  -7   3  912.01   29.50
  -1  -7   3  926.71   25.40
  -1  -7   3  927.21   28.20
  -1  -7   3  929.91   25.50
   1  -7  -3  892.51   27.80
  -1  -7   3  924.11   24.90
   1  -7  -3  960.70   25.40
   1   7  -3  885.71   27.80
  -1   7   3  935.41   29.60
  -1   7   3  930.91   25.30
  -1   7   3  905.91   25.00
  -1   7   3  916.11   27.90
   1   7  -3  951.00   24.80
   1   7  -3  950.80   25.20
  -1   7   3  931.01   28.10
   1   7  -3  912.91   29.40
  -1   7   3  924.31   29.80
   1   7  -3  928.21   25.00
   1   7  -3  917.31   29.10
  -1   7   3  926.41   25.50
  -1   7   3  921.91   24.70
   0  -7  -3  719.83   19.70
   0  -7   3  701.63   23.20
   0  -7   3  705.23   19.50
   0  -7   3  684.63   19.30
   0  -7  -3  705.73   23.60
   0  -7   3  700.43   21.70
   0  -7   3  688.73   18.80
   0  -7  -3  695.33   22.90
   0   7   3  698.23   19.90
   0   7  -3  689.13   22.40
   0   7  -3  729.43   19.60
   0   7  -3  696.43   22.10
   0   7   3  676.83   22.30
   0   7  -3  701.73   23.00
   0   7   3  669.63   23.70
   0   7   3  689.23   23.40
   0   7  -3  674.33   21.00
   0   7   3  690.03   23.00
   0   7  -3  721.13   19.00
   0   7   3  672.43   19.30
   0   7   3  670.33   19.10
   0   7  -3  688.73   19.10
   0   7  -3  701.93   18.70
   0   7   3  696.43   19.70
   1  -7   3 4102.49  100.59
   1  -7   3 3963.00  104.79
   1  -7   3 4031.30  101.19
  -1  -7  -3 3953.50  105.99
   1  -7   3 4009.00  106.49
  -1  -7  -3 3965.20  101.79
   1  -7   3 3913.11  101.09
   1  -7   3 3985.30  105.39
   1  -7   3 4174.38  102.99
   1   7   3 3850.91  104.79
  -1   7  -3 4005.10  100.49
   1   7   3 3895.11  101.99
  -1   7  -3 4093.99  104.69
  -1   7  -3 3938.11  100.49
   1   7   3 4101.79  109.89
   1   7   3 3869.91  105.29
  -1   7  -3 3934.91  101.19
  -1   7  -3 4026.40  102.89
   1   7   3 3905.21  101.99
   1   7   3 3838.32  101.29
   1   7   3 3855.71  101.19
   1   7   3 3931.21  106.29
  -1   7  -3 4017.00  100.39
  -1   7  -3 3938.71  102.79
  -1   7  -3 4060.49  102.69
   2  -7   3   17.90    3.30
   2  -7   3   12.50    1.60
   2  -7   3   11.60    3.10
   2  -7   3   17.10    4.10
   2  -7   3   15.00    2.00
  -2  -7  -3   17.50    2.30
   2  -7   3   15.70    1.60
   2  -7   3   18.30    2.00
   2  -7   3   11.10    4.40
  -2  -7  -3   17.30    5.90
  -2  -7  -3   11.90    1.80
  -2  -7  -3   10.90    4.70
  -2  -7  -3   13.10    4.60
   2   7   3   19.40    2.30
   2   7   3   14.50    4.50
  -2   7  -3   14.20    1.60
   2   7   3   17.00    2.00
   2   7   3   16.20    4.40
  -2   7  -3   16.60    3.50
   2   7   3   13.90    1.80
   2   7   3   13.20    5.20
   2   7   3   13.50    2.30
   3  -7   3   87.09    6.20
   3  -7   3   88.09    3.70
  -3  -7  -3   86.49    8.50
   3  -7   3   92.79    3.60
  -3  -7  -3   83.39    4.70
   3  -7   3   95.29    6.20
  -3  -7  -3   95.79    9.40
   3  -7   3   92.89    6.90
   3  -7   3   75.09    6.90
   3  -7   3   90.59    3.70
  -3  -7  -3   78.89   10.50
   3  -7   3   90.79    3.70
  -3  -7  -3   88.39    4.90
  -3  -7  -3   90.69    8.70
  -3   7  -3   95.79    4.30
   3   7   3   87.49    4.50
   3   7   3   85.59    5.30
  -3   7  -3   98.19    7.40
   3   7   3  108.19   10.90
   3   7   3   99.09    5.40
   3   7   3   84.89    4.30
   3   7   3   85.89    9.30
   3   7   3   86.99    4.70
   3   7   3   82.69    8.60
   4  -7   3   -1.60    2.30
  -4  -7  -3   -1.40    4.90
   4  -7   3    0.50    1.40
   4  -7   3    0.60    0.80
  -4  -7  -3   -1.00    1.50
   4  -7   3    0.80    2.20
   4  -7   3    3.80    4.50
   4  -7   3    3.60    4.30
   4  -7   3   -1.50    1.50
   4  -7   3   -0.60    0.80
   4  -7   3    0.10    1.10
   4  -7   3    2.90    3.70
   4   7   3   -6.40    6.70
  -4   7  -3   -3.30    3.90
  -4   7  -3   -0.90    1.70
   4   7   3   -5.80    6.10
   4   7   3    1.50    1.60
   4   7   3   -1.70    1.50
   4   7   3    6.00    6.20
   4   7   3   -1.40    2.20
   5  -7   3  363.36   16.80
   5  -7   3  373.86   10.40
  -5  -7  -3  355.26   19.00
  -5  -7  -3  366.26   12.60
  -5  -7  -3  367.96   17.80
   5  -7   3  381.66   16.80
   5  -7   3  406.96   17.20
  -5  -7  -3  352.16   13.10
   5  -7   3  368.86   13.50
   5  -7   3  360.16   11.40
   5  -7   3  369.46   11.50
  -5  -7  -3  363.06   18.50
   5   7   3  409.26   20.60
  -5   7  -3  377.46   12.30
   5   7   3  351.26   12.50
   5   7   3  359.46   18.90
  -5   7  -3  377.76   17.00
   5   7   3  378.86   13.70
   5   7   3  372.36   21.40
  -6  -7  -3   52.29    4.90
  -6  -7  -3   51.69    5.80
  -6  -7  -3   52.59   10.00
  -6  -7  -3   56.79    5.60
   6  -7   3   50.19    4.70
   6  -7   3   59.79    9.60
  -6  -7  -3   61.79   10.50
  -6  -7  -3   45.10    8.90
   6  -7   3   49.60    9.60
   6   7   3   52.09    5.10
  -6   7  -3   38.10    7.70
   6   7   3   45.00   10.90
   6   7   3   56.19   12.70
   6   7   3   47.60   10.50
   6   7   3   53.39    6.00
  -6   7  -3   51.09    4.70
   6   7   3   57.19    5.30
   6  -8  -3   13.00    6.00
  -6  -8   3   13.90    9.80
   6  -8  -3   22.50    2.80
  -6  -8   3   26.10    8.30
  -6  -8   3   25.10    4.00
  -6  -8   3   25.20    3.50
   6   8  -3   23.90    4.00
   6   8  -3   19.70    9.30
   6   8  -3   26.40    4.10
   6   8  -3   28.60   11.00
   5  -8  -3  134.69   11.20
  -5  -8   3  129.89   14.30
   5  -8  -3  134.09    5.80
  -5  -8   3  144.19    7.50
  -5  -8   3  136.79   11.70
   5  -8  -3  117.19   12.80
   5  -8  -3  134.09    6.00
  -5  -8   3  125.29    6.30
   5   8  -3  130.99   12.80
   5   8  -3  132.19    7.30
  -5   8   3  122.69    5.70
   5   8  -3  126.19    7.00
  -5   8   3  162.18   11.30
   5   8  -3  140.69   14.00
  -4  -8   3   33.30    7.70
   4  -8  -3   35.00    3.50
  -4  -8   3   38.50    4.00
   4  -8  -3   35.10    3.30
  -4  -8   3   33.50    7.70
  -4  -8   3   39.10    6.80
   4  -8  -3   42.10    7.00
  -4  -8   3   38.00    3.40
   4  -8  -3   34.50    5.90
  -4  -8   3   30.30    3.60
  -4   8   3   37.70    6.20
  -4   8   3   32.90    3.30
  -4   8   3   32.90    3.50
   4   8  -3   40.60    4.20
   4   8  -3   22.60    6.70
   4   8  -3   39.00    8.40
   4   8  -3   30.80    3.30
  -4   8   3   37.50    3.90
   3  -8  -3   54.19    6.80
  -3  -8   3   68.09    8.40
   3  -8  -3   51.69    6.80
   3  -8  -3   54.89    6.00
  -3  -8   3   49.00    7.30
  -3  -8   3   54.19    3.50
   3  -8  -3   51.99    3.60
   3  -8  -3   59.69    3.70
  -3  -8   3   64.39    6.60
  -3  -8   3   61.79    4.40
  -3   8   3   59.49    3.60
  -3   8   3   56.09    5.00
  -3   8   3   59.49    6.50
   3   8  -3   55.39    4.20
  -3   8   3   59.59    4.00
   3   8  -3   60.59    4.20
   3   8  -3   62.09    7.80
  -3   8   3   62.29    7.20
   3   8  -3   58.09    7.60
  -3   8   3   54.59    6.40
  -3   8   3   56.49    3.10
   3   8  -3   64.69    9.00
   3   8  -3   51.79    3.70
  -3   8   3   52.89    2.90
  -2  -8   3   -2.30    4.70
   2  -8  -3   -0.60    3.70
   2  -8  -3    0.50    1.20
  -2  -8   3   -2.10    4.50
  -2  -8   3   -3.90    4.90
  -2  -8   3   -1.00    1.40
  -2  -8   3   -0.70    1.00
   2  -8  -3    0.00    1.30
   2  -8  -3   -4.30    3.40
   2  -8  -3   -0.30    4.30
  -2   8   3   -0.30    1.20
   2   8  -3    0.60    4.30
  -2   8   3   -0.50    1.50
   2   8  -3   -0.30    1.30
  -2   8   3   -0.10    1.00
  -2   8   3    9.10    5.60
  -2   8   3    1.80    3.40
   2   8  -3    6.60    4.00
  -2   8   3    5.30    4.40
   2   8  -3    2.30    1.40
   2   8  -3    0.60    1.30
  -2   8   3    0.50    3.60
  -2   8   3    1.00    1.80
   2   8  -3    4.60    4.60
  -1  -8   3  267.97   13.80
  -1  -8   3  297.57   13.70
  -1  -8   3  283.07    9.30
   1  -8  -3  287.27   13.60
   1  -8  -3  263.17   12.60
   1  -8  -3  284.97    9.60
  -1  -8   3  291.97    9.60
  -1  -8   3  282.37    9.50
   1   8  -3  282.17   13.40
  -1   8   3  281.67    9.30
   1   8  -3  276.37   13.60
  -1   8   3  297.27   12.20
  -1   8   3  282.47    9.40
  -1   8   3  274.97    8.80
   1   8  -3  280.87    9.30
  -1   8   3  304.67   14.20
   1   8  -3  295.27   12.50
  -1   8   3  282.27   13.00
  -1   8   3  286.77    9.70
   1   8  -3  287.87    9.20
  -1   8   3  269.07   14.30
   1   8  -3  296.37    9.00
   0  -8   3   23.40    2.50
   0  -8   3   17.70    4.40
   0  -8   3   20.60    2.10
   0  -8   3   21.40    5.10
   0  -8  -3   19.60    4.40
   0  -8   3   20.20    2.40
   0  -8  -3   21.50    2.40
   0   8   3   18.90    2.50
   0   8   3   18.30    2.30
   0   8  -3   19.20    2.20
   0   8   3   20.30    2.00
   0   8   3   12.70    4.50
   0   8  -3   23.40    4.90
   0   8  -3   22.50    4.70
   0   8   3   17.80    5.10
   0   8  -3   21.10    2.00
   0   8  -3   19.40    2.10
   0   8  -3   14.40    3.70
   0   8   3   20.40    2.30
   0   8   3   23.20    5.20
   0   8  -3   23.80    2.20
   0   8   3   25.20    4.70
   0   8  -3   24.80    5.00
   1  -8   3   85.49    4.00
  -1  -8  -3   79.59    4.30
   1  -8   3   86.49    3.70
  -1  -8  -3   84.49    8.40
   1  -8   3   81.59    8.10
   1  -8   3   85.59    4.00
   1  -8   3   85.19    7.20
   1   8   3   94.49    7.90
  -1   8  -3   84.59    7.50
   1   8   3   71.59    8.20
  -1   8  -3   85.49    3.50
   1   8   3   79.09    4.50
  -1   8  -3   77.59    3.40
  -1   8  -3   86.29    7.00
  -1   8  -3   81.89    3.60
  -1   8  -3   82.19    6.30
   1   8   3   90.49    9.50
   1   8   3   84.09    4.70
  -1   8  -3   77.69    6.60
   1   8   3   78.89    4.00
   1   8   3   81.69    8.10
  -1   8  -3   79.89    3.90
   2  -8   3 1049.59   29.70
   2  -8   3 1005.30   31.10
   2  -8   3 1022.00   26.70
   2  -8   3 1022.70   27.30
   2  -8   3 1028.30   30.50
  -2  -8  -3  963.30   35.20
   2  -8   3 1041.20   32.50
   2  -8   3 1024.30   27.20
   2  -8   3 1008.60   27.90
  -2  -8  -3  977.90   27.70
  -2  -8  -3  959.50   32.40
  -2   8  -3 1054.79   26.70
   2   8   3 1020.70   27.70
  -2   8  -3 1017.00   26.60
   2   8   3  981.00   32.00
   2   8   3  992.70   34.00
   2   8   3 1027.00   32.60
   2   8   3 1002.80   27.80
   2   8   3 1029.10   28.70
  -3  -8  -3  326.27   16.10
  -3  -8  -3  355.16   19.30
  -3  -8  -3  329.07   11.20
   3  -8   3  340.67   16.20
  -3  -8  -3  325.37   11.50
   3  -8   3  323.27    9.70
   3  -8   3  331.27   14.10
   3  -8   3  328.37   13.10
   3  -8   3  325.07    9.70
   3  -8   3  327.57    9.90
   3  -8   3  318.47   12.50
   3  -8   3  325.57    9.80
   3  -8   3  332.47   13.80
   3  -8   3  340.07   10.90
  -3  -8  -3  304.47   18.30
   3  -8   3  319.97   10.00
   3  -8   3  344.17   13.10
   3   8   3  331.47   16.20
   3   8   3  308.47   11.60
   3   8   3  311.87   17.40
   3   8   3  319.37   10.80
   3   8   3  328.87   20.10
   4  -8   3   71.09    3.60
  -4  -8  -3   58.49    8.70
   4  -8   3   60.69    6.70
   4  -8   3   63.69    3.00
   4  -8   3   59.29    7.30
   4  -8   3   65.69    2.90
   4  -8   3   70.19    4.00
   4  -8   3   70.49    5.70
   4  -8   3   76.89    7.50
   4  -8   3   69.49    8.50
   4  -8   3   65.49    4.80
  -4  -8  -3   68.99    5.10
   4  -8   3   73.29    5.80
   4  -8   3   69.99    4.00
   4   8   3   72.69    4.50
  -4   8  -3   71.29    4.40
   4   8   3   80.39   10.70
  -4   8  -3   82.19    8.10
   4   8   3   69.59    5.60
  -5  -8  -3    3.00    2.80
  -5  -8  -3    4.60    2.30
   5  -8   3    8.60    2.30
   5  -8   3    5.30    6.80
   5  -8   3    4.00    1.70
  -5  -8  -3   20.40    7.90
  -5  -8  -3   16.10    7.50
  -5  -8  -3   -3.00    6.60
   5  -8   3    2.10    5.80
   5  -8   3    3.90    6.30
   5   8   3    4.60    8.30
   5   8   3   10.40    3.40
   5   8   3   31.90   10.60
   5   8   3    6.30    2.40
  -5   8  -3    5.00    2.20
   5   8   3    2.30    2.00
   5   8   3   14.90    7.70
  -5   8  -3    8.60    5.60
  -6  -8  -3  827.52   25.50
  -6  -8  -3  804.22   32.00
   6  -8   3  781.12   24.40
  -6  -8  -3  781.12   33.20
  -6  -8  -3  834.92   24.30
  -6  -8  -3  846.72   31.90
  -6  -8  -3  791.62   23.80
   6   8   3  797.52   24.40
   6   8   3  831.92   34.70
   6   8   3  729.93   36.10
   6   8   3  856.31   32.50
  -6   8  -3  802.82   29.60
  -6   8  -3  800.42   24.00
   6   8   3  815.82   23.80
   6   8   3  797.02   25.70
  -6  -9   3   16.10    4.70
  -6  -9   3   22.20    3.60
  -6  -9   3   36.80    8.70
   6  -9  -3   18.80    2.90
   6  -9  -3   18.10    7.00
  -6  -9   3    0.70   12.10
   6   9  -3   29.70   12.50
   6   9  -3   16.20    4.00
   6   9  -3   38.10   11.90
   6   9  -3   14.70    4.80
  -5  -9   3  165.78   12.60
  -5  -9   3  143.49    7.10
   5  -9  -3  136.09    7.40
   5  -9  -3  137.19    6.20
   5  -9  -3  156.98   12.30
  -5  -9   3  151.48    6.90
  -5  -9   3  164.38   14.90
  -5  -9   3  130.79   13.80
  -5  -9   3  155.38    7.90
   5  -9  -3  139.59   16.40
   5   9  -3  136.59   15.60
   5   9  -3  162.28   16.40
   5   9  -3  150.48    7.80
  -5   9   3  139.49    6.40
  -5   9   3  144.29   12.30
   5   9  -3  155.88    9.40
  -4  -9   3   52.09    3.90
  -4  -9   3   54.49    7.70
  -4  -9   3   51.19    9.10
   4  -9  -3   51.09    4.00
   4  -9  -3   59.49    5.80
  -4  -9   3   55.89    8.90
  -4  -9   3   54.29    5.10
   4  -9  -3   47.10    7.40
   4   9  -3   46.00    8.90
  -4   9   3   53.19    5.10
   4   9  -3   52.59    8.90
   4   9  -3   48.70    5.10
  -4   9   3   51.79    4.60
   4   9  -3   50.39    4.70
  -4   9   3   63.49    8.00
  -4   9   3   49.40    4.10
   3  -9  -3   -7.60    6.00
  -3  -9   3   -1.10    4.20
   3  -9  -3   -2.10    4.30
  -3  -9   3    0.00    5.20
  -3  -9   3    1.20    1.70
   3  -9  -3   -2.80    1.90
  -3  -9   3    1.00    1.60
   3  -9  -3   -3.60    3.80
   3  -9  -3    1.30    1.50
  -3   9   3    3.10    3.90
  -3   9   3   -0.30    1.70
  -3   9   3    0.70    1.80
  -3   9   3    1.50    1.50
   3   9  -3    1.60    2.40
  -3   9   3    0.00    1.30
  -3   9   3    6.40    4.00
   3   9  -3   -4.00    7.80
   3   9  -3    5.50    6.20
   3   9  -3    0.00    1.90
   3   9  -3   -0.80    1.60
  -3   9   3   -6.80    5.00
  -3   9   3    0.00    5.00
  -2  -9   3  296.37   15.90
  -2  -9   3  324.27   16.40
  -2  -9   3  313.97   10.80
   2  -9  -3  318.07   14.10
   2  -9  -3  320.57   15.40
   2  -9  -3  302.67   10.40
  -2  -9   3  303.67   10.50
   2  -9  -3  310.17   15.10
   2  -9  -3  310.67   10.10
  -2   9   3  322.37   10.80
  -2   9   3  292.87   15.00
  -2   9   3  307.87   10.20
  -2   9   3  302.87    9.50
   2   9  -3  306.97   10.20
   2   9  -3  316.77   10.80
  -2   9   3  305.27    9.90
   2   9  -3  320.07   16.40
  -2   9   3  309.57   13.20
   2   9  -3  345.17   18.50
  -2   9   3  324.47   15.80
   2   9  -3  322.67   15.30
  -2   9   3  301.97   13.60
  -1  -9   3   34.40    2.90
   1  -9  -3   22.60    5.50
  -1  -9   3   32.70    6.30
   1  -9  -3   29.50    3.20
  -1  -9   3   18.70    5.60
  -1  -9   3   23.50    2.60
   1  -9  -3   39.70    6.10
  -1   9   3   23.80    6.70
   1   9  -3   26.80    6.20
   1   9  -3   30.90    5.50
  -1   9   3   25.50    5.60
  -1   9   3   26.30    4.80
  -1   9   3   27.20    5.50
   1   9  -3   23.20    2.60
  -1   9   3   25.50    2.50
   1   9  -3   25.20    6.60
  -1   9   3   22.90    2.90
  -1   9   3   26.50    2.80
  -1   9   3   28.70    3.20
   1   9  -3   26.60    3.10
   1   9  -3   24.40    2.60
   0  -9   3   25.30    2.80
   0  -9  -3   22.10    4.90
   0  -9   3   27.90    6.00
   0  -9   3   33.70    5.80
   0  -9   3   24.90    2.70
   0  -9  -3   26.10    3.10
   0  -9   3   25.90    2.60
   0   9   3   23.20    2.70
   0   9   3   11.00    5.00
   0   9   3   32.70    5.50
   0   9  -3   28.80    5.20
   0   9   3   30.00    3.50
   0   9   3   29.90    3.60
   0   9   3   20.50    6.00
   0   9  -3   29.70    5.60
   0   9  -3   25.00    4.90
   0   9  -3   22.40    2.60
   0   9  -3   30.20    2.50
   0   9   3   23.30    2.30
   0   9   3   36.80    6.40
   0   9  -3   33.30    4.60
   0   9  -3   25.10    2.90
  -1  -9  -3  636.74   23.50
   1  -9   3  648.84   18.20
   1  -9   3  608.84   18.10
   1  -9   3  632.84   17.50
   1  -9   3  628.44   21.10
   1  -9   3  634.74   23.10
  -1  -9  -3  607.84   18.60
  -1   9  -3  627.84   20.60
   1   9   3  618.94   18.90
   1   9   3  640.64   27.00
  -1   9  -3  638.94   17.30
  -1   9  -3  634.14   20.60
  -1   9  -3  636.94   17.30
  -1   9  -3  637.14   17.40
  -1   9  -3  634.84   22.20
   1   9   3  603.34   22.40
   1   9   3  620.44   18.20
  -1   9  -3  634.64   18.10
   1   9   3  646.24   24.20
   1   9   3  610.54   22.90
   1   9   3  632.24   18.90
  -1   9  -3  637.44   20.40
   2  -9   3    2.00    2.10
   2  -9   3   -1.30    4.80
   2  -9   3    3.50    3.70
   2  -9   3    0.30    1.10
   2  -9   3    1.10    1.40
   2  -9   3   -0.40    4.50
   2  -9   3   -0.70    1.30
   2  -9   3   -0.20    1.40
   2  -9   3    7.30    6.40
   2  -9   3    6.10    4.30
   2   9   3   17.60    5.90
   2   9   3   -0.70    1.80
  -2   9  -3   -0.70    2.60
  -2   9  -3    1.70    0.90
  -2   9  -3    0.20    2.60
  -2   9  -3    1.60    0.90
   2   9   3    2.90    1.50
   3  -9   3   83.79    7.80
  -3  -9  -3   81.69    5.20
  -3  -9  -3   87.29    9.80
   3  -9   3   81.49    4.70
   3  -9   3   80.39    8.10
   3  -9   3   79.99    4.10
   3  -9   3   76.49    7.60
   3  -9   3   82.29    9.40
   3  -9   3   79.89    5.30
   3  -9   3   76.29    7.40
   3  -9   3   80.19    3.90
   3  -9   3   80.89    4.10
   3  -9   3   84.69    4.20
   3  -9   3   79.19    8.70
   3   9   3   83.79    4.80
   3   9   3   74.39    9.50
   3   9   3   70.39    5.50
   4  -9   3 1146.09   30.30
   4  -9   3 1142.39   30.90
   4  -9   3 1143.99   32.70
   4  -9   3 1162.78   30.30
   4  -9   3 1175.28   37.50
   4  -9   3 1128.09   30.80
   4  -9   3 1166.98   35.60
   4  -9   3 1154.18   35.10
   4  -9   3 1176.68   35.20
   4  -9   3 1136.89   31.80
   4  -9   3 1182.28   32.90
  -4  -9  -3 1136.19   39.20
   4  -9   3 1170.88   31.00
  -4  -9  -3 1200.68   32.80
   4   9   3 1171.28   33.50
   4   9   3 1137.59   41.00
   5  -9   3  496.75   19.00
  -5  -9  -3  478.75   16.10
   5  -9   3  481.35   13.80
   5  -9   3  492.95   20.70
  -5  -9  -3  512.15   24.60
   5  -9   3  457.55   14.30
  -5  -9  -3  482.15   23.80
  -5  -9  -3  477.05   16.70
   5  -9   3  466.85   20.10
   5   9   3  473.35   27.50
   5   9   3  468.45   17.10
   5   9   3  465.15   22.90
   5   9   3  476.05   16.30
   5   9   3  518.75   34.40
   5   9   3  464.65   15.60
  -6  -9  -3  194.58   21.70
  -6  -9  -3  247.08   11.20
  -6  -9  -3  247.88   11.30
  -6  -9  -3  246.38   18.90
  -6  -9  -3  253.87   12.30
   6   9   3  256.97   22.40
   6   9   3  248.68   10.30
   6   9   3  265.07   10.80
   6   9   3  237.88   24.90
   6   9   3  269.37   12.40
   6   9   3  240.78   20.80
   6 -10  -3   54.89    8.70
  -6 -10   3   49.90   13.00
   6 -10  -3   44.20    4.80
  -6 -10   3   57.69    6.30
   6  10  -3   49.80   12.60
   6  10  -3   54.99    5.80
  -5 -10   3   52.19    5.30
  -5 -10   3   44.80    4.80
  -5 -10   3   49.50    4.70
  -5 -10   3   53.59    9.50
   5 -10  -3   53.99    8.60
   5 -10  -3   54.19    4.70
  -5 -10   3   38.00   10.60
  -5 -10   3   36.70   10.40
   5  10  -3   52.19   11.50
  -5  10   3   22.80    7.30
   5  10  -3   55.49    6.40
   4 -10  -3  283.17   10.00
  -4 -10   3  295.67   11.50
  -4 -10   3  290.17   14.90
   4 -10  -3  294.27   15.80
  -4 -10   3  290.87   10.20
  -4 -10   3  292.57   19.20
   4  10  -3  286.47   11.40
   4  10  -3  284.87   11.10
  -4  10   3  302.97   10.40
  -4  10   3  257.37   16.40
   4  10  -3  278.87   18.40
   4  10  -3  321.17   20.30
   3 -10  -3  208.28    8.00
  -3 -10   3  213.08   12.00
  -3 -10   3  187.08   11.00
  -3 -10   3  204.38    7.60
   3 -10  -3  208.28   13.20
  -3 -10   3  213.78   24.20
   3 -10  -3  183.18   11.70
   3  10  -3  205.88    8.60
  -3  10   3  216.58    7.20
  -3  10   3  201.88    8.30
  -3  10   3  207.48   10.80
   3  10  -3  190.28   17.30
  -3  10   3  202.88   11.50
   3  10  -3  205.78    8.20
  -3  10   3  207.88    6.90
   3  10  -3  218.68    8.90
   3  10  -3  218.78   16.80
   3  10  -3  206.98   14.90
  -3  10   3  191.98   14.20
   2 -10  -3   16.50    6.40
   2 -10  -3   13.90    2.60
  -2 -10   3    9.90    1.90
   2 -10  -3    8.20    5.80
  -2  10   3   12.60    2.30
  -2  10   3   12.80    2.70
  -2  10   3    2.60    6.00
  -2  10   3    5.00    5.10
  -2  10   3    9.40    2.50
   2  10  -3   15.10    2.10
  -2  10   3    9.30    1.80
   2  10  -3   11.40    6.30
  -2  10   3   12.90    7.10
   2  10  -3   16.10    6.50
  -2  10   3    9.60    4.80
  -1 -10   3  701.73   25.80
   1 -10  -3  724.63   21.00
   1 -10  -3  714.83   26.30
   1 -10  -3  708.73   25.50
  -1 -10   3  722.33   20.50
  -1  10   3  729.93   27.10
  -1  10   3  614.54   21.30
  -1  10   3  708.43   19.90
   1  10  -3  725.43   26.10
  -1  10   3  713.93   24.30
   1  10  -3  721.33   20.50
  -1  10   3  741.53   21.20
  -1  10   3  736.03   20.70
   1  10  -3  708.93   24.70
  -1  10   3  700.63   25.30
   1  10  -3  729.13   20.20
   0 -10   3   15.30    6.00
   0 -10  -3   14.90    5.00
   0 -10   3   11.50    5.80
   0 -10   3   11.20    2.10
   0 -10  -3   10.30    2.20
   0 -10  -3    9.40    5.90
   0 -10   3    8.90    2.00
   0  10  -3   18.40    6.30
   0  10  -3   10.70    1.90
   0  10   3   15.50    5.00
   0  10   3   11.80    5.90
   0  10  -3   15.40    6.80
   0  10  -3   10.60    1.90
   0  10  -3   14.10    5.40
   0  10  -3    9.40    2.20
   0  10   3    8.60    1.80
   0  10   3   11.70    2.60
   0  10   3   10.70    2.50
   0  10   3   17.80    6.20
   0  10  -3   14.20    4.70
   1 -10   3   86.99    8.40
   1 -10   3   89.19    5.20
   1 -10   3   98.79   10.60
   1 -10   3   97.69    4.70
   1 -10   3  119.69   10.30
  -1 -10  -3   99.49   10.20
  -1 -10  -3   96.49    5.20
   1 -10   3   92.09    4.80
   1 -10   3   93.49    5.50
   1  10   3  101.29    5.90
   1  10   3   86.29    9.90
  -1  10  -3   94.09    4.70
   1  10   3   99.69    5.10
   1  10   3   99.69    5.70
   1  10   3   83.89    9.30
  -1  10  -3   90.19    8.20
  -1  10  -3  122.59    9.90
  -1  10  -3   99.69    4.20
   2 -10   3    4.50    2.50
   2 -10   3    3.70    5.40
  -2 -10  -3    3.10    2.10
   2 -10   3    4.00    7.40
   2 -10   3    7.50    2.10
  -2 -10  -3    1.00    7.30
   2 -10   3    5.50    1.60
   2 -10   3    4.70    1.70
   2 -10   3    6.20    5.80
   2 -10   3    3.70    1.80
  -2 -10  -3   -2.30    5.30
   2 -10   3    7.60    4.60
   2  10   3    0.20    6.80
   2  10   3    6.30    2.80
   2  10   3    7.40    1.80
  -2  10  -3    6.20    1.20
  -2  10  -3   -0.30    3.30
  -2  10  -3    8.50    3.50
  -2  10  -3    5.70    1.30
   3 -10   3  812.92   22.10
   3 -10   3  779.82   23.30
   3 -10   3  817.52   27.50
   3 -10   3  785.32   26.50
   3 -10   3  785.72   22.30
   3 -10   3  802.82   26.30
  -3 -10  -3  813.52   23.90
   3 -10   3  796.42   29.80
   3 -10   3  785.92   26.40
  -3 -10  -3  863.61   30.90
   3 -10   3  811.22   22.60
   3 -10   3  821.42   22.30
   3  10   3  763.12   31.70
   3  10   3  825.42   24.60
   4 -10   3    0.40    4.10
   4 -10   3   -0.20    1.50
   4 -10   3    2.40    3.80
   4 -10   3    1.60    1.80
   4 -10   3   13.10    9.80
   4 -10   3    4.10    4.10
  -4 -10  -3    2.10    8.50
  -4 -10  -3   -2.30    2.70
   4 -10   3    0.20    1.40
   4 -10   3    0.40    6.40
   4  10   3   -1.00    3.80
   5 -10   3    0.10    8.10
  -5 -10  -3   -2.70    7.20
  -5 -10  -3   -2.20    2.80
  -5 -10  -3   13.70   10.70
   5 -10   3    1.60    2.50
   5 -10   3   12.90    8.00
  -5 -10  -3    3.80    3.50
   5  10   3    2.80   11.60
   5  10   3   -1.10    3.40
   5  10   3    6.00    2.80
   5 -11  -3   34.20    8.80
  -5 -11   3   36.70    5.20
  -5 -11   3   38.70   12.00
  -5 -11   3   29.10    4.00
  -5 -11   3   28.30    8.50
   5 -11  -3   29.80    3.60
  -5 -11   3   23.60   12.50
  -5 -11   3   29.60    3.80
   5  11  -3   28.30   13.90
   5  11  -3   25.60   11.40
   5  11  -3   32.90    4.60
  -4 -11   3   97.39   12.90
  -4 -11   3   79.79    6.20
   4 -11  -3   92.79    5.70
   4 -11  -3   86.79    9.70
  -4 -11   3  106.19    6.90
  -4 -11   3   88.99    5.40
  -4 -11   3  118.89   11.10
   4  11  -3   91.29   13.20
   4  11  -3   87.49    5.80
   4  11  -3  100.99    7.00
   4  11  -3   88.79   13.60
   4  11  -3   88.99    9.00
   4  11  -3  103.29   20.30
  -4  11   3   68.59   10.20
  -4  11   3   91.59    6.20
  -3 -11   3    2.50    2.20
  -3 -11   3    6.20    5.00
   3 -11  -3   -4.10    6.50
  -3 -11   3    7.60    2.40
   3 -11  -3   10.60    2.50
  -3 -11   3   16.80    8.70
   3 -11  -3   10.20    6.60
  -3 -11   3    4.10    7.70
   3  11  -3    1.40    2.30
  -3  11   3    9.70    2.30
  -3  11   3    9.40    2.80
   3  11  -3    3.60    2.20
   3  11  -3    7.80    2.80
   3  11  -3   19.40    7.40
  -3  11   3   10.60    2.80
  -3  11   3    7.80    1.80
  -3  11   3   14.90    5.60
  -3  11   3    9.00    6.00
   3  11  -3   12.30    7.60
  -3  11   3    5.50    6.80
  -3  11   3   16.70    8.00
   2 -11  -3   17.10    2.90
  -2 -11   3   12.80    2.30
   2 -11  -3    3.90    5.80
   2 -11  -3   18.40    7.30
  -2  11   3   15.20    2.70
   2  11  -3   14.10    2.30
  -2  11   3   18.10    2.10
  -2  11   3   10.50    6.20
   2  11  -3   13.50    6.90
   2  11  -3   22.10    6.40
  -2  11   3   17.70    6.90
  -2  11   3    9.70    2.70
  -2  11   3    6.60    5.40
   1 -11  -3  159.58   13.50
  -1 -11   3  190.58    8.30
  -1 -11   3  185.68    7.80
   1 -11  -3  176.28    7.80
   1 -11  -3  168.48   14.40
  -1 -11   3  193.48   15.50
   1  11  -3  169.38   12.50
   1  11  -3  204.38   13.40
  -1  11   3  183.08   12.00
  -1  11   3  182.68   14.70
  -1  11   3  179.78   13.20
  -1  11   3  185.18    8.30
  -1  11   3  182.08    7.80
   1  11  -3  169.48    7.90
   1  11  -3  198.08    7.10
  -1  11   3  182.48    6.90
   0 -11  -3  351.36   18.40
   0 -11   3  354.36   18.60
   0 -11   3  350.26   11.60
   0 -11   3  386.16   18.40
   0 -11  -3  368.36   12.50
   0 -11   3  348.17   12.30
   0  11  -3  314.57   19.70
   0  11  -3  295.07   12.80
   0  11  -3  363.06   11.20
   0  11   3  356.56   19.10
   0  11   3  376.26   12.80
   0  11  -3  363.86   11.30
   0  11   3  352.66   12.40
   0  11   3  378.76   18.70
   0  11   3  373.46   17.00
   0  11  -3  367.86   16.20
   0  11  -3  358.16   16.70
   1 -11   3  628.54   19.30
   1 -11   3  620.44   23.90
   1 -11   3  679.63   25.20
   1 -11   3  569.84   21.70
  -1 -11  -3  644.04   19.70
   1 -11   3  661.53   18.70
  -1 -11  -3  636.74   25.90
   1 -11   3  575.74   32.50
  -1 -11  -3  672.23   19.90
  -1  11  -3  695.43   23.10
   1  11   3  657.63   26.70
  -1  11  -3  630.14   21.90
  -1  11  -3  682.53   18.10
  -1  11  -3  664.33   18.20
   1  11   3  659.43   20.10
   1  11   3  622.24   22.20
   2 -11   3    1.90    1.50
   2 -11   3    1.30    1.90
   2 -11   3    5.00    6.90
   2 -11   3    1.90    2.40
  -2 -11  -3   -5.60    6.50
   2 -11   3    2.90    6.80
  -2 -11  -3   -6.60    6.30
  -2 -11  -3    3.80    2.30
   2 -11   3    3.00    2.10
   2 -11   3    4.90    5.70
   2  11   3    2.30    7.30
  -2  11  -3    4.00    2.00
   2  11   3    4.00    2.50
  -2  11  -3    3.80    5.60
  -2  11  -3    1.30    3.50
  -2  11  -3    5.40    1.10
  -3 -11  -3  168.28    8.60
   3 -11   3  163.38   12.40
   3 -11   3  182.78    6.90
   3 -11   3  170.48   14.50
   3 -11   3  174.28    7.20
   3 -11   3  172.98    7.10
   3 -11   3  171.18   14.10
   3 -11   3  174.58    7.10
  -3 -11  -3  159.58   16.60
   3 -11   3  172.28   11.60
   3  11   3  176.08    8.80
   3  11   3  172.08   17.20
   4 -11   3  352.46   11.00
   4 -11   3  380.36   15.70
   4 -11   3  349.47   15.10
   4 -11   3  347.67   11.00
  -4 -11  -3  367.96   22.70
   4 -11   3  346.27   11.70
   4 -11   3  368.46   18.70
  -4 -11  -3  362.16   13.60
   4  11   3  343.47   13.70
   4  11   3  338.27   23.70
  -5 -11  -3   19.30   12.50
  -5 -11  -3    3.70    4.30
  -5 -11  -3   -0.20    3.30
  -5 -11  -3    7.60    9.60
   5 -11   3   -9.30    3.90
   5 -11   3    4.90    4.20
   5  11   3    2.40    4.00
   5  11   3    0.00    3.20
   5  11   3   15.50   13.00
   5 -12  -3   11.30    3.10
  -5 -12   3   19.30   13.40
   5 -12  -3   13.00    8.20
  -5 -12   3   10.20    4.80
  -5 -12   3    3.80    3.70
  -5 -12   3   12.40    3.60
  -5 -12   3   -7.60   15.10
   5 -12  -3   12.60    9.60
  -5 -12   3   17.80    8.30
   5 -12  -3   10.30    3.10
   5  12  -3   31.70   13.20
   5  12  -3   16.20    4.20
  -4 -12   3  255.57   11.00
  -4 -12   3  227.78    9.10
  -4 -12   3  222.18   14.80
  -4 -12   3  218.38   10.10
   4 -12  -3  223.38   17.10
   4 -12  -3  230.98    9.30
  -4 -12   3  207.98   20.90
  -4 -12   3  272.97   22.50
  -4  12   3  221.48    9.80
   4  12  -3  232.58   10.30
   4  12  -3  194.58   22.00
   4  12  -3  206.28   20.40
   4  12  -3  222.28    9.60
  -4  12   3  203.28   18.20
  -3 -12   3   12.30    6.10
  -3 -12   3    2.90   10.50
   3 -12  -3    7.20    2.60
  -3 -12   3    2.80    2.30
  -3 -12   3    1.60    3.00
  -3 -12   3    1.50    2.70
   3 -12  -3   -2.90    7.30
  -3  12   3   14.60    6.20
   3  12  -3    3.20    2.60
  -3  12   3    7.80    3.10
  -3  12   3   -2.60    2.50
   3  12  -3   12.60    8.30
  -3  12   3   -1.60    8.10
  -3  12   3    4.00    1.90
  -3  12   3    4.10    6.70
  -2 -12   3   18.70    9.00
   2 -12  -3    5.80    2.50
   2 -12  -3   15.00    7.70
   2 -12  -3    9.80    8.70
  -2 -12   3    6.50    2.90
  -2  12   3   -1.70    6.00
   2  12  -3   10.20    2.40
  -2  12   3    7.70    3.10
  -2  12   3   14.80    7.80
  -2  12   3    7.00    2.80
   2  12  -3    5.60    6.90
  -2  12   3   10.10    2.10
  -2  12   3    7.40    8.00
  -1 -12   3   10.50    3.20
  -1 -12   3   22.60    9.30
   1 -12  -3    9.00    6.60
   1 -12  -3   11.00    2.50
  -1  12   3   10.00    2.90
  -1  12   3   13.10    7.40
   1  12  -3   11.70    7.50
  -1  12   3   13.50    2.20
  -1  12   3   11.40    2.90
  -1  12   3   -2.50    7.30
  -1  12   3   -1.80    9.10
   1  12  -3    4.40    6.20
   1  12  -3    7.80    2.30
   0 -12  -3   18.80    3.00
   0 -12   3   25.40    3.70
   0 -12   3   26.20    7.90
   0 -12  -3   17.30    7.20
   0  12   3   27.00    4.00
   0  12   3   17.60    3.40
   0  12  -3   15.20    6.90
   0  12   3   10.90    8.30
   0  12  -3   18.90    2.70
   0  12   3   19.00    8.50
   0  12  -3   24.40    2.70
   0  12  -3   26.70    6.90
  -1 -12  -3  144.29    7.30
   1 -12   3  140.99   14.00
   1 -12   3  122.49    6.70
   1 -12   3  164.38   15.80
   1 -12   3  124.79    7.10
   1 -12   3  146.29   15.10
  -1 -12  -3  150.68    7.30
  -1 -12  -3  139.69   13.60
   1  12   3  138.99    7.70
  -1  12  -3  173.88   13.40
   1  12   3  148.19   15.90
  -1  12  -3  187.68   11.60
  -1  12  -3  129.09    6.30
  -1  12  -3  139.39    5.70
  -2 -12  -3  218.78   17.30
   2 -12   3  242.88   17.20
   2 -12   3  261.87    9.70
   2 -12   3  222.58   16.00
  -2 -12  -3  241.88   10.40
  -2 -12  -3  262.77   18.20
   2 -12   3  259.37   16.40
   2 -12   3  222.28   10.10
   2 -12   3  232.58   20.60
   2 -12   3  249.48    9.00
   2 -12   3  234.08    9.20
   2  12   3  239.88   19.20
   2  12   3  232.98   10.30
  -2  12  -3  225.48   10.50
  -2  12  -3  244.08    7.20
   3 -12   3   -7.00    5.90
  -3 -12  -3   11.60   10.30
   3 -12   3    8.90    2.40
   3 -12   3   11.50    2.80
   3 -12   3   18.60    8.60
   3 -12   3   11.90    2.70
   3 -12   3   10.60    6.80
  -3 -12  -3   13.00    3.20
   3  12   3    2.60    2.80
   3  12   3   11.80    9.30
   4 -12   3   11.40    3.00
   4 -12   3    6.20    6.50
   4 -12   3   14.20    2.80
  -4 -12  -3   14.70   10.90
   4 -12   3   12.80    2.50
   4 -12   3    9.60    6.10
  -4 -12  -3    7.80    3.50
   4 -12   3   -2.60    9.20
   4  12   3   26.00   11.70
  -4 -13   3    7.00    3.70
   4 -13  -3   10.50    3.40
  -4 -13   3   13.70    7.30
   4 -13  -3    2.30    3.00
   4 -13  -3    1.00    7.80
  -4 -13   3    7.50    3.00
  -4 -13   3   11.10   12.90
   4 -13  -3   14.20    9.60
  -4 -13   3    7.60   11.60
   4  13  -3   -5.90   11.60
   4  13  -3    8.20    3.60
   3 -13  -3   41.50    4.60
   3 -13  -3   18.20    9.20
  -3 -13   3   32.80    3.90
  -3 -13   3   39.40    5.10
  -3 -13   3   22.50    4.50
  -3 -13   3   34.20   12.60
  -3 -13   3   39.10    7.80
  -3 -13   3   25.80   12.10
  -3  13   3   36.70    4.00
  -3  13   3   36.00    3.80
  -3  13   3   42.20    9.40
   3  13  -3   28.60    3.90
   3  13  -3   59.89   11.60
  -3  13   3   35.90    8.00
   2 -13  -3  472.95   15.60
  -2 -13   3  456.65   16.30
  -2 -13   3  444.76   26.00
   2 -13  -3  459.65   24.20
   2  13  -3  429.26   22.00
   2  13  -3  460.65   15.10
  -2  13   3  450.75   15.10
  -2  13   3  464.65   20.00
  -2  13   3  456.55   14.10
  -2  13   3  489.65   22.40
   2  13  -3  470.75   14.90
  -1 -13   3  145.79    8.40
   1 -13  -3  159.48    8.60
  -1 -13   3  129.29   13.90
   1 -13  -3  165.78   16.00
  -1  13   3  133.99    6.30
  -1  13   3  140.69   13.50
   1  13  -3  146.39    6.80
  -1  13   3  127.69    7.60
  -1  13   3  150.78   13.60
   1  13  -3  146.19   14.80
   1  13  -3  135.49    6.80
   1  13  -3  163.98   14.30
   0 -13   3  251.27   10.70
   0 -13  -3  255.47   10.50
   0 -13   3  292.87   19.80
   0 -13  -3  263.87   18.70
   0  13   3  294.57   19.90
   0  13   3  248.48    9.20
   0  13   3  245.48   15.90
   0  13  -3  229.68    9.30
   0  13  -3  255.07   24.90
   0  13   3  262.47   10.70
   0  13  -3  235.18   16.20
   0  13  -3  214.98   11.30
  -1 -13  -3  376.66   14.20
   1 -13   3  404.06   14.20
  -1 -13  -3  399.06   22.70
   1 -13   3  407.16   23.10
   1 -13   3  410.46   14.40
  -1 -13  -3  418.66   15.00
   1 -13   3  418.46   21.60
   1  13   3  391.06   14.60
  -1  13  -3  407.96   12.40
  -1  13  -3  405.36   18.30
   1  13   3  395.66   23.90
   2 -13   3  115.79   13.50
   2 -13   3  135.09    7.50
   2 -13   3  131.39   13.20
   2 -13   3  126.89    7.00
   2 -13   3  123.49    6.50
  -2 -13  -3  128.09    7.90
  -2 -13  -3  119.69   15.00
   2  13   3  128.09    8.00
   2  13   3  132.89   16.00
   3 -13   3   22.70    3.70
   3 -13   3   25.70    8.80
  -3 -13  -3   21.00    4.20
   3 -13   3   25.70   10.30
   3 -13   3   14.10    8.50
   3 -13   3   21.20    3.70
  -3 -13  -3   28.40   11.80
   3 -13   3   23.30    3.40
   3  13   3   12.80    3.80
   3  13   3   20.50   12.30
   4 -13   3  162.88   16.90
  -4 -13  -3  143.79   17.60
   4 -13   3  164.68    8.30
   4 -13   3  142.39   14.70
   4 -13   3  146.79    7.00
   4 -13   3  160.48   15.60
  -4 -13  -3  142.79   10.20
   4 -13   3  143.49    7.90
  -3 -14   3   81.49    8.80
  -3 -14   3   88.19    8.00
  -3 -14   3   96.49   16.00
   3 -14  -3   90.49   13.50
  -3 -14   3   91.99   10.30
   3 -14  -3   83.99    7.30
  -3 -14   3  102.79   16.00
  -3 -14   3   90.99    6.00
   3  14  -3   96.09    6.60
   3  14  -3   88.69   13.20
   2 -14  -3  196.18   13.70
   2 -14  -3  235.88   27.40
  -2 -14   3  248.68   11.80
  -2 -14   3  252.17   24.20
   2  14  -3  248.38   20.30
   2  14  -3  246.68   19.40
  -2  14   3  252.77   16.40
   2  14  -3  251.27    9.90
   2  14  -3  238.98   10.00
  -2  14   3  235.58    9.00
  -2  14   3  222.18   19.00
  -2  14   3  235.58   10.30
   1 -14  -3  513.05   27.50
   1 -14  -3  525.65   18.20
  -1 -14   3  597.24   30.50
  -1 -14   3  548.55   18.90
  -1  14   3  536.25   18.00
  -1  14   3  536.15   23.30
   1  14  -3  559.54   25.10
  -1  14   3  515.75   26.50
   1  14  -3  564.64   17.30
   1  14  -3  562.24   26.20
   1  14  -3  557.14   17.20
  -1  14   3  545.25   16.70
   0 -14  -3    4.20    2.90
   0 -14   3   -2.90    3.60
   0 -14  -3    3.60    9.60
   0 -14   3    9.70    9.90
   0  14   3    1.60   10.70
   0  14   3    5.30    2.40
   0  14  -3    3.10    2.50
   0  14   3   -6.60    8.60
   0  14   3    8.00    3.70
   0  14  -3   -1.60    2.70
   0  14  -3    5.90    8.70
   0  14  -3   -1.60    8.60
  -1 -14  -3    4.20    3.00
   1 -14   3   -1.50    5.10
   1 -14   3    6.10    3.50
  -1 -14  -3   -0.30    9.50
   1 -14   3    5.20   10.20
   1  14   3   15.60   11.00
   1  14   3    1.00    2.40
  -1  14  -3    0.10    2.30
  -1  14  -3   10.80    7.90
   1  14   3    3.20    9.00
   1  14   3    1.40    3.50
  -2 -14  -3  147.39   17.40
   2 -14   3  191.98    8.80
   2 -14   3  201.78    9.50
  -2 -14  -3  212.98   10.50
   2 -14   3  185.28   19.70
   2 -14   3  242.98   20.80
  -2 -14  -3  197.48   10.10
   2 -14   3  215.58   18.50
   2 -14   3  198.58    9.50
  -2 -14  -3  192.18   20.60
   2  14   3  199.48   10.50
   2  14   3  203.08   22.10
   3 -14   3  340.47   21.80
   3 -14   3  288.67   20.00
  -3 -14  -3  309.27   26.80
   3 -14   3  305.27   11.80
   3 -14   3  331.07   23.70
   3 -14   3  327.67   12.30
  -3 -14  -3  326.07   13.80
   3 -14   3  352.96   12.50
   3  14   3  312.97   27.10
   2 -15  -3   34.10    5.50
  -2 -15   3   33.40    6.10
  -2 -15   3   67.19   15.70
   2 -15  -3   22.70   13.40
   2  15  -3   31.30   12.20
   2  15  -3   45.80    4.80
  -2  15   3   29.70    4.00
  -2  15   3   44.00    5.30
  -2  15   3   36.60   10.60
   2  15  -3   27.40   13.10
  -2  15   3   26.90   12.30
  -1 -15   3   24.10    5.30
  -1 -15   3   39.50   14.20
   1 -15  -3   27.20   13.40
   1 -15  -3   35.10    5.30
  -1  15   3   41.50    8.80
   1  15  -3   20.90    3.60
   1  15  -3   25.60   11.20
   1  15  -3   31.10    4.30
   1  15  -3   13.80   11.30
  -1  15   3   33.90    3.70
  -1  15   3   25.10   21.80
  -1  15   3   42.10   10.40
   0 -15   3  117.99    9.50
   0 -15   3  141.89   17.70
   0 -15  -3  149.79    9.30
   0 -15  -3  119.09   16.50
   0  15   3  112.69    9.40
   0  15  -3  115.39   13.20
   0  15   3  142.19   16.20
   0  15  -3  135.09    7.40
   0  15  -3  126.09    7.30
   0  15  -3  141.79   14.70
   0  15   3  102.69   13.50
   0  15   3  128.69    7.10
  -1 -15  -3  122.79   15.80
  -1 -15  -3  126.79    9.30
   1 -15   3  139.89    9.40
   1 -15   3  140.59   17.40
   1  15   3  113.89   14.00
   1  15   3  126.39   18.70
   1  15   3  122.89    9.30
   7   0  -4    1.10    6.50
  -7   0   4    3.50    6.70
   7   0  -4    2.40    2.40
  -7   0   4    1.00    2.10
  -6   0   4   42.10    3.90
  -6   0   4   38.40    4.70
   6   0  -4   39.00    6.70
  -6   0   4   33.20    3.60
  -6   0   4   32.30    6.30
   6   0  -4   34.00    3.70
  -6   0   4   38.20    6.60
   5   0  -4   -3.60    1.60
  -5   0   4   -0.90    1.60
  -5   0   4    1.10    1.30
  -5   0   4    0.30    3.60
   5   0  -4    4.40    4.30
   5   0  -4    0.70    1.60
   5   0  -4    0.00    1.50
  -5   0   4    0.40    1.50
   5   0  -4   -3.50    5.20
  -5   0   4    2.40    3.70
  -5   0   4    0.30    1.10
  -5   0   4   -0.10    4.20
  -5   0   4   -4.90    3.80
  -4   0   4  925.11   24.40
  -4   0   4  908.31   28.30
  -4   0   4  941.71   25.30
   4   0  -4  916.01   30.90
   4   0  -4  917.11   25.80
  -4   0   4  925.61   28.00
  -4   0   4  912.21   25.20
   4   0  -4  914.31   26.20
  -4   0   4  941.91   26.70
  -4   0   4  963.00   29.00
   4   0  -4  916.21   25.30
  -4   0   4  941.51   24.80
   4   0  -4  909.71   29.10
  -3   0   4   -0.20    0.80
   3   0  -4   -2.30    2.80
   3   0  -4    0.40    1.10
   3   0  -4    0.70    3.00
  -3   0   4   -2.00    2.60
  -3   0   4    2.80    2.50
  -3   0   4   -1.00    3.00
   3   0  -4    2.10    3.10
  -3   0   4    1.10    0.90
   3   0  -4    0.70    0.90
  -3   0   4    0.00    0.80
  -3   0   4   -0.70    2.30
   3   0  -4    0.30    1.00
  -3   0   4   -0.40    1.00
   2   0  -4  223.48    7.40
   2   0  -4  225.18   10.30
  -2   0   4  219.18    7.10
  -2   0   4  213.48    8.30
   2   0  -4  231.28    7.20
  -2   0   4  237.68    9.90
   2   0  -4  216.38    9.90
  -2   0   4  225.38    6.70
  -2   0   4  223.38    7.40
   1   0  -4    0.30    1.10
  -1   0   4    0.00    1.10
   1   0  -4   -0.20    0.70
   1   0  -4   -3.00    2.10
  -1   0   4   -0.70    2.20
   1   0  -4    1.20    2.50
  -1   0   4   -0.40    0.90
  -1   0   4   -0.60    2.40
   0   0   4  962.10   28.60
   0   0   4 1025.80   28.20
   0   0   4  970.60   25.90
   0   0  -4  908.01   28.80
   0   0   4  996.50   28.60
   0   0  -4  989.40   28.50
   0   0  -4 1017.30   26.00
   0   0   4 1032.30   25.70
   0   0  -4  884.61   25.90
   1   0   4   -1.50    1.90
  -1   0  -4    0.30    1.50
  -1   0  -4   -0.30    0.90
   1   0   4    0.00    0.70
   1   0   4   -3.60    2.00
  -1   0  -4   -0.10    0.60
   1   0   4   -1.10    0.80
  -1   0  -4    2.50    2.00
  -1   0  -4   -0.30    2.10
   1   0   4   -3.30    2.40
  -1   0  -4   -0.40    0.70
  -2   0  -4  646.24   17.60
  -2   0  -4  649.54   18.40
   2   0   4  639.34   19.30
  -2   0  -4  677.33   17.90
   2   0   4  639.44   17.60
   2   0   4  650.23   21.70
   2   0   4  625.54   19.90
  -2   0  -4  661.13   17.10
  -2   0  -4  658.33   17.00
   2   0   4  641.54   17.30
   2   0   4  665.93   17.00
  -2   0  -4  644.64   19.80
   2   0   4  649.54   18.30
  -2   0  -4  659.43   18.60
  -2   0  -4  661.03   20.40
   3   0   4    0.80    2.40
  -3   0  -4    0.90    1.30
   3   0   4    0.10    0.80
  -3   0  -4   -0.50    3.40
   3   0   4   -0.40    0.70
  -3   0  -4   -1.00    0.80
   3   0   4    0.60    0.70
   3   0   4   -0.60    2.30
   3   0   4    3.10    3.80
  -3   0  -4    1.40    1.10
   3   0   4   -0.70    2.00
  -3   0  -4   -1.50    3.00
  -3   0  -4    2.80    2.30
   4   0   4  158.78    8.60
  -4   0  -4  163.18    6.70
   4   0   4  161.18    5.60
   4   0   4  161.88    7.90
  -4   0  -4  157.98    7.60
   4   0   4  164.38    5.20
  -4   0  -4  143.39   10.20
  -4   0  -4  141.89    9.30
   4   0   4  161.68   11.20
   4   0   4  174.88    7.90
  -4   0  -4  158.58    5.20
  -4   0  -4  161.08    5.80
   4   0   4  163.98    5.40
  -5   0  -4    0.60    1.00
   5   0   4   -0.40    4.90
  -5   0  -4   -2.80    4.80
  -5   0  -4   -3.20    2.10
  -5   0  -4    8.70    6.80
  -5   0  -4   -0.50    1.80
  -5   0  -4    0.30    2.60
  -5   0  -4   -4.60    2.70
   5   0   4   -3.40    3.60
   5   0   4    0.30    1.60
  -5   0  -4    0.90    1.00
   5   0   4   -1.90    6.10
   5   0   4   -0.30    1.10
   6   0   4  118.39   12.20
   6   0   4  108.59    4.60
   6   0   4  105.09   10.40
   6   0   4  118.19    9.70
  -6   0  -4  102.39   11.80
  -6   0  -4  110.79    6.60
   6   0   4  120.49    5.60
  -7   0  -4   -2.40    2.40
   7   0   4   -0.40    9.30
  -7   0  -4    0.90    6.90
   7   0   4    2.30    2.90
   7   0   4    0.20   10.50
   7  -1  -4  544.25   16.00
  -7  -1   4  559.54   22.50
  -7  -1   4  551.14   16.20
  -7  -1   4  481.65   17.30
  -7  -1   4  467.35   23.20
   7  -1  -4  557.34   21.90
   7   1  -4  541.45   23.00
  -7   1   4  455.95   20.80
   7   1  -4  547.85   16.40
   6  -1  -4   45.80    6.80
  -6  -1   4   40.50    5.20
  -6  -1   4   45.60    7.10
  -6  -1   4   42.70    4.10
   6  -1  -4   35.80    3.50
  -6  -1   4   37.60    6.10
   6  -1  -4   44.80    8.40
  -6  -1   4   44.30    2.60
  -6  -1   4   39.90    3.80
   6  -1  -4   40.10    3.70
  -6  -1   4   49.00    7.20
  -6   1   4   44.50    3.90
   6   1  -4   44.90    3.90
  -6   1   4   48.70    7.30
   6   1  -4   37.80    7.10
   6   1  -4   44.00    9.40
  -6   1   4   44.10    7.00
   6   1  -4   32.00    3.60
  -6   1   4   40.60    3.50
   5  -1  -4 2143.09   60.89
  -5  -1   4 2137.39   61.19
  -5  -1   4 2153.08   57.39
  -5  -1   4 2259.37   57.19
   5  -1  -4 2149.39   61.29
   5  -1  -4 2203.98   57.09
  -5  -1   4 2271.27   61.79
  -5  -1   4 2269.17   56.49
  -5  -1   4 2190.28   56.39
  -5  -1   4 2148.69   58.99
   5  -1  -4 2182.48   58.19
  -5  -1   4 2225.18   59.79
   5  -1  -4 2227.88   56.79
  -5   1   4 2160.28   57.49
  -5   1   4 2215.48   61.09
   5   1  -4 2154.08   56.99
  -5   1   4 2195.08   55.99
  -5   1   4 2131.29   61.69
   5   1  -4 2230.88   61.69
   5   1  -4 2219.18   57.39
  -5   1   4 2211.68   56.99
  -5   1   4 2123.49   56.79
   5   1  -4 2179.68   61.79
   5   1  -4 2202.38   58.19
  -5   1   4 2183.68   58.39
  -4  -1   4    3.00    3.40
   4  -1  -4    8.30    4.70
  -4  -1   4    2.80    1.50
   4  -1  -4    0.20    4.30
   4  -1  -4    2.40    1.50
  -4  -1   4   -3.40    3.50
  -4  -1   4    2.80    3.60
   4  -1  -4    1.10    1.20
  -4  -1   4    1.70    1.30
  -4  -1   4    2.40    1.30
   4  -1  -4    0.60    3.50
  -4  -1   4   -0.30    3.30
  -4  -1   4    1.50    1.10
   4  -1  -4    2.90    1.50
   4   1  -4   -6.50    3.90
  -4   1   4    1.00    3.30
   4   1  -4    2.20    1.50
   4   1  -4    1.60    1.20
  -4   1   4   -0.40    2.50
  -4   1   4    1.80    1.20
  -4   1   4    1.50    1.00
  -4   1   4    2.50    1.00
  -4   1   4    3.20    1.40
  -4   1   4    3.80    3.10
   4   1  -4    9.70    3.90
   4   1  -4    2.90    1.40
  -4   1   4    3.60    3.30
   3  -1  -4    2.60    2.90
  -3  -1   4    0.80    2.80
   3  -1  -4    2.70    3.10
  -3  -1   4   -0.70    2.70
   3  -1  -4    1.60    3.30
   3  -1  -4    2.10    1.00
   3  -1  -4    0.40    1.10
   3  -1  -4    2.90    1.30
  -3  -1   4    2.90    1.00
  -3  -1   4    1.50    2.80
  -3  -1   4    2.40    1.10
  -3  -1   4    2.80    2.40
  -3  -1   4    0.70    0.90
  -3  -1   4    0.40    1.00
  -3   1   4    3.00    1.30
   3   1  -4    1.60    1.10
   3   1  -4    1.10    3.30
  -3   1   4    1.10    0.90
   3   1  -4    1.40    1.10
  -3   1   4    2.40    2.40
   3   1  -4    3.20    3.10
  -3   1   4    1.90    2.90
  -3   1   4    4.90    3.00
   3   1  -4    1.00    3.20
   3   1  -4    1.60    1.00
  -3   1   4    3.20    0.90
  -2  -1   4 1124.69   33.30
  -2  -1   4 1155.08   29.80
  -2  -1   4 1167.08   30.50
   2  -1  -4 1146.69   30.70
  -2  -1   4 1156.28   31.30
   2  -1  -4 1172.38   33.80
  -2  -1   4 1192.18   33.90
  -2  -1   4 1180.88   30.70
   2   1  -4 1150.28   33.50
  -2   1   4 1159.68   30.40
   2   1  -4 1152.98   34.00
   2   1  -4 1177.28   30.80
   2   1  -4 1175.28   30.50
  -2   1   4 1120.79   33.60
  -2   1   4 1114.09   30.60
  -2   1   4 1134.69   33.10
  -1  -1   4   80.59    6.00
   1  -1  -4   84.39    5.30
   1  -1  -4   80.19    6.30
  -1  -1   4   77.19    3.70
  -1  -1   4   85.49    6.20
   1  -1  -4   79.59    3.70
   1  -1  -4   86.09    3.30
  -1  -1   4   77.69    3.40
   1   1  -4   67.19    5.30
   1   1  -4   81.69    2.80
  -1   1   4   73.09    3.70
  -1   1   4   77.79    3.40
   1   1  -4   80.49    3.30
   1   1  -4   80.69    5.10
   1   1  -4   80.59    3.10
  -1   1   4   75.19    5.70
   1   1  -4   69.59    5.90
   1   1  -4   81.79    3.80
  -1   1   4   79.49    5.50
  -1   1   4   78.19    6.10
   1   1  -4   85.69    4.60
   0  -1  -4  217.88    9.50
   0  -1   4  217.78    9.30
   0  -1  -4  211.28    7.80
   0  -1  -4  202.58    6.90
   0  -1   4  216.08    6.90
   0  -1  -4  215.58    6.50
   0  -1  -4  213.98    6.20
   0  -1   4  209.08    8.90
   0  -1   4  207.58    6.60
   0   1  -4  197.38    9.10
   0   1   4  205.78    9.40
   0   1  -4  221.78    7.30
   0   1   4  217.98    6.60
   0   1  -4  209.48    6.90
   0   1  -4  220.48    6.00
   0   1   4  209.78    9.50
   0   1   4  218.58    7.00
   0   1   4  212.58    8.90
  -1  -1  -4   11.90    3.10
   1  -1   4   11.80    1.40
   1  -1   4    9.50    2.40
  -1  -1  -4   14.10    1.50
  -1  -1  -4   13.50    1.30
   1  -1   4   11.90    2.50
  -1  -1  -4   14.20    1.60
  -1  -1  -4    9.40    2.40
  -1  -1  -4   12.40    2.70
   1  -1   4   12.40    3.10
   1  -1   4   14.20    1.50
  -1   1  -4   15.20    2.50
  -1   1  -4   12.90    2.80
   1   1   4   12.90    1.80
   1   1   4    9.60    1.40
  -1   1  -4   14.30    1.60
  -1   1  -4   11.80    1.10
   1   1   4   11.70    1.30
   1   1   4   13.10    3.50
   1   1   4   10.20    2.60
  -1   1  -4   11.40    1.50
   1   1   4   11.50    2.70
  -1   1  -4   15.10    2.50
  -2  -1  -4   61.89    2.90
   2  -1   4   63.39    4.80
  -2  -1  -4   66.29    2.60
   2  -1   4   61.79    3.10
   2  -1   4   64.09    4.70
  -2  -1  -4   64.99    5.00
   2  -1   4   60.59    2.50
  -2  -1  -4   62.09    5.30
   2  -1   4   64.09    2.80
   2  -1   4   62.19    6.30
  -2  -1  -4   64.49    2.70
   2  -1   4   60.89    2.00
  -2  -1  -4   60.29    4.50
   2   1   4   61.09    2.50
   2   1   4   59.49    4.80
  -2   1  -4   61.89    3.00
  -2   1  -4   58.89    5.10
  -2   1  -4   63.29    2.80
  -2   1  -4   59.19    4.70
   2   1   4   59.69    2.70
  -2   1  -4   61.59    3.50
   2   1   4   63.19    3.00
   2   1   4   65.29    4.40
  -2   1  -4   62.69    2.10
   2   1   4   62.89    5.20
  -2   1  -4   63.19    3.40
  -2   1  -4   62.59    2.10
   2   1   4   64.09    6.50
   3  -1   4    1.80    0.80
  -3  -1  -4    2.70    1.60
   3  -1   4    2.30    0.80
  -3  -1  -4    1.70    0.90
   3  -1   4    4.60    2.20
   3  -1   4    3.30    2.30
  -3  -1  -4   -2.30    4.00
   3  -1   4    2.60    2.60
  -3  -1  -4    0.40    3.30
  -3  -1  -4    2.30    2.00
   3  -1   4    2.90    3.80
   3  -1   4    1.30    0.90
  -3  -1  -4   -4.80    6.00
  -3  -1  -4    7.00    2.70
   3   1   4    2.40    2.60
  -3   1  -4    0.30    2.10
   3   1   4    3.30    0.90
   3   1   4    2.60    0.90
  -3   1  -4    4.40    1.50
   3   1   4    1.50    2.40
  -3   1  -4    0.80    2.50
   3   1   4    8.90    4.20
  -3   1  -4    3.60    0.90
   3   1   4    2.70    1.00
  -3   1  -4   -0.50    3.00
  -3   1  -4    3.30    0.90
   3   1   4    3.10    2.50
  -4  -1  -4    0.00    1.00
   4  -1   4    1.30    1.00
  -4  -1  -4    0.20    1.50
  -4  -1  -4    0.60    1.60
  -4  -1  -4   -4.70    3.80
   4  -1   4    2.00    0.80
   4  -1   4   -3.80    3.00
   4  -1   4    5.10    2.60
   4  -1   4    0.00    1.00
  -4  -1  -4    0.60    2.80
   4  -1   4    2.40    4.50
   4  -1   4   -2.30    2.70
  -4  -1  -4    5.10    5.20
  -4  -1  -4    4.90    6.50
  -4   1  -4    0.10    0.80
   4   1   4    0.30    0.90
   4   1   4   -2.10    2.50
   4   1   4    2.50    1.10
  -4   1  -4   -0.50    1.50
  -4   1  -4    0.00    2.20
   4   1   4    6.60    4.10
  -4   1  -4    4.20    4.30
   4   1   4    1.10    1.10
   4   1   4    2.10    4.80
   4   1   4    3.30    3.10
  -5  -1  -4    2.00    1.80
   5  -1   4    1.50    3.50
  -5  -1  -4   -0.60    1.20
   5  -1   4   -0.90    1.50
  -5  -1  -4   -0.20    5.20
   5  -1   4   -5.80    5.40
  -5  -1  -4    0.00    1.20
   5  -1   4   -1.10    5.00
   5  -1   4    0.60    1.10
  -5  -1  -4   -3.60    3.30
  -5  -1  -4    2.90    3.30
  -5  -1  -4   -8.70    6.80
  -5  -1  -4   -2.90    2.30
   5   1   4    7.10    3.90
   5   1   4    4.50    6.10
  -5   1  -4    3.80    5.30
   5   1   4   -0.80    1.20
   5   1   4    0.60    5.10
   5   1   4    0.30    1.50
  -5   1  -4   -1.70    1.80
   6  -1   4  132.19    8.60
  -6  -1  -4  111.39    6.30
   6  -1   4  115.99   11.50
  -6  -1  -4  118.69    4.10
   6  -1   4  112.59    5.60
  -6  -1  -4  115.19    6.90
   6  -1   4  115.89    4.40
  -6  -1  -4  112.69    7.00
  -6  -1  -4  112.99    4.00
  -6  -1  -4  117.29   12.10
   6  -1   4  132.09   12.80
   6   1   4  116.39   10.40
   6   1   4  113.59   12.90
   6   1   4  111.49    5.70
  -6   1  -4  112.79    6.40
   6   1   4  111.99    4.90
  -6   1  -4   90.59   10.10
   6   1   4  109.99   12.60
   7  -1   4    3.30    9.90
   7  -1   4   -3.30    2.70
   7  -1   4   16.40   11.00
  -7  -1  -4    1.70    2.90
  -7  -1  -4  -10.80    6.70
   7   1   4   -3.90   11.00
   7   1   4    3.50    2.80
   7   1   4   -4.00    9.10
  -7   1  -4   10.40    8.50
  -7   1  -4    7.60    3.40
  -7  -2   4  615.94   25.90
  -7  -2   4  672.23   26.30
   7  -2  -4  670.23   24.60
  -7  -2   4  607.44   20.20
  -7  -2   4  687.83   19.70
   7  -2  -4  654.93   19.00
  -7   2   4  619.64   20.40
   7   2  -4  667.63   27.20
  -7   2   4  656.13   26.80
   7   2  -4  685.43   19.90
   6  -2  -4   -3.60    1.60
  -6  -2   4    1.10    4.90
   6  -2  -4   -1.60    4.90
   6  -2  -4    0.80    2.40
  -6  -2   4   -6.70    5.30
  -6  -2   4    2.30    5.40
  -6  -2   4    9.50    6.00
  -6  -2   4    0.10    1.80
   6  -2  -4    7.40    7.40
  -6  -2   4   -0.40    1.40
  -6  -2   4    0.60    2.10
  -6   2   4    0.00    4.60
  -6   2   4   -1.00    1.80
  -6   2   4    0.00    1.70
   6   2  -4   -5.80    5.70
   6   2  -4   -1.60    1.70
  -6   2   4    1.40    4.90
   5  -2  -4   43.30    3.80
  -5  -2   4   39.80    6.50
  -5  -2   4   39.50    3.30
  -5  -2   4   42.60    3.60
   5  -2  -4   46.00    7.00
  -5  -2   4   40.40    3.30
  -5  -2   4   38.70    6.10
   5  -2  -4   41.40    3.40
   5  -2  -4   38.60    5.80
  -5  -2   4   39.80    5.90
   5  -2  -4   40.80    3.50
  -5  -2   4   36.30    6.20
  -5  -2   4   45.40    3.00
   5   2  -4   32.60   11.00
  -5   2   4   35.50    5.40
  -5   2   4   44.60    3.30
   5   2  -4   44.60    3.90
   5   2  -4   33.40    5.90
   5   2  -4   49.90    7.60
   5   2  -4   44.80    3.70
  -5   2   4   44.90    6.60
  -5   2   4   38.50    4.40
   5   2  -4   32.40    3.60
  -5   2   4   39.70    2.30
  -5   2   4   40.80    3.40
  -4  -2   4  183.08    9.50
  -4  -2   4  177.68    6.40
   4  -2  -4  176.88    6.40
  -4  -2   4  178.38   10.10
  -4  -2   4  182.68   10.10
   4  -2  -4  171.18   11.80
   4  -2  -4  183.18   10.20
   4  -2  -4  179.88   10.20
   4  -2  -4  187.58    7.10
  -4  -2   4  182.98   10.80
  -4  -2   4  174.88    6.40
   4  -2  -4  182.78    6.70
  -4  -2   4  177.68    6.40
  -4  -2   4  171.08    6.70
   4   2  -4  175.78   10.90
  -4   2   4  185.68    6.70
   4   2  -4  175.88    6.90
  -4   2   4  184.78    6.80
  -4   2   4  183.58    6.00
  -4   2   4  175.68    9.00
   4   2  -4  180.78    6.50
   4   2  -4  182.38    6.90
   4   2  -4  181.18   11.90
   4   2  -4  170.28   10.50
  -4   2   4  192.48   10.10
  -4   2   4  176.68    6.50
  -4   2   4  180.38    6.50
  -4   2   4  183.18    5.30
  -4   2   4  182.88    9.50
  -3  -2   4 1951.80   50.09
   3  -2  -4 1992.20   50.19
  -3  -2   4 1932.11   52.19
  -3  -2   4 1902.51   50.49
  -3  -2   4 1922.21   50.69
  -3  -2   4 1950.10   50.39
   3  -2  -4 1981.40   50.59
  -3  -2   4 1935.21   54.29
   3  -2  -4 1916.61   53.99
  -3  -2   4 1919.71   53.99
   3  -2  -4 1973.10   53.39
  -3  -2   4 1956.30   53.19
  -3   2   4 1957.00   53.89
  -3   2   4 1886.51   50.39
   3   2  -4 1972.30   54.99
  -3   2   4 1927.81   53.09
   3   2  -4 1935.91   50.89
  -3   2   4 1975.50   50.09
   3   2  -4 1963.50   54.79
  -3   2   4 1894.31   50.49
   3   2  -4 1966.70   50.79
  -3   2   4 1975.70   53.09
   3   2  -4 1982.00   51.39
   2  -2  -4    6.60    1.40
  -2  -2   4    9.90    3.20
  -2  -2   4   10.40    2.30
  -2  -2   4    6.80    1.00
  -2  -2   4    6.80    1.20
  -2  -2   4    1.00    3.10
  -2  -2   4    6.60    1.50
   2  -2  -4   11.00    3.30
  -2   2   4    8.20    2.40
  -2   2   4    6.40    1.40
   2   2  -4    6.50    1.40
  -2   2   4    5.80    1.20
  -2   2   4    6.20    2.60
   2   2  -4    5.20    1.30
  -2   2   4    3.30    2.70
   2   2  -4    1.90    2.80
   2   2  -4    7.00    3.00
  -1  -2   4   64.29    3.40
  -1  -2   4   63.19    3.10
   1  -2  -4   62.19    3.40
  -1  -2   4   71.99    5.60
   1  -2  -4   64.69    6.10
  -1  -2   4   59.39    5.50
  -1   2   4   62.19    2.90
   1   2  -4   62.39    3.40
  -1   2   4   60.79    5.20
  -1   2   4   60.59    3.30
   1   2  -4   67.09    5.80
  -1   2   4   67.79    6.00
   1   2  -4   68.59    2.30
   1   2  -4   66.99    4.90
   1   2  -4   70.29    5.60
   1   2  -4   68.79    3.70
  -1   2   4   61.99    5.10
   1   2  -4   64.39    2.80
   1   2  -4   63.69    2.90
   0  -2  -4  256.17    9.50
   0  -2   4  238.88   10.10
   0  -2  -4  271.97   10.80
   0  -2  -4  245.68    7.30
   0  -2  -4  246.98    7.90
   0  -2  -4  249.48   10.10
   0  -2  -4  246.88    7.40
   0  -2   4  233.48    7.70
   0  -2   4  251.17   10.10
   0  -2   4  245.78    7.60
   0  -2  -4  270.57   10.90
   0   2  -4  241.58   10.30
   0   2   4  251.27   10.60
   0   2   4  241.98    7.90
   0   2  -4  256.97    6.80
   0   2  -4  269.57    7.10
   0   2   4  249.28    7.50
   0   2  -4  245.38    7.80
   0   2   4  245.68   10.60
   0   2   4  241.08    9.80
   0   2  -4  240.58    7.90
   0   2  -4  235.78    7.80
   0   2  -4  243.38   10.10
  -1  -2  -4   64.29    2.90
  -1  -2  -4   55.89    5.40
  -1  -2  -4   55.69    3.10
  -1  -2  -4   62.99    2.70
  -1  -2  -4   60.19    5.00
  -1  -2  -4   57.59    5.10
   1  -2   4   55.39    4.60
   1  -2   4   56.39    2.70
   1  -2   4   63.49    3.00
   1  -2   4   58.79    4.90
   1   2   4   61.89    6.00
  -1   2  -4   64.79    5.10
   1   2   4   63.49    4.90
  -1   2  -4   55.39    4.00
  -1   2  -4   60.39    2.50
  -1   2  -4   63.59    3.00
  -1   2  -4   69.99    2.50
   1   2   4   59.29    2.50
   1   2   4   61.29    3.20
   1   2   4   63.79    2.80
  -1   2  -4   73.99    4.40
   1   2   4   55.89    4.30
   1   2   4   60.79    5.50
  -2  -2  -4   42.30    4.10
  -2  -2  -4   43.40    2.50
   2  -2   4   28.10    4.40
   2  -2   4   41.70    2.10
  -2  -2  -4   48.50    5.00
   2  -2   4   45.50    4.20
  -2  -2  -4   42.00    2.40
   2  -2   4   41.20    4.00
  -2  -2  -4   47.50    2.30
  -2  -2  -4   52.79    5.40
   2  -2   4   44.10    2.40
  -2   2  -4   45.60    2.40
   2   2   4   41.30    2.50
   2   2   4   45.30    2.30
   2   2   4   50.99    4.50
   2   2   4   36.30    4.00
  -2   2  -4   40.80    2.30
  -2   2  -4   41.40    4.30
   2   2   4   46.90    5.90
   2   2   4   35.70    6.20
  -2   2  -4   44.10    4.50
   2   2   4   43.20    2.10
   3  -2   4  924.81   29.50
   3  -2   4  936.21   24.50
  -3  -2  -4  944.11   25.90
   3  -2   4  948.71   25.60
   3  -2   4  925.71   26.10
  -3  -2  -4  931.61   25.80
  -3  -2  -4  908.91   29.20
  -3  -2  -4  912.81   27.70
   3  -2   4  965.00   24.20
  -3  -2  -4  947.91   25.10
  -3  -2  -4 1003.20   32.10
  -3  -2  -4  943.01   28.30
   3  -2   4  962.90   26.50
   3  -2   4  934.31   24.30
  -3  -2  -4  915.01   25.00
  -3  -2  -4  938.81   24.20
   3   2   4  946.11   27.60
  -3   2  -4  934.71   24.40
   3   2   4  930.41   30.30
  -3   2  -4  927.41   28.10
   3   2   4  930.11   25.10
   3   2   4  918.61   28.10
   3   2   4  963.30   24.90
   3   2   4  928.51   27.70
  -3   2  -4  909.11   26.10
   3   2   4  928.21   24.80
  -3   2  -4  931.61   25.30
  -4  -2  -4   61.49    7.70
  -4  -2  -4   59.09    7.40
  -4  -2  -4   60.49    3.90
  -4  -2  -4   59.89    3.10
   4  -2   4   56.49    2.50
  -4  -2  -4   55.09    5.30
   4  -2   4   55.99    4.90
   4  -2   4   51.69    5.20
   4  -2   4   58.29    2.50
   4  -2   4   69.99    7.70
   4  -2   4   55.79    4.40
  -4  -2  -4   55.79    3.90
   4  -2   4   58.39    2.80
   4   2   4   57.39    3.10
   4   2   4   66.79    6.80
   4   2   4   60.19    3.20
  -4   2  -4   55.79    6.70
  -4   2  -4   60.19    2.30
   4   2   4   60.49    6.20
  -4   2  -4   61.19    3.90
  -4   2  -4   62.29    3.90
   4   2   4   62.29    8.10
   4   2   4   53.69    5.60
   4   2   4   54.29    3.40
   5  -2   4   61.59    6.80
  -5  -2  -4   61.99    5.20
  -5  -2  -4   64.19    6.00
  -5  -2  -4   67.59    8.60
  -5  -2  -4   67.29    3.40
  -5  -2  -4   57.39    4.50
  -5  -2  -4   57.29    9.30
   5  -2   4   64.49    3.70
   5  -2   4   59.49    5.60
   5  -2   4   67.89    8.60
   5  -2   4   68.89    2.70
   5   2   4   71.19    6.90
   5   2   4   53.89    8.50
   5   2   4   58.39    7.50
   5   2   4   60.79    4.00
   5   2   4   62.89    3.50
  -5   2  -4   52.69    7.10
  -5   2  -4   56.99    4.40
  -6  -2  -4    0.60    1.60
   6  -2   4    3.30    2.00
   6  -2   4    1.60    4.20
  -6  -2  -4   -3.10    4.30
  -6  -2  -4    1.80    6.30
  -6  -2  -4    4.10    2.10
   6  -2   4    2.10    1.30
  -6  -2  -4    3.30    4.90
  -6  -2  -4    2.00    1.60
   6  -2   4   -0.20    6.80
   6  -2   4    0.20    7.60
   6   2   4    6.90    7.30
   6   2   4   -1.50    1.60
  -6   2  -4    0.20    5.70
  -6   2  -4   -1.90    2.20
   6   2   4   -1.70    2.10
   6   2   4    0.40    8.50
   6   2   4   -0.20    5.70
  -7  -2  -4   39.10   10.40
   7  -2   4   49.99   11.50
   7  -2   4   48.40    5.60
  -7  -2  -4   51.29    5.70
   7   2   4   16.40   12.50
  -7   2  -4   39.90    5.00
   7   2   4   56.39   11.80
   7   2   4   49.40    5.80
  -7   2  -4   30.50    9.40
   7   2   4   39.90    4.30
  -7  -3   4   86.59    5.70
  -7  -3   4  100.59    6.50
   7  -3  -4   75.49    9.20
  -7  -3   4   95.49   11.80
   7  -3  -4   82.49    5.10
  -7  -3   4   94.29   11.30
   7   3  -4  100.99   11.60
   7   3  -4   82.09    6.20
  -7   3   4   90.99    6.10
  -7   3   4   82.79   10.10
   6  -3  -4  156.68   13.20
  -6  -3   4  196.38   13.90
   6  -3  -4  173.88    7.30
  -6  -3   4  178.08    7.60
  -6  -3   4  166.58   12.20
   6  -3  -4  171.88   12.10
  -6  -3   4  173.78    6.50
  -6  -3   4  159.28   11.90
  -6  -3   4  188.08    7.70
  -6  -3   4  181.98   14.30
   6  -3  -4  175.18    6.90
  -6   3   4  197.48   12.10
   6   3  -4  186.78    7.80
  -6   3   4  185.48   12.00
  -6   3   4  189.58    6.90
   6   3  -4  168.58   14.00
  -5  -3   4  167.28   11.90
  -5  -3   4  182.98    7.10
   5  -3  -4  185.38    6.90
   5  -3  -4  191.58   11.30
   5  -3  -4  184.08   11.70
  -5  -3   4  178.88    7.20
   5  -3  -4  198.48    7.00
  -5  -3   4  220.88   12.60
  -5  -3   4  190.58    7.40
  -5  -3   4  192.48    6.80
  -5  -3   4  213.88   12.10
  -5  -3   4  186.58   11.10
   5   3  -4  178.88    7.40
  -5   3   4  183.88    9.70
   5   3  -4  183.18    7.40
  -5   3   4  184.58    6.80
  -5   3   4  175.48   10.80
   5   3  -4  185.18   12.60
  -5   3   4  180.98    7.30
   5   3  -4  179.28    8.70
   5   3  -4  187.68   13.20
  -5   3   4  186.18    6.70
  -5   3   4  188.98   11.00
  -4  -3   4   30.90    3.00
   4  -3  -4   18.40    4.40
  -4  -3   4   25.90    2.90
  -4  -3   4   27.10    5.30
  -4  -3   4   24.70    2.60
  -4  -3   4   25.80    2.60
  -4  -3   4   30.70    5.40
   4  -3  -4   28.10    2.90
  -4  -3   4   29.60    5.70
  -4  -3   4   29.80    4.70
   4   3  -4   25.60    5.70
   4   3  -4   23.70    6.00
  -4   3   4   22.90    2.10
  -4   3   4   24.20    2.40
  -4   3   4   29.70    4.00
  -4   3   4   26.40    2.70
  -4   3   4   28.10    5.00
   4   3  -4   25.00    2.90
  -4   3   4   27.30    4.90
   4   3  -4   29.40    5.60
   4   3  -4   25.10    2.50
   4   3  -4   27.50    2.70
  -3  -3   4   98.29    7.80
   3  -3  -4   89.49    4.20
   3  -3  -4   93.49    7.30
  -3  -3   4   86.09    4.30
  -3  -3   4   93.19    4.10
  -3  -3   4   91.69    3.70
  -3  -3   4   90.89    4.00
   3  -3  -4   94.69    7.10
  -3  -3   4   97.29    7.70
  -3  -3   4   92.39    5.80
  -3  -3   4   95.19    4.20
   3  -3  -4   90.69    3.80
  -3  -3   4   99.09    7.80
  -3  -3   4   94.79    8.10
   3   3  -4   93.79    7.70
   3   3  -4   84.59    8.00
   3   3  -4   86.99    4.20
  -3   3   4   92.09    5.00
  -3   3   4   90.09    7.20
  -3   3   4   89.79    6.40
  -3   3   4   93.49    4.20
  -3   3   4   88.79    3.60
   3   3  -4   88.59    4.40
  -2  -3   4 3884.31   96.49
  -2  -3   4 3868.91   95.99
  -2  -3   4 3869.41   99.39
  -2  -3   4 3687.33   96.39
  -2  -3   4 3682.03   99.89
  -2  -3   4 3784.22   96.19
   2  -3  -4 4181.58   97.79
  -2  -3   4 3861.51   95.19
  -2  -3   4 3757.12   99.79
  -2  -3   4 3637.14   96.09
   2  -3  -4 3677.93   96.19
   2  -3  -4 3596.14   99.39
  -2  -3   4 3785.02   98.99
  -2   3   4 3646.64   96.19
  -2   3   4 3828.82   97.49
   2   3  -4 3749.12   95.99
   2   3  -4 3819.12   99.29
   2   3  -4 3742.63  100.19
  -2   3   4 3774.52   98.69
  -2   3   4 3870.01   99.69
   2   3  -4 3658.73   96.39
  -2   3   4 3724.23   95.79
  -1  -3   4  148.09    8.20
   1  -3  -4  162.48    7.80
  -1  -3   4  165.08    5.20
  -1  -3   4  155.28    5.60
   1  -3  -4  162.08    5.40
  -1  -3   4  167.78    7.30
   1  -3  -4  155.08    8.60
  -1  -3   4  160.68    5.80
   1  -3  -4  160.18    5.80
  -1  -3   4  160.88    8.60
   1   3  -4  162.78    5.90
   1   3  -4  161.98    5.80
   1   3  -4  161.28    7.30
  -1   3   4  170.38    9.00
  -1   3   4  163.68    5.90
   1   3  -4  164.68    8.60
   1   3  -4  158.38    5.20
  -1   3   4  177.58    8.20
  -1   3   4  155.28    7.80
  -1   3   4  160.68    5.50
   0  -3   4 1390.86   39.70
   0  -3  -4 1437.96   36.90
   0  -3  -4 1422.76   36.70
   0  -3   4 1384.76   37.00
   0  -3  -4 1433.46   37.20
   0  -3   4 1429.96   39.70
   0  -3   4 1413.56   36.90
   0  -3  -4 1409.56   39.20
   0  -3  -4 1449.65   40.40
   0  -3  -4 1420.06   39.90
   0   3  -4 1453.85   36.70
   0   3  -4 1386.16   38.80
   0   3  -4 1464.45   36.00
   0   3  -4 1400.76   37.10
   0   3  -4 1446.96   37.10
   0   3   4 1451.95   37.30
   0   3  -4 1355.36   39.80
   0   3   4 1405.96   40.50
   0   3   4 1382.46   40.00
   1  -3   4  121.59    6.70
  -1  -3  -4  120.99    6.90
   1  -3   4  128.19    6.70
  -1  -3  -4  124.89    6.90
  -1  -3  -4  114.19    7.30
  -1  -3  -4  122.09    4.30
   1  -3   4  115.69    4.40
   1  -3   4  127.89    4.30
  -1  -3  -4  120.69    4.40
  -1  -3  -4  113.29    4.60
  -1   3  -4  130.39    6.70
  -1   3  -4  123.89    4.00
   1   3   4  115.19    4.20
  -1   3  -4  132.29    4.90
   1   3   4  113.39    6.40
   1   3   4  118.09    4.70
   1   3   4  113.19    6.70
  -1   3  -4  118.19    4.40
   1   3   4  125.29    7.50
   1   3   4  118.99    4.40
   1   3   4  122.49    8.00
  -1   3  -4  128.49    3.80
  -1   3  -4  118.89    5.70
   2  -3   4   69.09    3.00
  -2  -3  -4   66.49    5.80
  -2  -3  -4   75.19    5.90
   2  -3   4   72.69    5.00
  -2  -3  -4   69.89    3.10
  -2  -3  -4   64.89    3.20
   2  -3   4   72.99    5.00
   2  -3   4   69.39    2.80
  -2  -3  -4   66.49    6.50
  -2  -3  -4   72.09    3.20
   2   3   4   67.09    3.10
  -2   3  -4   69.19    3.00
   2   3   4   73.89    3.50
   2   3   4   70.79    3.00
  -2   3  -4   75.69    5.10
   2   3   4   67.39    6.90
  -2   3  -4   73.39    5.00
   2   3   4   63.79    5.50
   2   3   4   65.79    5.80
  -2   3  -4   74.59    3.00
  -3  -3  -4   22.70    3.80
  -3  -3  -4   16.30    3.80
   3  -3   4   15.90    4.70
   3  -3   4   24.10    3.30
  -3  -3  -4   23.70    2.10
   3  -3   4   19.10    1.70
  -3  -3  -4   20.00    5.10
  -3  -3  -4   16.90    2.00
   3  -3   4   21.50    2.90
   3  -3   4   33.60    3.40
  -3  -3  -4   19.50    2.50
  -3  -3  -4   24.20    4.80
  -3  -3  -4   20.10    2.20
   3  -3   4   22.30    1.50
   3  -3   4   20.80    1.60
   3   3   4   20.90    2.30
   3   3   4   22.70    2.10
  -3   3  -4   24.40    3.00
   3   3   4   26.10    4.10
   3   3   4   19.40    3.80
   3   3   4   32.20    5.90
   3   3   4   18.80    2.00
   3   3   4   24.50    4.40
  -3   3  -4   19.60    3.70
  -3   3  -4   25.40    2.30
  -3   3  -4   19.70    1.70
   4  -3   4   58.79    2.30
   4  -3   4   69.09    6.10
   4  -3   4   62.59    7.20
  -4  -3  -4   47.90    5.50
  -4  -3  -4   62.09    8.50
   4  -3   4   63.89    4.10
   4  -3   4   59.69    2.50
  -4  -3  -4   53.99    4.20
   4  -3   4   62.89    5.20
   4  -3   4   58.89    2.80
  -4  -3  -4   65.09    3.30
  -4  -3  -4   49.00    6.70
  -4  -3  -4   61.49    4.20
   4   3   4   61.19    3.40
   4   3   4   69.99    7.50
   4   3   4   62.39    3.50
   4   3   4   53.89    6.10
  -4   3  -4   58.89    7.00
   4   3   4   54.49    7.80
   4   3   4   56.79    6.90
   4   3   4   63.79    3.50
  -4   3  -4   50.69    3.70
   5  -3   4  234.98    7.70
  -5  -3  -4  221.48   12.10
  -5  -3  -4  246.98    7.90
   5  -3   4  244.38   12.00
   5  -3   4  248.88    9.30
   5  -3   4  234.08    6.80
   5  -3   4  221.28   14.00
  -5  -3  -4  217.58    9.10
  -5  -3  -4  234.38   11.90
  -5  -3  -4  238.88    8.00
  -5  -3  -4  225.68   13.90
  -5   3  -4  230.98    8.80
   5   3   4  235.28   12.70
  -5   3  -4  231.58   13.10
   5   3   4  232.78    7.90
   5   3   4  230.38    8.30
   5   3   4  233.08   16.30
   5   3   4  228.38   13.90
  -6  -3  -4  414.46   20.40
   6  -3   4  405.86   19.80
  -6  -3  -4  415.66   11.90
   6  -3   4  410.76   12.30
   6  -3   4  389.36   18.20
  -6  -3  -4  381.66   13.90
  -6  -3  -4  397.56   16.30
   6   3   4  370.26   13.60
   6   3   4  355.36   22.30
  -6   3  -4  387.16   13.50
   6   3   4  408.36   18.00
   6   3   4  394.36   12.20
   6   3   4  385.96   22.30
  -6   3  -4  370.16   18.50
  -7  -3  -4   14.80    2.50
  -7  -3  -4   -2.30    6.10
  -7  -3  -4   13.80    4.10
  -7  -3  -4   21.20    7.00
  -7  -3  -4   16.40    8.70
  -7   3  -4   24.70    8.50
   7   3   4   12.90   11.20
   7   3   4   17.10    2.90
  -7   3  -4   15.10    3.70
   7   3   4    6.10    3.30
   7   3   4   16.10   10.40
   7   3   4   17.50    7.80
   7   3   4    0.30   19.00
   7  -4  -4  178.88   13.20
  -7  -4   4  170.58   14.70
   7  -4  -4  174.38    7.10
  -7  -4   4  151.98   15.40
  -7  -4   4  156.18    9.00
  -7  -4   4  184.28    8.70
   7   4  -4  174.08   18.10
   7   4  -4  168.98    8.40
  -7   4   4  172.68   14.00
  -7   4   4  175.08    8.40
   6  -4  -4   11.00    2.50
  -6  -4   4    7.40    3.00
  -6  -4   4    3.80    6.60
  -6  -4   4    9.00    2.10
   6  -4  -4    8.00    7.30
  -6  -4   4   15.30    8.60
   6  -4  -4   17.50    5.50
   6  -4  -4    9.70    2.20
  -6  -4   4   11.20    7.30
  -6  -4   4    8.40    2.40
  -6  -4   4    5.10    2.40
  -6  -4   4    2.60    5.10
   6   4  -4    6.20    7.50
  -6   4   4    7.40    5.60
  -6   4   4    5.10    5.00
   6   4  -4    6.60    2.60
  -6   4   4    7.00    2.00
   5  -4  -4   59.29    7.20
  -5  -4   4   53.49    6.90
  -5  -4   4   48.80    7.30
  -5  -4   4   57.39    4.50
  -5  -4   4   57.79    4.00
  -5  -4   4   42.40    7.20
   5  -4  -4   56.49    4.00
   5  -4  -4   61.39    7.30
  -5  -4   4   55.29    3.70
   5  -4  -4   50.59    3.70
  -5  -4   4   24.40    7.10
  -5  -4   4   53.49    4.50
  -5   4   4   63.39    7.10
  -5   4   4   54.59    7.30
   5   4  -4   57.79    4.30
   5   4  -4   61.89    8.60
  -5   4   4   55.09    3.80
  -5   4   4   53.79    3.60
   5   4  -4   52.89    4.40
   4  -4  -4  676.23   19.40
   4  -4  -4  709.83   23.00
  -4  -4   4  709.13   19.80
  -4  -4   4  701.13   20.00
  -4  -4   4  691.63   24.50
  -4  -4   4  674.13   22.30
  -4  -4   4  693.53   19.30
   4  -4  -4  679.23   23.20
   4  -4  -4  700.23   19.20
  -4  -4   4  694.03   19.60
  -4  -4   4  680.73   24.10
  -4  -4   4  681.43   24.20
   4   4  -4  669.43   20.10
   4   4  -4  656.53   24.30
  -4   4   4  695.53   19.40
   4   4  -4  691.93   19.60
  -4   4   4  689.33   23.20
   4   4  -4  695.93   24.90
   4   4  -4  693.83   20.10
  -4   4   4  704.43   18.60
   4   4  -4  706.13   25.60
  -4   4   4  693.33   21.30
  -3  -4   4  285.57    9.20
   3  -4  -4  272.27   11.90
  -3  -4   4  280.07   13.20
  -3  -4   4  285.17   13.00
  -3  -4   4  289.57    9.50
  -3  -4   4  291.67   10.90
  -3  -4   4  284.67    9.30
   3  -4  -4  285.27    9.20
   3  -4  -4  271.87   12.50
  -3  -4   4  281.27   13.20
  -3  -4   4  299.17    8.60
  -3  -4   4  250.57   14.40
  -3  -4   4  277.87    9.20
   3  -4  -4  281.77    8.70
   3   4  -4  277.07    9.50
  -3   4   4  284.37    9.80
   3   4  -4  283.87   13.30
  -3   4   4  289.87   11.60
  -3   4   4  294.37    8.60
   3   4  -4  285.67   13.50
  -3   4   4  291.27    9.20
  -3   4   4  308.17   12.90
   3   4  -4  289.57    9.40
   2  -4  -4    2.50    1.20
  -2  -4   4    1.90    1.10
  -2  -4   4    0.80    1.80
  -2  -4   4    2.80    3.00
  -2  -4   4   -1.10    2.60
  -2  -4   4    1.60    0.90
   2  -4  -4    1.50    3.10
  -2  -4   4    0.20    3.20
  -2  -4   4    0.80    1.00
  -2  -4   4    1.00    0.90
  -2  -4   4    2.00    3.60
   2  -4  -4    0.00    0.90
   2  -4  -4   -1.50    3.00
  -2   4   4    1.90    1.30
  -2   4   4    1.90    3.30
   2   4  -4    3.50    1.10
  -2   4   4   -0.30    2.30
   2   4  -4    0.70    1.00
   2   4  -4   -1.80    3.00
   2   4  -4    2.90    3.10
  -2   4   4    3.50    2.70
  -2   4   4    0.50    0.80
  -1  -4   4    5.10    1.20
  -1  -4   4   -0.10    2.80
   1  -4  -4    4.60    2.80
  -1  -4   4    3.40    1.00
   1  -4  -4    2.20    0.90
   1  -4  -4    8.50    2.80
  -1  -4   4    4.00    1.10
  -1  -4   4    2.40    2.60
  -1  -4   4    3.70    2.60
   1  -4  -4    2.80    1.00
   1  -4  -4   -3.50    2.50
   1   4  -4    4.30    1.20
  -1   4   4    4.60    2.80
  -1   4   4    8.10    3.60
  -1   4   4    2.10    1.20
  -1   4   4    4.70    1.10
   1   4  -4    4.50    1.00
  -1   4   4    8.10    3.00
   1   4  -4    2.20    2.70
   1   4  -4    5.60    2.30
   0  -4   4 1594.94   39.30
   0  -4   4 1519.45   40.30
   0  -4  -4 1513.65   43.30
   0  -4   4 1559.14   43.30
   0  -4   4 1527.25   40.10
   0  -4  -4 1543.35   43.00
   0  -4   4 1509.55   43.30
   0  -4  -4 1487.75   43.70
   0  -4   4 1590.64   40.70
   0  -4  -4 1499.85   40.40
   0  -4  -4 1510.95   40.00
   0   4  -4 1575.94   40.60
   0   4  -4 1586.04   39.90
   0   4  -4 1522.95   43.30
   0   4   4 1471.05   43.40
   0   4  -4 1534.15   40.40
   0   4   4 1549.64   43.00
   0   4   4 1570.74   40.60
   0   4   4 1549.94   40.10
   0   4  -4 1609.04   39.20
   0   4   4 1502.35   43.90
   0   4  -4 1591.04   42.50
   1  -4   4   77.69    3.20
   1  -4   4   76.09    3.30
  -1  -4  -4   75.89    6.30
   1  -4   4   69.99    5.60
  -1  -4  -4   81.69    6.40
  -1  -4  -4   70.59    3.50
  -1  -4  -4   76.59    3.40
  -1  -4  -4   73.29    3.30
  -1  -4  -4   81.19    6.50
   1  -4   4   67.19    5.40
   1   4   4   77.99    5.70
   1   4   4   77.29    7.20
  -1   4  -4   80.09    5.70
  -1   4  -4   74.19    2.90
   1   4   4   76.79    3.30
   1   4   4   73.69    3.70
   1   4   4   77.09    3.20
  -1   4  -4   79.19    3.80
   1   4   4   71.09    5.70
  -1   4  -4   73.49    2.90
  -1   4  -4   72.09    3.30
  -1   4  -4   71.89    5.20
  -1   4  -4   69.29    4.80
  -1   4  -4   79.49    2.50
  -2  -4  -4 1611.04   43.00
  -2  -4  -4 1643.54   45.60
  -2  -4  -4 1660.53   46.30
   2  -4   4 1665.63   44.60
   2  -4   4 1613.34   42.30
  -2  -4  -4 1689.93   42.60
  -2  -4  -4 1658.13   42.80
   2  -4   4 1594.94   44.50
  -2  -4  -4 1580.34   46.30
   2  -4   4 1667.73   42.20
   2   4   4 1568.14   45.50
  -2   4  -4 1698.23   42.20
   2   4   4 1639.24   47.90
   2   4   4 1630.14   42.70
   2   4   4 1672.93   45.90
  -2   4  -4 1700.93   44.00
   2   4   4 1616.24   42.60
   2   4   4 1572.04   43.10
  -2   4  -4 1662.13   44.60
  -2   4  -4 1663.53   42.40
   3  -4   4   14.30    1.20
  -3  -4  -4    9.40    3.70
   3  -4   4   11.30    2.80
  -3  -4  -4   13.80    2.60
   3  -4   4   11.40    1.20
   3  -4   4    9.20    3.80
  -3  -4  -4    8.00    4.00
   3  -4   4   12.30    2.20
   3  -4   4   12.60    2.50
   3  -4   4    9.40    3.10
  -3  -4  -4   13.00    1.80
  -3  -4  -4   14.20    1.80
  -3  -4  -4   15.60    6.20
   3  -4   4   12.10    1.30
   3  -4   4   13.80    1.60
   3   4   4   10.70    1.60
   3   4   4    7.60    5.20
   3   4   4    8.90    1.50
  -3   4  -4   12.30    1.80
   3   4   4   13.30    1.70
   3   4   4    8.10    3.70
  -3   4  -4   15.10    2.70
  -3   4  -4   17.40    4.30
  -3   4  -4   15.00    1.60
   3   4   4   13.70    3.90
  -4  -4  -4  213.48   12.80
   4  -4   4  210.98    8.50
  -4  -4  -4  210.08   14.40
   4  -4   4  208.58    5.80
  -4  -4  -4  206.48    8.30
  -4  -4  -4  217.58    7.40
   4  -4   4  212.98   12.30
   4  -4   4  221.98    7.00
   4  -4   4  212.08    6.50
   4  -4   4  214.28    6.20
  -4  -4  -4  201.48   10.90
   4  -4   4  212.28    9.40
  -4  -4  -4  214.28    8.10
   4   4   4  197.88   12.10
   4   4   4  219.48   14.60
   4   4   4  219.78   11.50
   4   4   4  204.08    7.50
   4   4   4  196.08   11.50
   4   4   4  202.58    7.40
  -4   4  -4  207.68   11.20
  -4   4  -4  206.88    7.60
   4   4   4  210.98    7.30
   5  -4   4    6.00    1.80
   5  -4   4    6.90    5.10
   5  -4   4    5.50    1.10
  -5  -4  -4    0.80    1.60
  -5  -4  -4    3.90    1.80
  -5  -4  -4    3.30    4.90
  -5  -4  -4    1.60    4.40
  -5  -4  -4   -2.10    5.10
   5  -4   4   -3.40    3.20
  -5  -4  -4    3.10    1.70
   5  -4   4    8.50    6.40
  -5   4  -4    0.90    1.90
   5   4   4    2.50    1.70
   5   4   4    3.70    1.80
   5   4   4    8.60    7.00
  -5   4  -4    1.30    5.20
   5   4   4    8.90    6.30
   5   4   4    8.50    5.40
  -6  -4  -4  244.48   14.60
   6  -4   4  301.17   17.70
  -6  -4  -4  250.37   23.10
   6  -4   4  317.87   16.40
  -6  -4  -4  285.57   15.10
   6  -4   4  297.27    9.50
  -6  -4  -4  229.68    9.20
  -6  -4  -4  292.87    9.40
  -6  -4  -4  267.97   14.20
   6   4   4  301.57   12.00
   6   4   4  293.97   21.20
  -6   4  -4  285.47   10.60
   6   4   4  273.47   18.20
  -6   4  -4  265.27   16.00
   6   4   4  279.17   10.30
  -7  -4  -4   -2.20    7.90
  -7  -4  -4    3.20    2.90
  -7  -4  -4    0.10    2.50
  -7  -4  -4    3.40    7.30
  -7  -4  -4   19.20    8.80
  -7  -4  -4   -2.00    2.60
  -7   4  -4    7.90    8.20
   7   4   4   -2.90    4.40
   7   4   4   -1.00   13.10
   7   4   4   -0.80    2.70
  -7   4  -4    3.20    2.90
   7   4   4   -6.00    3.30
   7   4   4   10.80   10.10
   7   4   4    1.50   11.30
  -7  -5   4  517.35   16.80
   7  -5  -4  487.35   15.10
  -7  -5   4  518.85   25.70
   7  -5  -4  492.15   20.80
  -7   5   4  503.05   23.20
  -7   5   4  486.25   17.00
   7   5  -4  507.45   17.00
   7   5  -4  552.44   27.40
  -6  -5   4  135.59    6.50
  -6  -5   4  147.79   13.30
  -6  -5   4  135.99   13.40
   6  -5  -4  122.59   11.60
  -6  -5   4  139.19    7.40
  -6  -5   4  138.09   11.10
   6  -5  -4  138.29    6.00
  -6  -5   4  123.69    6.10
  -6   5   4  141.19   11.40
   6   5  -4  146.19    7.40
  -6   5   4  134.79    5.90
   6   5  -4  120.99   12.10
  -6   5   4  126.89   11.00
  -5  -5   4 1441.76   46.20
   5  -5  -4 1496.85   40.40
   5  -5  -4 1549.94   44.70
  -5  -5   4 1475.15   44.60
  -5  -5   4 1542.25   47.10
  -5  -5   4 1506.15   40.70
  -5  -5   4 1539.85   45.90
  -5  -5   4 1492.65   40.80
  -5  -5   4 1479.85   41.10
   5  -5  -4 1536.15   46.20
   5  -5  -4 1511.45   41.10
  -5  -5   4 1576.84   41.40
   5   5  -4 1533.45   41.50
  -5   5   4 1497.45   46.10
   5   5  -4 1644.04   43.50
  -5   5   4 1556.54   44.70
   5   5  -4 1521.05   47.40
  -5   5   4 1514.55   41.40
  -5   5   4 1540.75   40.40
   4  -5  -4   96.19    9.10
  -4  -5   4  106.79    7.70
  -4  -5   4  102.89    5.50
   4  -5  -4   98.29    4.70
  -4  -5   4  106.79    4.80
  -4  -5   4  112.69    5.10
  -4  -5   4  123.19   10.40
   4  -5  -4  106.29    5.00
  -4  -5   4  108.89   10.50
   4  -5  -4  106.09    8.80
  -4  -5   4  106.59    5.60
  -4  -5   4  102.99   11.30
  -4   5   4   99.19    4.90
  -4   5   4  121.39    9.20
  -4   5   4  107.19    4.00
  -4   5   4  107.09    7.00
   4   5  -4  112.09    5.70
   4   5  -4  110.89   10.60
   4   5  -4  105.79   12.30
   4   5  -4  101.39    5.20
   4   5  -4  119.49   11.30
  -3  -5   4   46.10    6.60
  -3  -5   4   44.50    6.80
  -3  -5   4   38.60    5.60
  -3  -5   4   38.70    3.10
   3  -5  -4   41.00    3.20
  -3  -5   4   47.40    5.00
  -3  -5   4   37.50    3.00
   3  -5  -4   39.30    5.20
  -3  -5   4   40.20    2.60
   3  -5  -4   37.50    2.70
  -3  -5   4   38.80    3.20
  -3  -5   4   38.40    5.70
  -3   5   4   39.80    2.50
   3   5  -4   40.40    3.10
   3   5  -4   38.50    6.00
  -3   5   4   43.80    5.10
  -3   5   4   38.00    5.40
  -3   5   4   42.20    3.20
   3   5  -4   42.20    3.30
   3   5  -4   43.00    6.70
  -3   5   4   35.30    2.50
  -3   5   4   41.80    4.40
  -2  -5   4  158.88    9.60
  -2  -5   4  192.18   10.30
  -2  -5   4  174.08    6.60
   2  -5  -4  189.68    8.40
  -2  -5   4  186.18    6.90
  -2  -5   4  192.08    7.30
   2  -5  -4  193.48   10.20
  -2  -5   4  171.98   10.50
   2  -5  -4  202.38   11.20
   2  -5  -4  195.98    6.80
  -2  -5   4  183.88    6.40
   2  -5  -4  202.38    7.40
  -2  -5   4  192.48    5.70
  -2   5   4  186.18    6.20
   2   5  -4  179.78   10.50
   2   5  -4  179.28    6.30
  -2   5   4  186.38    9.30
  -2   5   4  180.68    8.40
  -2   5   4  183.18   10.20
   2   5  -4  191.68    7.00
   2   5  -4  182.38    9.80
  -2   5   4  191.78    6.80
   1  -5  -4  207.88   15.60
  -1  -5   4  206.68    6.80
   1  -5  -4  225.38    9.80
   1  -5  -4  211.18    7.30
  -1  -5   4  198.28   10.40
  -1  -5   4  218.48    6.30
  -1  -5   4  226.28    9.50
  -1  -5   4  202.98    7.10
   1  -5  -4  215.28   10.60
   1   5  -4  211.88    7.40
  -1   5   4  203.08   10.50
   1   5  -4  208.98   10.50
   1   5  -4  213.78    9.30
  -1   5   4  214.78    7.40
  -1   5   4  213.88    9.80
  -1   5   4  215.48    6.90
   1   5  -4  225.28   10.40
  -1   5   4  213.48    9.90
   1   5  -4  214.18    7.70
   1   5  -4  213.68    6.70
   0  -5  -4   39.60    2.70
   0  -5   4   39.40    2.60
   0  -5   4   37.00    3.50
   0  -5   4   36.70    2.50
   0  -5  -4   27.40    4.40
   0  -5   4   39.70    4.80
   0  -5  -4   40.90    5.50
   0  -5   4   40.90    2.00
   0  -5  -4   35.80    2.50
   0  -5  -4   44.80    5.50
   0   5  -4   38.90    3.90
   0   5   4   40.10    2.90
   0   5  -4   38.70    4.50
   0   5   4   46.60    5.10
   0   5  -4   37.00    4.70
   0   5  -4   39.90    2.30
   0   5  -4   39.90    2.60
   0   5  -4   40.10    2.40
   0   5  -4   36.20    4.80
   0   5  -4   39.90    1.90
   0   5   4   38.20    4.80
   0   5   4   40.70    5.30
  -1  -5  -4   62.29    3.20
  -1  -5  -4   59.09    3.20
  -1  -5  -4   56.29    6.10
   1  -5   4   57.39    5.60
  -1  -5  -4   55.69    5.90
   1  -5   4   54.09    2.00
   1  -5   4   55.59    2.80
   1  -5   4   65.09    5.70
   1  -5   4   55.19    2.40
  -1  -5  -4   51.99    2.90
   1  -5   4   53.39    3.30
   1  -5   4   50.89    4.40
   1  -5   4   51.89    2.80
  -1   5  -4   54.69    2.50
  -1   5  -4   54.79    4.80
  -1   5  -4   48.50    5.20
  -1   5  -4   51.19    5.30
   1   5   4   51.99    3.20
   1   5   4   39.50    5.40
   1   5   4   55.59    5.80
   1   5   4   55.39    5.70
  -1   5  -4   54.59    2.50
   1   5   4   57.69    2.90
  -1   5  -4   56.29    2.90
   1   5   4   51.99    2.80
  -2  -5  -4    9.80    3.60
  -2  -5  -4   13.70    3.90
   2  -5   4    9.90    1.30
   2  -5   4   10.20    1.30
  -2  -5  -4    8.60    5.50
  -2  -5  -4   10.60    2.10
   2  -5   4   11.80    3.00
  -2  -5  -4   14.20    1.70
  -2  -5  -4    8.20    1.40
   2  -5   4   12.00    2.90
  -2   5  -4   13.70    3.40
  -2   5  -4    8.60    2.80
   2   5   4   16.10    3.50
  -2   5  -4   10.00    1.40
   2   5   4   12.80    1.80
   2   5   4   16.00    4.10
  -2   5  -4    8.20    1.30
   2   5   4    9.80    1.50
   2   5   4    9.80    1.40
   2   5   4    8.60    4.20
  -3  -5  -4   38.80    3.10
   3  -5   4   40.70    3.70
  -3  -5  -4   32.00    5.70
   3  -5   4   43.10    2.10
   3  -5   4   43.10    4.50
  -3  -5  -4   31.10    5.10
   3  -5   4   45.60    2.40
   3  -5   4   41.70    4.70
  -3  -5  -4   42.30    3.60
   3  -5   4   39.80    2.40
  -3  -5  -4   41.60    6.90
   3  -5   4   50.79    4.40
   3  -5   4   37.60    1.80
   3   5   4   41.90    5.90
  -3   5  -4   40.10    2.30
   3   5   4   42.70    2.90
   3   5   4   47.50    7.70
   3   5   4   36.30    2.90
  -3   5  -4   38.10    3.90
  -3   5  -4   41.40    3.00
   3   5   4   44.20    5.90
  -3   5  -4   34.30    4.80
  -4  -5  -4   24.50    2.90
   4  -5   4   38.60    3.50
   4  -5   4   33.40    2.30
  -4  -5  -4   23.90    6.10
  -4  -5  -4   25.50    5.70
   4  -5   4   30.10    6.40
  -4  -5  -4   30.40    3.30
  -4  -5  -4   31.60    6.90
   4  -5   4   29.40    2.10
   4  -5   4   29.50    4.20
   4  -5   4   28.30    4.60
  -4  -5  -4   31.30    3.40
   4   5   4   36.80    7.90
   4   5   4   16.70    5.60
   4   5   4   32.90    3.10
  -4   5  -4   27.20    2.90
  -4   5  -4   36.10    6.10
   4   5   4   31.30    3.00
   4   5   4   29.70    3.10
   4   5   4   27.50    6.60
   5  -5   4  160.18    5.10
   5  -5   4  155.88   13.10
   5  -5   4  162.28    5.90
  -5  -5  -4  168.98    6.60
  -5  -5  -4  167.08   12.50
  -5  -5  -4  158.98    7.30
  -5  -5  -4  160.28   12.60
   5  -5   4  166.78   10.80
   5  -5   4  138.79    7.90
  -5  -5  -4  161.68   11.90
  -5  -5  -4  152.28    6.70
   5   5   4  151.38    7.70
   5   5   4  166.48    7.00
   5   5   4  162.88    6.50
   5   5   4  164.68   17.20
  -5   5  -4  158.68    6.80
  -5   5  -4  172.28   11.80
   5   5   4  167.28   16.40
   5   5   4  158.88   12.10
   5   5   4  174.68   14.00
   5   5   4  149.49    8.10
   6  -5   4    6.10    2.40
  -6  -5  -4    4.10    6.80
  -6  -5  -4   18.50    7.90
   6  -5   4   12.60    7.90
  -6  -5  -4    4.70    2.80
   6  -5   4   19.00    7.80
  -6  -5  -4    6.90    2.60
  -6  -5  -4    8.90    6.90
  -6  -5  -4    2.20    2.40
  -6   5  -4    7.00    7.00
   6   5   4    7.10    3.70
   6   5   4   -2.30   10.50
   6   5   4    6.50    2.70
   6   5   4    3.90    2.20
   6   5   4   -8.70    9.10
  -6   5  -4    5.30    2.20
   6   5   4    9.30    7.80
  -7  -6   4  269.47   17.50
   7  -6  -4  289.37   16.30
  -7  -6   4  310.07   22.40
  -7  -6   4  289.57   12.00
   7  -6  -4  278.77    9.70
  -7  -6   4  251.37   11.20
  -7   6   4  253.67   17.30
   7   6  -4  318.87   24.40
  -7   6   4  276.17   11.50
   7   6  -4  289.17   12.20
   6  -6  -4    8.90    2.50
   6  -6  -4   13.20    6.30
  -6  -6   4   15.30    8.20
  -6  -6   4    7.50    2.30
  -6  -6   4   15.70    8.10
  -6  -6   4   10.10    2.50
  -6  -6   4    6.90    5.20
  -6  -6   4    7.80    2.90
   6   6  -4    3.80    8.80
  -6   6   4    6.40    2.20
   6   6  -4    5.10    2.80
  -6   6   4    7.10    5.90
  -5  -6   4   65.39    7.60
   5  -6  -4   62.09    8.50
  -5  -6   4   68.49    4.60
  -5  -6   4   67.99    5.20
  -5  -6   4   87.59    9.90
   5  -6  -4   63.59    4.40
  -5  -6   4   74.19    9.40
   5  -6  -4   64.29    4.50
  -5  -6   4   67.59    4.40
   5  -6  -4   77.79    8.00
   5   6  -4   74.39   10.60
  -5   6   4   66.59    7.60
   5   6  -4   78.09    5.50
  -5   6   4   59.69    4.10
  -4  -6   4  413.76   12.50
   4  -6  -4  396.76   12.30
   4  -6  -4  399.46   12.60
  -4  -6   4  417.26   18.50
  -4  -6   4  395.66   13.30
  -4  -6   4  428.16   13.50
   4  -6  -4  396.86   16.70
  -4  -6   4  406.06   15.80
  -4  -6   4  417.26   19.30
   4  -6  -4  383.46   16.70
  -4  -6   4  402.36   12.90
  -4  -6   4  419.86   18.70
   4   6  -4  434.16   19.50
  -4   6   4  416.96   11.80
  -4   6   4  418.26   14.50
  -4   6   4  411.86   12.70
   4   6  -4  409.26   13.20
  -4   6   4  417.36   11.60
   4   6  -4  411.86   19.10
  -4   6   4  388.46   15.30
  -4   6   4  413.16   16.90
   4   6  -4  415.36   13.50
  -3  -6   4  829.82   23.20
   3  -6  -4  786.02   22.40
  -3  -6   4  824.82   22.10
  -3  -6   4  826.02   23.40
  -3  -6   4  798.62   28.30
   3  -6  -4  811.42   26.90
   3  -6  -4  835.12   22.90
  -3  -6   4  826.72   24.70
  -3  -6   4  861.91   28.30
   3  -6  -4  816.32   26.60
  -3  -6   4  807.82   23.00
  -3  -6   4  818.62   27.80
  -3   6   4  811.92   25.30
   3   6  -4  812.12   23.00
  -3   6   4  807.12   22.10
  -3   6   4  808.82   22.90
   3   6  -4  843.72   23.50
  -3   6   4  810.32   21.70
  -3   6   4  802.52   23.50
   3   6  -4  865.41   28.60
   3   6  -4  839.52   27.90
  -3   6   4  845.52   27.20
  -2  -6   4  199.68    8.00
  -2  -6   4  202.58    6.20
  -2  -6   4  193.18   10.80
  -2  -6   4  204.48    7.10
   2  -6  -4  192.38   10.80
  -2  -6   4  208.18   11.20
   2  -6  -4  207.38    9.50
  -2  -6   4  204.48   11.50
   2  -6  -4  193.68    6.80
   2  -6  -4  197.78    7.20
   2  -6  -4  216.08   11.10
  -2  -6   4  197.38    7.40
  -2   6   4  204.78    7.40
  -2   6   4  206.08    6.70
   2   6  -4  199.18    7.50
   2   6  -4  206.98   10.80
  -2   6   4  205.28    9.90
  -2   6   4  192.88    9.40
   2   6  -4  210.28    7.00
  -2   6   4  210.48   11.30
   2   6  -4  215.28   11.80
  -2   6   4  208.38    6.80
  -1  -6   4    8.70    1.40
   1  -6  -4    2.90    3.20
   1  -6  -4    4.10    1.10
  -1  -6   4    8.10    3.90
  -1  -6   4    5.80    1.40
  -1  -6   4    7.50    2.00
  -1  -6   4    6.50    1.30
  -1  -6   4    9.00    0.90
  -1  -6   4    6.50    3.40
   1  -6  -4    9.10    3.40
  -1   6   4    5.30    3.00
   1   6  -4    7.40    1.40
  -1   6   4    3.00    3.30
   1   6  -4    8.20    1.40
   1   6  -4    8.30    4.10
  -1   6   4    5.80    3.50
   1   6  -4    5.70    1.20
   1   6  -4    7.90    3.20
  -1   6   4    4.90    1.00
  -1   6   4    7.00    1.60
   1   6  -4    1.90    3.40
   0  -6   4  658.93   19.80
   0  -6  -4  650.03   18.40
   0  -6   4  664.53   18.50
   0  -6  -4  654.43   22.40
   0  -6  -4  694.53   18.90
   0  -6   4  659.93   22.40
   0  -6  -4  685.53   22.80
   0  -6   4  658.23   18.50
   0  -6   4  658.63   17.60
   0   6   4  667.53   23.10
   0   6  -4  668.43   17.50
   0   6  -4  670.13   21.10
   0   6  -4  633.74   19.30
   0   6   4  675.93   21.80
   0   6  -4  637.04   22.00
   0   6  -4  637.34   18.20
   0   6   4  659.73   22.40
   0   6  -4  667.23   18.00
   0   6  -4  652.23   18.60
   0   6  -4  651.33   21.70
   0   6   4  648.44   18.90
   0   6   4  655.43   18.20
  -1  -6  -4   52.99    3.20
  -1  -6  -4   65.09    7.40
   1  -6   4   51.09    5.10
  -1  -6  -4   57.29    8.30
   1  -6   4   54.29    2.60
   1  -6   4   50.69    2.20
   1  -6   4   59.79    6.10
   1  -6   4   50.39    2.90
   1  -6   4   49.80    2.90
   1  -6   4   57.69    6.40
   1  -6   4   49.10    4.30
   1   6   4   47.10    2.90
  -1   6  -4   52.59    5.60
   1   6   4   48.90    3.20
  -1   6  -4   44.00    2.80
  -1   6  -4   46.60    5.00
  -1   6  -4   46.10    2.50
   1   6   4   52.39    6.90
   1   6   4   50.89    2.80
   1   6   4   42.00    5.60
   1   6   4   41.10    5.00
  -1   6  -4   62.39    5.70
  -1   6  -4   47.50    2.80
  -2  -6  -4  381.76   11.80
   2  -6   4  392.06   11.50
  -2  -6  -4  392.26   12.30
  -2  -6  -4  401.36   16.40
   2  -6   4  392.56   14.20
   2  -6   4  394.06   10.50
   2  -6   4  382.96   14.50
   2  -6   4  387.06   11.90
  -2  -6  -4  392.96   16.30
  -2  -6  -4  401.86   12.20
  -2  -6  -4  411.56   17.10
   2  -6   4  391.46   11.40
   2   6   4  406.86   12.50
  -2   6  -4  400.16   14.50
  -2   6  -4  409.46   13.20
  -2   6  -4  398.76   11.50
   2   6   4  387.56   11.90
  -2   6  -4  413.56   11.10
   2   6   4  382.86   17.20
   2   6   4  386.16   15.80
   2   6   4  380.56   12.20
   2   6   4  404.66   15.80
   3  -6   4  232.28    7.10
   3  -6   4  223.68    9.30
   3  -6   4  225.18    7.00
  -3  -6  -4  223.58    7.90
   3  -6   4  217.78    9.00
  -3  -6  -4  209.78   14.90
   3  -6   4  234.68    8.40
   3  -6   4  234.48   10.30
  -3  -6  -4  218.48    8.30
  -3  -6  -4  218.88   12.70
  -3  -6  -4  238.08   12.70
   3  -6   4  226.88    6.50
   3  -6   4  213.28    6.70
   3   6   4  239.08   14.70
   3   6   4  231.68    7.90
  -3   6  -4  236.18    9.50
   3   6   4  226.98   12.70
   3   6   4  224.58    8.00
  -3   6  -4  237.88   10.50
   3   6   4  212.38   12.30
  -3   6  -4  234.88    7.50
  -3   6  -4  224.28    7.00
   4  -6   4   43.00    2.10
   4  -6   4   46.90    2.70
   4  -6   4   46.60    4.30
   4  -6   4   42.20    2.60
   4  -6   4   43.50    4.90
  -4  -6  -4   43.80    3.50
   4  -6   4   45.30    2.80
  -4  -6  -4   39.00    7.00
  -4  -6  -4   49.70    4.20
  -4  -6  -4   48.80    3.90
   4  -6   4   50.49    2.20
   4  -6   4   47.20    5.40
   4  -6   4   47.20    5.00
   4  -6   4   46.80    7.00
  -4  -6  -4   38.60    6.40
   4  -6   4   39.70    3.70
  -4  -6  -4   58.59    9.00
   4   6   4   50.19    7.60
   4   6   4   44.40    4.70
   4   6   4   49.60    7.30
   4   6   4   49.10    3.70
  -4   6  -4   49.60    6.60
   4   6   4   20.10    9.60
   4   6   4   39.80    8.80
  -4   6  -4   44.20    3.70
   4   6   4   41.80    4.90
   4   6   4   43.90    3.60
  -5  -6  -4    4.90    6.10
   5  -6   4   10.60    7.40
  -5  -6  -4   22.70    6.80
  -5  -6  -4    7.80    2.40
  -5  -6  -4   12.00    2.30
   5  -6   4   10.70    1.90
   5  -6   4   11.50    1.50
   5  -6   4   11.90    4.20
  -5  -6  -4    3.50    5.90
  -5  -6  -4   11.10    3.10
   5  -6   4    6.10    5.50
   5   6   4    8.20    3.00
  -5   6  -4   10.00    2.80
  -5   6  -4    1.60    5.80
   5   6   4   11.50    2.10
   5   6   4   14.00    8.90
   5   6   4   12.90    2.50
   5   6   4    8.30    6.90
   5   6   4    8.80    7.50
  -6  -6  -4   36.20    5.00
  -6  -6  -4   33.30    9.20
   6  -6   4   35.00    9.50
  -6  -6  -4   44.70    4.90
  -6  -6  -4   46.00    8.80
  -6   6  -4   44.60    4.60
   6   6   4   36.40    4.00
   6   6   4   34.20    3.50
   6   6   4   60.19   13.20
   6   6   4   64.49   11.50
  -6   6  -4   36.70    8.60
   6   6   4   51.49    9.60
   6   6   4   42.80    5.60
   7  -7  -4    0.90    2.70
  -7  -7   4    2.80    2.70
  -7  -7   4    8.10    7.90
  -7  -7   4    5.10   12.70
   7  -7  -4   23.20    8.30
  -7  -7   4    4.90    4.30
   7   7  -4    8.20    4.20
  -7   7   4    0.50    2.50
   7   7  -4    9.50   13.30
  -7   7   4    1.90    7.40
  -6  -7   4  100.29    7.20
  -6  -7   4   98.39   10.80
   6  -7  -4   98.49    5.60
  -6  -7   4   94.39    5.70
   6  -7  -4  110.29   11.90
  -6  -7   4  101.39   12.80
   6   7  -4   95.89    7.00
   6   7  -4  104.99   13.70
  -5  -7   4   51.99    7.60
  -5  -7   4   46.50    5.00
  -5  -7   4   43.20   13.60
   5  -7  -4   43.60    3.90
  -5  -7   4   48.40    5.50
   5  -7  -4   42.50    7.20
   5  -7  -4   39.10    3.90
   5  -7  -4   42.30    8.90
  -5  -7   4   58.79    9.20
  -5  -7   4   43.30    3.90
   5   7  -4   47.80    9.80
   5   7  -4   50.19    5.00
  -5   7   4   43.50    7.10
  -5   7   4   45.80    4.00
  -4  -7   4   74.99    7.90
  -4  -7   4   74.99    9.80
  -4  -7   4   68.79    8.80
  -4  -7   4   88.09    5.40
  -4  -7   4   78.39    5.80
   4  -7  -4   87.49    4.80
  -4  -7   4   79.19    4.40
   4  -7  -4  107.49   11.30
   4  -7  -4   74.49    4.50
   4  -7  -4   85.99    8.40
   4   7  -4   85.99    5.00
   4   7  -4   66.29    9.40
   4   7  -4   84.89    5.40
  -4   7   4   85.39    4.30
  -4   7   4   81.29    7.70
  -4   7   4   86.49    3.60
  -4   7   4   79.29    8.20
  -4   7   4   82.89    4.80
  -4   7   4   91.79    7.20
   3  -7  -4   23.20    2.70
  -3  -7   4   21.50    4.60
  -3  -7   4   14.20    2.10
  -3  -7   4   18.60    8.00
  -3  -7   4   18.90    3.10
   3  -7  -4   15.60    5.50
   3  -7  -4   14.80    5.60
  -3  -7   4   19.60    2.20
  -3  -7   4   16.30    5.90
   3  -7  -4   22.50    4.00
   3  -7  -4   21.30    2.60
  -3  -7   4   12.90    5.20
  -3   7   4   13.80    1.90
   3   7  -4   17.50    2.70
   3   7  -4    2.70    5.50
  -3   7   4   16.60    4.40
  -3   7   4   17.70    1.80
  -3   7   4   19.70    2.50
   3   7  -4   10.90    5.40
  -3   7   4   18.30    3.80
  -3   7   4   23.00    5.50
   3   7  -4   16.80    2.20
  -3   7   4   21.10    5.70
  -3   7   4   17.10    2.20
   2  -7  -4 1559.94   46.50
   2  -7  -4 1636.64   42.30
  -2  -7   4 1630.34   41.00
  -2  -7   4 1564.44   47.60
   2  -7  -4 1558.64   46.00
   2  -7  -4 1586.24   44.40
   2  -7  -4 1558.94   41.90
  -2  -7   4 1553.74   42.00
  -2  -7   4 1594.74   42.60
  -2  -7   4 1640.44   42.90
  -2  -7   4 1586.84   46.30
  -2   7   4 1566.74   45.00
   2   7  -4 1623.54   46.10
   2   7  -4 1609.34   42.00
   2   7  -4 1585.74   47.60
  -2   7   4 1630.04   47.20
  -2   7   4 1551.64   42.40
  -2   7   4 1548.25   44.50
   2   7  -4 1609.34   42.60
  -2   7   4 1576.74   41.60
   2   7  -4 1601.54   47.60
   2   7  -4 1619.54   42.80
  -2   7   4 1604.04   41.60
  -1  -7   4  311.77   14.60
  -1  -7   4  313.37   10.30
  -1  -7   4  310.37   10.10
  -1  -7   4  318.07    9.70
   1  -7  -4  319.67   13.40
  -1  -7   4  333.47   13.50
   1  -7  -4  319.57   14.40
  -1  -7   4  318.47    8.70
   1  -7  -4  309.07   10.30
  -1  -7   4  307.87   10.10
  -1   7   4  307.97   10.10
   1   7  -4  315.67    9.90
   1   7  -4  318.87    9.50
   1   7  -4  334.17   14.60
   1   7  -4  315.97   10.10
   1   7  -4  324.87   12.70
  -1   7   4  330.47   10.60
  -1   7   4  317.27   13.10
  -1   7   4  314.97   13.70
  -1   7   4  302.07    9.60
  -1   7   4  308.47   14.80
   1   7  -4  297.27   13.80
   0  -7   4   68.29    6.40
   0  -7  -4   77.79    4.20
   0  -7   4   86.29    8.30
   0  -7   4   84.49    5.00
   0  -7   4   85.29    4.10
   0  -7  -4   89.39   10.60
   0  -7   4   87.79    4.10
   0  -7  -4   69.79    7.90
   0  -7   4   83.39    3.50
   0  -7   4   81.99    2.90
   0   7  -4   89.49    7.80
   0   7  -4   71.09    5.60
   0   7  -4   87.79    7.40
   0   7   4   78.59    4.40
   0   7  -4   80.79    4.00
   0   7   4   83.29    8.40
   0   7  -4   81.29    3.80
   0   7   4   88.69    4.60
   0   7  -4   82.79    3.80
   0   7   4   80.49    3.70
   0   7   4   71.89    7.10
   0   7  -4   86.99    8.20
   0   7  -4   79.69    3.20
   0   7   4   84.39    8.50
   1  -7   4    4.90    2.90
   1  -7   4    1.00    1.20
   1  -7   4    4.60    3.70
  -1  -7  -4    3.00    5.30
   1  -7   4    0.40    1.00
   1  -7   4    1.70    0.90
   1  -7   4    3.40    3.60
  -1  -7  -4    0.40    1.30
  -1   7  -4   -0.40    3.20
  -1   7  -4    0.80    3.30
  -1   7  -4    2.10    1.20
   1   7   4   -5.80    4.50
   1   7   4    1.60    1.20
   1   7   4    1.10    1.60
   1   7   4    1.00    1.30
   1   7   4   -2.60    3.50
  -1   7  -4   -1.40    3.40
  -1   7  -4   -0.30    1.20
  -1   7  -4    0.90    1.00
   1   7   4    2.30    3.80
   1   7   4    0.30    1.00
   2  -7   4   55.69    3.20
  -2  -7  -4   56.39    6.60
   2  -7   4   64.29    7.50
   2  -7   4   64.89    2.70
   2  -7   4   58.09    6.50
  -2  -7  -4   53.89    7.90
  -2  -7  -4   61.49    3.80
   2  -7   4   62.79    5.30
  -2  -7  -4   66.09    7.60
   2  -7   4   60.59    3.30
  -2  -7  -4   54.99    3.90
   2   7   4   58.79    3.40
  -2   7  -4   63.19    3.40
   2   7   4   62.09    4.60
   2   7   4   70.19    7.40
   2   7   4   64.89    7.60
   2   7   4   64.79    3.70
  -2   7  -4   60.69    6.10
   2   7   4   56.79    7.90
   3  -7   4    1.00    1.00
   3  -7   4   -0.50    2.90
   3  -7   4    1.40    1.20
  -3  -7  -4   -9.50    5.80
   3  -7   4    1.80    3.00
   3  -7   4    3.50    3.10
   3  -7   4    1.70    1.20
   3  -7   4    9.40    4.10
  -3  -7  -4   -0.80    2.00
   3   7   4   -2.90    6.40
   3   7   4    1.00    1.40
  -3   7  -4    3.10    1.50
  -3   7  -4    6.30    3.30
  -3   7  -4    1.80    3.90
   3   7   4    3.60    2.30
   3   7   4    0.00    5.20
   3   7   4    2.50    5.10
  -3   7  -4    0.80    1.20
   4  -7   4    5.40    1.50
   4  -7   4    7.90    4.60
  -4  -7  -4    4.40    5.80
   4  -7   4    8.70    5.80
   4  -7   4   10.90    2.90
   4  -7   4    7.30    4.50
   4  -7   4    4.40    1.60
   4  -7   4    7.50    3.20
  -4  -7  -4   -9.20    5.10
   4  -7   4    2.90    1.50
   4  -7   4    5.40    1.20
  -4  -7  -4    2.70    2.10
   4  -7   4    4.50    1.10
   4  -7   4    6.80    4.40
   4   7   4    9.90    7.40
   4   7   4    4.40    5.70
  -4   7  -4    5.90    2.00
   4   7   4    6.90    8.00
   4   7   4   12.20    2.90
   4   7   4    4.20    2.10
  -4   7  -4   11.40    5.20
   5  -7   4    2.40    6.10
  -5  -7  -4    8.00    8.00
  -5  -7  -4   12.90    3.10
   5  -7   4   10.90    2.10
  -5  -7  -4    6.40    6.90
  -5  -7  -4    8.80    2.70
   5  -7   4   10.40    4.90
   5  -7   4    0.60    6.90
  -5  -7  -4   15.00    7.00
   5  -7   4    6.40    1.60
  -5  -7  -4    8.40    2.20
   5   7   4   15.90    7.60
  -5   7  -4    6.80    2.40
   5   7   4   11.60   10.20
  -5   7  -4    0.40    5.70
   5   7   4    9.10    3.70
   5   7   4   13.00    2.60
   5   7   4    9.40    2.40
   5   7   4   -4.30    7.30
  -6  -7  -4   99.09   13.00
   6  -7   4  114.19   12.80
  -6  -7  -4  104.59    7.30
  -6  -7  -4  113.69   12.20
  -6  -7  -4  102.99    6.70
   6   7   4  113.49    6.80
   6   7   4  104.89   13.30
  -6   7  -4  118.99    6.60
   6   7   4  102.29   16.10
  -6   7  -4  120.89   12.30
   6   7   4  107.39    8.60
   6   7   4  110.49    6.50
   6   7   4  120.79   13.00
  -6  -8   4   -9.90    9.70
   6  -8  -4   -3.10    6.60
  -6  -8   4   -1.40    2.10
  -6  -8   4   -6.60    6.00
  -6  -8   4    2.50    2.90
   6  -8  -4   -0.30    2.30
  -6  -8   4   -0.30    3.30
  -6  -8   4    5.60    9.80
   6   8  -4   -0.90    3.20
   6   8  -4   -9.10   10.90
  -6   8   4    8.20    7.40
  -6   8   4    0.40    2.30
  -5  -8   4  184.88    8.60
  -5  -8   4  160.78   15.70
   5  -8  -4  170.48    7.10
  -5  -8   4  173.58   16.20
   5  -8  -4  165.68   13.20
  -5  -8   4  155.08    7.40
  -5  -8   4  177.78   12.60
  -5  -8   4  164.88    7.20
  -5   8   4  173.08    7.20
   5   8  -4  191.18   26.60
  -5   8   4  178.08   13.50
   5   8  -4  119.49   11.60
  -4  -8   4   55.39    9.20
   4  -8  -4   60.19    4.30
   4  -8  -4   42.00    8.20
  -4  -8   4   55.89    4.90
   4  -8  -4   57.49    7.60
  -4  -8   4   56.29    3.80
  -4  -8   4   49.60    7.00
   4  -8  -4   46.20    4.10
  -4  -8   4   35.50    8.40
   4   8  -4   46.30    9.20
  -4   8   4   52.99    3.70
   4   8  -4   48.10    4.90
  -4   8   4   53.09    3.00
  -4   8   4   53.39    6.60
  -4   8   4   54.89    4.40
   4   8  -4   49.80    4.20
  -4   8   4   59.29    7.90
  -4   8   4   51.79    5.70
   4   8  -4   58.49    9.20
   3  -8  -4  986.50   32.50
  -3  -8   4 1022.20   30.00
  -3  -8   4  933.61   28.00
   3  -8  -4 1018.00   29.20
  -3  -8   4 1026.90   28.40
  -3  -8   4 1031.50   34.30
  -3  -8   4 1002.70   26.90
   3  -8  -4  988.90   27.70
  -3   8   4 1022.80   28.00
  -3   8   4  999.30   29.30
   3   8  -4 1030.30   28.60
   3   8  -4  977.40   34.40
  -3   8   4 1007.20   26.60
  -3   8   4  999.20   30.40
   3   8  -4 1013.50   27.90
  -3   8   4  987.60   31.80
  -3   8   4 1006.30   26.80
  -3   8   4  997.30   27.10
   3   8  -4  973.30   33.10
  -3   8   4  966.60   32.70
  -2  -8   4  197.58    7.50
  -2  -8   4  208.58    6.50
  -2  -8   4  178.58   12.70
   2  -8  -4  199.08   10.90
  -2  -8   4  198.08    9.00
  -2  -8   4  192.08   13.00
   2  -8  -4  181.58   12.10
  -2  -8   4  203.88    7.80
   2  -8  -4  190.18    7.50
   2  -8  -4  209.18    7.60
  -2   8   4  198.48    7.50
  -2   8   4  194.68    6.90
  -2   8   4  205.88    7.90
   2   8  -4  194.58    8.90
  -2   8   4  194.98   10.70
  -2   8   4  198.88    7.10
   2   8  -4  200.38    7.90
   2   8  -4  191.18   11.40
   2   8  -4  197.08   12.90
  -2   8   4  204.98   12.70
  -2   8   4  198.38   12.60
  -2   8   4  198.48   11.20
   2   8  -4  201.38   12.60
   2   8  -4  205.88    7.30
   1  -8  -4   42.30    6.20
  -1  -8   4   46.20    7.50
  -1  -8   4   36.80    3.20
  -1  -8   4   46.20    6.20
   1  -8  -4   38.30    5.70
   1  -8  -4   36.20    3.40
  -1  -8   4   39.60    3.20
   1   8  -4   43.30    5.50
  -1   8   4   39.30    5.30
   1   8  -4   45.20    2.80
   1   8  -4   42.10    6.70
  -1   8   4   41.50    2.80
   1   8  -4   39.20    6.50
  -1   8   4   42.90    3.60
   1   8  -4   38.10    3.20
  -1   8   4   44.10    3.60
  -1   8   4   42.80    3.90
  -1   8   4   30.10    7.20
  -1   8   4   40.90    6.30
   1   8  -4   43.00    3.20
  -1   8   4   39.40    7.10
   0  -8   4  257.37   11.40
   0  -8  -4  244.98    8.70
   0  -8   4  239.78    7.80
   0  -8   4  234.78    8.40
   0  -8   4  242.78    8.50
   0  -8  -4  243.88   13.40
   0  -8   4  241.08   13.00
   0   8   4  235.38   12.20
   0   8   4  245.08    8.20
   0   8  -4  262.07    8.20
   0   8  -4  239.48   10.50
   0   8  -4  256.67   12.30
   0   8   4  235.98   14.00
   0   8   4  241.58    8.90
   0   8  -4  276.77   12.70
   0   8   4  239.48   12.70
   0   8  -4  256.07   13.00
   0   8  -4  230.28    8.00
   0   8   4  258.57   13.80
   0   8   4  250.27    9.10
   0   8  -4  243.58    7.60
  -1  -8  -4    6.50    2.10
   1  -8   4   10.70    1.80
   1  -8   4    9.00    4.00
   1  -8   4    8.30    1.60
   1  -8   4   10.00    4.80
  -1  -8  -4   10.40    6.30
  -1  -8  -4   10.00    4.70
   1  -8   4   12.40    1.70
  -1   8  -4    9.80    1.70
  -1   8  -4   12.50    4.30
   1   8   4    9.30    2.00
  -1   8  -4   14.40    4.10
   1   8   4   11.30    4.70
   1   8   4   -2.20    4.60
  -1   8  -4    7.70    1.40
   1   8   4   13.30    2.20
   1   8   4   13.10    2.10
  -1   8  -4    5.70    4.20
  -1   8  -4   10.00    1.70
   2  -8   4  114.79   11.90
   2  -8   4  106.39    9.10
  -2  -8  -4   82.79    9.70
   2  -8   4  104.69    4.60
   2  -8   4  115.59    7.50
   2  -8   4  113.09    5.70
   2  -8   4  115.39    4.20
   2  -8   4  106.69    4.80
   2  -8   4  119.09    8.30
   2   8   4  122.99    6.20
   2   8   4  101.79   10.50
  -2   8  -4  112.39    8.80
   2   8   4   96.79   10.00
  -2   8  -4  110.19    4.70
   2   8   4  111.59    5.20
   2   8   4  125.99    9.70
   3  -8   4   23.10    2.70
   3  -8   4   27.70    4.60
   3  -8   4   16.50    7.50
   3  -8   4   26.20    5.70
   3  -8   4   25.10    3.20
   3  -8   4   23.20    2.50
  -3  -8  -4   21.70    3.10
  -3  -8  -4   15.40    7.50
   3  -8   4   24.70    5.00
   3   8   4   28.00    3.10
   3   8   4   24.70    8.10
   3   8   4   28.50    3.70
   3   8   4   21.50    7.10
   4  -8   4   61.49    6.30
   4  -8   4   57.29    3.50
   4  -8   4   57.99    3.30
  -4  -8  -4   63.89    5.00
   4  -8   4   71.19    6.70
   4  -8   4   59.59    6.60
   4  -8   4   50.29    2.90
   4  -8   4   56.19    3.50
   4  -8   4   60.59    7.10
   4  -8   4   62.99    6.40
   4  -8   4   51.39    2.90
  -4  -8  -4   57.49    9.00
   4   8   4   47.60   10.50
  -4   8  -4   57.29    7.60
   4   8   4   53.19    9.20
   4   8   4   54.39    4.60
   4   8   4   53.79    5.70
  -4   8  -4   56.19    4.20
  -5  -8  -4   38.90    4.50
  -5  -8  -4   33.00    9.60
  -5  -8  -4   35.30    4.60
   5  -8   4   30.80    8.80
  -5  -8  -4   30.70    9.30
   5  -8   4   38.50    4.10
   5  -8   4   39.00    4.50
   5  -8   4   27.20    6.90
   5   8   4   37.10   10.20
   5   8   4   27.30    9.10
  -5   8  -4   35.30    3.90
   5   8   4   41.30    4.60
   5   8   4   54.59   12.70
  -5   8  -4   36.30    7.80
   5   8   4   38.20    4.40
   5   8   4   38.20    4.80
  -6  -8  -4  101.49    7.00
  -6  -8  -4   84.39   12.90
  -6  -8  -4   94.89    7.40
  -6  -8  -4   74.89   12.30
  -6   8  -4   96.09   11.60
   6   8   4  104.09    6.90
   6   8   4  104.99   14.00
   6   8   4  114.39    9.50
  -6   8  -4  111.69    6.60
   6   8   4  108.39   16.80
   6   8   4   69.49   12.70
   6   8   4  103.49    6.90
   6  -9  -4  372.26   19.70
  -6  -9   4  356.46   12.90
   6  -9  -4  354.26   12.10
  -6  -9   4  393.66   25.50
  -6  -9   4  345.57   14.20
  -6  -9   4  343.27   19.20
  -6  -9   4  357.96   12.80
  -6  -9   4  320.07   23.20
   6   9  -4  382.36   27.80
   6   9  -4  352.36   14.30
   5  -9  -4 1102.19   36.10
  -5  -9   4 1099.89   30.70
   5  -9  -4 1084.49   30.40
  -5  -9   4 1104.09   31.90
  -5  -9   4 1077.29   35.60
  -5  -9   4 1092.99   39.80
  -5  -9   4 1097.99   39.80
  -5  -9   4 1100.99   31.20
   5   9  -4 1123.89   31.90
  -5   9   4 1107.69   36.60
  -5   9   4 1103.59   30.60
   5   9  -4 1106.79   32.10
   5   9  -4 1107.19   41.10
  -4  -9   4    5.20    2.20
   4  -9  -4    3.50    2.10
   4  -9  -4    5.70    5.90
  -4  -9   4   14.10    5.60
  -4   9   4   -4.10    6.10
  -4   9   4    8.70    6.80
   4   9  -4   16.50    8.80
  -4   9   4    4.50    2.10
   4   9  -4    9.50    2.40
  -4   9   4    8.00    4.80
  -4   9   4    6.00    1.60
   4   9  -4    4.90    2.50
  -4   9   4    6.20    2.40
  -3  -9   4   67.59    7.10
   3  -9  -4   60.89    6.30
   3  -9  -4   57.99    4.20
  -3  -9   4   63.89    4.70
  -3  -9   4   72.19   10.00
   3  -9  -4   47.90    7.30
  -3  -9   4   62.39    3.80
  -3   9   4   60.19    3.70
   3   9  -4   54.29    4.30
  -3   9   4   58.29    4.40
  -3   9   4   69.49    8.90
  -3   9   4   64.99    8.40
   3   9  -4   54.69    8.20
  -3   9   4   76.29    8.50
  -3   9   4   59.99    3.60
   3   9  -4   71.89    5.10
   3   9  -4   60.59   10.00
  -3   9   4   57.49    4.70
  -3   9   4   62.09    6.50
  -2  -9   4  210.88   14.80
   2  -9  -4  193.28   12.80
  -2  -9   4  193.48    9.50
   2  -9  -4  193.78    7.70
   2  -9  -4  192.78   11.70
  -2  -9   4  184.48    7.60
  -2  -9   4  198.78    6.60
  -2  -9   4  191.58    7.90
   2   9  -4  202.08   12.50
   2   9  -4  196.28    7.30
  -2   9   4  204.08   13.80
  -2   9   4  199.28    7.00
  -2   9   4  179.58   14.60
  -2   9   4  191.68   11.20
  -2   9   4  187.28   11.80
  -2   9   4  199.78    8.10
  -2   9   4  194.68    7.30
  -2   9   4  189.68    7.70
  -1  -9   4    2.70    5.70
  -1  -9   4   17.00    2.50
   1  -9  -4   10.40    5.40
  -1  -9   4   21.20    6.10
   1  -9  -4   13.80    2.40
   1  -9  -4    4.90    5.40
  -1   9   4   11.20    2.50
  -1   9   4   12.20    1.80
  -1   9   4   14.10    2.60
   1   9  -4   12.10    5.50
  -1   9   4   18.40    4.80
   1   9  -4   19.60    6.60
   1   9  -4   10.90    2.10
  -1   9   4   15.70    6.20
  -1   9   4   19.90    7.80
  -1   9   4   14.30    2.40
  -1   9   4   15.10    5.40
   1   9  -4   15.50    2.20
   1   9  -4   11.10    1.80
   1   9  -4   14.30    4.70
   0  -9  -4   29.20    6.30
   0  -9  -4   36.00    3.50
   0  -9   4   21.40    6.30
   0  -9   4   30.80    3.50
   0  -9   4   25.40    2.80
   0  -9   4   26.20    5.40
   0  -9  -4   19.30    6.10
   0   9  -4   29.40    2.40
   0   9  -4   21.70    5.90
   0   9   4   21.50    5.80
   0   9  -4   30.70    4.80
   0   9  -4   22.80    2.40
   0   9   4   23.40    2.90
   0   9  -4   31.60    6.20
   0   9  -4   36.40    2.90
   0   9   4   26.20    6.10
   0   9   4   19.40    6.30
   0   9  -4   25.60    6.40
   0   9   4   32.50    3.70
   1  -9   4  250.77   13.70
   1  -9   4  243.88   11.90
  -1  -9  -4  259.37    9.30
   1  -9   4  239.78    8.00
   1  -9   4  251.27    8.70
   1  -9   4  254.17    8.80
  -1  -9  -4  241.88   14.30
  -1   9  -4  252.37    8.00
   1   9   4  241.28   15.10
   1   9   4  280.87    9.90
   1   9   4  256.87    9.90
  -1   9  -4  266.17   12.00
  -1   9  -4  256.27   15.70
   1   9   4  243.18    8.80
  -1   9  -4  250.87    7.90
  -1   9  -4  256.27   11.90
  -1   9  -4  250.07    9.50
   2  -9   4   -0.80    1.20
   2  -9   4    3.50    5.30
   2  -9   4    1.10    1.60
   2  -9   4    8.00    5.30
   2  -9   4   -2.30    2.50
   2  -9   4    2.90    1.90
  -2   9  -4    4.30    2.50
  -2   9  -4   -1.80    1.50
  -2   9  -4    4.20    2.50
   2   9   4    0.90    6.30
  -2   9  -4    8.30    5.40
   2   9   4    0.50    1.60
   2   9   4    1.90    6.30
   2   9   4   -0.90    2.30
   3  -9   4   -0.90    1.70
   3  -9   4    3.10    4.50
  -3  -9  -4   -4.00    6.30
  -3  -9  -4    0.10    2.00
   3  -9   4    2.50    1.80
   3  -9   4   -1.20    4.10
   3  -9   4    2.00    1.70
   3  -9   4    5.30    5.60
   3  -9   4    4.00    4.80
   3  -9   4    3.50    1.50
   3   9   4    3.90    1.90
   3   9   4    1.40    2.70
   3   9   4    2.60    8.00
   4  -9   4   67.89    6.80
   4  -9   4   72.49    8.10
  -4  -9  -4   85.29   11.00
   4  -9   4   79.39    4.20
   4  -9   4   74.99    3.70
   4  -9   4   72.19    3.60
   4  -9   4   70.99    3.90
   4  -9   4   71.29    6.30
  -4  -9  -4   74.59    5.90
   4  -9   4   64.69    8.50
   4   9   4   71.49   12.30
   4   9   4   78.09    6.70
   4   9   4   69.99   10.60
   4   9   4   66.99    5.00
  -5  -9  -4  148.39   15.40
  -5  -9  -4  150.28    8.90
  -5  -9  -4  175.58    8.90
  -5  -9  -4  183.78   18.40
   5  -9   4  154.48   15.80
   5   9   4  162.78    9.50
   5   9   4  182.28   17.80
   5   9   4  141.09    7.70
   5   9   4  165.38   16.60
   5   9   4  157.48    7.90
  -5 -10   4   60.89    6.80
   5 -10  -4   48.30    9.20
   5 -10  -4   49.99    5.20
  -5 -10   4   37.10   10.50
  -5 -10   4   54.19    9.20
  -5 -10   4   26.00   11.50
  -5 -10   4   45.30    4.60
  -5 -10   4   41.10    4.30
   5  10  -4   47.20    4.80
   5  10  -4   72.19   14.30
  -5  10   4   18.60    8.10
   5  10  -4   53.89    5.70
   5  10  -4   40.10   11.80
  -4 -10   4  628.84   20.10
  -4 -10   4  629.54   22.90
  -4 -10   4  634.74   18.60
  -4 -10   4  635.24   28.00
   4 -10  -4  626.54   25.30
   4 -10  -4  633.54   19.00
   4  10  -4  625.94   20.20
   4  10  -4  631.24   28.40
  -4  10   4  647.54   21.00
   4  10  -4  639.54   19.60
  -4  10   4  625.04   17.30
  -4  10   4  638.34   19.30
   4  10  -4  605.34   29.20
  -4  10   4  645.44   26.30
  -3 -10   4   -4.40    4.30
   3 -10  -4    9.20    6.10
  -3 -10   4    5.20    2.00
  -3 -10   4   -0.80    2.00
   3 -10  -4    3.40    2.10
   3 -10  -4    6.80    5.90
  -3  10   4   -1.40    2.60
  -3  10   4    2.90    1.70
   3  10  -4    2.20    2.00
   3  10  -4    6.20    2.20
  -3  10   4    0.30    1.90
  -3  10   4   -0.10    7.60
   3  10  -4   12.60    8.40
  -3  10   4    1.80    5.20
   3  10  -4   -5.00    6.30
  -3  10   4    4.50    6.50
  -3  10   4    9.40    5.00
  -3  10   4    0.50    2.40
   2 -10  -4   47.30    4.20
   2 -10  -4   61.99    7.90
  -2 -10   4   44.60    4.20
  -2 -10   4   59.09    6.10
   2 -10  -4   42.10    7.80
  -2 -10   4   48.20    3.40
  -2  10   4   53.59    4.80
  -2  10   4   29.90    8.70
  -2  10   4   48.90    7.80
   2  10  -4   54.69    8.80
  -2  10   4   50.29    3.50
  -2  10   4   46.30    4.80
   2  10  -4   48.70    8.00
  -2  10   4   45.90    4.10
   2  10  -4   48.40    3.70
  -2  10   4   60.79    7.20
  -2  10   4   55.79    9.00
   1 -10  -4   24.10    3.00
  -1 -10   4   25.90    3.00
  -1 -10   4   26.00    8.00
   1 -10  -4   10.10    6.60
   1 -10  -4   15.50    6.20
   1  10  -4   18.10    2.60
  -1  10   4   18.40    2.90
  -1  10   4   24.40    5.80
  -1  10   4   24.90    2.90
  -1  10   4   23.90    3.20
   1  10  -4   13.90    5.50
  -1  10   4   26.00    7.00
   1  10  -4   27.90    7.10
  -1  10   4   26.50    7.40
   1  10  -4   22.30    2.50
   0 -10  -4  845.32   31.00
   0 -10   4  857.61   23.90
   0 -10   4  892.21   28.70
   0 -10  -4  885.21   25.20
   0 -10   4  756.62   39.10
   0  10  -4  856.61   29.00
   0  10   4  878.31   25.20
   0  10  -4  886.91   24.10
   0  10   4  936.31   31.20
   0  10  -4  875.01   23.70
   0  10   4  913.61   25.60
   0  10   4  825.72   31.20
   0  10  -4  851.21   23.90
   0  10  -4  861.91   28.80
   0  10  -4  869.71   27.60
  -1 -10  -4  238.88    9.20
   1 -10   4  224.28   14.70
   1 -10   4  230.78    8.00
   1 -10   4  233.28    8.80
   1 -10   4  255.47   13.50
  -1 -10  -4  256.17   15.40
   1  10   4  251.07   11.40
  -1  10  -4  227.88    8.60
  -1  10  -4  239.88   11.90
  -1  10  -4  242.58   14.10
  -1  10  -4  236.58    7.70
   2 -10   4  235.08   12.70
   2 -10   4  239.88    8.80
   2 -10   4  241.78   14.70
   2 -10   4  258.87   14.50
   2 -10   4  236.18    8.90
   2 -10   4  237.18    8.50
   2 -10   4  241.38    8.00
  -2  10  -4  246.78    9.70
  -2  10  -4  241.68    7.00
   2  10   4  238.38   10.10
   2  10   4  250.27   17.20
   3 -10   4  801.12   22.60
   3 -10   4  796.02   22.40
   3 -10   4  803.12   28.40
  -3 -10  -4  796.22   31.30
   3 -10   4  780.92   27.00
   3 -10   4  806.42   22.90
  -3 -10  -4  847.32   24.40
   3 -10   4  831.12   23.80
   3 -10   4  834.32   31.80
   3 -10   4  793.82   26.60
   3  10   4  840.22   33.00
   3  10   4  801.12   24.90
   4 -10   4  137.99    6.10
   4 -10   4  128.99   11.60
  -4 -10  -4  131.99    8.00
  -4 -10  -4  124.59   13.60
   4 -10   4  141.09    5.60
   4 -10   4  151.98   10.50
   4  10   4  147.29   19.30
   4  10   4  141.99   15.90
   4  10   4  140.19    8.50
   4  10   4  145.69    7.00
  -5 -10  -4   70.69   11.50
  -5 -10  -4   63.09    6.60
  -5 -10  -4   72.19   13.70
  -5 -10  -4   66.59    7.30
   5 -10   4   66.69   11.20
   5  10   4   65.59    5.90
   5  10   4   60.29   13.20
   5  10   4   56.29   14.70
   5  10   4   63.59    5.50
   5  10   4   73.89    7.80
  -5 -11   4  279.17   22.90
  -5 -11   4  257.47   10.20
  -5 -11   4  253.87   11.20
   5 -11  -4  274.77   10.60
  -5 -11   4  261.37   16.50
  -5 -11   4  267.67   23.70
  -5 -11   4  271.97   12.20
   5 -11  -4  247.48   19.10
   5  11  -4  293.57   26.30
   5  11  -4  249.28   22.70
   5  11  -4  276.37   12.30
   5  11  -4  248.58   11.00
   4 -11  -4  102.09    6.30
  -4 -11   4   96.59    6.90
  -4 -11   4   94.39    5.40
   4 -11  -4   95.39   11.80
  -4 -11   4   75.99   12.20
  -4 -11   4   82.49    9.60
  -4 -11   4  111.79   10.40
  -4  11   4   97.29    6.70
   4  11  -4  112.39   15.70
   4  11  -4   80.59    6.00
  -4  11   4   85.89   11.10
   4  11  -4   95.89    7.50
   4  11  -4   95.59   12.80
   3 -11  -4   14.80    7.10
  -3 -11   4   25.10    3.60
  -3 -11   4   34.90    6.60
   3 -11  -4   23.80    3.20
  -3 -11   4   21.20    2.90
  -3  11   4   27.70    3.80
  -3  11   4   26.50    7.10
  -3  11   4   24.90    2.60
   3  11  -4   33.50    8.50
   3  11  -4   16.10    2.80
  -3  11   4   25.80    3.20
   3  11  -4   33.00    9.50
  -3  11   4   30.30   11.10
   3  11  -4   16.40    2.90
  -3  11   4   14.30    7.80
  -3  11   4   20.10    3.90
  -3  11   4   17.40    6.30
  -2 -11   4  562.84   16.10
  -2 -11   4  574.84   19.60
   2 -11  -4  569.94   17.70
   2 -11  -4  563.94   24.10
   2 -11  -4  553.94   22.80
  -2  11   4  568.34   17.10
  -2  11   4  557.34   16.50
   2  11  -4  552.24   17.00
  -2  11   4  574.04   18.10
  -2  11   4  550.04   21.50
  -2  11   4  581.04   22.90
  -2  11   4  576.74   24.90
   2  11  -4  570.84   22.90
   1 -11  -4  356.66   20.80
  -1 -11   4  378.16   12.90
   1 -11  -4  404.26   20.30
   1 -11  -4  418.56   13.70
  -1 -11   4  353.76   19.70
  -1  11   4  393.56   19.20
  -1  11   4  387.16   20.90
   1  11  -4  388.86   12.30
  -1  11   4  429.96   14.10
   1  11  -4  400.36   17.60
  -1  11   4  410.06   13.30
   0 -11   4  116.49    5.90
   0 -11   4  115.89   10.60
   0 -11  -4  125.29    6.70
   0 -11  -4  124.09   13.30
   0  11   4  135.99   14.00
   0  11  -4  136.59   11.80
   0  11   4  134.79    7.10
   0  11   4  151.18   15.00
   0  11  -4  104.19    6.00
   0  11  -4  113.39   10.80
   0  11   4  119.09    7.90
   0  11  -4  126.79    5.30
   0  11  -4  120.59    5.60
   1 -11   4    2.60    2.30
  -1 -11  -4    3.70    2.10
   1 -11   4    4.80    7.00
   1 -11   4    2.10    6.90
  -1  11  -4   -2.60    5.30
  -1  11  -4    3.10    2.20
   1  11   4  -10.60    7.90
   1  11   4    1.70    2.90
  -1  11  -4   -3.50    6.60
  -1  11  -4    2.40    1.50
   1  11   4   -0.70    2.20
   2 -11   4   71.99    9.10
  -2 -11  -4   65.69    5.70
  -2 -11  -4   69.59   11.00
   2 -11   4   66.19    8.80
   2 -11   4   70.99    8.60
   2 -11   4   76.09    4.50
   2 -11   4   70.19    9.90
   2 -11   4   75.99    5.10
   2 -11   4   75.39    4.80
   2 -11   4   64.99    4.70
   2  11   4   72.19    6.10
   2  11   4   74.59   12.00
  -3 -11  -4    2.10    2.80
   3 -11   4    0.30    6.30
  -3 -11  -4    4.90    9.00
   3 -11   4    0.30    2.10
   3 -11   4   -0.80    1.90
   3 -11   4    3.50    5.60
   3  11   4    4.40    3.10
   3  11   4    5.50    9.40
  -4 -11  -4    0.30    3.30
   4 -11   4   10.40   11.30
  -4 -11  -4    6.70   11.20
   4 -11   4   -2.00    1.80
   4 -11   4    1.10    3.30
   4 -11   4   -7.60    5.20
   4  11   4    1.40    2.80
   4  11   4   11.10   12.00
  -4 -12   4  116.79   11.20
   4 -12  -4  130.59   13.80
  -4 -12   4   73.39    9.90
  -4 -12   4  127.69    7.80
  -4 -12   4  112.59    6.10
  -4 -12   4  131.59   16.70
   4 -12  -4  102.89    7.00
   4  12  -4  124.69   14.50
  -4  12   4  126.69   13.20
   4  12  -4  106.89    6.90
  -4  12   4  114.49    7.80
   4  12  -4  108.39   15.40
   4  12  -4  108.49    8.10
  -3 -12   4  302.57   15.40
  -3 -12   4  330.07   10.80
   3 -12  -4  327.97   20.70
  -3 -12   4  317.87   12.60
   3 -12  -4  322.37   11.80
  -3  12   4  336.37   17.30
  -3  12   4  335.27   12.50
   3  12  -4  317.47   11.50
   3  12  -4  319.17   34.30
  -3  12   4  305.47   16.60
   3  12  -4  315.37   12.80
   3  12  -4  295.97   19.90
  -3  12   4  311.87   10.90
  -3  12   4  319.67   21.50
  -3  12   4  308.07   10.30
  -2 -12   4  287.07    9.10
   2 -12  -4  275.77   10.70
  -2 -12   4  270.87   13.30
   2 -12  -4  272.07   24.00
   2 -12  -4  268.57   18.00
  -2  12   4  251.37   19.20
  -2  12   4  263.37   10.10
  -2  12   4  227.48   17.60
   2  12  -4  280.07    9.90
   2  12  -4  274.87   17.10
  -2  12   4  268.27   17.30
  -2  12   4  235.68   10.20
  -2  12   4  273.07   11.20
   1 -12  -4    3.40    2.80
   1 -12  -4    2.90    7.50
  -1  12   4    7.20    2.10
   1  12  -4    7.70    2.50
   1  12  -4   11.10    2.30
  -1  12   4    2.80    8.00
   1  12  -4    9.20    6.60
  -1  12   4    6.90    3.20
  -1  12   4    5.70    6.50
  -1  12   4    7.70    8.40
   1  12  -4   16.80    7.80
  -1  12   4    8.30    2.90
   0 -12   4    8.90    8.20
   0 -12  -4    0.30    7.70
   0 -12   4    4.00    8.10
   0 -12   4   -0.60    2.60
   0 -12   4    6.40    3.10
   0 -12  -4    6.20    2.40
   0  12  -4    1.40    7.60
   0  12   4    6.80    3.30
   0  12   4    0.00    8.40
   0  12   4    3.20   10.20
   0  12   4    0.70    8.60
   0  12  -4    0.40    2.10
   0  12   4    4.50    2.90
   0  12  -4    6.10    2.20
   0  12  -4   10.80    6.70
   1 -12   4   11.80    8.60
  -1 -12  -4    9.80    7.50
   1 -12   4    2.70    2.80
   1 -12   4    6.80    2.30
   1 -12   4    6.20    2.80
   1 -12   4    9.10    8.70
  -1 -12  -4    6.40    2.50
   1 -12   4   11.70    8.60
   1  12   4   15.80    9.60
  -1  12  -4   -0.40    8.20
   1  12   4    1.70    2.70
  -1  12  -4    0.80    2.80
  -1  12  -4    2.70    1.80
   1  12   4    2.90    2.80
  -1  12  -4   12.50    6.30
   1  12   4   14.60   12.80
  -2 -12  -4   12.00    9.00
  -2 -12  -4   14.20    3.30
   2 -12   4   11.40    2.50
   2 -12   4    2.00    6.80
   2 -12   4    9.20    8.00
   2 -12   4   18.40    8.80
   2 -12   4   11.70    3.00
   2 -12   4   15.50    2.80
   2  12   4   10.30    3.20
   2  12   4   11.00    9.00
  -3 -12  -4  184.98    9.70
   3 -12   4  196.38    8.20
   3 -12   4  157.88   15.00
   3 -12   4  197.58   14.30
   3 -12   4  172.98   17.30
   3 -12   4  189.58    8.20
   3 -12   4  183.68    7.80
  -3 -12  -4  216.28   20.10
   3  12   4  198.28   10.10
   3  12   4  234.38   21.30
   4 -12   4   15.10    7.20
  -4 -12  -4    3.60    4.20
   4 -12   4   -0.10    2.30
  -4 -12  -4   -8.30   11.90
   4 -12   4    1.10    2.50
   4 -12   4   13.00    7.20
   4 -12   4  -12.20    9.90
   4 -12   4    3.60    3.00
   4  12   4    3.60    3.00
   4  12   4  -17.60   14.50
  -4 -13   4    5.50    7.30
  -4 -13   4    1.60    3.00
   4 -13  -4    2.50    3.60
   4 -13  -4    2.40   10.90
  -4 -13   4    2.20    4.20
  -4  13   4   -2.10   12.00
   4  13  -4    5.60    3.40
  -4  13   4    1.60    4.00
   4  13  -4   -9.00   12.00
  -3 -13   4   15.20    3.20
  -3 -13   4   20.60    6.90
  -3 -13   4   -2.10   11.30
  -3 -13   4   32.10   13.50
   3 -13  -4   16.50   10.60
  -3 -13   4    4.70    3.40
   3 -13  -4   16.30    4.00
  -3 -13   4    9.80    4.30
  -3  13   4   16.00    3.40
  -3  13   4   24.10    8.60
  -3  13   4    0.30    9.30
   3  13  -4   17.20    3.20
  -3  13   4   -1.90   10.80
  -3  13   4    8.50    2.60
   3  13  -4   22.00   10.60
  -3  13   4    6.90    3.80
  -2 -13   4  358.46   15.60
  -2 -13   4  319.67   13.50
   2 -13  -4  296.47   24.50
  -2 -13   4  352.16   24.90
   2 -13  -4  274.17   13.50
  -2  13   4  324.07   23.70
   2  13  -4  323.37   12.00
  -2  13   4  332.37   18.30
  -2  13   4  340.07   20.20
   2  13  -4  324.87   21.10
   2  13  -4  320.97   11.60
  -2  13   4  333.87   13.30
   2  13  -4  318.97   19.70
  -2  13   4  342.77   11.20
  -2  13   4  330.87   12.20
   1 -13  -4   12.10    3.40
   1 -13  -4    8.60    9.50
  -1 -13   4    8.40    3.30
  -1 -13   4   29.70   11.30
   1  13  -4   27.50    8.30
  -1  13   4   18.30    3.80
  -1  13   4   11.20    4.00
  -1  13   4   34.00    8.50
   1  13  -4   12.90    9.00
  -1  13   4   12.60    2.60
   1  13  -4   14.50    2.80
  -1  13   4    0.90   10.20
  -1  13   4   18.80    9.70
   1  13  -4   15.30    2.90
   0 -13  -4  231.98   10.40
   0 -13  -4  263.17   20.00
   0 -13   4  265.67   21.10
   0 -13   4  224.38   10.50
   0  13  -4  249.97    8.90
   0  13   4  232.48   20.90
   0  13   4  240.78   11.30
   0  13  -4  240.68   16.70
   0  13   4  231.78   20.90
   0  13  -4  275.07   16.10
   0  13   4  240.88   10.70
   0  13   4  242.48    9.30
   0  13  -4  249.58    9.10
  -1 -13  -4  123.99    7.50
   1 -13   4  100.49    7.30
   1 -13   4  110.49   13.10
  -1 -13  -4  135.39   15.10
   1 -13   4   95.69    6.50
   1 -13   4  121.89   13.50
  -1 -13  -4  122.09    8.20
  -1  13  -4  161.08   12.80
   1  13   4  115.49   17.60
  -1  13  -4  106.99    5.30
   1  13   4   87.69    9.10
  -2 -13  -4   36.20   11.00
   2 -13   4   42.30    4.70
   2 -13   4   33.00    8.60
  -2 -13  -4   27.60    4.50
   2 -13   4   28.00    9.60
  -2 -13  -4   33.10   12.00
   2 -13   4   34.00    3.80
   2 -13   4   25.10   10.60
   2 -13   4   38.80    4.30
   2  13   4   23.30   11.90
   2  13   4   34.90    4.60
   3 -13   4    9.30    3.30
   3 -13   4    7.40    2.90
   3 -13   4   -2.10    7.90
  -3 -13  -4    7.00    7.30
  -3 -13  -4    2.60   22.60
   3 -13   4  -10.80    8.60
   3 -13   4   16.40   10.70
   3 -13   4    7.20    3.30
   3  13   4    7.60   15.10
   3  13   4   12.80    4.90
  -3 -14   4   85.59   16.80
  -3 -14   4   79.99    8.10
  -3 -14   4   86.69    5.80
   3 -14  -4   61.49    9.80
   3 -14  -4   47.30   23.70
  -3 -14   4   93.09   17.20
  -3 -14   4  111.49    9.50
  -3 -14   4   83.79   10.30
  -3  14   4   71.79   15.70
   3  14  -4   82.59   14.20
   3  14  -4   85.09    6.90
  -3  14   4   90.79    9.30
   2 -14  -4   19.10    4.00
   2 -14  -4   17.50   11.10
  -2 -14   4   32.20    5.10
  -2 -14   4   48.50   14.20
   2  14  -4   21.70    3.70
  -2  14   4   48.80   12.10
   2  14  -4   27.60   11.00
  -2  14   4   26.20   13.60
   2  14  -4   24.70    3.70
  -2  14   4   32.00    5.30
  -2  14   4   32.30    9.30
   2  14  -4   41.10   12.30
  -2  14   4   27.80    3.50
  -2  14   4   25.70    4.90
  -1 -14   4   16.80   11.70
   1 -14  -4   23.30   11.20
   1 -14  -4    7.70    3.70
  -1 -14   4   10.80    4.30
  -1  14   4   -0.50    4.00
  -1  14   4    5.20    3.80
   1  14  -4    8.30   10.80
   1  14  -4    3.60    9.60
  -1  14   4   33.10   12.40
  -1  14   4    8.00    2.70
   1  14  -4    5.20    3.00
  -1  14   4    5.70    9.40
   1  14  -4    8.20    2.80
  -1  14   4  -13.00   11.00
   0 -14   4  578.04   30.10
   0 -14  -4  497.75   28.20
   0 -14  -4  546.05   18.80
   0 -14   4  558.74   18.90
   0  14   4  538.65   29.40
   0  14  -4  542.95   24.80
   0  14   4  525.65   25.40
   0  14  -4  573.84   17.00
   0  14  -4  545.75   25.00
   0  14  -4  562.44   17.00
   0  14   4  538.75   17.20
   0  14   4  569.04   19.30
   1 -14   4  173.58    9.70
  -1 -14  -4  179.38    9.80
   1 -14   4  185.88   20.90
  -1 -14  -4  158.08   17.00
  -1 -14  -4  172.48    9.60
  -1 -14  -4  204.58   23.10
   1 -14   4  176.68    9.10
   1 -14   4  214.98   21.80
   1  14   4  172.68   10.00
   1  14   4  164.78   17.90
   2 -14   4    7.90    9.60
  -2 -14  -4   27.00   12.70
  -2 -14  -4   24.70    4.60
  -2 -14  -4   28.50    4.60
   2 -14   4   36.90   12.10
   2 -14   4   31.00    3.90
   2 -14   4   30.40    4.20
   2 -14   4   31.00    4.90
   2 -14   4   48.20   12.90
   2  14   4   25.30   15.40
   2  14   4   23.40    5.10
   0 -15   4   14.10    5.30
   0 -15   4   41.30   15.20
   0 -15  -4    3.70   13.10
   0 -15  -4   18.30    4.80
   0  15   4   18.90   14.40
   0  15   4   22.50    3.80
   0  15  -4   12.30   11.10
   0  15  -4   18.80    4.00
   0  15   4   15.40    4.60
   7   0  -5  245.68   18.00
   7   0  -5  269.27    9.90
  -7   0   5  209.18   11.00
  -7   0   5  203.78   18.70
  -6   0   5   -7.90    5.00
  -6   0   5    7.40    6.20
  -6   0   5    8.40    5.30
   6   0  -5    4.00    6.50
  -6   0   5    0.70    2.10
  -6   0   5   -3.80    1.50
  -6   0   5   -3.30    4.90
  -6   0   5    1.60    1.90
   6   0  -5   -0.90    2.00
   5   0  -5 1036.60   32.80
  -5   0   5 1017.30   32.40
   5   0  -5  933.01   32.00
  -5   0   5 1008.00   27.20
  -5   0   5  949.51   27.10
  -5   0   5  925.91   30.90
  -5   0   5  969.10   25.90
   5   0  -5  971.60   27.30
   5   0  -5  949.11   26.80
   5   0  -5 1011.10   28.60
  -5   0   5  988.50   30.70
  -5   0   5  941.01   28.70
  -5   0   5  994.30   26.40
  -4   0   5   -1.70    3.90
  -4   0   5   -1.60    1.20
   4   0  -5    0.70    1.70
   4   0  -5    5.70    4.60
   4   0  -5   -2.70    5.10
   4   0  -5    1.30    1.50
  -4   0   5    0.40    4.10
  -4   0   5   -2.10    1.40
   4   0  -5   -0.70    1.50
  -4   0   5    0.10    1.40
   4   0  -5    0.00    4.90
  -4   0   5   -0.80    3.20
  -4   0   5   -0.30    3.40
  -4   0   5    1.00    1.20
  -3   0   5   70.99    5.70
   3   0  -5   77.09    4.00
  -3   0   5   74.59    4.10
   3   0  -5   77.89    4.20
  -3   0   5   74.59    3.40
  -3   0   5   78.99    3.70
  -3   0   5   81.79    7.10
   3   0  -5   74.19    3.80
   3   0  -5   75.19    7.90
   3   0  -5   75.59    9.00
  -3   0   5   77.79    7.50
   3   0  -5   84.09    8.00
  -2   0   5    0.50    1.10
   2   0  -5    2.30    1.00
   2   0  -5   -0.90    1.00
  -2   0   5    1.90    0.90
   2   0  -5   -2.50    2.90
  -2   0   5    1.20    2.80
  -2   0   5   -1.10    2.80
   2   0  -5    4.00    3.20
   1   0  -5  466.25   16.80
   1   0  -5  457.65   13.50
  -1   0   5  440.66   16.20
  -1   0   5  475.85   17.00
  -1   0   5  464.85   13.30
  -1   0   5  470.05   13.60
   0   0   5    0.60    0.90
   0   0   5   -0.60    2.80
   0   0  -5    2.60    3.10
   0   0  -5   -1.60    2.30
   0   0  -5   -0.40    0.90
   0   0   5   -0.90    2.50
   0   0   5    3.40    2.50
   0   0  -5   -1.40    1.80
   0   0  -5    0.70    0.90
   0   0  -5    1.00    0.70
   0   0   5    0.00    0.90
  -1   0  -5  878.41   22.70
  -1   0  -5  849.72   26.10
  -1   0  -5  838.62   23.10
  -1   0  -5  859.41   25.10
   1   0   5  851.41   25.70
   1   0   5  844.92   22.90
   1   0   5  850.71   27.30
   1   0   5  834.72   23.20
  -1   0  -5  871.81   23.50
  -1   0  -5  880.81   22.10
   2   0   5    2.70    3.80
  -2   0  -5    0.90    2.50
   2   0   5   -0.80    0.70
  -2   0  -5    0.10    0.80
  -2   0  -5    5.70    3.10
   2   0   5    1.10    0.90
  -2   0  -5    1.50    2.40
   2   0   5   -3.20    2.30
   2   0   5   -1.60    2.50
  -2   0  -5    0.10    1.10
   2   0   5    0.90    0.60
  -2   0  -5   -0.50    2.50
   2   0   5    0.00    1.80
  -2   0  -5    0.70    0.80
  -2   0  -5   -1.10    0.80
   3   0   5 2133.09   54.09
  -3   0  -5 2098.79   54.19
   3   0   5 2146.59   56.89
   3   0   5 2072.49   57.29
  -3   0  -5 2088.39   56.99
  -3   0  -5 2137.49   54.99
  -3   0  -5 2086.19   55.79
   3   0   5 2074.59   54.39
   3   0   5 2132.69   55.49
  -3   0  -5 2100.29   53.69
   3   0   5 2133.49   53.59
  -3   0  -5 2094.59   58.39
   3   0   5 2113.19   60.39
  -4   0  -5    4.40    3.40
  -4   0  -5   -7.70    4.30
   4   0   5   -0.80    1.20
   4   0   5    6.80    5.50
  -4   0  -5   -0.40    1.10
   4   0   5   -0.60    1.10
  -4   0  -5    2.20    1.80
  -4   0  -5   -0.30    1.60
   4   0   5   -5.70    3.40
   4   0   5    0.50    1.00
   4   0   5   -2.90    3.20
  -4   0  -5    5.30    4.60
   4   0   5    0.70    3.50
   5   0   5   32.50   13.90
   5   0   5   20.10    4.70
  -5   0  -5   21.10    6.90
  -5   0  -5   22.50    2.30
   5   0   5   24.70    5.70
  -5   0  -5   21.80    4.00
  -5   0  -5   23.40    4.10
   5   0   5   25.20    2.60
   5   0   5   18.00    5.00
  -5   0  -5   21.60    3.20
   5   0   5   20.10    2.20
  -5   0  -5   26.10    2.40
   5   0   5   22.10    2.50
   6   0   5    0.20    1.80
   6   0   5    8.50    7.40
   6   0   5  -16.00    9.10
  -6   0  -5   -1.80    2.20
   6   0   5    0.80    2.10
   6   0   5   -1.50    6.00
  -6   0  -5    4.90    7.10
  -7  -1   5  187.58   17.20
   7  -1  -5  215.48   16.90
  -7  -1   5  174.98    8.60
   7  -1  -5  213.48    8.90
   7   1  -5  228.18    9.30
  -7   1   5  207.48    9.20
   7   1  -5  205.78   17.60
  -7   1   5  202.88   14.80
  -6  -1   5   -4.30    6.00
  -6  -1   5    1.70    1.80
  -6  -1   5   -1.70    5.60
  -6  -1   5   -2.60    2.20
   6  -1  -5    1.00    2.10
  -6  -1   5   -4.40    6.00
  -6  -1   5    3.20    2.30
   6  -1  -5    2.30    6.50
  -6  -1   5   -5.90    4.90
  -6  -1   5    0.30    1.70
  -6   1   5   -2.00    2.10
  -6   1   5   -1.00    6.10
   6   1  -5   -4.60    6.40
  -6   1   5   -0.50    1.60
  -6   1   5   -0.60    1.40
  -6   1   5   -2.00    4.70
  -6   1   5    2.60    4.70
   6   1  -5    0.40    2.20
   5  -1  -5    2.20    2.40
   5  -1  -5   -1.10    1.70
  -5  -1   5    0.30    1.60
   5  -1  -5   11.70    5.80
  -5  -1   5    0.70    1.90
  -5  -1   5    1.20    1.60
  -5  -1   5    0.50    5.00
  -5  -1   5    4.90    4.80
  -5  -1   5   -4.10    4.00
  -5  -1   5    4.10    5.40
  -5  -1   5    1.70    1.80
  -5   1   5   -1.00    1.20
   5   1  -5    1.00    1.90
  -5   1   5    2.90    3.90
  -5   1   5    0.10    1.30
  -5   1   5    4.60    5.10
  -5   1   5    5.70    4.50
   5   1  -5   -1.30    7.30
   5   1  -5    0.80    2.10
  -5   1   5    1.90    1.90
  -5   1   5    1.90    1.50
   5   1  -5    1.00    1.80
  -5   1   5    0.60    3.00
   5   1  -5   -1.60    5.60
  -5   1   5    6.00    3.70
  -4  -1   5  471.05   18.20
   4  -1  -5  444.16   18.60
  -4  -1   5  468.65   13.80
  -4  -1   5  485.25   13.70
  -4  -1   5  452.25   16.80
  -4  -1   5  509.85   19.10
  -4  -1   5  488.65   17.20
  -4  -1   5  472.55   13.90
   4  -1  -5  459.95   18.10
   4  -1  -5  473.45   14.40
  -4  -1   5  483.35   14.40
   4  -1  -5  469.35   13.80
   4  -1  -5  475.35   20.10
   4  -1  -5  486.45   14.70
  -4   1   5  489.15   13.80
  -4   1   5  435.16   14.00
  -4   1   5  470.65   14.20
  -4   1   5  452.45   17.00
   4   1  -5  476.85   14.50
   4   1  -5  492.05   19.90
   4   1  -5  476.75   14.60
   4   1  -5  464.55   19.20
  -4   1   5  480.35   18.50
   4   1  -5  450.95   14.40
   4   1  -5  441.46   23.50
  -4   1   5  479.25   14.00
  -4   1   5  475.35   17.40
  -4   1   5  429.96   16.60
  -3  -1   5  277.27    8.40
  -3  -1   5  265.87   12.80
  -3  -1   5  281.97   10.70
  -3  -1   5  285.97    9.30
   3  -1  -5  265.27   12.30
  -3  -1   5  270.57   11.80
   3  -1  -5  293.57   13.20
   3  -1  -5  276.77    9.30
   3  -1  -5  275.97   13.40
  -3  -1   5  271.67    8.90
   3  -1  -5  273.07    8.70
  -3  -1   5  280.57   12.70
  -3  -1   5  277.77    8.70
   3  -1  -5  277.97    9.20
   3   1  -5  279.07    9.10
  -3   1   5  281.87   12.20
  -3   1   5  271.27    9.10
  -3   1   5  275.67    8.70
   3   1  -5  279.87   13.50
  -3   1   5  286.87   13.00
   3   1  -5  264.37    9.20
   3   1  -5  266.67   13.10
  -2  -1   5  140.39    8.80
   2  -1  -5  146.89    5.60
   2  -1  -5  157.18    9.20
  -2  -1   5  135.49    5.50
  -2  -1   5  127.59    5.10
  -2  -1   5  132.09    8.20
  -2   1   5  140.89    8.30
   2   1  -5  133.09    8.40
   2   1  -5  136.59    5.10
  -2   1   5  134.29    5.10
  -2   1   5  134.29    5.40
  -2   1   5  140.99    8.80
   2   1  -5  132.39    5.50
  -2   1   5  137.09    7.50
   2   1  -5  133.49    8.90
  -1  -1   5   -0.30    2.60
   1  -1  -5    2.90    2.60
   1  -1  -5    0.50    0.80
  -1  -1   5   -0.80    0.90
  -1  -1   5    1.90    2.70
  -1  -1   5    1.70    1.10
   1  -1  -5    0.20    0.80
  -1   1   5   -0.40    2.60
  -1   1   5    2.00    2.60
   1   1  -5    1.60    2.30
  -1   1   5    0.60    0.90
  -1   1   5    1.70    1.00
   1   1  -5    0.50    0.80
   1   1  -5    1.30    2.70
   1   1  -5    1.50    1.00
  -1   1   5   -1.80    2.80
   0  -1  -5 1968.70   52.69
   0  -1  -5 2035.30   55.19
   0  -1  -5 1993.10   50.79
   0  -1  -5 2018.30   57.89
   0  -1  -5 2003.30   51.19
   0  -1  -5 2035.30   51.69
   0  -1   5 1970.00   55.29
   0  -1   5 1962.00   54.49
   0  -1   5 2001.70   51.69
   0  -1   5 1958.30   51.29
   0   1  -5 2018.50   51.99
   0   1  -5 1934.81   54.69
   0   1   5 1991.10   55.19
   0   1   5 2075.29   57.89
   0   1  -5 2031.00   50.49
   0   1  -5 1960.20   51.09
   0   1   5 1968.50   54.39
   0   1   5 1995.20   51.69
   0   1  -5 1991.40   51.59
   0   1  -5 1955.70   53.79
   0   1   5 1945.31   51.29
  -1  -1  -5   58.89    4.90
  -1  -1  -5   55.69    5.20
   1  -1   5   36.10    4.90
  -1  -1  -5   50.39    3.00
   1  -1   5   56.09    2.80
  -1  -1  -5   62.79    5.90
   1  -1   5   57.09    5.40
  -1  -1  -5   59.09    2.50
   1  -1   5   55.89    3.00
  -1  -1  -5   59.69    2.80
   1   1   5   64.39    6.70
   1   1   5   58.69    2.80
  -1   1  -5   59.99    5.40
  -1   1  -5   65.79    5.40
  -1   1  -5   57.19    2.60
  -1   1  -5   57.99    3.00
  -1   1  -5   63.79    4.80
   1   1   5   65.49    5.40
  -1   1  -5   62.89    3.10
   1   1   5   54.09    3.10
  -1   1  -5   59.29    2.60
  -2  -1  -5 1476.35   37.20
  -2  -1  -5 1476.65   39.40
   2  -1   5 1477.55   37.50
  -2  -1  -5 1446.96   37.90
   2  -1   5 1414.66   40.60
   2  -1   5 1451.05   40.30
   2  -1   5 1424.06   37.70
   2  -1   5 1415.56   42.60
  -2  -1  -5 1424.46   41.00
  -2   1  -5 1403.96   37.60
   2   1   5 1486.65   40.60
   2   1   5 1469.05   43.20
   2   1   5 1427.76   41.50
  -2   1  -5 1476.15   36.90
   2   1   5 1409.96   38.70
   2   1   5 1457.35   37.60
  -2   1  -5 1436.96   40.00
  -2   1  -5 1437.56   37.60
  -2   1  -5 1391.86   40.30
  -2   1  -5 1475.15   38.60
   2   1   5 1463.35   38.00
   2   1   5 1437.66   37.00
   3  -1   5  229.08    7.80
  -3  -1  -5  210.68   10.30
  -3  -1  -5  209.98    7.70
  -3  -1  -5  212.48   11.10
  -3  -1  -5  222.18    6.10
   3  -1   5  208.68   12.70
   3  -1   5  217.18    9.50
   3  -1   5  220.48    6.20
  -3  -1  -5  216.68    7.10
  -3  -1  -5  209.38    7.70
   3  -1   5  214.18    7.00
   3  -1   5  216.88    6.70
   3  -1   5  215.18    9.80
  -3   1  -5  213.18    7.50
   3   1   5  219.98    6.60
   3   1   5  212.78    7.20
   3   1   5  210.68    9.20
   3   1   5  209.58    9.90
  -3   1  -5  210.68    9.40
   3   1   5  221.58   10.50
   3   1   5  216.28    6.90
  -3   1  -5  227.68   10.90
   3   1   5  218.68   12.90
  -3   1  -5  214.38    6.90
   4  -1   5    6.20    6.10
  -4  -1  -5    2.10    1.70
   4  -1   5   -1.70    3.20
   4  -1   5    4.20    3.30
   4  -1   5    1.30    1.10
  -4  -1  -5   -0.80    1.30
  -4  -1  -5    1.90    1.90
  -4  -1  -5    2.00    5.10
  -4  -1  -5   -1.90    3.90
   4  -1   5    2.10    3.40
  -4  -1  -5    3.30    4.40
   4  -1   5    2.10    1.10
   4  -1   5    1.00    0.90
   4   1   5    1.20    1.20
   4   1   5   -1.40    1.20
   4   1   5    3.90    3.60
   4   1   5   -3.90    3.70
  -4   1  -5   -1.00    4.70
   4   1   5    3.00    1.20
   4   1   5    1.90    6.00
  -4   1  -5    1.00    1.00
  -4   1  -5    1.50    1.80
   4   1   5    5.50    4.10
  -4   1  -5    0.80    3.10
   5  -1   5  888.11   26.90
  -5  -1  -5  868.71   31.50
   5  -1   5  873.31   25.60
  -5  -1  -5  905.41   26.90
   5  -1   5  889.61   23.90
  -5  -1  -5  848.62   29.60
   5  -1   5  923.91   32.30
  -5  -1  -5  860.21   25.80
  -5  -1  -5  883.41   24.60
   5  -1   5  893.01   27.50
   5  -1   5  902.51   23.40
   5  -1   5  913.01   23.70
  -5  -1  -5  895.81   23.80
   5   1   5  894.71   28.70
   5   1   5  846.52   32.40
  -5   1  -5  842.12   30.40
   5   1   5  900.71   24.30
  -5   1  -5  868.01   25.60
   5   1   5  899.51   24.10
  -5   1  -5  920.91   23.10
  -5   1  -5  903.41   24.60
   5   1   5  894.91   28.00
   5   1   5  887.71   27.50
  -5   1  -5  912.51   24.60
   5   1   5  880.41   24.00
  -5   1  -5  932.41   23.10
   6  -1   5   20.60    6.30
  -6  -1  -5   33.20    5.00
   6  -1   5   31.40    3.10
   6  -1   5   27.10    3.10
  -6  -1  -5   29.50    4.10
   6  -1   5   25.70    7.50
  -6  -1  -5   27.10    2.70
  -6  -1  -5   36.90    7.90
  -6  -1  -5   25.50    4.80
   6  -1   5   43.00   10.30
  -6  -1  -5   28.80    2.90
  -6   1  -5   30.40    4.20
  -6   1  -5   23.80    7.70
   6   1   5   19.50    6.60
   6   1   5   34.10    8.00
   6   1   5   30.40    2.90
   6   1   5   25.10    3.10
   6   1   5   14.90    9.70
  -7  -2   5   60.39   11.70
  -7  -2   5   53.29    6.60
  -7  -2   5   64.79    6.20
  -7  -2   5   55.09    9.90
   7  -2  -5   48.10    5.30
   7  -2  -5   60.09   10.00
   7   2  -5   51.79    5.00
  -7   2   5   48.60    5.40
  -7   2   5   55.79    9.40
   7   2  -5   55.69   10.80
  -6  -2   5   -1.60    1.80
  -6  -2   5    2.40    2.60
  -6  -2   5    1.80    1.80
   6  -2  -5   -1.00    1.90
  -6  -2   5    5.60    6.20
  -6  -2   5   -2.40    6.90
  -6  -2   5   -0.40    4.70
   6  -2  -5    5.70    5.90
  -6  -2   5    0.10    2.50
  -6  -2   5    1.40    6.80
  -6   2   5    0.00    1.60
  -6   2   5   -4.20    6.10
   6   2  -5    0.90    2.10
  -6   2   5    0.90    2.00
   6   2  -5   -7.60    6.80
  -6   2   5    2.40    5.00
   5  -2  -5   70.79    4.70
  -5  -2   5   73.59    7.50
  -5  -2   5   69.59    8.00
  -5  -2   5   66.59    4.40
   5  -2  -5   80.79    8.70
  -5  -2   5   74.09    7.80
  -5  -2   5   77.99    4.40
  -5  -2   5   73.59    5.00
  -5  -2   5   60.69    8.00
  -5  -2   5   72.89    4.30
  -5   2   5   78.29    4.70
  -5   2   5   74.29    4.90
  -5   2   5   63.79    5.10
  -5   2   5   70.19    7.10
  -5   2   5   75.49    8.10
  -5   2   5   74.19    4.40
  -5   2   5   75.49    7.90
   5   2  -5   63.49    8.70
   5   2  -5   75.99    4.90
   5   2  -5   68.19    4.90
  -5   2   5   71.29    3.60
   4  -2  -5  143.59   10.60
  -4  -2   5  125.49    8.10
  -4  -2   5  143.79    5.70
   4  -2  -5  137.89    5.50
   4  -2  -5  142.19    6.20
  -4  -2   5  131.19    5.40
   4  -2  -5  139.39    6.00
   4  -2  -5  139.59   10.50
  -4  -2   5  134.89   10.60
  -4  -2   5  125.99   10.10
   4  -2  -5  133.69   10.90
  -4  -2   5  132.79    6.10
  -4  -2   5  144.49   10.10
  -4  -2   5  141.49    5.80
   4   2  -5  140.29   11.50
  -4   2   5  135.39    6.90
  -4   2   5  133.59    4.70
   4   2  -5  143.79    6.20
   4   2  -5  158.08   11.40
  -4   2   5  132.59    5.20
   4   2  -5  135.29   10.90
  -4   2   5  152.38   10.10
  -4   2   5  136.99    8.80
  -4   2   5  136.29    5.70
  -4   2   5  137.39    8.90
  -4   2   5  155.48    7.50
   4   2  -5  138.89    6.30
  -4   2   5  139.29    6.00
   4   2  -5  128.09    5.50
   3  -2  -5  120.79    8.60
   3  -2  -5  122.59    4.90
  -3  -2   5  118.39    8.70
  -3  -2   5  125.59    5.40
  -3  -2   5  127.79    9.10
  -3  -2   5  122.09    9.30
  -3  -2   5  120.29    6.80
   3  -2  -5  119.39    5.40
  -3  -2   5  124.09    4.50
  -3  -2   5  124.29    5.10
  -3  -2   5  123.09    5.10
   3  -2  -5  119.39    9.00
   3   2  -5  121.79    5.50
  -3   2   5  129.99    4.90
  -3   2   5  142.49    7.10
   3   2  -5  121.89    9.20
  -3   2   5  134.89    9.20
   3   2  -5  125.49    9.50
  -3   2   5  123.49    5.30
   3   2  -5  119.79    5.20
  -3   2   5  124.39    8.10
   2  -2  -5 3226.38   85.99
  -2  -2   5 3104.69   82.09
  -2  -2   5 3137.09   85.99
  -2  -2   5 3238.58   81.99
   2  -2  -5 3177.38   82.09
  -2  -2   5 3233.18   85.99
  -2   2   5 3288.17   82.19
   2   2  -5 3254.07   86.49
   2   2  -5 3151.58   82.19
  -2   2   5 3253.97   84.29
  -2   2   5 3225.48   86.09
  -2   2   5 3235.08   81.69
   2   2  -5 3115.49   84.99
  -2   2   5 3155.08   85.29
   2   2  -5 3181.58   81.69
   1  -2  -5   92.39    7.20
   1  -2  -5   96.39    3.80
   1  -2  -5   88.99    4.10
  -1  -2   5   90.19    4.10
  -1  -2   5   78.39    6.70
  -1  -2   5   84.99    3.80
  -1   2   5   89.69    3.80
  -1   2   5   84.09    4.10
   1   2  -5   80.19    6.80
  -1   2   5   94.99    6.60
   1   2  -5   84.19    4.00
   1   2  -5   79.79    5.40
   1   2  -5   93.19    4.50
  -1   2   5   84.79    7.10
   1   2  -5   85.79    3.40
   1   2  -5   93.29    3.00
  -1   2   5   83.19    6.80
   0  -2  -5 1314.77   34.60
   0  -2  -5 1283.67   38.10
   0  -2   5 1327.07   34.30
   0  -2   5 1299.47   37.50
   0  -2   5 1305.77   34.50
   0  -2  -5 1288.67   36.30
   0  -2   5 1296.87   38.50
   0  -2  -5 1310.57   33.90
   0  -2  -5 1399.16   35.60
   0   2  -5 1284.47   34.60
   0   2   5 1329.27   34.70
   0   2   5 1280.87   34.20
   0   2  -5 1281.97   34.50
   0   2  -5 1327.37   34.00
   0   2   5 1303.17   38.30
   0   2  -5 1307.97   33.30
   0   2   5 1297.67   37.40
   0   2  -5 1274.07   37.80
   0   2  -5 1275.97   36.70
  -1  -2  -5    6.50    1.30
   1  -2   5    6.80    1.20
  -1  -2  -5   10.30    3.30
   1  -2   5    7.10    3.00
  -1  -2  -5    7.70    3.40
  -1  -2  -5    7.40    1.30
  -1  -2  -5    6.50    1.20
  -1  -2  -5   10.50    3.40
   1  -2   5    6.00    1.30
  -1   2  -5    6.90    1.10
   1   2   5    4.20    3.90
  -1   2  -5   11.20    3.20
   1   2   5    5.80    1.30
  -1   2  -5    5.80    1.20
   1   2   5    4.70    1.00
  -1   2  -5    4.30    2.40
   1   2   5   10.00    2.90
  -2  -2  -5  696.93   22.80
  -2  -2  -5  755.02   22.80
   2  -2   5  729.53   22.80
  -2  -2  -5  740.63   20.40
  -2  -2  -5  738.33   23.70
   2  -2   5  747.53   22.60
   2  -2   5  739.03   24.90
   2  -2   5  741.13   20.00
   2  -2   5  750.32   19.80
  -2  -2  -5  721.43   19.90
  -2  -2  -5  767.12   19.90
  -2   2  -5  732.13   22.70
   2   2   5  743.33   19.60
  -2   2  -5  751.02   19.80
   2   2   5  715.53   25.10
   2   2   5  743.13   20.50
   2   2   5  737.83   20.00
  -2   2  -5  718.73   20.50
   2   2   5  723.53   23.00
  -2   2  -5  751.22   19.10
  -2   2  -5  752.52   22.10
   2   2   5  715.03   21.80
  -2   2  -5  740.43   20.00
   3  -2   5  129.89    7.50
  -3  -2  -5  130.39    7.30
  -3  -2  -5  154.08    9.70
   3  -2   5  121.99   10.20
  -3  -2  -5  140.69    8.90
   3  -2   5  139.09    4.90
   3  -2   5  140.99    7.70
  -3  -2  -5  145.09    4.80
  -3  -2  -5  140.09    6.10
  -3  -2  -5  149.49    5.50
   3  -2   5  137.99    5.00
  -3  -2  -5  134.19    9.60
  -3  -2  -5  147.59    5.40
   3   2   5  137.09   11.30
   3   2   5  146.59    5.20
  -3   2  -5  137.69    5.50
   3   2   5  139.19    8.10
  -3   2  -5  139.79    7.80
   3   2   5  133.79    8.30
   3   2   5  145.59    9.10
   3   2   5  153.78    5.60
  -3   2  -5  139.39    5.00
  -3   2  -5  129.79    8.50
   3   2   5  138.79    4.90
   4  -2   5  965.30   27.80
   4  -2   5  957.90   25.20
  -4  -2  -5 1017.70   31.20
  -4  -2  -5  923.81   32.10
   4  -2   5  964.40   25.60
  -4  -2  -5  931.21   27.40
  -4  -2  -5  963.80   26.40
   4  -2   5 1017.20   33.00
   4  -2   5  987.80   28.30
  -4  -2  -5  969.80   29.70
   4  -2   5  986.60   27.20
   4  -2   5  988.20   25.60
  -4  -2  -5  995.10   26.30
  -4   2  -5  987.60   25.40
   4   2   5  968.70   29.70
   4   2   5  977.20   29.70
  -4   2  -5  991.40   27.50
  -4   2  -5  946.91   30.80
   4   2   5  951.30   30.20
   4   2   5  965.30   26.10
   4   2   5  955.50   26.40
  -4   2  -5  973.80   27.00
   4   2   5  964.30   26.10
   4   2   5  993.50   34.00
   5  -2   5   -1.60    1.40
   5  -2   5    2.80    1.40
  -5  -2  -5    3.30    1.50
  -5  -2  -5    2.90    2.30
  -5  -2  -5    2.20    3.00
  -5  -2  -5   -3.10    4.10
   5  -2   5    1.90    7.40
  -5  -2  -5    4.90    5.90
  -5  -2  -5    2.70    8.50
   5  -2   5    2.20    4.40
   5  -2   5    4.40    4.40
   5   2   5   15.80    6.40
  -5   2  -5    3.00    2.00
   5   2   5    0.20    4.40
   5   2   5    5.40    5.10
   5   2   5    9.20    8.30
   5   2   5    3.20    1.70
   5   2   5   -0.10    1.70
  -5   2  -5    6.80    4.90
   5   2   5    0.30    1.60
   6  -2   5   72.39    6.60
   6  -2   5   69.39   11.30
   6  -2   5   65.59   10.80
  -6  -2  -5   73.19    7.20
  -6  -2  -5   60.79    4.00
   6   2   5   79.89    9.20
   6   2   5   66.29    4.30
   6   2   5   68.59    4.90
  -6   2  -5   60.39    9.70
   6   2   5   68.49   12.40
   6   2   5   63.19    9.60
  -6   2  -5   61.69    5.20
  -7  -3   5  249.18   17.90
  -7  -3   5  259.17   10.80
  -7  -3   5  226.58   10.50
   7  -3  -5  247.78   17.00
   7  -3  -5  246.28    9.60
  -7  -3   5  256.57   20.00
   7   3  -5  247.28   10.60
   7   3  -5  225.58   20.60
  -7   3   5  244.48   16.20
  -7   3   5  252.67   10.40
  -6  -3   5    4.90    2.10
  -6  -3   5   12.70    5.80
   6  -3  -5    1.40    6.50
  -6  -3   5   -5.70    7.90
  -6  -3   5    7.90    2.90
  -6  -3   5    3.70    2.20
  -6  -3   5    7.00    3.00
  -6  -3   5    1.70    6.50
   6  -3  -5    5.90    2.50
  -6  -3   5    3.60    7.20
  -6   3   5    6.50    1.90
   6   3  -5    9.20    7.70
   6   3  -5    7.70    2.80
  -6   3   5    2.90    6.50
  -6   3   5    6.20    2.10
  -6   3   5    9.90    6.00
  -5  -3   5   27.30    2.80
   5  -3  -5   29.70    3.20
   5  -3  -5   31.00    8.80
  -5  -3   5   39.80    7.10
  -5  -3   5   28.50    3.00
  -5  -3   5   29.90    3.50
   5  -3  -5   27.30    3.70
  -5  -3   5   29.50    7.40
  -5  -3   5   27.30    7.00
  -5  -3   5   31.10    3.10
   5  -3  -5   37.50    6.80
  -5  -3   5   27.90    5.60
  -5   3   5   41.30    5.60
  -5   3   5   30.10    2.60
  -5   3   5   37.00    3.60
  -5   3   5   36.00    6.70
   5   3  -5   36.00    3.80
  -5   3   5   30.80    3.10
   5   3  -5   35.70    7.50
  -5   3   5   29.40    6.30
   4  -3  -5    5.10    4.90
  -4  -3   5    4.80    4.10
   4  -3  -5    5.40    1.90
  -4  -3   5    2.30    1.50
  -4  -3   5    3.90    1.40
   4  -3  -5    3.90    1.60
  -4  -3   5   10.00    5.30
  -4  -3   5    6.50    1.90
  -4  -3   5    4.20    1.90
   4  -3  -5    5.70    4.70
  -4  -3   5    2.70    4.50
  -4  -3   5    9.20    5.40
  -4   3   5    6.10    1.40
  -4   3   5    9.00    4.70
  -4   3   5    4.20    1.00
  -4   3   5   -0.40    2.70
   4   3  -5    5.30    1.70
  -4   3   5    5.70    4.00
  -4   3   5    1.00    1.40
   4   3  -5    0.30    4.70
   4   3  -5    1.90    5.50
   4   3  -5    9.10    6.10
   4   3  -5    4.10    1.80
   3  -3  -5 1676.23   48.00
   3  -3  -5 1643.24   43.20
   3  -3  -5 1631.14   43.60
  -3  -3   5 1646.24   43.60
  -3  -3   5 1697.23   44.70
  -3  -3   5 1648.94   43.80
   3  -3  -5 1609.54   46.90
  -3  -3   5 1670.33   47.40
  -3  -3   5 1699.83   48.40
  -3  -3   5 1687.93   43.60
  -3  -3   5 1663.13   42.60
  -3  -3   5 1702.03   48.40
  -3   3   5 1598.74   43.50
  -3   3   5 1667.33   43.10
  -3   3   5 1589.94   44.70
   3   3  -5 1617.74   43.90
   3   3  -5 1672.43   48.20
  -3   3   5 1665.53   46.90
   3   3  -5 1671.63   43.70
  -3   3   5 1610.84   47.80
   3   3  -5 1594.74   48.50
  -2  -3   5   58.69    6.70
   2  -3  -5   49.70    5.80
  -2  -3   5   64.19    6.90
  -2  -3   5   56.89    3.10
   2  -3  -5   58.19    3.60
  -2  -3   5   57.09    3.90
  -2  -3   5   56.59    3.40
  -2  -3   5   55.79    2.30
   2   3  -5   65.29    7.10
  -2   3   5   48.30    2.90
   2   3  -5   55.79    3.10
  -2   3   5   53.59    3.30
   2   3  -5   63.49    6.30
   2   3  -5   58.89    3.50
  -2   3   5   52.39    5.90
  -2   3   5   52.89    5.70
  -2   3   5   45.00    5.60
  -1  -3   5   69.49    3.60
  -1  -3   5   66.39    6.40
   1  -3  -5   75.89    3.40
   1  -3  -5   72.79    3.80
   1  -3  -5   79.29    6.50
   1  -3  -5   63.49    6.90
  -1  -3   5   69.79    3.50
  -1   3   5   69.59    3.70
  -1   3   5   74.69    3.30
  -1   3   5   70.39    6.90
  -1   3   5   67.09    5.90
  -1   3   5   71.19    6.50
   1   3  -5   71.19    3.00
   1   3  -5   70.69    6.70
   1   3  -5   68.29    5.30
   1   3  -5   73.59    3.70
   0  -3  -5 1025.30   26.90
   0  -3   5 1047.50   27.40
   0  -3   5 1035.20   30.70
   0  -3   5 1014.80   27.20
   0  -3  -5  974.00   27.50
   0  -3  -5  986.10   31.10
   0  -3  -5 1006.10   29.70
   0   3  -5 1024.60   27.50
   0   3   5 1037.20   31.20
   0   3   5  989.60   30.30
   0   3   5 1005.20   27.60
   0   3  -5 1063.49   26.90
   0   3  -5 1018.70   30.80
   0   3   5  985.00   27.10
   0   3  -5  998.00   27.30
   0   3  -5 1040.70   29.70
   0   3  -5 1054.89   26.10
  -1  -3  -5  508.95   17.40
   1  -3   5  519.85   17.60
  -1  -3  -5  507.65   17.80
  -1  -3  -5  519.05   15.00
  -1  -3  -5  506.65   14.40
   1  -3   5  524.15   14.50
   1  -3   5  515.05   14.70
  -1  -3  -5  511.75   18.40
  -1  -3  -5  517.55   14.60
  -1   3  -5  531.15   14.70
   1   3   5  514.75   19.10
   1   3   5  517.35   17.00
  -1   3  -5  506.85   16.40
   1   3   5  522.15   15.10
  -1   3  -5  521.45   14.70
   1   3   5  509.15   14.60
   1   3   5  511.25   17.70
  -1   3  -5  517.85   17.60
  -1   3  -5  521.75   14.10
  -1   3  -5  540.35   13.60
   2  -3   5  302.77    8.80
  -2  -3  -5  283.47   12.60
  -2  -3  -5  270.77   12.50
  -2  -3  -5  295.37    9.00
  -2  -3  -5  288.37    8.80
   2  -3   5  297.47   13.40
  -2  -3  -5  296.17   12.30
   2  -3   5  291.87    8.90
   2  -3   5  302.07   11.60
   2  -3   5  290.07   11.70
  -2  -3  -5  275.97    9.10
  -2   3  -5  289.97    9.30
   2   3   5  284.27   14.10
  -2   3  -5  295.57    7.80
   2   3   5  292.07   11.60
   2   3   5  273.87   12.00
   2   3   5  283.67    9.30
  -2   3  -5  301.17    7.90
  -2   3  -5  300.17   10.70
  -2   3  -5  293.37    9.00
   2   3   5  289.77    8.70
  -2   3  -5  292.17    8.90
   2   3   5  277.37    8.90
  -2   3  -5  292.97    8.60
  -2   3  -5  288.07   11.70
   3  -3   5  216.08    6.80
  -3  -3  -5  198.78   11.70
  -3  -3  -5  204.78   10.30
   3  -3   5  217.88    9.50
  -3  -3  -5  229.78   11.30
  -3  -3  -5  214.88    6.90
  -3  -3  -5  222.58    8.20
  -3  -3  -5  212.68    7.40
   3  -3   5  208.08    6.80
  -3  -3  -5  222.18    7.60
  -3  -3  -5  220.58   12.30
   3  -3   5  223.98    9.80
   3  -3   5  206.68   12.50
   3   3   5  224.88    7.30
  -3   3  -5  215.98   10.10
   3   3   5  207.38   13.40
   3   3   5  217.28    7.10
   3   3   5  220.68   10.60
  -3   3  -5  218.98    6.80
  -3   3  -5  216.38    9.30
   3   3   5  213.98   11.50
   3   3   5  215.88   10.90
  -3   3  -5  219.48    7.30
   3   3   5  219.78    7.70
  -4  -3  -5   43.90    4.20
   4  -3   5   40.80    2.20
   4  -3   5   39.20    4.20
  -4  -3  -5   42.30    8.10
   4  -3   5   45.80    4.80
   4  -3   5   39.50    2.50
  -4  -3  -5   38.30    4.00
  -4  -3  -5   43.30    3.20
   4  -3   5   38.60    2.40
  -4  -3  -5   35.80    5.80
  -4  -3  -5   33.60    6.80
   4  -3   5   46.30    8.10
   4  -3   5   37.60    3.80
   4   3   5   51.59    8.60
   4   3   5   40.50    3.10
  -4   3  -5   36.40    6.00
   4   3   5   43.90    5.80
   4   3   5   43.30    5.90
  -4   3  -5   37.50    3.50
  -4   3  -5   39.80    3.90
   4   3   5   39.30    3.10
  -4   3  -5   37.00    2.30
   4   3   5   35.40    3.10
  -5  -3  -5 1211.78   32.30
   5  -3   5 1215.48   31.40
   5  -3   5 1210.88   34.30
  -5  -3  -5 1190.98   34.10
   5  -3   5 1212.08   34.20
  -5  -3  -5 1230.38   36.60
  -5  -3  -5 1217.68   40.30
   5  -3   5 1185.18   39.40
   5  -3   5 1231.08   31.50
  -5  -3  -5 1216.58   32.40
  -5  -3  -5 1160.58   36.20
   5   3   5 1212.08   37.80
  -5   3  -5 1197.38   33.30
   5   3   5 1205.88   41.30
   5   3   5 1216.58   32.60
   5   3   5 1190.48   37.10
   5   3   5 1180.28   36.80
   5   3   5 1195.38   32.40
  -5   3  -5 1187.88   37.90
   5   3   5 1260.17   32.80
  -6  -3  -5    6.90    6.80
   6  -3   5   -1.90    9.20
  -6  -3  -5    2.40    3.10
  -6  -3  -5    8.80    2.30
  -6  -3  -5   11.40    8.50
  -6   3  -5   15.20    7.20
   6   3   5    7.60    3.00
   6   3   5   16.80   11.00
   6   3   5   17.50    9.20
   6   3   5   10.20    2.60
  -6   3  -5    8.90    2.90
   6   3   5   21.60    8.90
  -7  -4   5  179.28   20.00
   7  -4  -5  184.58   16.30
  -7  -4   5  179.88    9.30
   7  -4  -5  171.28    7.80
  -7  -4   5  137.19   16.30
  -7  -4   5  147.49   10.60
  -7   4   5  138.69    8.00
   7   4  -5  182.88   17.00
   7   4  -5  159.98    9.00
  -7   4   5  144.89   13.90
   6  -4  -5    5.40    2.40
  -6  -4   5   11.30   14.70
  -6  -4   5    4.00    2.10
  -6  -4   5    7.20    2.70
  -6  -4   5    3.80    5.90
  -6  -4   5   -3.40    7.80
  -6  -4   5    5.80    2.50
   6  -4  -5   11.20    6.30
  -6   4   5    3.30    2.40
   6   4  -5    1.80    8.00
   6   4  -5    5.80    3.00
  -6   4   5   11.30    7.20
  -6   4   5    9.40    6.00
   5  -4  -5  907.91   30.20
  -5  -4   5  882.51   30.90
  -5  -4   5  906.51   28.80
   5  -4  -5  821.22   24.50
  -5  -4   5  936.91   30.90
  -5  -4   5  923.01   31.60
  -5  -4   5  884.31   25.50
  -5  -4   5  902.81   25.00
  -5  -4   5  856.91   25.10
   5  -4  -5  896.11   25.00
   5  -4  -5  833.62   29.90
  -5  -4   5  877.71   24.70
   5   4  -5  864.01   31.90
  -5   4   5  881.31   23.60
  -5   4   5  948.11   30.50
   5   4  -5  890.01   25.80
  -5   4   5  902.71   26.90
  -5   4   5  899.01   24.90
  -4  -4   5   11.10    4.00
  -4  -4   5   14.20    5.30
  -4  -4   5   11.20    2.00
  -4  -4   5   11.60    6.30
  -4  -4   5   11.10    2.40
  -4  -4   5   -0.30    5.80
  -4  -4   5   11.00    2.30
   4  -4  -5   12.60    5.70
   4  -4  -5   13.20    2.30
   4  -4  -5   16.30    5.50
  -4  -4   5   11.20    2.00
   4  -4  -5   11.10    2.10
  -4   4   5    6.50    4.70
  -4   4   5   13.40    1.70
   4   4  -5   14.00    6.00
  -4   4   5   14.30    4.70
  -4   4   5    8.50    2.00
   4   4  -5    9.40    2.20
  -4   4   5   14.80    2.90
   4   4  -5    9.90    2.00
  -3  -4   5  480.45   19.20
  -3  -4   5  490.55   19.40
  -3  -4   5  479.55   14.40
  -3  -4   5  488.45   14.80
  -3  -4   5  490.85   13.50
   3  -4  -5  476.65   14.10
   3  -4  -5  520.95   19.20
  -3  -4   5  490.05   15.60
   3  -4  -5  483.75   18.10
  -3  -4   5  480.85   18.90
  -3  -4   5  486.85   19.10
  -3  -4   5  483.55   14.60
   3  -4  -5  471.75   14.60
  -3  -4   5  503.25   14.80
   3   4  -5  493.05   14.60
  -3   4   5  495.65   15.90
   3   4  -5  480.45   15.00
  -3   4   5  498.05   14.10
  -3   4   5  467.75   17.60
   3   4  -5  485.95   18.90
  -3   4   5  478.85   14.60
   3   4  -5  453.85   19.40
  -3   4   5  499.05   19.10
  -2  -4   5 1069.89   29.00
  -2  -4   5 1089.59   28.50
  -2  -4   5 1087.39   29.10
  -2  -4   5 1071.89   29.10
  -2  -4   5 1068.79   33.20
  -2  -4   5 1092.19   33.40
  -2  -4   5 1073.49   33.40
  -2  -4   5 1065.69   31.90
   2  -4  -5 1035.40   29.00
   2  -4  -5 1063.39   33.10
  -2   4   5 1093.39   29.10
   2   4  -5 1095.89   29.30
   2   4  -5 1027.70   28.40
  -2   4   5 1082.59   32.20
  -2   4   5 1067.99   28.50
  -2   4   5 1028.80   33.00
   2   4  -5 1040.00   31.80
   2   4  -5 1056.99   33.60
  -2   4   5 1054.89   31.10
  -1  -4   5  842.22   26.60
   1  -4  -5  855.11   32.30
   1  -4  -5  793.62   26.40
  -1  -4   5  823.12   22.50
  -1  -4   5  822.72   22.70
   1  -4  -5  782.62   22.70
   1  -4  -5  816.52   25.40
  -1   4   5  820.02   22.80
   1   4  -5  851.41   22.80
   1   4  -5  820.42   21.80
  -1   4   5  811.62   26.90
  -1   4   5  804.32   25.60
  -1   4   5  804.92   25.60
  -1   4   5  826.02   22.30
   1   4  -5  830.02   26.80
   1   4  -5  800.02   24.30
   0  -4  -5  621.84   20.30
   0  -4  -5  592.84   17.20
   0  -4  -5  610.24   20.70
   0  -4  -5  596.44   16.70
   0  -4  -5  589.84   20.80
   0  -4   5  575.34   20.20
   0  -4   5  602.84   17.00
   0  -4   5  594.54   16.90
   0   4  -5  601.74   20.60
   0   4  -5  587.14   19.40
   0   4  -5  607.34   16.50
   0   4   5  578.54   19.80
   0   4   5  609.94   20.90
   0   4   5  589.04   17.30
   0   4  -5  624.74   15.70
   0   4  -5  597.54   17.10
   0   4  -5  611.54   17.00
  -1  -4  -5  142.79    5.50
   1  -4   5  133.69    8.20
  -1  -4  -5  141.19    5.40
  -1  -4  -5  142.99    5.20
   1  -4   5  142.09    5.20
  -1  -4  -5  158.28    9.20
   1  -4   5  138.99    5.20
  -1  -4  -5  143.19    9.20
  -1  -4  -5  143.59    9.10
   1   4   5  131.09    8.10
  -1   4  -5  142.09    8.20
  -1   4  -5  142.09    4.10
   1   4   5  140.09    5.10
  -1   4  -5  144.09    5.20
   1   4   5  139.29    5.60
   1   4   5  134.49    5.00
  -1   4  -5  140.29    5.30
   1   4   5  136.49    8.00
   1   4   5  131.19    9.80
  -1   4  -5  137.09    4.70
  -1   4  -5  144.69    7.30
   2  -4   5  453.05   15.80
   2  -4   5  437.46   12.80
  -2  -4  -5  455.65   17.30
  -2  -4  -5  441.06   13.00
  -2  -4  -5  458.25   16.80
  -2  -4  -5  450.05   13.20
   2  -4   5  431.36   15.60
   2  -4   5  450.15   12.80
  -2  -4  -5  457.35   17.30
   2   4   5  438.96   13.10
   2   4   5  470.15   16.30
   2   4   5  444.66   16.60
   2   4   5  453.75   18.80
  -2   4  -5  442.66   15.80
  -2   4  -5  439.86   12.90
   2   4   5  445.06   13.60
  -2   4  -5  462.45   12.40
   2   4   5  459.35   13.00
  -2   4  -5  443.16   12.70
  -2   4  -5  443.66   12.60
  -2   4  -5  475.35   14.60
  -3  -4  -5  618.64   17.80
  -3  -4  -5  622.64   22.60
   3  -4   5  634.04   17.00
   3  -4   5  625.84   19.50
   3  -4   5  610.34   19.70
  -3  -4  -5  603.84   17.70
  -3  -4  -5  591.94   21.70
   3  -4   5  616.74   16.90
   3  -4   5  610.44   23.00
  -3  -4  -5  631.74   17.20
  -3  -4  -5  625.64   21.00
   3   4   5  646.44   24.50
   3   4   5  622.04   21.40
  -3   4  -5  629.14   17.30
  -3   4  -5  637.84   16.90
   3   4   5  616.14   21.20
  -3   4  -5  596.24   19.40
   3   4   5  602.44   17.30
  -3   4  -5  622.24   20.10
   3   4   5  607.24   17.40
   3   4   5  618.44   18.00
   4  -4   5  210.58    6.70
  -4  -4  -5  209.08    8.70
   4  -4   5  209.98    6.50
   4  -4   5  213.98    7.60
  -4  -4  -5  227.88    7.70
  -4  -4  -5  225.08    8.50
   4  -4   5  207.78    9.00
   4  -4   5  197.68   13.80
  -4  -4  -5  215.38   12.30
   4  -4   5  219.38    7.80
  -4  -4  -5  194.88   15.00
  -4  -4  -5  185.18   13.50
   4  -4   5  205.08    9.90
   4   4   5  212.28    7.50
  -4   4  -5  211.78    8.40
   4   4   5  194.78   15.50
   4   4   5  230.18   12.60
   4   4   5  219.78   12.70
  -4   4  -5  207.98   11.60
   4   4   5  218.48    7.60
  -4   4  -5  222.18    6.30
  -4   4  -5  217.78    7.90
   4   4   5  214.68    9.20
  -5  -4  -5  143.39   12.80
   5  -4   5  120.99   12.10
  -5  -4  -5  138.29    6.30
  -5  -4  -5  136.79   11.80
  -5  -4  -5  124.39   11.50
   5  -4   5  132.69    4.90
   5  -4   5  144.89    8.90
   5  -4   5  165.98    8.90
  -5  -4  -5  132.69    5.90
  -5  -4  -5  131.19    6.90
   5  -4   5  138.19    4.90
   5   4   5  173.88   17.20
   5   4   5  134.39    6.20
   5   4   5  137.89    6.20
   5   4   5  151.18   13.00
   5   4   5  156.98   13.00
  -5   4  -5  134.19    6.50
  -5   4  -5  140.39   11.30
  -6  -4  -5   26.90    3.10
  -6  -4  -5   15.30    9.70
  -6  -4  -5   23.50    3.90
   6  -4   5   26.80   11.60
  -6  -4  -5   23.50    8.00
  -6  -4  -5   -3.20    6.60
   6   4   5   26.70   12.60
   6   4   5   27.70    3.30
  -6   4  -5   10.10    7.60
   6   4   5   31.70    9.70
   6   4   5   22.40    3.00
  -6   4  -5   25.30    3.50
   6   4   5   30.70    8.50
  -7  -5   5   27.70    4.80
  -7  -5   5   23.60   12.00
   7  -5  -5   22.40    9.30
   7  -5  -5   23.40    3.50
   7   5  -5   20.00    4.40
  -7   5   5   -1.60    7.90
   7   5  -5    5.60   11.30
  -6  -5   5   14.80    8.40
  -6  -5   5   36.30    3.80
   6  -5  -5   33.50    3.70
   6  -5  -5   27.00    7.80
  -6  -5   5   36.20    4.10
  -6  -5   5   34.50    3.60
  -6  -5   5   31.50    7.30
  -6  -5   5   43.40    9.50
   6   5  -5   40.30    4.70
  -6   5   5   23.30    7.50
   6   5  -5   34.90   10.60
  -6   5   5   31.50    3.40
  -5  -5   5   10.50    3.10
  -5  -5   5   13.00    2.30
  -5  -5   5   10.70    7.20
  -5  -5   5   14.30    2.60
  -5  -5   5   25.90   10.10
   5  -5  -5   12.70    2.90
   5  -5  -5   13.30   12.70
   5  -5  -5   16.10    5.60
  -5  -5   5   17.80    5.60
   5  -5  -5   14.70    2.60
  -5  -5   5   12.60    2.80
   5   5  -5   22.30    8.10
  -5   5   5   14.60    4.70
  -5   5   5   13.10    1.60
   5   5  -5   19.50    3.50
  -5   5   5   15.10    6.20
  -5   5   5   12.50    2.50
  -5   5   5   11.80    2.10
  -5   5   5    6.70    5.80
   4  -5  -5  557.94   21.20
  -4  -5   5  538.95   16.40
  -4  -5   5  553.74   22.40
   4  -5  -5  555.64   22.90
  -4  -5   5  510.55   22.40
  -4  -5   5  546.65   22.30
  -4  -5   5  526.85   16.60
  -4  -5   5  545.85   18.60
   4  -5  -5  551.04   16.60
  -4  -5   5  542.75   15.50
  -4  -5   5  552.64   16.80
   4  -5  -5  520.25   16.20
  -4   5   5  548.75   21.30
  -4   5   5  532.45   16.20
  -4   5   5  545.05   15.30
  -4   5   5  530.65   15.80
  -4   5   5  548.95   14.30
   4   5  -5  545.55   16.60
  -4   5   5  567.04   19.20
   4   5  -5  522.15   22.40
   4   5  -5  536.05   16.90
  -3  -5   5    5.00    1.40
  -3  -5   5   16.90    4.70
   3  -5  -5    3.00    1.80
   3  -5  -5    2.00    4.20
  -3  -5   5    0.80    5.10
   3  -5  -5    2.70    1.30
  -3  -5   5    3.80    5.60
   3  -5  -5    4.20    4.70
  -3  -5   5    4.10    2.40
  -3  -5   5    4.30    1.60
  -3  -5   5    4.20    1.80
  -3  -5   5    6.50    3.30
   3   5  -5    4.00    4.50
   3   5  -5    6.00    1.70
  -3   5   5    3.80    4.00
   3   5  -5    1.70    4.70
  -3   5   5    4.20    4.60
   3   5  -5    4.30    1.70
  -3   5   5    3.10    1.80
  -3   5   5    3.40    1.40
  -3   5   5    6.70    3.20
   2  -5  -5  208.18    7.70
  -2  -5   5  216.38    7.50
  -2  -5   5  221.28    6.20
  -2  -5   5  208.48   11.10
   2  -5  -5  215.78   12.00
   2  -5  -5  208.08   12.00
  -2  -5   5  207.18    7.30
  -2  -5   5  214.38   11.80
  -2  -5   5  222.38    7.90
  -2  -5   5  225.08   12.30
  -2   5   5  223.38   12.10
  -2   5   5  220.78   10.80
  -2   5   5  222.48    8.00
   2   5  -5  214.28    7.20
   2   5  -5  217.88    8.00
  -2   5   5  213.18   10.10
   2   5  -5  208.08   12.10
   2   5  -5  213.58   10.90
  -2   5   5  215.28    7.20
  -1  -5   5    8.10    1.50
  -1  -5   5    7.90    1.40
   1  -5  -5    4.40    1.30
   1  -5  -5    8.10    1.50
  -1  -5   5    6.90    3.20
   1  -5  -5    8.00    3.80
  -1  -5   5    9.60    4.60
   1  -5  -5   -1.00    4.40
   1  -5  -5    9.50    4.00
  -1  -5   5    7.00    1.40
  -1   5   5    8.40    3.40
  -1   5   5    9.80    4.00
   1   5  -5   13.50    4.60
  -1   5   5   11.40    4.10
   1   5  -5   10.00    3.10
   1   5  -5    7.40    1.50
   1   5  -5    8.10    1.20
  -1   5   5    7.80    1.30
  -1   5   5    8.30    1.60
   0  -5  -5 3528.75   92.39
   0  -5  -5 3581.84   93.49
   0  -5  -5 3512.05   92.69
   0  -5   5 3499.55   88.79
   0  -5   5 3572.84   87.29
   0  -5  -5 3492.35   88.99
   0  -5  -5 3459.45   88.39
   0  -5   5 3497.15   88.59
   0  -5   5 3540.25   88.89
   0  -5   5 3519.95   92.69
   0   5   5 3487.35   89.09
   0   5   5 3373.06   89.19
   0   5  -5 3236.08   87.89
   0   5  -5 3518.15   91.09
   0   5  -5 3415.56   92.69
   0   5  -5 2927.71   91.19
   0   5   5 3573.44   93.19
   0   5  -5 3590.84   88.09
   0   5  -5 3508.55   88.89
   0   5   5 3411.46   92.19
  -1  -5  -5  112.79    4.70
  -1  -5  -5  113.49    4.80
   1  -5   5  108.19    4.40
   1  -5   5  109.49    7.90
  -1  -5  -5  112.99    9.00
   1  -5   5  108.89    4.50
  -1  -5  -5  102.59    9.00
  -1   5  -5  102.99    7.90
   1   5   5  111.49    4.50
   1   5   5  103.29    9.20
  -1   5  -5   99.89    7.20
   1   5   5  112.29    4.50
  -1   5  -5  112.19    4.10
  -1   5  -5  106.39    4.10
   1   5   5  112.79    8.00
   1   5   5  114.59    8.20
  -1   5  -5  103.79    6.70
   1   5   5  109.29    5.00
  -1   5  -5  105.99    4.50
   2  -5   5 2009.40   50.49
  -2  -5  -5 1848.02   54.59
   2  -5   5 1919.71   53.49
  -2  -5  -5 1932.61   50.79
   2  -5   5 1971.50   53.89
  -2  -5  -5 1882.61   55.09
  -2  -5  -5 1975.80   55.69
   2  -5   5 1957.70   50.49
  -2  -5  -5 1925.31   50.99
  -2   5  -5 1998.30   50.59
   2   5   5 1952.30   50.89
   2   5   5 1901.41   51.49
   2   5   5 1944.41   57.19
   2   5   5 1942.21   54.49
  -2   5  -5 2078.69   49.90
  -2   5  -5 1918.31   53.69
   2   5   5 1903.41   54.79
  -2   5  -5 2038.60   51.69
   2   5   5 1958.30   50.79
   3  -5   5    2.70    1.20
  -3  -5  -5    4.90    2.20
  -3  -5  -5    6.70    6.90
   3  -5   5    3.10    3.10
  -3  -5  -5   -0.90    1.60
   3  -5   5    5.70    3.60
   3  -5   5   -4.20    4.80
   3  -5   5    3.90    1.40
  -3  -5  -5   -6.90    5.20
   3   5   5   -3.80    4.40
  -3   5  -5    2.00    1.10
   3   5   5    5.00    1.50
  -3   5  -5    2.60    4.20
  -3   5  -5    5.90    1.80
  -3   5  -5    5.20    3.60
   3   5   5   10.40    4.60
   3   5   5    4.80    6.00
   3   5   5    3.20    1.50
   4  -5   5   98.49    7.90
  -4  -5  -5   82.89   11.20
   4  -5   5   97.29    6.50
  -4  -5  -5   90.39    6.20
   4  -5   5  100.39    3.70
  -4  -5  -5  103.39   10.90
  -4  -5  -5   99.29    5.70
  -4  -5  -5   95.09    4.90
   4  -5   5   64.39    8.60
   4  -5   5   94.99    4.00
  -4  -5  -5   94.79    9.90
   4   5   5   91.29    4.70
   4   5   5  107.39   12.40
   4   5   5  103.59    5.20
   4   5   5  101.79   10.90
   4   5   5  106.49   10.20
  -4   5  -5  101.99    5.90
  -4   5  -5   96.79    3.50
   4   5   5   95.39    4.90
  -4   5  -5   99.99    8.90
  -4   5  -5   95.49    4.80
   5  -5   5   83.49   10.80
   5  -5   5   71.79    3.60
  -5  -5  -5   81.49    4.90
  -5  -5  -5   63.19    8.20
   5  -5   5   94.99   10.50
  -5  -5  -5   64.19   10.30
   5  -5   5   66.59    6.30
  -5  -5  -5   72.19    5.00
  -5  -5  -5   63.99    8.80
  -5  -5  -5   80.99    5.30
   5   5   5   80.39    9.20
   5   5   5   66.89    4.70
   5   5   5   83.39   12.20
   5   5   5   64.19    4.80
  -5   5  -5   74.89    8.80
  -5   5  -5   70.99    4.80
   5   5   5   79.49    9.70
  -6  -5  -5   12.90    2.80
  -6  -5  -5   -1.30    7.40
  -6  -5  -5   25.30    7.90
  -6  -5  -5   10.60    3.50
  -6  -5  -5   10.20    7.80
   6  -5   5   21.50   10.60
   6   5   5    9.20    3.00
   6   5   5    4.90    2.90
  -6   5  -5    9.00    2.80
   6   5   5    9.60    4.60
   6   5   5   12.00    9.50
   6   5   5   -4.20   12.40
  -6   5  -5   11.30    8.30
   6   5   5   12.10    8.70
  -7  -6   5   75.99   12.10
  -7  -6   5   56.49    6.20
   7  -6  -5   76.29   11.30
   7  -6  -5   47.80    5.60
  -7  -6   5   49.60    5.90
  -7  -6   5   53.19   13.20
   7   6  -5   57.39   10.00
   7   6  -5   57.29   29.00
  -6  -6   5   -5.00    8.80
   6  -6  -5   -0.90    2.40
  -6  -6   5   -1.50    2.20
  -6  -6   5    1.20    3.20
  -6  -6   5   -6.70    9.30
  -6  -6   5   -3.00    5.20
   6  -6  -5    0.50    7.20
  -6  -6   5    0.80    2.70
  -6   6   5    1.70    2.40
  -6   6   5    1.20    6.60
   6   6  -5    0.40    3.30
   6   6  -5   -1.20    9.90
  -5  -6   5  456.75   14.90
  -5  -6   5  447.16   13.80
  -5  -6   5  471.05   22.20
  -5  -6   5  430.86   21.40
  -5  -6   5  432.36   17.80
   5  -6  -5  426.96   19.90
  -5  -6   5  419.76   14.40
   5  -6  -5  442.26   14.10
  -5   6   5  450.25   18.20
   5   6  -5  444.36   15.00
  -5   6   5  447.26   15.70
  -5   6   5  451.35   19.70
  -5   6   5  437.26   14.00
  -5   6   5  433.76   13.00
  -5   6   5  451.55   12.40
   5   6  -5  450.65   22.60
  -4  -6   5   33.50    8.20
   4  -6  -5   38.10    3.70
  -4  -6   5   47.10    8.00
  -4  -6   5   36.30    3.10
   4  -6  -5   26.30    6.80
  -4  -6   5   39.30    4.00
   4  -6  -5   36.90    7.40
  -4  -6   5   41.80    5.80
   4  -6  -5   31.70    3.80
   4   6  -5   41.70    4.40
   4   6  -5   37.60    3.80
   4   6  -5   47.30    8.30
  -4   6   5   43.90    5.90
  -4   6   5   36.20    6.60
  -4   6   5   41.90    3.80
  -4   6   5   38.10    3.80
   4   6  -5   41.50    9.10
  -4   6   5   37.70    2.90
  -3  -6   5   -4.10    6.00
  -3  -6   5    0.00    1.30
  -3  -6   5    2.20    3.10
   3  -6  -5    1.90    1.60
   3  -6  -5    2.10    1.70
  -3  -6   5    1.50    1.80
   3  -6  -5    0.30    4.40
  -3  -6   5    0.90    1.90
  -3  -6   5   -2.60    4.60
  -3  -6   5   -0.10    5.10
   3   6  -5   -0.90    4.70
  -3   6   5   -3.10    1.20
   3   6  -5    0.50    1.40
   3   6  -5   -1.30    1.70
  -3   6   5   -5.00    3.90
  -3   6   5    1.90    4.80
  -3   6   5   -1.40    1.20
  -3   6   5    0.80    1.70
  -3   6   5   -9.40    3.20
   3   6  -5   -4.20    4.60
  -2  -6   5  836.12   28.50
   2  -6  -5  990.20   29.30
  -2  -6   5  910.71   24.90
  -2  -6   5  891.31   37.60
   2  -6  -5  975.10   26.70
   2  -6  -5  963.90   31.50
  -2  -6   5  997.90   27.00
  -2  -6   5  978.20   32.10
  -2  -6   5  876.71   26.60
   2   6  -5  994.20   30.20
  -2   6   5 1022.30   27.00
  -2   6   5  975.20   26.10
   2   6  -5  979.70   26.10
   2   6  -5  991.50   32.20
  -2   6   5  995.20   31.70
  -2   6   5  964.00   29.60
  -2   6   5 1014.20   30.30
   2   6  -5  971.10   27.10
  -1  -6   5  426.26   15.60
   1  -6  -5  442.86   16.70
  -1  -6   5  421.86   12.30
   1  -6  -5  440.36   18.30
  -1  -6   5  416.76   17.70
  -1  -6   5  419.36   13.20
   1  -6  -5  448.56   17.80
   1  -6  -5  431.46   13.10
  -1  -6   5  411.66   13.10
   1  -6  -5  427.46   13.30
   1   6  -5  444.96   12.80
  -1   6   5  448.16   17.10
  -1   6   5  434.26   16.50
   1   6  -5  445.26   17.30
  -1   6   5  427.26   12.80
  -1   6   5  440.26   13.50
   1   6  -5  440.26   12.30
  -1   6   5  411.86   17.90
   1   6  -5  430.76   15.20
   0  -6   5  696.63   23.60
   0  -6  -5  696.23   24.10
   0  -6   5  678.13   17.80
   0  -6   5  675.03   19.00
   0  -6  -5  683.03   23.70
   0  -6  -5  688.33   19.40
   0  -6   5  654.53   19.00
   0  -6  -5  645.14   18.80
   0  -6   5  673.83   20.00
   0   6  -5  647.44   22.40
   0   6  -5  688.33   17.70
   0   6   5  653.03   24.00
   0   6   5  636.54   22.30
   0   6  -5  667.13   19.40
   0   6  -5  663.43   18.70
   0   6  -5  657.83   19.30
   0   6  -5  686.13   23.30
   0   6   5  658.53   19.50
   0   6   5  668.73   23.70
   1  -6   5  111.59    8.70
  -1  -6  -5  108.79   10.60
  -1  -6  -5  128.89   11.00
   1  -6   5  112.19    4.80
   1  -6   5  105.09   10.70
   1  -6   5  116.89    4.80
   1  -6   5  112.19    4.70
  -1  -6  -5  113.89    5.10
  -1  -6  -5  111.69    4.90
   1   6   5  116.59    8.80
   1   6   5  107.59    4.70
  -1   6  -5  126.29    8.70
  -1   6  -5  110.79    4.80
  -1   6  -5  119.49    7.50
   1   6   5   97.49    8.10
   1   6   5  116.99    6.50
  -1   6  -5  122.79    8.10
   1   6   5  114.29   10.10
   1   6   5  114.49    4.90
  -1   6  -5  115.49    4.40
  -1   6  -5  112.89    4.30
  -2  -6  -5    4.00    4.70
  -2  -6  -5    3.60    1.70
   2  -6   5    6.40    1.40
   2  -6   5   -1.20    3.20
  -2  -6  -5    8.30    6.10
  -2  -6  -5    1.80    1.80
   2  -6   5    0.70    4.20
   2  -6   5    4.10    1.20
  -2  -6  -5    3.40    6.30
   2   6   5    1.20    1.50
   2   6   5    8.80    6.10
  -2   6  -5    3.20    3.20
  -2   6  -5    3.30    1.30
  -2   6  -5    1.90    3.40
   2   6   5    5.50    4.80
  -2   6  -5    2.40    1.30
  -3  -6  -5  792.92   27.00
  -3  -6  -5  740.13   29.20
   3  -6   5  803.02   25.00
  -3  -6  -5  737.13   22.60
   3  -6   5  774.92   21.20
  -3  -6  -5  773.82   21.90
   3  -6   5  792.22   21.30
   3  -6   5  779.12   24.10
   3   6   5  780.02   26.80
  -3   6  -5  796.92   24.10
   3   6   5  776.32   22.00
  -3   6  -5  802.02   21.30
  -3   6  -5  822.12   21.30
   3   6   5  772.12   26.80
  -3   6  -5  785.02   24.10
   3   6   5  809.92   22.10
   3   6   5  765.92   29.80
  -4  -6  -5  188.78    8.40
   4  -6   5  211.48   10.90
  -4  -6  -5  210.38   14.00
   4  -6   5  204.58    6.90
   4  -6   5  207.78    6.40
  -4  -6  -5  227.28   13.60
   4  -6   5  223.38    9.40
   4  -6   5  207.58   14.30
   4   6   5  197.58    7.80
   4   6   5  228.38   16.80
  -4   6  -5  213.78    7.80
   4   6   5  195.88   13.80
   4   6   5  218.88   13.60
  -4   6  -5  222.58   11.90
   5  -6   5   24.00    5.90
  -5  -6  -5   14.80    7.60
  -5  -6  -5   16.90    2.80
  -5  -6  -5   14.20    7.10
   5  -6   5   16.90    2.00
   5  -6   5  -17.10   15.00
  -5  -6  -5   14.40    3.00
   5   6   5   19.30    2.90
   5   6   5   14.10    8.40
   5   6   5   12.90    2.70
   5   6   5   13.20    7.20
  -5   6  -5   22.30    7.50
  -5   6  -5   15.40    2.80
  -6  -6  -5   11.90    3.30
  -6  -6  -5    1.70    3.10
   6  -6   5   19.40   10.60
  -6  -6  -5   14.80    8.50
  -6  -6  -5    0.30    3.20
  -6  -6  -5    1.60    9.00
  -6  -6  -5   13.30    9.30
   6   6   5   17.60    5.10
   6   6   5    7.60   13.50
   6   6   5    5.30    9.60
   6   6   5    4.40    2.90
  -6   6  -5   10.70    8.50
   6   6   5    9.20    3.10
   6   6   5   18.40   10.70
  -6   6  -5    8.20    2.90
  -6  -7   5    0.60    6.40
  -6  -7   5   -1.80    2.90
   6  -7  -5   10.30    8.30
  -6  -7   5    0.40   10.60
  -6  -7   5   20.30   10.40
   6  -7  -5    0.40    2.70
  -6  -7   5   -0.30    2.30
  -6  -7   5   -4.30    3.30
   6   7  -5    1.40    3.30
  -6   7   5    0.90    2.50
   6   7  -5   -2.10   10.90
  -6   7   5   -6.10    7.40
  -5  -7   5   25.00    3.10
  -5  -7   5   22.20    3.60
  -5  -7   5   22.00    3.20
  -5  -7   5   18.90    8.60
  -5  -7   5    3.50    8.20
   5  -7  -5   21.20    7.10
  -5  -7   5   26.00    5.90
   5  -7  -5   16.10    2.80
   5   7  -5   18.30    5.10
  -5   7   5   16.30    1.80
   5   7  -5   -0.50   13.20
   5   7  -5   31.80   14.50
  -5   7   5   19.30    3.00
   5   7  -5   14.30    2.90
  -5   7   5   22.80    5.10
  -5   7   5   21.20    7.00
  -4  -7   5   79.89    7.80
  -4  -7   5   84.29    4.40
  -4  -7   5   88.19    5.60
   4  -7  -5   80.99    5.30
   4  -7  -5   83.39    9.30
  -4  -7   5  112.59   12.60
  -4  -7   5   74.89    9.70
  -4   7   5   86.29    5.20
  -4   7   5   80.59    8.70
  -4   7   5   92.79    6.10
   4   7  -5   80.99    6.10
  -4   7   5   90.49    5.00
  -4   7   5   82.19    8.00
  -4   7   5   87.69    4.20
  -4   7   5   85.69    3.30
   4   7  -5   84.89   12.70
  -4   7   5   89.69    9.30
   4   7  -5   85.29   10.70
   4   7  -5   87.29    5.90
  -3  -7   5  633.64   16.80
  -3  -7   5  592.44   31.40
  -3  -7   5  610.24   24.20
   3  -7  -5  633.14   23.90
   3  -7  -5  605.44   18.10
  -3  -7   5  625.74   18.60
  -3  -7   5  580.64   18.10
  -3  -7   5  634.74   19.20
  -3   7   5  633.14   23.80
  -3   7   5  609.44   21.50
   3   7  -5  605.34   18.70
   3   7  -5  572.74   22.90
   3   7  -5  596.04   17.90
  -3   7   5  606.74   20.10
  -3   7   5  623.04   18.30
   3   7  -5  603.84   24.60
  -3   7   5  603.64   17.00
  -3   7   5  619.24   17.30
  -2  -7   5    0.00    1.80
  -2  -7   5   -2.70    2.60
   2  -7  -5   -3.40    4.10
  -2  -7   5    0.40    1.20
  -2  -7   5   -0.40    1.50
  -2  -7   5    4.80    5.30
   2  -7  -5    0.70    1.40
  -2  -7   5    0.90    5.40
   2  -7  -5    5.90    5.00
  -2   7   5    4.00    4.40
   2   7  -5   -1.50    2.10
  -2   7   5    1.90    1.30
   2   7  -5   -4.50    4.30
  -2   7   5    0.30    4.20
  -2   7   5    1.10    1.80
   2   7  -5   -6.30    4.30
   2   7  -5    0.40    1.40
  -2   7   5    2.60    4.60
  -2   7   5   -0.80    1.40
   1  -7  -5   -0.10    2.60
   1  -7  -5   -1.90    4.10
  -1  -7   5    3.20    1.50
   1  -7  -5    6.40    4.70
  -1  -7   5    3.80    4.20
   1  -7  -5   -5.40    5.70
  -1  -7   5   -0.10    1.40
  -1  -7   5    3.90    4.60
   1  -7  -5    2.00    1.20
   1   7  -5   -1.90    4.80
  -1   7   5    7.00    4.70
   1   7  -5   -0.40    1.10
   1   7  -5    3.00    1.50
   1   7  -5    0.60    1.20
   1   7  -5    9.90    5.40
  -1   7   5    1.60    1.10
   1   7  -5   -1.60    3.40
  -1   7   5   -1.70    3.80
  -1   7   5    0.30    1.60
  -1   7   5    6.30    4.40
   0  -7   5  102.09    9.20
   0  -7  -5   85.09    5.30
   0  -7  -5   78.99    8.60
   0  -7   5   93.79    4.70
   0  -7   5   96.39    7.20
   0  -7   5   90.89    3.80
   0  -7  -5   85.79   10.90
   0  -7  -5   89.19    4.70
   0  -7   5   88.39    4.50
   0   7   5   89.89    9.40
   0   7  -5   94.19    8.80
   0   7  -5  100.09    4.40
   0   7  -5   99.69    8.60
   0   7  -5   90.19    3.40
   0   7   5  104.39    8.60
   0   7  -5   82.19    8.80
   0   7  -5   88.79    6.10
   0   7   5   94.69    4.60
   0   7   5   99.39    5.10
   0   7  -5   91.69    4.40
   0   7   5   88.89    9.60
  -1  -7  -5  244.28   23.60
   1  -7   5  264.07    9.20
  -1  -7  -5  254.57   14.20
  -1  -7  -5  280.27   12.30
   1  -7   5  277.77    9.20
  -1  -7  -5  262.87    9.60
   1  -7   5  253.67   15.20
   1  -7   5  262.27    9.60
   1  -7   5  257.27    8.90
   1  -7   5  284.87   13.60
   1  -7   5  263.47    7.60
   1   7   5  251.67    8.90
  -1   7  -5  277.07    9.00
  -1   7  -5  283.17   13.30
  -1   7  -5  266.87    8.20
  -1   7  -5  286.77   11.50
  -1   7  -5  269.17    8.30
   1   7   5  265.97   13.40
   1   7   5  280.77   15.10
   1   7   5  243.08   13.00
  -1   7  -5  293.87   12.10
  -2  -7  -5   17.30    2.50
   2  -7   5   21.80    2.50
  -2  -7  -5   30.50    8.00
   2  -7   5   17.90    2.20
   2  -7   5   19.00    4.60
   2  -7   5   19.00    5.20
  -2  -7  -5   11.70    6.90
  -2  -7  -5   16.60    2.70
  -2   7  -5   12.00    4.70
   2   7   5   19.50    2.30
   2   7   5   18.70    5.30
   2   7   5   24.70    7.30
  -2   7  -5   22.10    2.30
   3  -7   5  316.77   10.10
   3  -7   5  312.57   13.20
   3  -7   5  303.87   14.50
   3  -7   5  323.77    9.90
  -3   7  -5  333.07   10.00
   3   7   5  330.37   10.90
   3   7   5  311.77   18.70
  -3   7  -5  343.47   10.10
  -3   7  -5  353.46   14.00
  -3   7  -5  347.77   13.30
   3   7   5  313.97   16.40
  -4  -7  -5  187.08   20.90
  -4  -7  -5  151.18   15.40
   4  -7   5  161.08    8.80
   4  -7   5  173.98   14.30
   4  -7   5  166.18    6.10
   4  -7   5  164.08    5.60
   4  -7   5  170.38   11.30
  -4   7  -5  177.78   11.10
   4   7   5  155.48    8.60
   4   7   5  155.48   13.80
   4   7   5  171.38    7.00
  -4   7  -5  170.28    6.80
   4   7   5  177.88   16.10
  -5  -7  -5 1638.64   46.00
  -5  -7  -5 1687.23   51.49
   5  -7   5 1597.14   50.89
  -5  -7  -5 1670.03   50.99
  -5  -7  -5 1712.23   44.70
  -5  -7  -5 1633.84   53.69
  -5  -7  -5 1694.73   44.70
  -5   7  -5 1597.54   48.40
   5   7   5 1633.44   44.40
   5   7   5 1591.04   50.19
   5   7   5 1634.44   55.49
   5   7   5 1610.14   46.10
   5   7   5 1620.44   44.20
   5   7   5 1581.24   51.29
  -5   7  -5 1655.23   44.00
  -6  -7  -5  125.19    8.20
  -6  -7  -5  128.79   13.40
   6  -7   5  117.89   14.80
  -6  -7  -5  151.38   16.40
  -6  -7  -5  125.49    7.20
   6   7   5  119.69    9.80
   6   7   5  125.89   18.40
   6   7   5  120.39    7.00
  -6   7  -5  109.29    6.90
  -6   7  -5  126.09   13.00
   6   7   5  104.89    7.60
   6   7   5  130.29   15.00
  -6  -8   5   43.80    8.60
   6  -8  -5   43.80   10.10
  -6  -8   5   55.89    6.10
   6  -8  -5   42.70    4.30
  -6  -8   5   50.99   12.50
  -6  -8   5   35.90    4.80
  -6  -8   5   58.89   12.80
  -6  -8   5   42.50    4.40
   6   8  -5   68.09   15.00
   6   8  -5   49.90    6.00
  -6   8   5    7.00    9.10
   6   8  -5   53.29    6.00
  -5  -8   5  239.88    9.90
  -5  -8   5  255.77   13.60
   5  -8  -5  261.57   16.70
   5  -8  -5  246.68    9.60
  -5  -8   5  273.07   19.80
  -5  -8   5  261.87   19.30
  -5  -8   5  252.37   10.80
  -5  -8   5  253.97    9.20
   5   8  -5  249.08   10.90
   5   8  -5  226.08   20.40
  -5   8   5  246.38    9.80
  -5   8   5  226.78   16.60
   5   8  -5  248.48   10.20
   4  -8  -5    0.70    2.10
  -4  -8   5   -0.40    4.50
   4  -8  -5    7.80    6.90
  -4  -8   5    1.10    1.70
  -4   8   5    0.20    7.40
  -4   8   5    7.80    6.50
  -4   8   5    3.70    2.40
  -4   8   5    0.50    2.30
   4   8  -5   -1.10    2.20
  -4   8   5   -0.40    5.30
  -4   8   5    0.70    1.60
   4   8  -5    2.10    2.60
   4   8  -5  -10.00    7.40
   3  -8  -5  334.67   11.40
   3  -8  -5  346.17   17.20
  -3  -8   5  322.67   23.80
  -3  -8   5  352.66   13.10
  -3  -8   5  335.27   10.00
   3  -8  -5  316.27   13.90
  -3  -8   5  348.97   12.00
  -3   8   5  317.77   11.00
  -3   8   5  342.57   10.60
  -3   8   5  344.27   17.70
  -3   8   5  325.27   10.30
  -3   8   5  336.67   14.90
   3   8  -5  343.37   12.10
   3   8  -5  331.57   19.00
  -3   8   5  304.57   18.10
   3   8  -5  328.47   16.60
  -3   8   5  341.57   11.70
  -3   8   5  342.67   14.30
   3   8  -5  327.57   11.20
  -2  -8   5 1049.09   28.40
  -2  -8   5 1005.10   33.30
  -2  -8   5 1072.09   26.80
  -2  -8   5 1056.69   29.10
   2  -8  -5  997.70   34.00
   2  -8  -5 1033.40   32.00
   2  -8  -5 1021.70   28.80
  -2  -8   5 1001.60   28.20
   2   8  -5 1038.40   28.20
  -2   8   5 1030.70   32.30
   2   8  -5 1023.90   32.70
  -2   8   5 1012.20   28.00
  -2   8   5 1040.50   29.10
  -2   8   5 1027.90   32.30
  -2   8   5 1037.80   28.20
  -2   8   5 1035.90   34.80
   1  -8  -5    8.80    5.60
   1  -8  -5    5.00    5.20
  -1  -8   5    5.00    5.30
   1  -8  -5    4.90    1.60
  -1  -8   5    9.30    5.20
  -1  -8   5    8.90    2.10
   1   8  -5    7.50    1.60
   1   8  -5    9.20    4.30
   1   8  -5   11.50    5.70
  -1   8   5    9.00    4.70
  -1   8   5    2.80    5.10
  -1   8   5    4.10    1.90
  -1   8   5    9.90    5.50
  -1   8   5   12.40    2.70
   1   8  -5    4.80    1.70
   1   8  -5    4.30    1.90
   1   8  -5   -0.70    6.20
   0  -8  -5  481.05   20.70
   0  -8  -5  538.85   21.40
   0  -8   5  507.55   17.80
   0  -8   5  498.85   14.40
   0  -8  -5  511.05   15.80
   0  -8   5  505.95   20.90
   0  -8   5  492.65   17.20
   0   8  -5  523.15   15.10
   0   8  -5  520.85   19.90
   0   8   5  542.15   16.30
   0   8  -5  524.05   19.40
   0   8  -5  498.75   16.80
   0   8   5  516.65   16.00
   0   8   5  505.25   21.20
   0   8  -5  507.95   14.10
   0   8   5  517.35   22.50
   0   8  -5  521.85   14.80
   1  -8   5   69.19    6.50
   1  -8   5   70.49    3.40
   1  -8   5   63.09    4.00
   1  -8   5   77.19    8.60
   1  -8   5   72.99    6.60
   1  -8   5   75.99    4.10
   1  -8   5   70.09    3.20
   1   8   5   73.49    5.20
  -1   8  -5   69.79    3.50
  -1   8  -5   44.70    9.50
   1   8   5   74.99    8.40
  -1   8  -5   72.29    7.70
   1   8   5   64.19    4.00
  -1   8  -5   50.09    5.70
   1   8   5   75.99    5.00
  -1   8  -5   73.19    3.70
  -1   8  -5   67.69    7.70
   1   8   5   74.79    9.00
   2  -8   5  504.95   15.20
   2  -8   5  518.05   20.10
   2  -8   5  534.95   15.10
   2  -8   5  508.15   14.80
   2  -8   5  512.35   13.30
   2   8   5  514.95   16.60
   2   8   5  505.85   20.90
   2   8   5  515.05   15.30
  -2   8  -5  418.06   16.90
  -2   8  -5  419.66   26.00
   2   8   5  511.75   23.10
   3  -8   5   45.70    7.40
   3  -8   5   44.50    3.60
   3  -8   5   45.60    5.70
   3  -8   5   47.80    3.30
   3  -8   5   44.50    5.00
   3   8   5   51.19    3.90
  -3   8  -5   55.29    6.60
  -3   8  -5   41.80    3.30
   3   8   5   39.20    9.50
   3   8   5   46.50    8.30
   3   8   5   45.30    5.20
   4  -8   5  516.35   14.40
   4  -8   5  499.35   17.50
   4  -8   5  522.35   23.40
  -4  -8  -5  488.55   23.10
  -4  -8  -5  484.55   16.50
   4  -8   5  528.35   20.40
   4  -8   5  520.35   15.10
   4  -8   5  520.05   14.50
   4  -8   5  518.75   17.50
  -4   8  -5  531.35   19.60
   4   8   5  507.25   16.00
   4   8   5  537.15   22.50
  -4   8  -5  542.05   15.50
   4   8   5  476.45   22.70
  -5  -8  -5   40.40    5.10
  -5  -8  -5   10.00   10.50
  -5  -8  -5   28.30   10.00
  -5  -8  -5   42.10    4.90
   5  -8   5   29.00   15.80
  -5  -8  -5   35.00   13.30
  -5   8  -5   45.20    8.10
   5   8   5   35.20    3.80
  -5   8  -5   42.50    4.60
   5   8   5   32.40    9.90
   5   8   5   41.40    4.10
   5   8   5   40.80    5.70
   5   8   5   41.10   10.90
   5   8   5   52.49   14.50
   6  -9  -5   -3.80    9.60
  -6  -9   5    4.90    3.70
   6  -9  -5    7.20    3.60
  -6  -9   5    2.20    2.50
  -6  -9   5   -8.40   12.90
  -6  -9   5    8.00   12.60
  -6  -9   5    7.00    6.90
  -6  -9   5    6.60    3.90
   6   9  -5   23.50   14.90
   6   9  -5    1.00    3.60
  -6   9   5   -0.20    3.20
  -6   9   5    5.20   10.00
   6   9  -5   13.10    5.00
   5  -9  -5  107.59    6.60
   5  -9  -5   95.89   11.60
  -5  -9   5  110.09   11.30
  -5  -9   5  107.59    5.90
  -5  -9   5  168.18   18.70
  -5  -9   5   98.89    7.50
  -5  -9   5   89.29   13.50
  -5  -9   5  105.49    6.90
   5   9  -5  110.99    8.10
   5   9  -5  126.89   15.80
  -5   9   5  105.09    6.70
   5   9  -5  112.09    6.90
  -5   9   5  104.79   12.00
   5   9  -5  124.29   18.90
  -4  -9   5  144.89   10.70
  -4  -9   5  137.69    7.80
   4  -9  -5  140.39    7.10
  -4  -9   5  165.58   16.20
   4  -9  -5  142.89   14.30
  -4  -9   5  141.19    6.10
   4   9  -5  139.69    7.10
  -4   9   5  143.89   15.10
   4   9  -5  146.69   15.60
   4   9  -5  137.29   14.40
  -4   9   5  145.99    9.30
  -4   9   5  145.59    6.90
  -4   9   5  148.69   11.30
  -4   9   5  147.09    5.30
  -4   9   5  142.39    7.40
  -4   9   5  144.99   14.80
   4   9  -5  151.88    8.00
  -4   9   5  148.09    5.90
  -3  -9   5  142.19    9.00
  -3  -9   5  147.39    7.30
   3  -9  -5  151.88    7.00
  -3  -9   5  144.69    5.60
   3  -9  -5  157.78   13.70
   3  -9  -5  153.78   11.70
  -3   9   5  159.78   14.20
  -3   9   5  153.58    6.00
  -3   9   5  151.68    6.00
  -3   9   5  149.19   11.10
  -3   9   5  112.69   18.40
  -3   9   5  112.19    9.70
   3   9  -5  150.08    7.50
   3   9  -5  143.79    6.70
  -3   9   5  146.69   11.10
  -3   9   5  146.39    7.40
  -2  -9   5    2.10    2.40
  -2  -9   5    0.90    3.60
  -2  -9   5    5.30    1.60
  -2  -9   5    4.80    1.50
   2  -9  -5    6.00    2.20
  -2  -9   5    1.10    7.60
   2  -9  -5    5.40    5.70
   2  -9  -5   13.40    6.10
   2   9  -5    5.50    5.40
  -2   9   5   11.30    6.80
  -2   9   5    3.40    2.00
  -2   9   5    5.60    1.80
  -2   9   5    6.10    5.40
  -2   9   5    7.10    2.40
   2   9  -5    1.70    1.80
  -2   9   5   12.70    5.90
   2   9  -5  -12.80    9.00
  -1  -9   5   95.09    5.20
   1  -9  -5  107.49    5.80
  -1  -9   5  103.29    5.40
  -1  -9   5   98.29    6.40
   1  -9  -5   88.89    9.70
   1  -9  -5  112.29   11.00
  -1  -9   5  103.79    9.20
   1   9  -5   99.19   10.10
   1   9  -5  104.59    4.50
  -1   9   5  101.69    6.10
  -1   9   5   97.79    5.60
  -1   9   5  117.09   11.80
   1   9  -5  116.89    9.10
  -1   9   5  106.69   12.00
  -1   9   5   86.89    9.70
   1   9  -5  103.89    5.30
   0  -9  -5 1224.18   40.60
   0  -9   5 1233.08   33.10
   0  -9  -5 1254.17   34.80
   0  -9   5 1247.98   37.00
   0   9  -5 1268.57   36.00
   0   9   5 1246.48   34.80
   0   9   5 1235.98   40.30
   0   9  -5 1288.77   38.80
   0   9  -5 1241.88   38.10
   0   9  -5 1309.97   33.80
   0   9  -5 1222.58   33.40
   0   9   5 1275.87   35.20
   0   9  -5 1249.07   32.90
   1  -9   5  546.85   18.60
   1  -9   5  551.44   22.20
   1  -9   5  544.65   15.20
  -1  -9  -5  564.24   23.00
   1  -9   5  537.65   16.50
  -1   9  -5  548.75   16.60
  -1   9  -5  578.94   15.70
   1   9   5  434.76   32.80
   1   9   5  497.85   17.60
  -1   9  -5  588.64   19.70
  -1   9  -5  548.75   19.70
  -1   9  -5  565.44   15.50
  -1   9  -5  569.54   21.80
   2  -9   5  943.91   30.30
   2  -9   5  894.81   24.90
   2  -9   5  890.01   25.10
   2  -9   5  882.41   30.80
   2  -9   5  878.01   23.60
   2  -9   5  900.31   26.20
  -2   9  -5  948.71   30.00
  -2   9  -5  921.81   25.00
   2   9   5  868.01   25.40
   2   9   5  881.61   26.60
   2   9   5  878.01   33.50
   3  -9   5    0.60    1.90
   3  -9   5    1.40    6.50
   3  -9   5   -1.20    4.70
   3  -9   5   -1.20    1.60
   3   9   5   -6.40    7.10
   3   9   5    6.30    8.20
   3   9   5   -2.00    2.00
   3   9   5   -6.80    2.60
  -4  -9  -5   19.60    3.70
   4  -9   5   15.30    2.60
   4  -9   5   18.70    8.00
  -4  -9  -5    6.40    9.10
   4  -9   5   16.80    2.20
   4  -9   5   12.10    5.20
   4  -9   5   17.40    5.70
   4  -9   5   15.20    2.40
   4   9   5   13.10   11.30
   4   9   5   14.10    3.90
   4   9   5   18.50    3.20
   4   9   5   10.30    9.10
  -5  -9  -5  200.78   21.30
  -5  -9  -5  183.18    9.90
   5  -9   5  186.08   18.80
  -5  -9  -5  174.58   16.70
  -5  -9  -5  204.08   10.00
   5   9   5  150.28   23.10
   5   9   5  233.48   19.80
   5   9   5  234.48   22.30
   5   9   5  197.28   12.20
   5   9   5  199.28    9.30
   5   9   5  207.48    9.00
  -5 -10   5  747.43   27.20
  -5 -10   5  770.02   23.90
   5 -10  -5  734.13   30.30
   5 -10  -5  726.73   22.30
  -5 -10   5  711.63   33.80
  -5 -10   5  759.72   21.80
  -5 -10   5  722.33   23.00
  -5 -10   5  785.52   34.30
   5  10  -5  786.12   36.60
   5  10  -5  725.83   32.60
   5  10  -5  716.23   22.90
   5  10  -5  760.02   24.10
  -4 -10   5   13.40    3.50
  -4 -10   5   13.00    2.80
  -4 -10   5   19.40    6.60
   4 -10  -5    9.90    8.20
  -4 -10   5   19.30    9.90
   4 -10  -5   16.80    3.20
  -4  10   5    9.80    8.20
   4  10  -5   31.20   11.40
  -4  10   5    4.30    6.70
   4  10  -5   10.00    3.20
  -4  10   5   16.30    3.50
   4  10  -5   14.80    3.20
  -4  10   5   15.10    2.30
   4  10  -5   20.90    9.10
  -3 -10   5    7.30    2.50
   3 -10  -5    7.80    2.70
   3 -10  -5   10.90    7.50
  -3 -10   5   11.20    5.20
  -3 -10   5   10.20    2.30
   3 -10  -5   15.70    7.60
   3  10  -5   17.70    4.00
   3  10  -5   13.10    7.50
  -3  10   5   13.90    6.40
   3  10  -5    5.70    2.40
  -3  10   5   14.90    6.00
  -3  10   5   10.50    7.70
   3  10  -5   17.20    8.30
  -3  10   5    6.70    2.30
  -3  10   5    8.30    3.10
  -3  10   5    8.10    2.10
   2 -10  -5   17.50    2.90
  -2 -10   5   25.60    5.10
   2 -10  -5   25.30    7.70
  -2 -10   5   22.60    2.40
   2 -10  -5   20.70    7.60
   2  10  -5   32.30    7.10
  -2  10   5   25.30    8.00
  -2  10   5   25.80    3.20
  -2  10   5   17.20    2.50
  -2  10   5   19.30    3.40
  -2  10   5   17.40    9.20
  -2  10   5   23.00    7.10
   2  10  -5   24.20    9.00
   2  10  -5   22.00    2.70
  -1 -10   5  285.07   16.50
  -1 -10   5  276.47    9.70
  -1 -10   5  276.97   10.10
   1 -10  -5  266.97   10.30
   1 -10  -5  251.27   16.40
   1 -10  -5  238.78   19.10
  -1 -10   5  282.97    8.00
   1  10  -5  278.07    9.10
   1  10  -5  270.87   13.80
  -1  10   5  293.47   16.50
  -1  10   5  306.07   18.60
  -1  10   5  280.07   10.90
  -1  10   5  277.67   14.90
  -1  10   5  267.97   10.20
   0 -10  -5   13.30    7.10
   0 -10  -5   21.00    3.20
   0  10  -5   13.80    1.90
   0  10   5   18.60    7.60
   0  10  -5   12.20    2.70
   0  10  -5   18.00    2.30
   0  10   5   22.00    3.50
   0  10  -5   19.20    4.80
   0  10  -5   12.40    7.70
   0  10  -5   12.30    6.70
   0  10   5    9.80    3.90
   1 -10   5   31.10    6.40
  -1 -10  -5   20.90    7.40
   1 -10   5   23.00    7.50
   1 -10   5   28.20    2.60
  -1  10  -5   29.90    2.90
  -1  10  -5   23.10    6.60
   1  10   5   35.20    4.40
  -1  10  -5   40.30    7.60
  -1  10  -5   24.20    2.40
  -1  10  -5   36.60    5.20
   1  10   5   40.50    4.40
   1  10   5   45.30    9.90
  -1  10  -5   28.20    6.40
   2 -10   5   10.00    8.80
   2 -10   5    5.80    5.00
   2 -10   5    3.40    2.40
   2 -10   5    5.70    2.00
  -2  10  -5    5.30    2.10
  -2  10  -5   12.50    6.40
   2  10   5    5.00    3.00
   2  10   5   13.90    8.80
   3 -10   5  601.74   17.40
   3 -10   5  601.74   25.00
   3 -10   5  590.54   23.00
   3 -10   5  625.24   22.30
   3 -10   5  595.24   17.70
   3 -10   5  569.44   18.40
   3  10   5  580.74   26.10
   3  10   5  638.54   29.60
   3  10   5  617.24   18.70
   3  10   5  602.34   20.10
   4 -10   5   13.10    6.40
  -4 -10  -5  -16.50   18.40
  -4 -10  -5    0.10    6.20
   4 -10   5    5.70    2.50
   4 -10   5   -4.30    5.70
   4 -10   5    0.40    1.80
   4 -10   5   -0.20    1.90
   4 -10   5  -23.40    8.00
   4  10   5   -8.50    9.60
   4  10   5    4.60   11.30
   4  10   5    1.40    2.80
   5 -11  -5   80.29    7.20
  -5 -11   5   96.89    6.20
  -5 -11   5  117.79   16.10
  -5 -11   5  112.59   12.10
  -5 -11   5   97.49    9.20
  -5 -11   5  108.99   16.00
  -5 -11   5   84.19    7.40
   5 -11  -5   98.79   13.70
   5  11  -5  115.39   15.30
   5  11  -5   73.59    7.10
   5  11  -5   78.29    9.30
   5  11  -5  102.49   17.10
   4 -11  -5  535.45   17.60
  -4 -11   5  555.04   18.90
  -4 -11   5  519.25   29.10
  -4 -11   5  533.25   29.00
  -4 -11   5  550.14   16.30
   4 -11  -5  567.14   26.60
  -4 -11   5  546.05   21.10
   4  11  -5  544.75   30.90
   4  11  -5  539.05   26.90
   4  11  -5  533.35   17.50
  -4  11   5  552.04   18.10
  -4  11   5  554.14   27.50
   4  11  -5  550.44   18.90
   3 -11  -5  302.97   11.60
  -3 -11   5  311.77   14.10
  -3 -11   5  326.67   10.00
   3 -11  -5  268.27   19.10
  -3 -11   5  306.17   12.00
  -3  11   5  289.67   10.20
   3  11  -5  296.37   19.00
  -3  11   5  310.17   17.10
   3  11  -5  325.27   11.20
  -3  11   5  304.77   20.80
  -3  11   5  304.67   10.70
  -3  11   5  330.17   16.60
   3  11  -5  348.07   15.30
  -3  11   5  298.67   12.10
   2 -11  -5   22.80    3.30
  -2 -11   5   27.70    2.70
  -2 -11   5   30.30    5.50
   2 -11  -5   16.00    8.70
   2 -11  -5   10.60    8.90
  -2  11   5   11.80    6.70
  -2  11   5   23.70    4.00
  -2  11   5   22.80    7.60
  -2  11   5   20.00    3.20
  -2  11   5   22.60    2.90
   2  11  -5   23.20    7.40
   2  11  -5   25.20    2.80
  -2  11   5   24.80    9.50
  -1 -11   5  178.88    5.90
   1 -11  -5  144.59   15.50
  -1 -11   5  162.58    8.50
   1 -11  -5  180.78    8.20
  -1 -11   5  178.78    9.10
  -1 -11   5  212.88   19.50
   1  11  -5  178.88    7.70
  -1  11   5  190.78   16.50
  -1  11   5  175.68   13.20
  -1  11   5  173.08    9.20
   1  11  -5  170.18   12.70
  -1  11   5  175.88    8.30
   1  11  -5  180.28    6.80
   1  11  -5  195.68   15.10
  -1  11   5  201.98   18.60
   0 -11   5  481.95   14.70
   0 -11   5  482.05   21.00
   0 -11  -5  492.55   16.00
   0 -11  -5  450.25   22.90
   0  11   5  509.65   24.50
   0  11   5  479.25   16.10
   0  11  -5  476.95   18.70
   0  11   5  473.95   22.90
   0  11   5  494.05   16.50
   0  11  -5  484.05   14.80
   0  11  -5  482.05   21.20
   0  11  -5  476.55   14.10
   1 -11   5   33.40    8.90
  -1 -11  -5   20.60    8.30
  -1  11  -5   14.00    2.90
  -1  11  -5   18.70    7.50
   1  11   5   19.40    9.10
   1  11   5   23.50    3.60
  -1  11  -5   16.70    2.20
   1  11   5   12.50    3.50
  -1  11  -5   26.10    7.90
  -1  11  -5   19.80    6.20
   2 -11   5  389.76   13.00
   2 -11   5  417.86   19.20
   2 -11   5  407.66   13.50
   2 -11   5  399.46   21.00
   3 -11   5  323.47   16.80
  -3 -11  -5  290.17   21.70
   3 -11   5  328.77   21.20
   3 -11   5  299.57   10.50
   3 -11   5  333.07   17.60
  -3 -11  -5  317.87   12.80
   3 -11   5  314.57   11.00
   3 -11   5  292.17   11.70
   3  11   5  352.06   24.00
   3  11   5  303.37   11.50
   3  11   5  302.07   26.60
   3  11   5  313.77   13.10
   4 -11   5   96.59    9.20
  -4 -11  -5  111.99    8.60
   4 -11   5  102.19    6.60
  -4 -11  -5  139.99   16.10
   4 -11   5  113.99    5.60
   4 -11   5  110.59   13.30
   4  11   5  117.09    7.20
   4  11   5  135.39   15.60
   4 -12  -5   -3.40    3.30
   4 -12  -5    2.80   10.30
  -4 -12   5   -0.10    2.70
  -4 -12   5   -7.90   13.00
  -4 -12   5    8.00    7.10
  -4 -12   5    2.30    3.70
  -4  12   5   -1.80   10.50
   4  12  -5    8.40    3.20
   4  12  -5    8.80   15.10
  -4  12   5    1.90    3.90
   4  12  -5   -5.70   11.60
   4  12  -5   -4.30    4.20
   3 -12  -5  226.48   10.20
  -3 -12   5  229.48   13.30
  -3 -12   5  234.08    8.40
  -3 -12   5  230.48   10.40
   3 -12  -5  201.28   19.20
   3  12  -5  248.38   23.10
  -3  12   5  241.98    9.40
  -3  12   5  232.28   10.90
   3  12  -5  235.28    9.30
  -3  12   5  236.68   20.80
   3  12  -5  191.68   18.50
   3  12  -5  221.88   11.70
  -3  12   5  251.77   17.30
  -2 -12   5  944.41   28.60
   2 -12  -5  943.31   27.70
  -2 -12   5  977.80   25.30
   2 -12  -5  957.10   36.60
  -2  12   5  918.11   26.90
   2  12  -5  898.51   33.00
  -2  12   5  944.01   37.50
  -2  12   5  939.81   26.40
   2  12  -5  934.01   26.60
  -2  12   5  926.21   32.60
   2  12  -5  938.41   27.40
  -2  12   5  937.31   34.20
  -2  12   5  943.21   28.40
   1 -12  -5  165.88   17.40
   1 -12  -5  189.58    9.00
  -1 -12   5  181.88   10.00
  -1 -12   5  192.28    6.40
  -1  12   5  179.98    8.70
  -1  12   5  160.28   17.50
   1  12  -5  185.78    7.60
   1  12  -5  172.58   14.30
  -1  12   5  184.08    9.40
  -1  12   5  190.98    7.80
  -1  12   5  163.18   16.70
  -1  12   5  190.18   14.60
   1  12  -5  186.58   17.10
   1  12  -5  186.68    8.20
   0 -12  -5  811.12   32.80
   0 -12  -5  814.82   24.60
   0  12  -5  772.62   30.90
   0  12  -5  823.32   22.50
   0  12   5  806.42   24.60
   0  12  -5  748.33   23.50
   0  12   5  802.52   33.10
   0  12   5  849.41   25.20
   0  12   5  796.62   34.30
   0  12  -5  850.31   28.10
   1 -12   5   19.60    9.80
  -1 -12  -5   18.00    3.40
   1 -12   5   19.20    3.20
  -1 -12  -5    1.10    9.10
  -1  12  -5   22.50    2.50
   1  12   5   28.10    4.70
   1  12   5   14.40   11.10
  -1  12  -5   14.40    6.80
   1  12   5   20.70    3.90
   2 -12   5  464.45   23.90
   2 -12   5  439.16   14.90
   2 -12   5  429.46   14.80
   2 -12   5  451.05   23.40
   2  12   5  441.66   16.20
   2  12   5  439.66   27.00
   3 -12   5   35.40    4.00
  -3 -12  -5   43.20   12.20
   3 -12   5   32.10    3.90
  -3 -12  -5   31.40    4.80
   3 -12   5   15.80   10.90
   3 -12   5   57.79    9.90
   3  12   5   36.60    5.00
   3  12   5   34.90   12.50
   3  12   5   34.00   13.40
   3  12   5   31.30    4.20
   3 -13  -5  412.36   14.90
   3 -13  -5  375.06   25.30
  -3 -13   5  386.96   15.10
  -3 -13   5  416.96   18.00
  -3 -13   5  403.66   28.10
  -3 -13   5  408.86   12.70
  -3  13   5  408.46   13.00
   3  13  -5  377.96   23.80
   3  13  -5  386.66   13.90
  -3  13   5  402.66   15.60
  -3  13   5  340.97   27.80
  -3  13   5  417.46   21.20
   2 -13  -5   24.50   11.10
   2 -13  -5   21.60    4.10
  -2 -13   5   29.50    7.00
  -2 -13   5   24.90    3.10
   2  13  -5   29.50   11.80
  -2  13   5   29.70    4.50
   2  13  -5   22.80    3.20
  -2  13   5   32.30    5.30
  -2  13   5   26.50    4.40
  -2  13   5   38.60   14.30
   2  13  -5   13.50    9.70
   2  13  -5   29.20    3.90
  -2  13   5    3.80   12.60
  -2  13   5   23.90   11.10
   1 -13  -5   -4.20    2.80
   1 -13  -5   -6.40    9.90
  -1  13   5  -16.20   10.70
  -1  13   5    0.40    2.50
  -1  13   5    1.20    3.50
   1  13  -5    6.90    7.90
   1  13  -5    0.30    2.30
  -1  13   5    5.40    3.90
   1  13  -5   -0.40    2.70
  -1  13   5  -11.60   10.80
  -1  13   5    3.20    8.50
   1  13  -5   10.80   10.30
   0 -13  -5   69.39    6.90
   0 -13  -5   70.69   12.60
   0  13   5   67.79    7.00
   0  13   5   54.49   12.70
   0  13  -5   68.69    4.90
   0  13   5   64.79    7.70
   0  13   5   68.39   14.10
   0  13   5   65.69    5.10
   0  13  -5   86.39    9.80
   0  13  -5   66.89    5.40
   0  13   5   53.39   10.30
   0  13  -5   66.79   10.60
  -1 -13  -5  609.14   30.50
   1 -13   5  600.84   19.50
   1 -13   5  599.44   19.80
  -1 -13  -5  613.74   20.20
   1 -13   5  613.14   30.80
   1 -13   5  613.04   28.80
   1  13   5  599.74   20.50
   1  13   5  580.94   31.50
   1  13   5  600.24   31.30
   1  13   5  658.73   21.20
   2 -13   5  213.28    9.50
   2 -13   5  198.68   10.10
  -2 -13  -5  239.68   23.60
   2 -13   5  224.18    9.70
  -2 -13  -5  215.78   11.40
   2 -13   5  263.97   21.30
   2 -13   5  266.87   20.70
   2 -13   5  245.88   17.90
   2  13   5  192.78   19.60
   2  13   5  225.78   11.40
   2 -14  -5   88.09   14.30
  -2 -14   5   92.79    9.40
  -2 -14   5   74.19    5.40
   2 -14  -5   65.99    7.60
  -2 -14   5   99.79   16.90
  -2 -14   5   77.89    7.80
  -2  14   5   81.49    8.60
  -2  14   5   75.89    6.30
  -2  14   5   70.89    7.10
   2  14  -5   75.59    6.90
  -2  14   5   66.09   16.30
  -2  14   5   83.99   14.50
   2  14  -5   84.49    6.40
   2  14  -5   71.69   12.70
  -2  14   5   67.19   11.90
   2  14  -5   98.79   15.00
   1 -14  -5   28.10    4.30
  -1 -14   5   42.40    6.10
  -1 -14   5   61.59   15.90
   1 -14  -5   38.50   12.60
  -1  14   5   42.70    5.90
   1  14  -5   42.00    4.30
   1  14  -5   55.49   11.10
  -1  14   5   42.40   10.70
  -1  14   5   48.20    5.30
  -1  14   5   31.60   15.80
  -1  14   5   44.60   14.20
   1  14  -5   31.00   12.40
  -1  14   5   49.40    6.30
   1  14  -5   50.19    5.70
   0 -14   5   15.70    4.90
   0 -14  -5   20.20    5.00
   0 -14  -5   33.20   13.40
   0 -14   5   29.40   16.60
   0  14  -5   37.00   10.80
   0  14  -5   24.20    3.70
   0  14   5   -2.00   13.00
   0  14  -5   22.20   10.50
   0  14   5   17.60    3.60
   0  14   5    4.50   10.30
   0  14   5   17.50    4.70
   0  14   5   16.30   13.90
   0  14   5   25.10    5.30
   0  14  -5    9.20    3.00
  -1 -14  -5   11.70    4.20
   1 -14   5   12.90    3.90
   1 -14   5   16.30   13.30
  -1 -14  -5   22.60    4.80
  -1 -14  -5   17.00   13.60
   1 -14   5   14.50    4.60
  -1 -14  -5    8.90   13.60
   1  14   5   27.70   13.60
   1  14   5    7.20    4.30
  -7   0   6   -1.10    3.30
   7   0  -6   -4.70   10.00
  -7   0   6    1.50    2.40
   7   0  -6   -0.90    3.40
  -7   0   6    1.70    9.60
  -7   0   6    4.10    6.70
  -6   0   6  394.36   13.30
  -6   0   6  362.86   18.00
  -6   0   6  382.76   12.90
   6   0  -6  378.96   13.30
  -6   0   6  383.06   11.90
  -6   0   6  402.86   20.70
   6   0  -6  375.86   21.00
  -6   0   6  375.26   17.60
  -5   0   6   -1.10    5.40
  -5   0   6    1.60    1.90
  -5   0   6    1.10    1.60
  -5   0   6   -6.40    5.90
   5   0  -6    1.40    1.90
  -5   0   6   -5.50    4.20
  -5   0   6    0.60    1.70
  -5   0   6    0.70    1.90
   5   0  -6    6.90    5.90
  -5   0   6    2.30    6.30
  -4   0   6   28.60    3.10
  -4   0   6   26.10    3.10
   4   0  -6   37.50    7.20
   4   0  -6   25.20    6.80
  -4   0   6   31.30    2.70
  -4   0   6   36.60    5.60
   4   0  -6   30.50    3.10
  -4   0   6   33.90    3.50
  -4   0   6   27.20    5.00
  -4   0   6   33.60    6.00
  -4   0   6   30.10    6.70
   4   0  -6   30.10    3.30
   3   0  -6    1.30    3.90
  -3   0   6   -1.40    4.10
  -3   0   6    1.40    1.20
  -3   0   6    0.10    4.10
   3   0  -6   -2.30    4.50
   3   0  -6   -0.30    1.40
   3   0  -6    0.50    1.70
  -3   0   6    1.50    1.60
   2   0  -6  762.22   25.80
   2   0  -6  738.53   21.20
  -2   0   6  720.53   25.50
   2   0  -6  765.12   20.70
  -2   0   6  742.23   25.10
  -2   0   6  743.13   21.20
   2   0  -6  748.53   24.30
   1   0  -6    0.10    3.20
  -1   0   6   -4.20    2.80
  -1   0   6    2.80    3.00
  -1   0   6    0.20    1.00
  -1   0   6    0.20    1.00
   1   0  -6   -1.30    1.00
   0   0   6  351.26   14.90
   0   0  -6  334.37   11.00
   0   0   6  338.77   13.90
   0   0  -6  341.17   15.10
   0   0  -6  357.86    9.80
   0   0   6  334.17   10.50
   0   0   6  346.47   10.90
   0   0  -6  357.96   11.90
   0   0  -6  373.36   14.80
   0   0  -6  356.36   10.90
  -1   0  -6   -1.10    0.90
  -1   0  -6    1.60    3.10
  -1   0  -6    0.00    0.90
   1   0   6   -6.40    3.60
  -1   0  -6    1.50    1.00
   1   0   6   -0.70    3.30
  -1   0  -6    3.40    3.50
  -1   0  -6    0.10    2.40
   1   0   6   -1.10    0.90
   1   0   6    2.60    1.00
  -2   0  -6 1029.40   28.60
  -2   0  -6 1067.69   27.90
   2   0   6 1042.60   34.50
   2   0   6 1049.40   32.60
  -2   0  -6 1076.79   29.00
  -2   0  -6 1068.89   27.40
  -2   0  -6 1062.19   32.30
  -2   0  -6 1087.29   30.60
   2   0   6 1075.79   31.90
   2   0   6 1068.59   28.50
  -2   0  -6 1090.69   28.60
   2   0   6 1076.69   28.80
  -2   0  -6 1047.10   31.50
  -3   0  -6    1.40    1.20
   3   0   6    0.50    3.90
  -3   0  -6    7.50    4.70
  -3   0  -6   -1.30    1.50
   3   0   6    1.50    1.10
  -3   0  -6   -0.60    1.20
   3   0   6   -0.40    1.10
  -3   0  -6    0.90    3.50
   3   0   6   -4.80    5.60
  -3   0  -6    6.40    4.00
   3   0   6    1.80    0.90
   3   0   6    2.90    3.70
   3   0   6    3.20    2.50
  -4   0  -6  120.29    6.10
  -4   0  -6  107.69    9.10
   4   0   6  123.99    5.20
  -4   0  -6  113.79   10.60
   4   0   6  124.19   13.80
   4   0   6  131.19    9.60
  -4   0  -6  125.29    5.10
   4   0   6  120.59    5.00
   4   0   6  121.29    9.40
   4   0   6  108.39    7.60
   4   0   6  116.19    4.30
   5   0   6   -4.80    9.00
  -5   0  -6    3.60    6.50
   5   0   6   -0.40    1.60
   5   0   6    1.90    1.70
   5   0   6   -7.50    4.40
  -5   0  -6    1.60    2.10
   5   0   6    1.60    5.40
   5   0   6    1.90    5.60
   5   0   6   -1.20    1.60
   6   0   6  144.79    7.00
   7  -1  -6    0.40    3.20
   7  -1  -6  -13.40    9.90
  -7  -1   6    4.10   10.00
  -7  -1   6   -1.70    3.30
  -7  -1   6    1.30    6.80
  -7  -1   6   -2.80    2.40
  -7   1   6   -7.50    6.00
  -7   1   6    3.80    2.40
  -7   1   6   -1.50    3.40
   7   1  -6   -9.10    9.90
  -7   1   6   14.80    9.70
   7   1  -6   -1.30    3.30
  -6  -1   6  499.15   15.90
  -6  -1   6  514.85   21.60
  -6  -1   6  517.25   23.60
  -6  -1   6  507.25   15.20
   6  -1  -6  506.05   16.50
  -6  -1   6  510.45   16.50
   6  -1  -6  541.55   24.20
  -6  -1   6  476.65   20.50
  -6   1   6  530.85   16.40
  -6   1   6  514.65   21.10
  -6   1   6  489.15   16.00
  -6   1   6  519.95   20.70
   6   1  -6  498.35   16.60
  -6   1   6  540.25   23.50
   6   1  -6  486.05   24.20
  -6   1   6  514.95   14.90
  -5  -1   6    5.00    6.40
  -5  -1   6   14.10    5.20
  -5  -1   6   21.80    7.00
  -5  -1   6   15.30    2.90
  -5  -1   6   18.60    2.90
   5  -1  -6   20.40    6.40
  -5  -1   6   19.10    2.70
  -5  -1   6   17.40    2.40
   5  -1  -6   11.00    2.70
  -5  -1   6   24.00    6.70
   5   1  -6   20.00    7.30
  -5   1   6   21.90    4.80
  -5   1   6   16.10    2.20
  -5   1   6   17.90    6.20
  -5   1   6   22.50    5.60
  -5   1   6   17.00    2.90
  -5   1   6   11.40    2.10
   5   1  -6   19.20    3.20
  -5   1   6   17.00    2.20
  -5   1   6   16.10    5.30
  -5   1   6    8.30    6.80
   4  -1  -6  451.95   19.60
  -4  -1   6  435.66   18.70
  -4  -1   6  453.15   14.20
  -4  -1   6  442.66   13.20
  -4  -1   6  455.55   13.80
  -4  -1   6  445.46   16.30
   4  -1  -6  449.46   14.20
  -4  -1   6  437.76   13.40
   4  -1  -6  471.35   20.30
  -4  -1   6  427.06   17.90
   4  -1  -6  452.25   14.30
  -4  -1   6  460.15   19.30
  -4   1   6  440.16   16.50
  -4   1   6  438.26   18.20
   4   1  -6  449.46   14.30
   4   1  -6  427.46   19.90
   4   1  -6  435.26   14.10
  -4   1   6  451.35   19.40
  -4   1   6  455.05   13.50
  -4   1   6  443.36   14.10
  -4   1   6  443.36   13.00
  -4   1   6  449.95   16.10
  -3  -1   6  205.38    7.50
   3  -1  -6  205.78   12.60
   3  -1  -6  204.48    7.90
  -3  -1   6  209.38    7.90
   3  -1  -6  202.98    7.60
   3  -1  -6  206.98   12.50
  -3  -1   6  204.68   11.80
  -3   1   6  206.18   12.50
   3   1  -6  227.48   13.00
   3   1  -6  211.98    8.10
  -3   1   6  192.58   11.20
  -3   1   6  208.18    7.40
  -3   1   6  210.38    7.90
  -3   1   6  221.18   10.50
   3   1  -6  197.28   12.50
   3   1  -6  204.98    7.50
  -2  -1   6   49.99    6.20
   2  -1  -6   46.80    3.30
   2  -1  -6   50.89    6.80
  -2  -1   6   41.40    3.30
  -2  -1   6   40.50    6.30
  -2  -1   6   36.90    2.80
  -2   1   6   39.10    2.90
   2   1  -6   42.60    6.50
  -2   1   6   34.40    4.90
   2   1  -6   54.79    6.30
  -2   1   6   38.20    5.50
   2   1  -6   41.60    3.40
   2   1  -6   40.30    2.80
  -2   1   6   37.60    3.20
  -2   1   6   36.10    5.60
   1  -1  -6  952.10   25.90
   1  -1  -6  934.61   30.10
  -1  -1   6  946.81   29.80
  -1  -1   6  937.51   25.60
  -1  -1   6  979.20   26.00
   1   1  -6  797.82   35.00
  -1   1   6  957.30   25.70
   1   1  -6  940.41   27.60
   1   1  -6  963.80   25.00
  -1   1   6  939.71   25.90
  -1   1   6  931.71   29.40
  -1   1   6  960.80   29.60
   0  -1   6  139.49    5.50
   0  -1   6  136.89    5.30
   0  -1  -6  140.69    4.90
   0  -1  -6  140.79    7.80
   0  -1  -6  142.19    9.00
   0  -1  -6  147.19    9.20
   0  -1   6  149.99    8.90
   0  -1   6  143.29    9.70
   0  -1  -6  144.89    5.30
   0   1  -6  151.48    9.20
   0   1  -6  147.19    4.50
   0   1   6  141.69    8.60
   0   1  -6  141.19    6.50
   0   1   6  153.98    9.80
   0   1   6  135.49    5.30
   0   1  -6  142.19    4.50
   0   1  -6  139.99    6.50
   0   1  -6  140.39    5.60
   0   1   6  137.19    5.60
  -1  -1  -6   88.99    4.00
  -1  -1  -6   89.49    4.20
  -1  -1  -6   87.29    6.40
  -1  -1  -6   89.99    3.50
   1  -1   6   97.59    7.10
   1  -1   6   87.19    4.00
  -1  -1  -6   95.79    7.20
   1  -1   6   89.69    8.80
  -1  -1  -6   86.99    7.80
   1  -1   6   88.49    4.00
  -1   1  -6   95.39    7.60
  -1   1  -6   91.09    3.60
  -1   1  -6   93.69    3.80
   1   1   6   87.89    4.00
  -1   1  -6   92.89    4.40
   1   1   6   90.69    4.20
   1   1   6   80.59    8.70
  -1   1  -6   89.99    6.00
  -1   1  -6   81.29    6.90
  -1   1  -6   91.99    4.10
   1   1   6   76.59    7.00
  -1   1  -6   90.49    4.20
   2  -1   6   40.90    6.30
   2  -1   6   31.10    2.50
  -2  -1  -6   33.70    4.90
  -2  -1  -6   33.60    2.70
   2  -1   6   34.90    5.10
  -2  -1  -6   33.70    2.70
   2  -1   6   35.60    2.60
   2  -1   6   33.00    4.90
  -2  -1  -6   32.50    2.40
  -2  -1  -6   34.20    4.30
  -2  -1  -6   37.80    5.50
  -2   1  -6   31.80    4.80
   2   1   6   28.00    4.60
   2   1   6   31.10    2.70
   2   1   6   32.50    2.50
   2   1   6   29.40    6.10
  -2   1  -6   38.20    5.10
  -2   1  -6   33.00    2.70
  -2   1  -6   33.80    2.60
  -3  -1  -6   68.09    3.80
  -3  -1  -6   77.59    9.90
   3  -1   6   70.89    3.80
   3  -1   6   85.89    7.70
  -3  -1  -6   69.09    4.40
  -3  -1  -6   71.89    6.80
  -3  -1  -6   60.89    5.30
  -3  -1  -6   68.59    3.10
  -3  -1  -6   67.19    6.10
   3  -1   6   82.49    7.60
  -3  -1  -6   78.59    7.90
   3  -1   6   82.19    9.60
   3  -1   6   70.39    3.60
   3   1   6   74.49    3.90
  -3   1  -6   81.39    7.90
   3   1   6   71.29    3.10
   3   1   6   68.39    3.60
   3   1   6   80.39    8.00
  -3   1  -6   72.69    3.70
  -3   1  -6   74.39    4.30
   3   1   6   75.29    9.20
   3   1   6   76.09    8.00
  -3   1  -6   70.59    7.20
   3   1   6   70.49    6.20
   4  -1   6   83.49    3.10
  -4  -1  -6   82.09    8.20
   4  -1   6   90.39   10.90
   4  -1   6   80.29    5.90
  -4  -1  -6   55.49    6.10
   4  -1   6   85.09    3.90
   4  -1   6   80.19    4.00
  -4  -1  -6   77.59    5.10
   4  -1   6   76.19    8.00
  -4  -1  -6   62.99    8.20
  -4  -1  -6   85.69    4.40
   4  -1   6   70.59    8.30
   4   1   6   79.59    3.90
  -4   1  -6   77.59    3.90
   4   1   6   79.39    7.70
   4   1   6   70.39    7.40
  -4   1  -6   86.79    8.10
   4   1   6   83.09    4.50
   4   1   6   84.09    8.70
   4   1   6   85.99   10.60
  -4   1  -6   94.69    9.60
  -4   1  -6   80.79    4.80
   4   1   6   81.79    3.60
   5  -1   6    1.10    1.40
  -5  -1  -6    6.60    1.90
  -5  -1  -6    4.90    6.70
   5  -1   6    9.80    9.10
   5  -1   6    5.90    4.90
  -5  -1  -6    7.40    5.70
   5  -1   6    6.10    1.60
   5  -1   6    4.60    5.50
   5  -1   6    7.80    1.90
   5  -1   6    0.80    4.30
  -5  -1  -6    1.00    2.20
  -5   1  -6    0.40    6.30
  -5   1  -6    6.40    1.70
   5   1   6    3.90    9.20
   5   1   6    4.00    6.00
  -5   1  -6    7.70    4.20
   5   1   6    5.70    1.90
  -5   1  -6    5.30    2.40
   5   1   6    6.80    1.80
   5   1   6    1.80    5.70
   5   1   6   -4.60    5.30
   5   1   6    3.10    1.80
  -6  -1  -6    3.40    5.50
  -6  -1  -6    1.40    3.30
  -6  -1  -6    0.60    9.50
  -6  -1  -6    2.00    1.80
  -6  -1  -6    2.10    2.00
   6  -1   6   10.10   11.50
  -6  -1  -6   -3.70    5.30
  -6   1  -6    2.00    3.00
  -6   1  -6    5.90    7.30
   6   1   6    4.50   11.60
   6   1   6    2.70    2.30
   6   1   6  -14.50    7.50
   7  -2  -6   98.59    7.00
  -7  -2   6  103.89   13.70
   7  -2  -6   95.69   12.60
  -7  -2   6  102.79    7.70
   7   2  -6   94.59    7.50
   7   2  -6  103.99   14.40
  -7   2   6   95.39    6.50
  -7   2   6   93.29   11.00
  -6  -2   6  101.69    5.60
  -6  -2   6  105.79    6.70
  -6  -2   6   95.19   10.40
   6  -2  -6  111.89   12.00
  -6  -2   6  107.29   12.40
  -6  -2   6   94.99    5.40
  -6  -2   6  115.99   10.80
   6  -2  -6   93.79    6.30
  -6   2   6   94.89   11.30
  -6   2   6  100.89    4.90
   6   2  -6   99.79    7.00
  -6   2   6   92.69    5.60
   6   2  -6  111.29   12.70
  -6   2   6   89.99    6.20
  -6   2   6  101.89   10.60
  -6   2   6  102.09    9.30
  -5  -2   6  119.89    9.50
  -5  -2   6  120.79    5.70
  -5  -2   6  114.79   12.70
  -5  -2   6  114.09    6.20
   5  -2  -6  111.89   12.50
  -5  -2   6  109.39   10.00
  -5  -2   6  109.79    5.30
   5  -2  -6  111.69    6.20
  -5  -2   6  110.19    6.20
  -5  -2   6  119.79   13.20
  -5   2   6  111.09    4.60
  -5   2   6  116.09    5.20
  -5   2   6  119.79   11.00
  -5   2   6  120.29    8.50
   5   2  -6   93.79   10.40
  -5   2   6  113.19    6.10
  -5   2   6  114.89   12.40
  -5   2   6  109.49    7.80
   5   2  -6  122.89    6.60
  -4  -2   6    2.60    1.50
   4  -2  -6    2.10    1.90
  -4  -2   6    3.60    2.00
   4  -2  -6    3.70    1.90
  -4  -2   6    4.50    2.20
  -4  -2   6    2.50    5.00
  -4  -2   6    2.30    1.60
  -4  -2   6    5.40    5.70
  -4  -2   6    3.20    3.60
  -4  -2   6   13.30    5.90
   4  -2  -6   -2.40    5.60
   4   2  -6    2.90    1.90
  -4   2   6    9.50    4.90
   4   2  -6    2.90    2.00
  -4   2   6    0.90    3.70
  -4   2   6    8.10    5.40
  -4   2   6    4.30    1.60
   4   2  -6    6.80    5.60
  -4   2   6    1.90    1.70
   3  -2  -6  204.58    7.80
  -3  -2   6  172.48   11.50
   3  -2  -6  198.18   12.40
  -3  -2   6  178.08   11.80
  -3  -2   6  206.88   12.50
  -3  -2   6  205.88    7.50
  -3  -2   6  206.98    7.80
  -3  -2   6  198.08    7.40
  -3   2   6  187.78   11.50
  -3   2   6  205.68    7.80
   3   2  -6  215.68   12.50
   3   2  -6  197.18   13.10
  -3   2   6  207.68   12.20
   3   2  -6  205.18    7.80
  -3   2   6  196.68    7.10
  -3   2   6  195.28   10.00
   3   2  -6  196.78    7.40
   2  -2  -6   14.10    2.00
  -2  -2   6   14.90    1.80
  -2  -2   6   14.20    2.10
  -2  -2   6   16.40    4.50
   2  -2  -6   13.40    4.50
  -2  -2   6   16.80    4.90
   2   2  -6   17.90    5.00
  -2   2   6   17.40    4.10
  -2   2   6   25.30    5.10
  -2   2   6   13.50    4.70
   2   2  -6   13.90    4.20
   2   2  -6   20.60    2.50
   2   2  -6   18.50    2.10
  -2   2   6   16.90    2.20
  -2   2   6   19.30    2.20
  -1  -2   6  182.48    6.60
   1  -2  -6  191.78    7.00
   1  -2  -6  182.78   11.00
   1  -2  -6  179.28    9.70
  -1  -2   6  185.88   10.40
  -1  -2   6  190.78    6.90
   1   2  -6  175.98    8.70
  -1   2   6  181.88   10.40
  -1   2   6  188.38    9.90
  -1   2   6  196.98   12.80
   1   2  -6  193.38    5.50
   1   2  -6  179.78    7.30
  -1   2   6  182.28    7.00
   1   2  -6  179.28    6.00
   0  -2   6    1.10    3.50
   0  -2  -6    0.20    1.10
   0  -2  -6   -1.30    3.30
   0  -2  -6    1.70    1.10
   0  -2   6    0.80    1.00
   0  -2  -6   -0.80    3.80
   0  -2   6    0.80    1.10
   0   2  -6    1.10    0.80
   0   2   6    4.10    4.00
   0   2   6   -0.40    1.00
   0   2   6    1.00    0.90
   0   2  -6    3.40    2.40
   0   2  -6   -2.60    2.90
   0   2  -6    0.40    1.00
   0   2   6    2.80    3.40
  -1  -2  -6   25.20    4.80
  -1  -2  -6   25.40    2.50
   1  -2   6   24.50    4.70
   1  -2   6   23.40    4.70
  -1  -2  -6   25.40    2.60
  -1  -2  -6   22.30    2.30
   1  -2   6   21.50    2.20
   1  -2   6   20.40    2.20
  -1  -2  -6   25.80    4.30
  -1  -2  -6   26.30    4.80
   1   2   6   23.50    5.40
   1   2   6   25.60    2.40
  -1   2  -6   31.60    3.70
  -1   2  -6   27.70    2.30
  -1   2  -6   18.40    2.10
  -1   2  -6   30.10    2.10
   1   2   6   22.70    4.70
   1   2   6   28.50    2.30
  -1   2  -6   22.60    4.20
  -1   2  -6   30.50    4.40
  -2  -2  -6   77.59    3.70
   2  -2   6   75.79    3.70
  -2  -2  -6   71.59    7.90
  -2  -2  -6   70.99    7.80
  -2  -2  -6   77.09    3.70
   2  -2   6   72.19    3.70
  -2  -2  -6   76.29    7.90
   2  -2   6   89.39    7.10
  -2  -2  -6   76.79    3.90
   2  -2   6   76.79    7.10
   2  -2   6   77.79    8.50
   2   2   6   77.19    6.30
  -2   2  -6   75.09    5.90
   2   2   6   75.19    8.30
  -2   2  -6   66.89    6.50
  -2   2  -6   75.19    3.80
  -2   2  -6   82.59    3.70
   2   2   6   77.59    3.70
   2   2   6   76.59    3.30
  -2   2  -6   77.49    7.40
  -2   2  -6   76.79    3.20
   2   2   6   85.39    7.20
  -3  -2  -6  363.16   15.20
   3  -2   6  360.46   14.60
   3  -2   6  372.26   11.00
   3  -2   6  377.16   14.60
  -3  -2  -6  364.66   11.10
   3  -2   6  368.66   11.20
  -3  -2  -6  380.46   14.00
  -3  -2  -6  374.76   15.90
   3  -2   6  365.06   17.60
  -3  -2  -6  359.76   16.20
  -3  -2  -6  365.56   10.70
  -3  -2  -6  369.46   12.10
  -3  -2  -6  366.16   11.40
   3   2   6  391.76   18.60
  -3   2  -6  376.36   11.10
   3   2   6  351.36   14.90
  -3   2  -6  351.56   14.60
   3   2   6  359.06   11.20
   3   2   6  361.56   10.70
  -3   2  -6  377.66   11.40
   3   2   6  389.46   13.90
  -3   2  -6  374.46   14.50
   3   2   6  383.26   11.70
   4  -2   6    0.40    1.30
  -4  -2  -6   14.80    7.40
  -4  -2  -6   -0.60    1.90
  -4  -2  -6   -0.90    2.20
   4  -2   6    0.60    1.40
   4  -2   6    1.40    4.30
  -4  -2  -6   -1.10    1.60
   4  -2   6   -6.30    4.90
   4  -2   6   11.10    7.50
  -4  -2  -6   -0.10    5.50
  -4  -2  -6   -2.70    4.90
  -4   2  -6   -0.20    1.30
  -4   2  -6    2.60    2.00
   4   2   6   -4.70    4.70
   4   2   6    2.30    4.90
   4   2   6    1.90    1.40
  -4   2  -6   -2.00    5.20
   4   2   6    1.00    1.60
   4   2   6   -0.70    7.00
  -4   2  -6    6.50    3.80
   5  -2   6  769.62   23.70
  -5  -2  -6  750.72   23.60
  -5  -2  -6  785.52   21.90
  -5  -2  -6  809.62   26.50
   5  -2   6  775.32   31.50
   5  -2   6  799.52   21.10
   5  -2   6  800.82   21.50
  -5  -2  -6  794.62   29.80
   5  -2   6  790.82   25.50
   5   2   6  817.32   26.80
   5   2   6  777.52   27.10
  -5   2  -6  781.22   23.20
   5   2   6  792.82   22.20
   5   2   6  789.52   21.90
  -5   2  -6  755.02   28.00
  -5   2  -6  826.22   20.80
   5   2   6  750.02   26.70
  -5   2  -6  806.62   22.60
   5   2   6  807.22   32.70
   5   2   6  811.22   22.10
  -6  -2  -6   28.40   10.00
  -6  -2  -6   29.60    3.10
  -6  -2  -6   35.40    7.50
  -6  -2  -6   24.30    4.20
  -6  -2  -6    1.30    6.60
   6  -2   6   12.40   11.20
  -6   2  -6   38.30    4.60
   6   2   6   26.60   12.40
  -6   2  -6   20.70    8.50
   6   2   6   42.30    4.40
   6   2   6   25.80    8.60
  -7  -3   6    1.90    3.70
   7  -3  -6    3.50    3.60
   7  -3  -6    5.10    9.80
  -7  -3   6    6.70   10.10
  -7   3   6   -0.60    2.40
   7   3  -6   -1.20    3.70
  -7   3   6   11.80   10.00
  -7   3   6    2.70    6.70
  -7   3   6    1.00    2.90
   7   3  -6    3.10   11.20
  -6  -3   6  739.53   21.80
  -6  -3   6  738.13   28.50
  -6  -3   6  740.83   27.10
  -6  -3   6  805.92   23.00
  -6  -3   6  736.13   22.10
  -6  -3   6  762.92   30.80
   6  -3  -6  741.03   22.50
   6  -3  -6  784.12   30.00
   6   3  -6  762.12   23.10
   6   3  -6  765.62   31.50
  -6   3   6  795.92   29.40
  -6   3   6  744.33   22.30
  -5  -3   6   32.30    3.30
  -5  -3   6   33.30    8.50
  -5  -3   6   32.60    3.80
  -5  -3   6   34.50    6.60
  -5  -3   6   41.30    4.30
  -5  -3   6   32.70    3.40
  -5  -3   6   28.20    7.70
   5  -3  -6   37.80    4.50
   5  -3  -6   34.30    6.90
  -5  -3   6   34.70    8.40
   5   3  -6   23.20    7.90
  -5   3   6   33.30    7.30
  -5   3   6   36.00    2.60
   5   3  -6   27.30    3.50
  -5   3   6   30.30    4.10
  -5   3   6   29.70    3.40
  -5   3   6   35.90    4.10
  -5   3   6   39.80    4.40
  -5   3   6   23.80    6.60
  -4  -3   6  466.05   19.90
   4  -3  -6  440.66   14.40
  -4  -3   6  462.45   14.30
  -4  -3   6  451.85   19.60
  -4  -3   6  462.35   14.30
  -4  -3   6  476.45   14.70
  -4  -3   6  449.66   16.20
   4  -3  -6  456.15   20.00
  -4  -3   6  443.66   20.00
  -4  -3   6  465.85   13.40
  -4   3   6  457.25   19.90
  -4   3   6  476.65   13.80
  -4   3   6  460.25   14.40
   4   3  -6  458.95   14.50
  -4   3   6  446.86   18.20
   4   3  -6  454.75   20.70
  -4   3   6  455.55   15.70
   4   3  -6  457.05   20.50
   4   3  -6  455.65   14.80
  -3  -3   6   58.19    7.30
  -3  -3   6   57.89    7.30
  -3  -3   6   57.19    2.90
  -3  -3   6   58.89    5.50
   3  -3  -6   68.89    7.60
  -3  -3   6   60.99    4.20
   3  -3  -6   54.69    4.00
   3  -3  -6   60.39    4.20
  -3  -3   6   56.99    4.20
  -3  -3   6   57.39    7.70
   3   3  -6   63.69    7.60
  -3   3   6   58.49    4.20
  -3   3   6   63.49    8.00
   3   3  -6   71.49    8.70
  -3   3   6   49.70    6.70
  -3   3   6   61.69    6.00
  -3   3   6   56.79    3.60
   3   3  -6   65.29    4.30
   3   3  -6   56.69    3.70
  -2  -3   6   22.80    2.50
  -2  -3   6   23.90    5.20
  -2  -3   6   27.80    5.40
  -2  -3   6   27.00    3.80
   2  -3  -6   26.30    2.90
   2  -3  -6   25.80    5.40
  -2   3   6   22.60    5.30
  -2   3   6   27.40    2.50
   2   3  -6   27.30    2.60
  -2   3   6   33.90    5.00
   2   3  -6   29.70    5.70
  -2   3   6   24.70    2.80
   2   3  -6   27.30    4.70
  -2   3   6   28.20    5.00
   2   3  -6   24.60    2.80
   1  -3  -6   19.40    4.40
  -1  -3   6   26.60    2.50
   1  -3  -6   21.60    2.60
  -1  -3   6   18.10    5.10
  -1  -3   6   21.40    2.30
   1   3  -6   20.60    3.70
   1   3  -6   25.00    2.50
  -1   3   6   22.40    4.60
   1   3  -6   20.00    4.80
   1   3  -6   24.20    1.90
  -1   3   6   23.10    5.00
  -1   3   6   20.40    2.30
  -1   3   6   27.20    5.20
  -1   3   6   23.70    2.60
   0  -3  -6  200.98    6.80
   0  -3   6  193.48   10.60
   0  -3  -6  217.38   12.40
   0  -3  -6  207.28   10.50
   0  -3   6  197.58    7.20
   0  -3   6  195.78    7.00
   0   3  -6  200.58   10.80
   0   3   6  196.58   10.40
   0   3  -6  200.78    7.40
   0   3   6  208.38   11.50
   0   3  -6  198.68    7.20
   0   3  -6  188.98   11.00
   0   3   6  194.68    6.90
   0   3  -6  201.18    5.70
   0   3   6  199.48    7.30
   0   3  -6  197.88    7.20
   1  -3   6   60.99    3.30
  -1  -3  -6   59.19    3.50
   1  -3   6   64.69    6.90
   1  -3   6   56.09    3.30
  -1  -3  -6   45.60    6.30
  -1  -3  -6   74.99    7.60
  -1  -3  -6   61.69    7.10
  -1  -3  -6   59.59    3.40
  -1  -3  -6   60.59    3.50
   1   3   6   59.19    3.10
  -1   3  -6   61.09    6.80
   1   3   6   63.89    7.80
   1   3   6   53.09    5.90
  -1   3  -6   66.29    6.40
  -1   3  -6   58.09    3.30
  -1   3  -6   63.39    2.50
   1   3   6   56.59    3.50
  -1   3  -6   60.89    4.20
  -1   3  -6   59.89    3.10
   2  -3   6    6.50    3.30
   2  -3   6    6.20    1.50
  -2  -3  -6    4.40    3.90
   2  -3   6    6.00    5.70
  -2  -3  -6    6.80    5.20
  -2  -3  -6    6.60    1.70
  -2  -3  -6   11.20    9.10
   2  -3   6    8.40    4.10
   2  -3   6    7.00    1.50
  -2   3  -6    6.40    3.40
   2   3   6    5.40    1.50
  -2   3  -6    8.00    1.50
  -2   3  -6    8.00    3.20
   2   3   6    3.50    3.50
  -2   3  -6    8.30    1.10
  -2   3  -6    7.20    1.20
   2   3   6    6.70    1.40
   2   3   6   11.80    5.60
  -2   3  -6   10.00    3.70
   2   3   6   11.20    3.90
  -2   3  -6    6.60    3.00
  -2   3  -6    9.20    1.60
  -3  -3  -6   48.90    7.30
  -3  -3  -6   52.09    7.40
  -3  -3  -6   46.60    7.40
  -3  -3  -6   44.30    3.60
  -3  -3  -6   47.20    6.20
   3  -3   6   57.19    5.90
  -3  -3  -6   56.79    4.00
  -3  -3  -6   42.40    3.50
  -3  -3  -6   44.80    4.00
   3  -3   6   53.79    8.50
   3  -3   6   49.80    3.10
   3  -3   6   62.79    7.20
   3  -3   6   52.99    3.10
  -3   3  -6   54.09    5.60
   3   3   6   47.60    6.40
  -3   3  -6   52.09    3.20
  -3   3  -6   51.29    6.10
   3   3   6   44.50   11.10
  -3   3  -6   49.00    3.60
   3   3   6   51.69    6.10
   3   3   6   53.49    3.40
   3   3   6   50.59    3.10
   3   3   6   53.59    3.70
   4  -3   6   28.90    2.90
  -4  -3  -6   27.80    8.70
  -4  -3  -6   27.80    6.70
   4  -3   6   32.10    2.70
   4  -3   6   29.30    5.90
  -4  -3  -6   32.50    6.80
   4  -3   6   26.70    8.60
  -4  -3  -6   27.80    3.40
  -4  -3  -6   25.70    3.40
   4  -3   6   36.20    4.90
  -4  -3  -6   27.10    2.70
   4   3   6   32.40    8.50
   4   3   6   28.00    6.70
   4   3   6   34.20    3.10
  -4   3  -6   29.50    6.20
   4   3   6   31.70    5.90
   4   3   6   29.30    3.10
  -4   3  -6   29.70    3.10
   4   3   6   32.70    6.30
  -4   3  -6   31.10    2.70
  -4   3  -6   29.30    4.50
   4   3   6   34.30    3.30
  -5  -3  -6   15.20    7.10
   5  -3   6   20.00    2.30
   5  -3   6   13.10    5.90
  -5  -3  -6   21.10    2.80
  -5  -3  -6   22.10    6.80
   5  -3   6   28.70    2.90
   5  -3   6   25.50    4.10
  -5  -3  -6   20.40    3.60
   5  -3   6   26.90    9.00
   5   3   6   18.10    2.60
  -5   3  -6   16.40    6.70
  -5   3  -6   17.80    3.10
   5   3   6   25.10    7.20
   5   3   6   19.70    2.90
   5   3   6   26.60    6.70
   5   3   6    7.90   10.40
   5   3   6   13.90    6.90
   5   3   6   19.30    2.70
  -6  -3  -6    8.70   11.60
  -6  -3  -6   29.60    8.50
   6  -3   6   28.60   16.80
  -6  -3  -6   23.10    9.30
  -6  -3  -6   16.00    3.10
  -6  -3  -6   15.50    3.60
   6   3   6   28.50    3.40
  -6   3  -6   22.20    3.80
   6   3   6   33.60   12.20
   6   3   6   21.30    3.40
   6   3   6   39.30   13.20
  -6   3  -6   19.20    7.90
   6   3   6   22.20    9.30
  -7  -4   6   87.39    8.40
   7  -4  -6   90.69   12.50
  -7  -4   6   92.69   15.50
   7  -4  -6   83.49    6.80
   7   4  -6   79.99    7.80
   7   4  -6   87.59   15.90
  -6  -4   6   93.89    7.00
  -6  -4   6   89.99    9.40
   6  -4  -6   94.89    6.50
   6  -4  -6   94.89   11.50
  -6  -4   6   80.99    5.20
  -6  -4   6   76.29    6.90
  -6  -4   6   78.09   11.70
  -6  -4   6   73.29   12.70
   6   4  -6   74.79   11.80
   6   4  -6   79.19    6.80
  -6   4   6   89.29    6.10
  -6   4   6  109.89   11.70
  -5  -4   6   10.50    4.90
  -5  -4   6    1.60    3.00
  -5  -4   6    2.70    2.70
  -5  -4   6    7.00   12.80
   5  -4  -6    3.70    6.80
  -5  -4   6    0.20    3.80
   5  -4  -6    2.50    2.50
  -5  -4   6    3.50    2.00
  -5  -4   6   18.90    9.80
  -5  -4   6    4.00    7.00
  -5   4   6    5.60    2.60
  -5   4   6    3.90    6.70
  -5   4   6    1.70    1.70
   5   4  -6    4.30    2.60
   5   4  -6   11.20    8.20
   5   4  -6    4.30    2.10
  -5   4   6   13.20    5.70
  -4  -4   6   53.19    4.10
  -4  -4   6   42.30    8.70
  -4  -4   6   66.49    8.70
  -4  -4   6   48.00    8.20
  -4  -4   6   57.19    3.40
  -4  -4   6   55.79    4.70
   4  -4  -6   55.09    8.20
  -4  -4   6   63.79    6.50
  -4  -4   6   56.89    4.90
   4  -4  -6   56.39    4.60
  -4   4   6   56.39    3.80
  -4   4   6   60.59    4.50
   4   4  -6   56.59    4.30
  -4   4   6   53.69    7.40
  -4   4   6   56.99    6.40
   4   4  -6   57.99    8.30
   4   4  -6   57.19    4.80
   4   4  -6   49.60    8.40
  -4   4   6   69.39    9.00
   3  -4  -6   12.50    2.40
  -3  -4   6   11.10    2.30
  -3  -4   6    8.20    4.90
  -3  -4   6   11.90    2.50
  -3  -4   6   10.30    3.30
  -3  -4   6    3.90    6.40
  -3  -4   6    3.40    6.80
   3  -4  -6    8.10    5.70
   3  -4  -6    9.40    5.20
  -3  -4   6   12.00    1.70
   3   4  -6   11.90    5.20
  -3   4   6    4.90    3.90
  -3   4   6    9.30    5.30
  -3   4   6    5.60    4.60
   3   4  -6   11.30    2.30
  -3   4   6   10.50    2.00
   3   4  -6   -1.40    4.60
  -3   4   6   10.10    1.80
   3   4  -6   12.00    2.00
  -2  -4   6   32.00    7.20
   2  -4  -6   30.40    6.60
  -2  -4   6   40.50    3.30
  -2  -4   6   40.30    6.30
   2  -4  -6   34.10    3.30
  -2   4   6   40.20    5.80
  -2   4   6   25.40    5.00
   2   4  -6   42.70    3.00
  -2   4   6   38.30    2.90
  -2   4   6   33.80    6.70
   2   4  -6   35.50    3.30
   2   4  -6   43.20    6.80
  -2   4   6   35.30    3.50
   2   4  -6   31.20    5.40
   1  -4  -6   -1.20    3.90
  -1  -4   6    1.60    1.30
   1  -4  -6   -1.70    4.10
  -1  -4   6    1.10    1.10
  -1  -4   6    3.60    3.60
   1  -4  -6    0.90    1.30
   1  -4  -6    0.30    1.20
  -1   4   6    1.90    1.50
   1   4  -6   -3.70    4.50
  -1   4   6    0.20    3.50
  -1   4   6    1.70    1.00
  -1   4   6   -2.10    3.80
   1   4  -6    0.30    1.40
   1   4  -6    4.30    2.80
  -1   4   6    1.80    4.20
   1   4  -6    1.00    1.00
   0  -4  -6   94.99    9.10
   0  -4   6   90.39    4.30
   0  -4   6   93.39    8.10
   0  -4  -6   90.39    4.60
   0  -4   6   85.49    4.20
   0   4  -6   87.29    7.90
   0   4   6   95.29    9.20
   0   4  -6   95.29    3.10
   0   4   6   95.99    4.20
   0   4  -6   90.89    4.20
   0   4  -6  108.49    8.00
   0   4  -6   88.59    4.40
   0   4  -6   95.69    5.00
   0   4   6  100.09    4.80
   0   4   6  100.29    8.00
  -1  -4  -6    5.40    1.50
   1  -4   6    4.70    1.50
  -1  -4  -6    5.60    5.20
   1  -4   6    4.70    1.40
   1  -4   6   -0.20    4.10
  -1  -4  -6    8.80    4.30
  -1  -4  -6    5.10    1.80
  -1  -4  -6    9.10    5.20
   1   4   6    1.70    3.60
   1   4   6    2.60    4.80
  -1   4  -6    5.30    1.30
   1   4   6    6.50    1.30
  -1   4  -6   11.10    3.90
  -1   4  -6    4.50    3.80
  -1   4  -6    5.40    1.30
   1   4   6    4.70    1.50
   2  -4   6  256.37   12.30
  -2  -4  -6  223.08   13.90
   2  -4   6  263.37    8.50
  -2  -4  -6  246.88    8.50
  -2  -4  -6  258.57   13.50
  -2  -4  -6  264.17   16.80
   2  -4   6  273.77   12.20
   2  -4   6  261.47    8.40
  -2  -4  -6  255.97    9.60
  -2   4  -6  252.77    9.10
   2   4   6  259.27   12.40
  -2   4  -6  263.57   10.00
   2   4   6  260.27   12.00
  -2   4  -6  256.27    7.30
  -2   4  -6  255.67   12.20
  -2   4  -6  262.27    8.50
  -2   4  -6  263.07    7.70
   2   4   6  261.57   14.80
   2   4   6  259.87    8.50
   2   4   6  250.77    8.20
   3  -4   6   66.29    3.70
   3  -4   6   74.39    7.30
   3  -4   6   82.09    9.60
  -3  -4  -6   65.59    7.50
   3  -4   6   69.49    3.60
   3  -4   6   72.09    7.60
  -3  -4  -6   77.39    9.20
  -3  -4  -6   75.99    4.20
  -3  -4  -6   67.39    4.80
   3   4   6   67.99    7.10
   3   4   6   67.09    7.60
  -3   4  -6   71.69    3.70
   3   4   6   88.09   10.60
   3   4   6   66.99    3.80
   3   4   6   63.99    3.90
  -3   4  -6   69.79    7.40
  -3   4  -6   71.49    7.50
  -3   4  -6   72.49    4.00
  -4  -4  -6   81.29   10.70
  -4  -4  -6  105.99    5.20
   4  -4   6  103.29    4.30
  -4  -4  -6  106.19    6.30
  -4  -4  -6  101.09    6.00
  -4  -4  -6   99.39    9.40
   4  -4   6  125.79    8.40
   4  -4   6   99.29    4.50
   4  -4   6   91.39   10.60
  -4  -4  -6   81.09    9.70
   4  -4   6   94.79    9.60
  -4   4  -6  111.29    5.50
   4   4   6  106.29   10.70
   4   4   6   93.69    5.40
   4   4   6  105.09    5.00
   4   4   6   91.89    5.10
  -4   4  -6  102.99    9.30
  -4   4  -6   85.39    7.80
  -4   4  -6  105.59    4.20
   4   4   6   97.39   12.70
   4   4   6   93.99   10.10
   5  -4   6  161.38   17.20
   5  -4   6  177.88   11.90
  -5  -4  -6  188.68    7.60
   5  -4   6  186.98    6.70
  -5  -4  -6  180.78   15.10
  -5  -4  -6  197.18    8.80
  -5  -4  -6  216.08   14.80
   5   4   6  164.38   14.60
   5   4   6  191.88    7.60
  -5   4  -6  177.08   13.40
   5   4   6  167.38   23.80
   5   4   6  173.98   14.40
  -5   4  -6  194.98    8.00
   5   4   6  185.28    7.50
   5   4   6  187.88    7.90
   5   4   6  210.98   15.20
  -6  -4  -6   -2.00    9.10
  -6  -4  -6   -1.20    8.20
  -6  -4  -6    4.30    2.90
  -6  -4  -6  -17.80    8.20
  -6  -4  -6    3.60    3.10
   6  -4   6   -1.30   11.50
  -6  -4  -6   -1.60    2.90
   6   4   6   -9.60    9.90
   6   4   6    2.60    2.90
  -6   4  -6   -9.40    7.10
   6   4   6   15.30   13.40
   6   4   6   17.70    9.80
  -6   4  -6    4.00    3.00
   6   4   6    5.50    2.90
  -6  -5   6    1.80    2.00
  -6  -5   6   -1.20    2.80
  -6  -5   6  -12.20    8.90
   6  -5  -6    1.00    8.50
  -6  -5   6    1.60    9.20
  -6  -5   6   -2.20    3.10
   6  -5  -6    1.00    2.90
  -6  -5   6   -0.80    5.90
  -6   5   6    2.00    2.70
  -6   5   6   -2.10    8.30
   6   5  -6    0.30    3.10
  -5  -5   6    0.80    2.20
  -5  -5   6   -0.10    7.80
  -5  -5   6    3.10    1.90
   5  -5  -6   -1.70    7.00
  -5  -5   6   26.50    8.00
  -5  -5   6    5.00    2.90
   5  -5  -6    9.00    2.60
  -5  -5   6    6.10    5.60
  -5   5   6    4.50    2.50
  -5   5   6   11.30    7.40
  -5   5   6    6.60    1.90
   5   5  -6   -0.10    8.50
   5   5  -6    6.30    3.00
  -5   5   6    7.20    5.90
   5   5  -6    2.70    2.20
   4  -5  -6   13.90    2.60
  -4  -5   6   18.10    4.80
  -4  -5   6   20.50    7.00
  -4  -5   6   14.90    2.30
   4  -5  -6   18.40    6.10
  -4  -5   6   22.60    3.20
  -4  -5   6   13.80    7.10
   4   5  -6   10.70    2.30
  -4   5   6   18.60    2.30
   4   5  -6   21.00    7.00
   4   5  -6   17.70    7.60
  -4   5   6   22.70    6.20
  -4   5   6   15.60    2.70
  -4   5   6   17.90    4.20
  -4   5   6   16.60    7.10
   4   5  -6   15.20    2.40
   3  -5  -6  413.96   18.70
   3  -5  -6  411.86   13.30
  -3  -5   6  399.06   13.30
  -3  -5   6  427.26   19.10
  -3  -5   6  423.96   11.50
  -3  -5   6  419.86   13.60
  -3   5   6  409.76   13.30
   3   5  -6  389.86   19.00
  -3   5   6  429.56   17.20
   3   5  -6  390.86   13.40
   3   5  -6  403.96   12.80
  -3   5   6  407.86   12.50
  -3   5   6  426.06   19.10
  -3   5   6  408.96   15.40
   3   5  -6  386.16   17.60
  -2  -5   6    5.00    5.10
   2  -5  -6    8.80    6.00
   2  -5  -6    2.70    1.50
  -2  -5   6    2.60    1.50
   2  -5  -6    3.30    4.70
  -2   5   6   10.30    5.50
   2   5  -6    4.90    5.40
  -2   5   6    4.10    3.90
  -2   5   6    1.90    1.70
   2   5  -6    2.40    1.70
   2   5  -6    5.60    1.50
   2   5  -6    2.20    3.90
  -2   5   6    8.90    4.40
  -2   5   6    3.10    1.30
   1  -5  -6  322.37   10.80
   1  -5  -6  327.37   10.30
  -1  -5   6  317.57   10.50
   1  -5  -6  328.37   15.60
  -1  -5   6  311.97   15.00
   1  -5  -6  332.37   15.10
   1  -5  -6  338.57   15.70
  -1   5   6  309.17   15.70
  -1   5   6  325.17   10.20
   1   5  -6  294.97   12.20
   1   5  -6  328.07    9.50
   1   5  -6  320.77   10.10
  -1   5   6  323.57   10.90
  -1   5   6  333.17   14.90
  -1   5   6  324.17   14.20
   1   5  -6  336.37   14.80
   0  -5  -6  300.47    9.90
   0  -5   6  303.47   10.20
   0  -5  -6  325.37   15.30
   0  -5   6  310.07   10.10
   0  -5  -6  313.37   15.00
   0  -5   6  312.47   14.60
   0   5   6  314.87   10.70
   0   5  -6  310.97   13.60
   0   5  -6  342.77   14.60
   0   5   6  301.07   14.70
   0   5  -6  319.07   10.30
   0   5  -6  305.47    9.60
   0   5  -6  321.87    8.60
  -1  -5  -6  111.09    5.10
   1  -5   6  103.19    8.80
  -1  -5  -6   95.49   10.60
  -1  -5  -6  105.09    4.90
   1  -5   6  110.29    4.70
  -1  -5  -6   99.99   10.00
   1  -5   6  101.89    4.70
  -1   5  -6   99.79    8.20
  -1   5  -6  111.29    4.90
   1   5   6  113.49    8.60
   1   5   6   84.79    9.10
  -1   5  -6  113.49    8.10
  -1   5  -6  114.49    8.80
  -1   5  -6  105.09    4.30
  -1   5  -6  107.59    4.40
   1   5   6   97.49    5.10
   2  -5   6   41.60    5.60
  -2  -5  -6   49.00    4.10
  -2  -5  -6   46.10    3.80
   2  -5   6   47.50    3.30
   2  -5   6   42.70    6.10
  -2  -5  -6   39.60    7.30
   2  -5   6   52.99    3.30
  -2  -5  -6   49.80    8.00
  -2   5  -6   41.60    2.60
  -2   5  -6   55.79    5.60
  -2   5  -6   51.19    5.90
  -2   5  -6   50.19    3.30
   2   5   6   38.90    6.00
   2   5   6   48.00    7.70
   2   5   6   45.80    4.20
  -2   5  -6   49.80    2.70
   2   5   6   51.79    6.40
  -2   5  -6   51.79    2.20
  -2   5  -6   42.70    4.80
   2   5   6   49.60    3.30
  -2   5  -6   49.70    6.10
  -3  -5  -6  153.88   14.70
  -3  -5  -6  117.59   11.90
   3  -5   6  133.29    5.30
   3  -5   6  138.69    9.90
  -3  -5  -6  128.89    6.30
   3  -5   6  126.49    5.30
  -3  -5  -6  121.59    5.90
   3  -5   6  150.68   13.10
  -3  -5  -6  131.79   11.50
   3  -5   6  131.99    9.10
   3   5   6   96.69   10.90
  -3   5  -6  127.29    5.20
  -3   5  -6  131.69    5.20
   3   5   6  123.09   13.50
   3   5   6  134.19    5.60
  -3   5  -6  123.19    9.10
   3   5   6  123.89   10.60
  -3   5  -6  137.49    8.80
   4  -5   6    1.60    5.30
  -4  -5  -6    9.00    2.00
  -4  -5  -6   18.20    7.30
   4  -5   6    7.50    1.80
   4  -5   6    9.90    1.60
  -4  -5  -6    5.40    6.10
  -4  -5  -6   13.10    4.90
  -4  -5  -6   10.00    2.80
  -4  -5  -6   -0.80   14.90
   4  -5   6    5.30    4.30
   4  -5   6   10.90    7.40
   4   5   6   10.00    6.80
  -4   5  -6    8.60    5.40
  -4   5  -6    4.50    4.20
   4   5   6    6.10    6.50
   4   5   6    9.60    2.30
  -4   5  -6    8.20    1.70
  -4   5  -6   10.50    2.30
   4   5   6    7.30    8.60
  -5  -5  -6   12.30    5.00
  -5  -5  -6   14.40    3.00
   5  -5   6   13.00    2.20
  -5  -5  -6   26.70   10.30
   5  -5   6   15.30    6.30
  -5  -5  -6   14.10    7.60
  -5  -5  -6   17.50    8.10
   5  -5   6   20.20    9.60
  -5  -5  -6   12.50    2.90
   5   5   6    3.60    8.70
   5   5   6   12.30    2.80
  -5   5  -6   10.80    2.80
  -5   5  -6    5.40    6.90
   5   5   6   14.40   11.40
   5   5   6   16.40    7.80
   5   5   6   14.90    2.80
   6  -6  -6  198.38    9.00
  -6  -6   6  209.18   19.40
  -6  -6   6  229.88   21.10
  -6  -6   6  189.68   13.60
   6  -6  -6  170.18   18.10
  -6  -6   6  193.48    8.80
  -6  -6   6  195.38    8.20
  -6  -6   6  181.18   10.10
   6   6  -6  203.68   10.30
   6   6  -6  197.58    9.70
   6   6  -6  186.58   20.70
   6   6  -6  221.58   23.00
   5  -6  -6   81.99    5.90
  -5  -6   6   55.59   10.80
  -5  -6   6   74.59    5.40
   5  -6  -6   53.69    9.50
  -5  -6   6   64.29    4.30
  -5  -6   6   55.99    6.10
  -5  -6   6   68.49   10.80
  -5  -6   6   79.49    8.10
  -5   6   6   67.29    9.70
   5   6  -6   98.49   12.80
  -5   6   6   59.49    4.00
   5   6  -6   70.99    6.30
  -5   6   6   71.39    8.10
  -5   6   6   63.89    5.30
   5   6  -6   62.29   11.70
   5   6  -6   74.69    5.50
  -4  -6   6  160.68   14.50
   4  -6  -6  170.08   13.90
  -4  -6   6  185.78   16.30
  -4  -6   6  172.98    7.90
  -4  -6   6  170.48    6.20
  -4  -6   6  160.88    9.50
   4  -6  -6  174.48    7.60
  -4   6   6  167.98    6.50
   4   6  -6  144.29    9.90
  -4   6   6  159.08   14.10
  -4   6   6  155.98   12.40
  -4   6   6  169.28    7.50
   4   6  -6  147.29    8.60
  -4   6   6  167.98    9.10
   4   6  -6  154.98   17.00
  -4   6   6  175.68    5.80
  -3  -6   6   86.79    3.60
  -3  -6   6   78.59    5.10
   3  -6  -6   89.19    5.30
  -3  -6   6   83.89    6.10
   3  -6  -6   98.89   10.20
   3   6  -6   87.69    4.70
  -3   6   6  101.99    8.70
   3   6  -6   87.69    5.70
   3   6  -6   82.49   11.40
  -3   6   6   77.49    9.00
  -3   6   6   81.09    4.30
   3   6  -6   78.89    8.70
  -3   6   6   81.09    5.30
  -3   6   6  101.09   11.40
  -2  -6   6   92.69    4.80
   2  -6  -6   92.69    5.20
  -2  -6   6   88.39   10.00
  -2  -6   6   90.39    5.10
   2  -6  -6  107.99   10.50
   2   6  -6   92.59   10.30
  -2   6   6   95.89    9.00
   2   6  -6   78.29    8.60
  -2   6   6  100.29    5.40
   2   6  -6   91.89    4.40
  -2   6   6   99.39   10.60
  -2   6   6   89.99    9.30
  -2   6   6   99.99    4.60
   1  -6  -6  461.45   14.40
  -1  -6   6  453.65   13.00
  -1  -6   6  471.65   16.50
   1  -6  -6  430.06   19.60
   1  -6  -6  451.95   14.70
   1  -6  -6  468.05   19.70
  -1  -6   6  489.75   19.70
   1  -6  -6  449.46   18.80
  -1   6   6  447.36   18.50
   1   6  -6  467.95   14.10
   1   6  -6  443.26   15.90
  -1   6   6  431.86   17.80
   1   6  -6  469.45   13.00
  -1   6   6  455.95   14.50
   1   6  -6  454.55   20.50
  -1   6   6  458.05   19.80
   0  -6   6  139.69    6.00
   0  -6  -6  146.19    6.20
   0  -6   6  155.48   10.90
   0  -6  -6  146.69   12.40
   0  -6  -6  161.18    6.50
   0  -6  -6  133.89   10.90
   0   6   6  141.89   11.50
   0   6  -6  149.99   10.80
   0   6  -6  155.88    5.90
   0   6  -6  150.38   10.30
   0   6  -6  143.49    6.90
   0   6   6  154.88    6.70
   0   6   6  155.88   10.20
   0   6  -6  152.88    4.70
  -1  -6  -6  202.28   14.30
   1  -6   6  224.68    7.80
   1  -6   6  221.18    7.80
   1  -6   6  227.08   12.50
  -1  -6  -6  212.48    8.10
  -1   6  -6  221.18    7.10
   1   6   6  204.98   14.60
   1   6   6  203.08   11.80
  -1   6  -6  217.78    7.90
  -1   6  -6  225.58    7.30
  -1   6  -6  219.98   11.40
  -1   6  -6  217.58   12.10
  -1   6  -6  220.58   10.90
   2  -6   6   92.59    4.40
  -2  -6  -6   91.79    6.80
  -2  -6  -6   64.19   10.30
   2  -6   6   77.79    9.20
   2  -6   6   88.59    4.40
  -2  -6  -6  106.99   13.80
  -2  -6  -6   72.69    5.50
  -2   6  -6   87.09    8.90
  -2   6  -6   88.49    5.40
  -2   6  -6   92.19    4.40
   2   6   6   90.59    4.50
   2   6   6   98.39    9.40
  -2   6  -6   92.59    5.20
   2   6   6   70.29    9.60
   3  -6   6  179.48   10.70
  -3  -6  -6  175.88    8.90
  -3  -6  -6  180.38   14.30
  -3  -6  -6  166.18    7.40
   3  -6   6  187.28    6.70
  -3  -6  -6  219.28   20.80
   3  -6   6  185.98   14.70
   3  -6   6  170.58    6.50
   3  -6   6  176.28   11.40
  -3   6  -6  201.68   11.10
   3   6   6  201.48   16.40
  -3   6  -6  177.38    6.40
  -3   6  -6  181.98    9.90
  -3   6  -6  184.18    6.60
   3   6   6  170.98   12.90
   3   6   6  184.18    7.10
   4  -6   6   20.50    4.80
  -4  -6  -6    5.50    7.00
  -4  -6  -6   20.40    8.80
   4  -6   6   18.60    6.30
  -4  -6  -6   17.40    3.20
   4  -6   6   20.60    2.10
   4  -6   6   17.20    2.10
   4  -6   6    7.00    8.20
  -4  -6  -6   13.30    2.70
  -4  -6  -6   11.80    6.60
   4   6   6   15.10    2.60
   4   6   6    9.80    7.30
  -4   6  -6   18.40    2.90
   4   6   6   14.20    3.40
  -4   6  -6   17.90    2.00
  -4   6  -6   24.30    4.90
  -4   6  -6   10.80    6.20
   4   6   6   32.00   10.40
   4   6   6   17.40    7.30
  -5  -6  -6  369.16   20.70
  -5  -6  -6  322.67   13.00
  -5  -6  -6  318.27   19.70
  -5  -6  -6  333.87   12.10
  -5  -6  -6  330.77   11.70
  -5  -6  -6  308.67   19.90
   5  -6   6  331.57   21.80
  -5   6  -6  349.67   17.30
   5   6   6  322.97   20.00
   5   6   6  310.37   25.90
   5   6   6  310.57   19.20
   5   6   6  320.77   12.10
   5   6   6  304.47   20.20
   5   6   6  332.47   11.60
  -5   6  -6  334.77   11.40
   5   6   6  329.67   11.50
  -6  -7   6  462.15   16.30
   6  -7  -6  516.55   25.10
  -6  -7   6  477.75   15.30
  -6  -7   6  511.05   28.60
  -6  -7   6  485.65   20.70
  -6  -7   6  486.55   17.40
  -6  -7   6  483.05   26.80
   6  -7  -6  483.15   16.10
   6   7  -6  478.95   28.80
   6   7  -6  470.45   16.80
   6   7  -6  497.35   17.90
   6   7  -6  477.25   30.30
  -5  -7   6  239.78   13.50
  -5  -7   6  281.87   19.30
   5  -7  -6  259.57   10.30
  -5  -7   6  266.67   11.20
  -5  -7   6  236.48   19.80
   5  -7  -6  283.97   18.50
  -5  -7   6  262.87    9.00
  -5  -7   6  242.38   10.00
  -5   7   6  265.77   10.20
   5   7  -6  262.47   21.00
  -5   7   6  263.57   18.20
  -5   7   6  257.67    8.50
   5   7  -6  254.17   11.10
  -5   7   6  247.48   14.20
   5   7  -6  252.37   19.50
   5   7  -6  237.58   10.10
   4  -7  -6  766.52   22.60
  -4  -7   6  768.42   30.50
  -4  -7   6  800.42   23.30
  -4  -7   6  781.22   21.00
   4  -7  -6  780.22   29.40
  -4  -7   6  764.52   24.10
  -4   7   6  744.13   23.20
   4   7  -6  752.02   22.60
  -4   7   6  733.83   26.20
  -4   7   6  755.92   28.90
  -4   7   6  752.02   20.50
   4   7  -6  776.92   30.90
   4   7  -6  756.42   29.60
   4   7  -6  776.22   23.40
  -4   7   6  772.82   22.60
  -4   7   6  762.12   21.50
  -3  -7   6   25.60    4.20
  -3  -7   6   22.40    3.10
  -3  -7   6    9.70    7.90
  -3  -7   6   20.70    2.20
   3  -7  -6   19.50    3.00
   3  -7  -6   14.80    6.60
  -3   7   6   21.40    2.50
   3   7  -6   30.30    3.30
  -3   7   6   21.40    2.60
   3   7  -6   16.00    2.50
  -3   7   6   32.90    6.00
  -3   7   6   22.90    5.80
   3   7  -6   28.00    6.70
  -3   7   6   34.60    7.80
  -3   7   6   23.80    3.30
   3   7  -6   12.50    7.00
   2  -7  -6  110.99    5.90
  -2  -7   6  112.29    5.50
  -2  -7   6  113.69   11.60
   2  -7  -6  133.79   11.90
  -2  -7   6  118.79    6.10
   2  -7  -6  131.19   10.90
  -2   7   6  120.19    5.30
  -2   7   6  108.59   10.00
   2   7  -6  111.39   10.00
  -2   7   6  109.29   10.30
  -2   7   6  115.09    6.10
  -2   7   6  119.39   12.60
   2   7  -6  125.89    5.30
   1  -7  -6    8.30    6.60
  -1  -7   6   -3.50    4.70
   1  -7  -6    9.10    1.90
  -1  -7   6   10.70    1.90
   1  -7  -6   16.50    5.90
  -1   7   6    5.70    5.00
   1   7  -6    8.70    7.20
   1   7  -6    9.30    1.60
  -1   7   6    5.90    2.20
   1   7  -6   13.90    3.10
   1   7  -6   12.90    4.20
  -1   7   6   13.90    5.80
   0  -7  -6  264.07   14.80
   0  -7   6  278.17   14.80
   0  -7   6  246.88   10.40
   0  -7   6  259.57    7.60
   0  -7  -6  250.17    9.30
   0   7  -6  255.27    7.40
   0   7  -6  244.48    9.60
   0   7   6  256.07    9.70
   0   7  -6  258.27    8.60
   0   7  -6  227.58   13.10
   0   7   6  275.87   15.40
   0   7  -6  254.17    8.70
   0   7  -6  273.97   14.00
   1  -7   6   62.59    8.10
   1  -7   6   63.79    3.80
   1  -7   6   60.29    4.10
  -1  -7  -6   75.59    6.10
  -1   7  -6   59.09    3.60
  -1   7  -6   61.39    4.00
   1   7   6   75.59    9.50
  -1   7  -6   81.39    8.80
  -1   7  -6   64.49    6.50
  -1   7  -6   71.19    3.60
  -1   7  -6   50.39    7.20
   2  -7   6    0.10    1.60
   2  -7   6    2.40    1.80
   2  -7   6    1.60    5.50
   2   7   6    1.40    5.10
  -2   7  -6   -3.60    4.40
   2   7   6    5.30    7.40
  -2   7  -6    1.60    2.70
   2   7   6   -2.00    1.50
  -2   7  -6   -0.10    1.40
   3  -7   6   52.49    7.50
   3  -7   6   55.19    3.90
   3  -7   6   58.29    4.40
   3  -7   6   53.89    7.70
  -3   7  -6   58.79    3.70
   3   7   6   54.39    4.20
  -3   7  -6   53.19    3.70
  -3   7  -6   47.50    6.80
  -3   7  -6   64.29    6.50
   3   7   6   43.60    9.50
   3   7   6   55.09    8.20
   4  -7   6  381.76   20.90
   4  -7   6  346.87   16.80
   4  -7   6  354.86   11.20
   4  -7   6  354.36   10.70
   4  -7   6  369.86   14.60
   4   7   6  353.36   11.90
   4   7   6  341.87   18.70
  -4   7  -6  367.16   14.30
   4   7   6  355.56   12.00
   4   7   6  354.86   19.00
   4   7   6  305.57   22.60
  -4   7  -6  358.96   15.70
  -4   7  -6  372.76   11.50
  -4   7  -6  346.97   10.60
   5  -7   6    2.50   10.20
  -5  -7  -6   12.20    8.50
  -5  -7  -6   19.40    4.10
  -5  -7  -6   19.40   10.30
  -5  -7  -6   17.80    4.40
  -5  -7  -6   17.80   10.70
  -5  -7  -6   19.50    3.50
   5   7   6   14.40    3.20
  -5   7  -6   14.10    7.10
  -5   7  -6   12.20    3.10
   5   7   6   11.50    9.50
   5   7   6   12.10    4.60
   5   7   6    0.10   12.80
   5   7   6    4.00    9.30
   5   7   6   19.40    3.30
  -6  -8   6   13.30    4.00
  -6  -8   6    6.50   12.40
  -6  -8   6   11.10    3.00
   6  -8  -6   13.40    4.00
  -6  -8   6    9.70    7.50
   6  -8  -6   15.00   11.10
  -6  -8   6   15.30   13.30
  -6  -8   6    4.20    4.70
   6   8  -6   12.80    4.80
   6   8  -6   19.30    3.80
  -6   8   6    8.70   10.90
   6   8  -6  -13.40   14.10
   6   8  -6   12.50   13.50
  -6   8   6    3.20    3.60
   5  -8  -6   57.59    5.90
  -5  -8   6   58.39   11.90
  -5  -8   6   57.29    5.70
  -5  -8   6   49.50   12.70
  -5  -8   6   53.39    4.50
  -5  -8   6   57.89    6.60
  -5  -8   6   68.39    8.10
   5  -8  -6   66.99   10.80
   5   8  -6   60.99    6.20
  -5   8   6   54.59   11.00
   5   8  -6   47.90   12.90
   5   8  -6   61.29    5.80
   5   8  -6   51.79   12.30
  -5   8   6   60.29    5.90
  -4  -8   6    7.80    5.10
   4  -8  -6   12.40    7.90
  -4  -8   6    3.70    2.20
  -4  -8   6    0.40    8.00
   4  -8  -6   -1.10    2.50
  -4  -8   6    5.80    2.70
  -4   8   6    1.50    5.00
   4   8  -6    7.30    9.50
   4   8  -6    3.50    2.80
  -4   8   6   15.40    7.50
  -4   8   6   -3.60    9.80
  -4   8   6    1.60    3.10
   4   8  -6    2.20    7.70
  -4   8   6   -0.20    2.00
  -4   8   6    5.20    8.20
  -4   8   6    0.70    2.60
  -4   8   6    1.40    1.90
   4   8  -6    1.80    2.20
  -3  -8   6  351.46    9.90
   3  -8  -6  343.27   12.20
  -3  -8   6  348.97   12.50
   3  -8  -6  376.76   19.50
  -3  -8   6  348.77   12.30
   3   8  -6  348.87   12.80
   3   8  -6  288.37   27.20
  -3   8   6  335.77   15.90
  -3   8   6  349.17   11.20
  -3   8   6  330.47   16.70
  -3   8   6  341.47   11.10
  -3   8   6  365.66   12.50
  -3   8   6  340.67   19.20
   3   8  -6  346.97   11.50
  -2  -8   6   21.00    3.00
   2  -8  -6   18.90    7.00
   2  -8  -6   15.90    2.60
  -2  -8   6   35.00    8.20
   2  -8  -6   20.00    6.90
  -2  -8   6   16.00    2.30
  -2   8   6   11.50    6.50
   2   8  -6   16.50    5.20
   2   8  -6   22.20    8.30
   2   8  -6   17.10    2.40
  -2   8   6    2.50    5.60
  -2   8   6   15.30    6.40
  -2   8   6   20.70    3.00
  -2   8   6   23.20    3.20
   1  -8  -6    1.20    6.70
   1  -8  -6    5.40    6.00
  -1  -8   6   -2.10    5.70
   1  -8  -6    0.80    1.70
  -1  -8   6    3.80    2.00
  -1   8   6    0.10    6.10
   1   8  -6   10.30    4.50
   1   8  -6    1.20    1.70
  -1   8   6    1.90    2.30
   1   8  -6    1.50    1.40
  -1   8   6   -0.30    6.10
   1   8  -6    4.90    6.40
   0  -8   6    7.50    4.70
   0  -8  -6    6.40    1.70
   0  -8   6    5.60    6.00
   0  -8  -6    1.50    5.40
   0  -8   6    8.90    1.90
   0   8  -6    6.60    1.30
   0   8  -6    9.10    2.30
   0   8  -6    7.90    2.00
   0   8  -6   12.20    6.10
   0   8   6    7.80    2.40
   0   8  -6    9.50    3.50
   0   8   6    1.30    6.40
   0   8  -6    7.20    6.40
   1  -8   6   84.19    9.80
   1  -8   6   92.59    6.40
   1  -8   6   92.99    5.70
   1   8   6  104.29    6.10
  -1   8  -6   91.19    4.40
  -1   8  -6   87.09    8.80
  -1   8  -6  105.19    9.70
  -1   8  -6  101.59    5.10
   1   8   6  111.09   11.40
   2  -8   6  312.27   10.70
   2  -8   6  311.37   15.50
   2  -8   6  328.97   16.30
   2  -8   6  311.47   10.40
  -2   8  -6  320.47   10.60
   2   8   6  313.87   19.50
  -2   8  -6  314.67   16.10
   3  -8   6   50.49    3.90
   3  -8   6   50.49    6.90
   3  -8   6   59.19    8.10
   3  -8   6   56.39    4.20
  -3   8  -6   63.79    7.80
  -3   8  -6   55.69    4.00
   3   8   6   56.09    4.40
   3   8   6   44.90   10.60
   3   8   6   47.20    8.70
   4  -8   6  190.28   14.50
   4  -8   6  184.88    6.60
   4  -8   6  182.18   11.40
   4  -8   6  218.08   17.80
   4  -8   6  178.08    7.10
   4   8   6  175.48    8.00
   4   8   6  171.08    9.90
   4   8   6  181.88    8.00
   4   8   6  169.18   16.90
   4   8   6  171.78   15.50
   4   8   6  162.98   16.90
  -5  -8  -6  433.96   24.90
  -5  -8  -6  431.66   26.50
  -5  -8  -6  473.05   16.90
   5  -8   6  462.15   26.40
  -5  -8  -6  449.16   16.20
   5   8   6  406.86   24.40
  -5   8  -6  500.55   14.90
   5   8   6  453.15   15.30
   5   8   6  472.65   15.60
   5   8   6  423.46   25.20
   5   8   6  387.06   41.70
  -5   8  -6  500.05   20.70
   5   8   6  445.26   21.60
   5  -9  -6   11.40    9.70
  -5  -9   6    5.80    6.80
  -5  -9   6    9.30   11.20
  -5  -9   6    4.80    3.30
  -5  -9   6   -1.00    3.10
   5  -9  -6    0.00    3.10
  -5  -9   6    3.10    2.70
  -5  -9   6  -28.40   10.70
  -5   9   6    1.40   10.10
   5   9  -6    0.80    3.30
   5   9  -6  -10.00   10.10
   5   9  -6  -14.90   12.10
   5   9  -6    0.50    3.80
  -5   9   6    3.70    3.40
   4  -9  -6  117.89    7.00
  -4  -9   6  111.89   14.00
  -4  -9   6  119.49    5.30
  -4  -9   6  115.69    9.40
   4  -9  -6  128.29   13.40
  -4  -9   6  117.29    7.40
   4   9  -6  111.59    6.60
   4   9  -6  117.59    7.90
   4   9  -6  103.79   13.80
  -4   9   6  120.49    7.50
  -4   9   6   98.49   10.20
  -4   9   6   90.39   12.40
  -4   9   6  102.39    5.50
   4   9  -6  107.39   13.00
  -3  -9   6  259.27   10.60
   3  -9  -6  288.67   18.60
  -3  -9   6  287.47   10.20
   3  -9  -6  285.07   10.60
  -3  -9   6  293.57   16.60
  -3   9   6  265.47   18.40
  -3   9   6  280.67   15.40
  -3   9   6  273.37   10.90
   3   9  -6  244.28   10.80
  -3   9   6  264.77    9.40
  -3   9   6  278.17    9.60
   3   9  -6  251.37   19.80
   3   9  -6  204.38   19.20
  -3   9   6  276.57   15.80
   2  -9  -6    5.00    2.40
   2  -9  -6    5.60    7.50
  -2  -9   6    9.60   10.70
  -2  -9   6    5.50    3.20
   2  -9  -6    4.20    7.10
   2   9  -6    2.70    1.80
   2   9  -6   -0.80    9.50
  -2   9   6    4.00    6.70
  -2   9   6    7.70    2.50
   2   9  -6   13.70    6.30
  -2   9   6    9.00    3.00
  -2   9   6   10.00    7.30
  -2   9   6    4.90    1.80
  -1  -9   6  294.57   15.60
   1  -9  -6  323.37   22.10
  -1  -9   6  289.27    9.60
   1  -9  -6  283.27   17.20
   1  -9  -6  280.27   10.60
  -1   9   6  304.37   18.20
   1   9  -6  224.08   13.00
   1   9  -6  296.47   13.40
  -1   9   6  281.57   10.50
  -1   9   6  284.17   11.10
  -1   9   6  296.87   16.90
  -1   9   6  266.77   15.10
   1   9  -6  289.17    9.00
   0  -9  -6   75.39   11.40
   0  -9   6   73.09    7.50
   0  -9   6   78.49    4.30
   0  -9  -6   69.79    5.00
   0   9  -6   72.39    4.50
   0   9   6   71.39    5.80
   0   9  -6   71.89    5.00
   0   9  -6   68.09    9.00
   0   9  -6   58.29    8.90
   0   9  -6   71.79    7.50
   0   9  -6   69.39    3.40
   1  -9   6   12.60    4.70
   1  -9   6   20.20    2.00
   1  -9   6   14.50    7.50
  -1  -9  -6    7.30    9.50
  -1   9  -6   17.00    2.50
  -1   9  -6   13.00    2.20
  -1   9  -6    7.50    5.80
  -1   9  -6   19.90    6.50
   1   9   6   15.10    8.20
  -1   9  -6   11.10    6.20
   1   9   6   17.20    3.20
   2  -9   6    6.80    5.60
   2  -9   6    8.40    7.40
   2  -9   6    7.10    1.80
   2  -9   6    8.90    2.30
  -2   9  -6    8.60    7.30
  -2   9  -6   10.20    2.40
   2   9   6    8.20    2.20
   2   9   6   22.20    7.50
   2   9   6   -4.20    9.30
   2   9   6    8.10    3.30
   3  -9   6  168.58    6.70
   3  -9   6  148.29   12.00
   3   9   6  151.88    7.40
  -3   9  -6  182.58   13.50
  -3   9  -6  162.98    6.70
   3   9   6  186.18   16.00
   3   9   6  197.08   20.10
   3   9   6  157.88    9.00
   4  -9   6  124.29   11.50
   4  -9   6  107.09    8.00
   4  -9   6  108.69   11.80
   4  -9   6  120.59    5.50
  -4  -9  -6  115.29   14.30
  -4  -9  -6  122.79    8.20
   4  -9   6  125.09    5.50
   4  -9   6  115.29   14.00
   4  -9   6  128.19   16.50
   4   9   6   94.09   13.50
   4   9   6  118.69   13.40
   4   9   6  102.29   15.80
   4   9   6  117.79    6.90
  -5 -10   6   53.09    5.60
   5 -10  -6   68.69   13.60
  -5 -10   6   81.39    9.50
  -5 -10   6   69.29    7.90
  -5 -10   6   68.49   15.10
  -5 -10   6   76.99   15.50
   5 -10  -6   73.69    7.20
  -5 -10   6   71.89    5.40
   5  10  -6   57.99    6.40
   5  10  -6   58.59    6.40
   5  10  -6   51.09   12.90
   5  10  -6   63.49   16.50
  -4 -10   6  133.09   10.80
  -4 -10   6  140.69    8.60
  -4 -10   6  143.59    6.20
   4 -10  -6  137.99    8.10
  -4 -10   6  162.38   17.10
   4 -10  -6  163.18   15.30
  -4 -10   6  103.19   17.00
   4  10  -6  158.28    9.20
   4  10  -6  125.79   13.80
  -4  10   6  144.19   15.00
  -4  10   6  141.09    6.40
  -4  10   6  147.19    8.70
   4  10  -6  140.09    7.80
  -4  10   6  129.89   11.60
   4  10  -6  140.99   17.30
   3 -10  -6   20.10    3.70
  -3 -10   6   22.80    2.40
  -3 -10   6   12.10    2.80
   3 -10  -6   12.70    8.40
  -3 -10   6   22.00    5.20
  -3  10   6   21.90    7.50
  -3  10   6   22.00    2.80
   3  10  -6   20.60    3.20
  -3  10   6   -0.50    7.60
  -3  10   6   27.40   10.30
   3  10  -6   24.70    8.20
  -3  10   6   18.50    4.00
  -3  10   6   19.70    3.10
   2 -10  -6   65.99    5.90
   2 -10  -6   70.69   10.50
   2 -10  -6   65.69   10.70
   2  10  -6   57.49    4.30
  -2  10   6   65.79    6.30
  -2  10   6   56.09   10.80
  -2  10   6   76.69    9.20
  -2  10   6   95.89   11.00
   2  10  -6   70.59    8.90
  -2  10   6   72.79    5.50
  -2  10   6   67.19    4.60
   2  10  -6   56.09   11.10
   1 -10  -6  114.49   12.20
  -1 -10   6  129.19    6.40
  -1 -10   6  147.79   14.40
   1 -10  -6  137.09    7.10
   1  10  -6  129.89    6.40
  -1  10   6  118.39   12.20
   1  10  -6  129.89   10.90
  -1  10   6  129.69    7.10
  -1  10   6  118.29    7.50
  -1  10   6  105.89   12.10
   1  10  -6  123.79    5.30
   1  10  -6  135.29   14.20
   0 -10  -6   32.20    3.90
   0 -10   6   40.10    7.90
   0 -10  -6   43.80    9.80
   0 -10   6   34.60    3.30
   0  10  -6   36.50    2.90
   0  10   6   24.30    3.80
   0  10   6   27.30    8.60
   0  10  -6   29.80    3.20
   0  10   6   27.70    8.90
   0  10  -6   36.90    8.00
   0  10  -6   32.40    5.60
   0  10   6   27.60    3.80
   1 -10   6   11.40    8.50
  -1  10  -6   18.90    7.10
  -1  10  -6    4.20    6.10
  -1  10  -6    5.80    1.90
   1  10   6    1.50    2.90
  -1  10  -6    0.40    2.40
  -1  10  -6    7.90    7.30
   1  10   6    5.90    9.20
   2 -10   6  237.48    9.10
   2 -10   6  222.88    8.70
   2 -10   6  244.48   15.10
   2 -10   6  207.78   16.60
   2  10   6  250.77   17.50
  -2  10  -6  233.98    8.90
   2  10   6  211.18   21.00
   2  10   6  232.68    9.30
   2  10   6  223.88   11.30
  -2  10  -6  192.18   15.80
   3 -10   6   13.80    2.70
   3 -10   6   10.30    9.30
   3 -10   6    8.40    6.80
   3 -10   6   14.30    2.70
   3  10   6   16.60   11.70
   3  10   6   15.00    3.30
   3  10   6    7.20    3.70
   3  10   6   19.60    9.10
   4 -10   6   -2.40    2.40
  -4 -10  -6    0.00    4.00
   4 -10   6  -10.30   10.10
   4 -10   6   -4.70    2.80
  -4 -10  -6    0.80   11.90
   4 -10   6    5.30    3.00
   4 -10   6   -3.40    7.40
   4 -10   6    7.80    7.10
   4  10   6   -3.90   10.50
   4  10   6   18.40   14.80
   4  10   6    2.40    3.00
   4 -11  -6   51.39    5.30
   4 -11  -6   48.30   12.30
  -4 -11   6   41.50    4.90
  -4 -11   6   48.90   13.10
  -4 -11   6   51.79    7.80
  -4 -11   6   50.89    4.50
   4  11  -6   70.39   13.20
   4  11  -6   77.39   16.50
  -4  11   6   49.80    5.90
  -4  11   6   50.29   12.50
   4  11  -6   51.29    6.40
   4  11  -6   54.19    5.90
  -3 -11   6    1.40    2.20
   3 -11  -6   13.80   10.80
   3 -11  -6   -0.20    3.40
  -3 -11   6    4.00    5.60
  -3 -11   6   -1.80    3.00
  -3  11   6    5.50    8.10
   3  11  -6    2.70    9.30
   3  11  -6   -0.30    2.50
  -3  11   6   -3.20    2.90
   3  11  -6   10.50   11.30
  -3  11   6    1.00    8.80
  -3  11   6   17.60   11.00
  -3  11   6    1.70    3.90
  -3  11   6   -0.40    2.40
   2 -11  -6   47.90    5.00
   2 -11  -6   32.50   10.70
  -2  11   6   32.60   10.20
  -2  11   6   36.40    4.90
   2  11  -6   49.90    4.20
  -2  11   6   51.59   10.60
  -2  11   6   40.60    8.50
  -2  11   6   43.60    4.40
   2  11  -6   48.40    5.30
   2  11  -6   52.29    9.20
  -2  11   6   40.30    4.30
   1 -11  -6    1.80    9.30
   1 -11  -6   13.50    3.30
   1  11  -6   11.10    2.10
   1  11  -6   15.50    3.00
  -1  11   6   23.40    9.90
   1  11  -6    5.20    9.40
  -1  11   6    8.20    2.40
   1  11  -6    3.70    6.50
  -1  11   6   19.40    8.60
  -1  11   6    6.80    3.70
  -1  11   6   13.40    3.50
   0 -11   6  229.48   20.10
   0 -11  -6  227.38    9.90
   0 -11  -6  209.18   18.20
   0  11  -6  250.57   13.30
   0  11   6  236.48   10.80
   0  11   6  244.18   20.60
   0  11   6  245.88   19.40
   0  11  -6  234.68   17.10
   0  11   6  210.08   10.10
   0  11  -6  236.78    7.80
   0  11  -6  232.58    8.80
   1 -11   6   10.80    2.60
   1 -11   6    6.40    9.10
  -1  11  -6   19.40    7.30
   1  11   6   11.80   10.90
   1  11   6    9.90    4.00
  -1  11  -6    5.20    2.20
   1  11   6   13.60    3.30
   2 -11   6   18.20   10.00
   2 -11   6   17.00    5.40
   2 -11   6   20.90    3.30
   2  11   6   22.00    4.60
   2  11   6   13.20   12.00
   2  11   6   20.70    3.50
  -2  11  -6   26.50    9.10
  -2  11  -6   20.60    3.20
   3 -11   6   54.09    5.60
   3 -11   6   69.49   11.10
   3 -11   6   50.39    5.60
   3 -11   6   32.20   11.40
   3  11   6   53.39    5.90
   3  11   6   43.80   13.90
   3  11   6   50.09   12.40
   3 -12  -6  -13.50   11.60
  -3 -12   6   -1.70   10.40
   3 -12  -6    5.20    3.60
  -3 -12   6    0.20    3.40
  -3 -12   6    4.50    2.50
  -3 -12   6    6.70    6.70
  -3  12   6    4.50    9.00
   3  12  -6    0.10   10.10
  -3  12   6   -5.30    4.30
  -3  12   6   15.20   11.50
   3  12  -6    6.20    3.10
  -3  12   6   -0.70    2.70
   2 -12  -6   34.80    5.00
   2 -12  -6   47.90   12.20
   2  12  -6   28.50    4.10
  -2  12   6   24.10    3.30
   2  12  -6   44.80    9.50
   2  12  -6   11.90   11.40
  -2  12   6   23.20   10.70
  -2  12   6   24.20    5.00
  -2  12   6   33.20   12.10
  -2  12   6   32.60    9.30
   2  12  -6   29.80    3.40
  -2  12   6   33.10    4.50
   1 -12  -6   78.19   13.70
   1 -12  -6   76.99    6.70
  -1  12   6   64.29   12.40
  -1  12   6   59.09   10.50
  -1  12   6   75.79    7.70
  -1  12   6   69.39    5.40
  -1  12   6   78.39    7.30
  -1  12   6   54.49   12.40
   1  12  -6   65.19    9.10
   1  12  -6   73.99    4.90
   1  12  -6   75.19   12.80
   1  12  -6   81.39    5.90
   0 -12  -6  -10.30    9.80
   0 -12  -6   -1.40    2.60
   0  12  -6   -2.70    2.10
   0  12   6    0.80    9.80
   0  12  -6    3.00    6.80
   0  12   6   10.80   11.10
   0  12   6   10.30    4.10
   0  12   6   -1.50    3.70
   0  12   6   -8.50    9.80
   0  12  -6   12.70    9.70
   0  12  -6    4.90    2.50
  -1 -12  -6   62.99   13.30
  -1 -12  -6   61.49    6.30
   1 -12   6   64.79   12.30
   1 -12   6   53.49    6.00
   1  12   6   39.20   14.20
   1  12   6   68.89   12.20
   1  12   6   73.69    7.30
   1  12   6   57.69    7.10
   2 -12   6  186.08   17.00
   2 -12   6  138.99    8.00
   2 -12   6  143.09   16.10
   2 -12   6  131.29    7.10
   2  12   6  132.09    9.30
   2  12   6  149.88   15.90
   2  12   6  135.89    7.60
   2  12   6  135.69   16.50
   2 -13  -6    6.90    3.90
   2 -13  -6   -4.40   11.20
  -2  13   6    7.70    4.20
   2  13  -6    9.40   10.00
  -2  13   6   15.80    5.00
   2  13  -6    6.10    3.00
  -2  13   6   15.50   13.00
   2  13  -6   30.70   14.10
  -2  13   6   -0.10   11.90
   2  13  -6   14.50    3.70
  -2  13   6   10.90    3.20
  -2  13   6   11.90   10.10
   1 -13  -6  127.49    8.60
   1 -13  -6  109.69   16.90
  -1  13   6  100.59   14.90
  -1  13   6   91.99   12.70
  -1  13   6  125.39    9.80
  -1  13   6  106.79    6.60
  -1  13   6  121.09    8.40
   1  13  -6  115.49   12.80
   1  13  -6  104.99    7.10
  -1  13   6  103.19   17.60
   1  13  -6  122.09   14.30
   1  13  -6  115.09    6.60
   0 -13  -6    2.80    3.70
   0 -13  -6   -6.60   11.40
   0  13   6    6.90   12.60
   0  13  -6    0.10   10.80
   0  13   6    1.90   13.60
   0  13   6    3.70   10.30
   0  13   6   11.10    4.80
   0  13  -6    4.60    3.10
   0  13   6   14.20    4.50
  -1 -13  -6    2.30   11.20
   1 -13   6   21.20   13.20
   1 -13   6    7.30    3.40
  -1 -13  -6   14.90    3.80
   1  13   6   18.60    5.00
   1  13   6   21.60   12.60
   1  13   6   26.90   14.30
   1  13   6   19.00    5.00
  -6   0   7    3.40    3.10
  -6   0   7    2.70    2.20
  -6   0   7    0.10    2.60
  -6   0   7   14.30    9.20
   6   0  -7   -1.20    2.90
  -6   0   7  -10.00    9.00
  -6   0   7    4.30    5.70
   6   0  -7    4.40    9.30
  -5   0   7  362.96   20.10
  -5   0   7  347.77   17.80
  -5   0   7  374.56   12.00
   5   0  -7  353.06   15.10
   5   0  -7  351.36   20.70
   5   0  -7  364.66   13.10
  -5   0   7  381.86   13.00
  -5   0   7  385.86   19.40
  -5   0   7  365.86   12.20
  -4   0   7    3.00    2.30
   4   0  -7   -1.40    7.70
   4   0  -7    0.10    2.20
  -4   0   7    8.90    6.20
  -4   0   7   -1.60    5.80
   4   0  -7    3.90    2.80
  -4   0   7   -2.60    1.80
  -4   0   7    0.30    2.20
   4   0  -7   -6.90    5.90
   3   0  -7  338.57   11.30
  -3   0   7  347.67   12.60
  -3   0   7  346.47   16.80
  -3   0   7  332.87   17.10
   3   0  -7  353.56   18.00
  -3   0   7  347.67   11.90
   3   0  -7  339.67   11.90
   3   0  -7  369.16   17.00
   2   0  -7    0.00    1.40
   2   0  -7    1.70    1.50
  -2   0   7   -9.00    4.10
  -2   0   7   -0.20    1.40
  -2   0   7    0.60    4.40
  -2   0   7    2.70    3.90
   2   0  -7    1.40    4.40
   2   0  -7   -2.50    3.80
  -1   0   7 3431.66   88.99
   1   0  -7 3496.05   87.79
  -1   0   7 3333.07   88.79
   1   0  -7 3503.85   91.29
  -1   0   7 3468.75   93.69
   0   0   7  -11.60    4.20
   0   0  -7    2.00    1.30
   0   0   7   -0.90    1.10
   0   0   7    2.30    4.20
   0   0  -7    2.50    4.70
   0   0  -7    4.40    4.50
  -1   0  -7   16.70    5.30
  -1   0  -7   22.90    2.00
  -1   0  -7   14.60    3.50
   1   0   7   24.20    6.20
  -1   0  -7   20.60    2.20
   1   0   7   23.90    5.30
  -1   0  -7   15.80    4.60
   1   0   7   20.10    2.30
   2   0   7    7.40    5.90
   2   0   7    9.50    4.50
  -2   0  -7   -3.80    3.00
   2   0   7   -0.70    1.30
  -2   0  -7   -2.40    1.40
  -2   0  -7   -0.70    1.60
  -2   0  -7    0.50    4.20
  -2   0  -7   -0.40    4.60
  -2   0  -7    0.80    1.10
   2   0   7    0.90    1.30
   3   0   7  287.27   13.90
  -3   0  -7  279.97    9.30
  -3   0  -7  283.07   10.20
  -3   0  -7  277.77    9.60
  -3   0  -7  306.27   14.10
  -3   0  -7  274.87    7.90
   3   0   7  262.97   17.00
  -3   0  -7  272.77   14.00
  -3   0  -7  275.67   10.40
   3   0   7  279.77    9.20
   4   0   7    1.30    1.80
   4   0   7   -3.10    8.60
  -4   0  -7    2.80    5.40
   4   0   7    1.70    5.60
   4   0   7   -1.00    1.20
  -4   0  -7    2.50    5.90
   4   0   7    6.60    5.40
  -4   0  -7    0.40    2.40
  -4   0  -7    0.60    1.80
   4   0   7    0.40    3.80
   5   0   7   36.20    7.40
  -5   0  -7   22.60    3.60
  -5   0  -7   13.70    6.30
  -5   0  -7   20.00    2.70
   5   0   7   18.80    2.80
  -5   0  -7   22.90    8.00
   5   0   7   30.00   11.50
  -6  -1   7  587.14   25.40
  -6  -1   7  579.44   18.50
  -6  -1   7  551.84   17.50
  -6  -1   7  577.54   17.50
   6  -1  -7  568.64   18.50
  -6  -1   7  604.74   27.80
   6  -1  -7  568.44   27.10
  -6  -1   7  568.34   22.60
  -6   1   7  531.85   24.10
   6   1  -7  549.85   19.90
  -6   1   7  592.24   18.50
  -6   1   7  567.14   16.90
   6   1  -7  577.94   27.60
   6   1  -7  545.65   18.60
  -6   1   7  563.44   27.20
   5  -1  -7   60.89    7.90
  -5  -1   7   54.49    7.50
  -5  -1   7   50.49    5.40
  -5  -1   7   59.89    5.50
  -5  -1   7   52.29    9.30
   5  -1  -7   54.29   10.10
  -5  -1   7   53.99    4.90
   5  -1  -7   59.39    5.40
  -5  -1   7   58.59   10.30
  -5  -1   7   51.99    4.00
  -5  -1   7   51.29    9.30
   5   1  -7   68.59    9.80
  -5   1   7   53.49    4.60
   5   1  -7   66.29    5.80
   5   1  -7   67.59   11.80
  -5   1   7   59.49    5.50
   5   1  -7   47.40    5.00
  -5   1   7   45.00    8.60
  -5   1   7   55.99    4.60
  -5   1   7   67.59    8.30
  -5   1   7   55.79    9.20
  -5   1   7   57.09    7.00
   4  -1  -7  513.15   22.40
  -4  -1   7  490.85   20.50
   4  -1  -7  476.95   16.40
  -4  -1   7  466.75   14.70
  -4  -1   7  488.75   21.60
  -4  -1   7  474.15   22.30
  -4  -1   7  487.65   15.50
   4  -1  -7  479.75   15.60
  -4   1   7  478.45   21.40
   4   1  -7  465.95   22.00
   4   1  -7  464.85   15.20
  -4   1   7  474.25   15.40
  -4   1   7  464.85   14.70
   4   1  -7  468.35   21.80
  -4   1   7  496.85   18.30
   4   1  -7  464.15   15.50
   3  -1  -7  354.86   11.80
   3  -1  -7  368.36   12.30
  -3  -1   7  343.77   17.20
  -3  -1   7  378.46   12.40
   3  -1  -7  381.26   17.50
   3  -1  -7  351.16   18.00
  -3  -1   7  372.06   17.70
   3   1  -7  357.46   11.60
  -3   1   7  353.16   11.60
   3   1  -7  345.87   18.10
  -3   1   7  364.66   15.60
  -3   1   7  383.06   18.00
   3   1  -7  341.97   17.00
   3   1  -7  367.96   12.40
  -3   1   7  368.36   12.30
  -3   1   7  340.27   16.50
   2  -1  -7  928.51   26.40
  -2  -1   7  986.40   31.90
  -2  -1   7  960.40   26.50
   2  -1  -7  934.01   31.60
  -2  -1   7  900.51   30.90
  -2   1   7  953.20   30.40
  -2   1   7  978.10   31.90
   2   1  -7  895.81   26.40
   2   1  -7  946.81   25.60
  -2   1   7  948.41   31.10
   2   1  -7  894.81   31.60
   2   1  -7  934.21   29.80
  -2   1   7  917.51   26.40
  -1  -1   7    5.50    4.30
   1  -1  -7    0.30    4.90
  -1  -1   7    2.40    1.30
  -1  -1   7    0.00    1.30
   1   1  -7    2.40    3.50
   1   1  -7    5.10    1.30
  -1   1   7    1.60    1.60
  -1   1   7    3.60    4.70
   1   1  -7    3.50    1.40
   0  -1   7  247.48   13.50
   0  -1   7  233.58    9.00
   0  -1  -7  239.08    8.10
   0  -1   7  228.98   17.30
   0  -1  -7  242.08    7.60
   0  -1  -7  251.67   11.00
   0  -1   7  240.08    8.20
   0  -1  -7  252.37   12.60
   0   1   7  258.17   12.60
   0   1  -7  247.48    7.10
   0   1  -7  240.28   12.40
   0   1  -7  249.88    8.10
   0   1  -7  241.98    9.60
   0   1  -7  251.67    9.60
   0   1  -7  246.28    7.20
   0   1   7  252.17   13.70
   0   1  -7  218.98   12.40
   0   1   7  235.78    8.20
   1  -1   7  811.82   22.20
   1  -1   7  815.82   26.50
  -1  -1  -7  756.02   26.80
  -1  -1  -7  775.32   24.40
  -1  -1  -7  785.12   21.90
  -1  -1  -7  745.63   25.80
   1  -1   7  815.62   28.50
  -1  -1  -7  782.52   21.30
  -1   1  -7  786.82   21.50
  -1   1  -7  793.32   21.50
  -1   1  -7  801.52   25.60
  -1   1  -7  837.42   21.40
   1   1   7  828.92   28.60
   1   1   7  837.92   23.90
   1   1   7  769.02   26.40
  -1   1  -7  789.22   21.70
   1   1   7  778.62   22.10
  -1   1  -7  800.42   26.90
  -1   1  -7  820.62   23.80
  -2  -1  -7   22.30    2.50
  -2  -1  -7   22.90    4.60
  -2  -1  -7   15.80    2.20
  -2  -1  -7   29.10    5.40
   2  -1   7   15.10    2.10
  -2  -1  -7   17.60    1.90
  -2  -1  -7   26.60    6.00
   2  -1   7   14.60    5.00
  -2  -1  -7   19.90    2.60
   2  -1   7   15.70    6.20
   2  -1   7   22.80    2.60
  -2  -1  -7   18.30    5.50
   2   1   7   18.60    2.30
  -2   1  -7   21.50    2.10
  -2   1  -7   16.20    7.60
   2   1   7   25.00    8.00
  -2   1  -7   17.50    3.60
  -2   1  -7   22.50    4.70
  -2   1  -7   14.80    4.90
  -2   1  -7   25.60    2.50
   2   1   7   20.20    3.70
   2   1   7   16.20    5.10
   3  -1   7   98.69   10.00
   3  -1   7   91.09   10.70
  -3  -1  -7  103.09    5.40
   3  -1   7  107.89    4.80
  -3  -1  -7   97.79    4.90
  -3  -1  -7   90.09    9.10
  -3  -1  -7  102.69    4.40
   3  -1   7   91.39    5.60
  -3  -1  -7  116.69    9.10
  -3  -1  -7  107.89   10.20
   3  -1   7  102.49   11.30
  -3   1  -7   98.79   10.00
  -3   1  -7  102.99    5.30
  -3   1  -7  122.39    9.90
  -3   1  -7  107.29    4.90
   3   1   7   83.39   10.10
   3   1   7  109.89   10.20
   3   1   7  105.59    5.10
   3   1   7  100.69    4.80
   4  -1   7  237.78   13.20
   4  -1   7  184.88   12.60
   4  -1   7  207.78   16.80
  -4  -1  -7  203.98    7.60
  -4  -1  -7  221.98    8.70
   4  -1   7  206.28    7.60
  -4  -1  -7  220.18   13.50
   4  -1   7  197.78    7.60
  -4  -1  -7  201.48   13.60
  -4   1  -7  205.68    8.40
  -4   1  -7  214.08   13.50
   4   1   7  206.28    8.00
   4   1   7  196.58   17.90
   4   1   7  215.38   13.60
   4   1   7  199.48   10.40
  -4   1  -7  214.48    7.50
   4   1   7  214.58   12.90
   4   1   7  211.48    6.70
  -4   1  -7  209.68   12.30
   4   1   7  201.68    7.60
  -5  -1  -7    2.50    7.00
   5  -1   7    5.90    2.30
   5  -1   7   -2.20    7.10
   5  -1   7    6.40    2.10
   5  -1   7   20.00    6.60
  -5  -1  -7   -2.90    6.90
  -5  -1  -7    7.80    2.50
   5  -1   7   12.50   16.80
  -5  -1  -7    7.20    2.90
   5   1   7    3.40   11.00
   5   1   7    5.70    2.40
  -5   1  -7    5.30    2.20
  -5   1  -7    0.60    2.90
  -5   1  -7    8.10    7.50
   5   1   7   17.60    6.80
   5   1   7    3.80    8.00
   5   1   7    7.80    2.60
  -5   1  -7   11.00    6.20
  -6  -2   7  866.31   25.20
   6  -2  -7  863.11   26.10
  -6  -2   7  812.32   27.10
  -6  -2   7  868.11   34.80
  -6  -2   7  902.41   26.30
  -6  -2   7  902.31   30.20
   6  -2  -7  893.01   35.10
  -6  -2   7  855.81   36.60
  -6   2   7  883.91   24.50
   6   2  -7  866.11   40.70
  -6   2   7  897.71   26.00
  -6   2   7  905.81   30.90
   6   2  -7  884.51   26.70
   6   2  -7  877.31   35.70
   6   2  -7  879.31   26.70
  -6   2   7  903.51   34.50
  -5  -2   7    4.20    7.40
  -5  -2   7   11.50    9.10
   5  -2  -7    9.20    8.10
  -5  -2   7    0.80    7.80
  -5  -2   7   13.00    3.30
  -5  -2   7    8.80    5.10
  -5  -2   7    6.80    2.40
  -5  -2   7   11.90    2.20
   5  -2  -7   13.80    3.00
  -5  -2   7   14.30    3.10
   5   2  -7    7.40    2.80
  -5   2   7   13.50    8.00
  -5   2   7    8.60    3.00
  -5   2   7   14.50    5.50
  -5   2   7   19.50    7.40
  -5   2   7   10.10    2.60
  -5   2   7   12.60    9.30
   5   2  -7    2.20    8.00
   5   2  -7   10.80    3.00
   4  -2  -7 1067.79   36.90
  -4  -2   7 1048.90   29.00
   4  -2  -7 1021.90   29.00
  -4  -2   7 1008.90   35.10
  -4  -2   7 1001.10   33.80
  -4  -2   7  999.00   28.30
  -4  -2   7  949.11   35.10
   4  -2  -7 1025.40   28.90
   4  -2  -7 1038.00   35.70
   4   2  -7 1009.30   28.80
  -4   2   7 1000.90   35.10
   4   2  -7 1011.20   35.60
  -4   2   7 1031.80   34.00
   4   2  -7 1009.00   29.10
  -4   2   7 1025.40   28.20
   4   2  -7  983.50   35.30
  -4   2   7 1038.20   28.90
  -4   2   7 1002.90   31.10
  -3  -2   7   72.59    9.50
   3  -2  -7   63.09    8.30
   3  -2  -7   63.49    4.80
  -3  -2   7   75.69    4.90
  -3   2   7   59.49    8.30
   3   2  -7   61.79    4.20
  -3   2   7   58.09    8.10
  -3   2   7   58.29    4.60
  -3   2   7   61.69    4.40
   3   2  -7   75.49    9.20
   3   2  -7   63.39    4.60
  -3   2   7   66.59    7.30
   3   2  -7   89.09    9.20
  -2  -2   7    1.50    1.60
  -2  -2   7    1.40    4.40
   2  -2  -7    9.20    5.20
   2  -2  -7    0.40    1.70
  -2   2   7   -0.80    1.40
  -2   2   7    3.00    4.80
   2   2  -7    2.00    1.30
  -2   2   7   -1.10    4.70
   2   2  -7    1.10    4.40
  -2   2   7   -2.00    4.70
   2   2  -7   -0.20    1.40
   2   2  -7   -0.20    4.30
   1  -2  -7  381.26   16.90
  -1  -2   7  366.26   11.70
  -1  -2   7  347.87   16.10
   1  -2  -7  366.86   15.40
   1  -2  -7  344.97   11.80
   1  -2  -7  371.76   11.30
   1   2  -7  338.67   12.00
   1   2  -7  356.46   10.60
   1   2  -7  366.66   13.80
   1   2  -7  355.86   18.10
   1   2  -7  405.16   10.30
  -1   2   7  356.16   16.40
  -1   2   7  371.56   16.00
   1   2  -7  374.86   12.40
   0  -2  -7  159.68   11.70
   0  -2  -7  161.78    6.30
   0  -2   7  170.98    7.30
   0  -2  -7  170.58    6.10
   0  -2   7  170.18    6.50
   0  -2  -7  178.78   10.30
   0   2  -7  189.08    7.80
   0   2  -7  179.08   11.20
   0   2  -7  169.28    5.10
   0   2  -7  161.28   10.30
   0   2  -7  165.08    7.60
   0   2   7  166.48   12.20
   0   2  -7  167.08    5.30
   0   2  -7  172.58    6.90
   0   2  -7  159.48    7.10
   0   2   7  161.78   10.40
   0   2  -7  173.58    5.30
   0   2  -7  176.48    5.20
   0   2  -7  171.68    6.30
   0   2   7  160.78    6.30
  -1  -2  -7    7.20    1.90
  -1  -2  -7    7.30    5.00
  -1  -2  -7    7.70    5.50
  -1  -2  -7   -3.50    4.30
   1  -2   7    7.30    5.10
  -1  -2  -7    4.80    1.60
   1  -2   7    3.60    1.40
   1  -2   7    7.30    4.50
  -1   2  -7    4.00    5.10
  -1   2  -7    5.90    1.60
  -1   2  -7    8.80    4.80
   1   2   7    0.80    5.90
  -1   2  -7    6.30    3.30
   1   2   7    3.50    1.30
  -1   2  -7    2.50    1.70
   2  -2   7  836.22   27.10
  -2  -2  -7  822.42   22.00
   2  -2   7  814.32   22.80
   2  -2   7  687.43   32.20
  -2  -2  -7  790.72   26.60
  -2  -2  -7  801.52   22.30
  -2  -2  -7  827.32   25.70
   2  -2   7  863.11   22.60
   2   2   7  817.52   22.60
   2   2   7  729.63   35.70
  -2   2  -7  853.01   24.80
   2   2   7  821.12   27.30
  -2   2  -7  834.02   24.50
  -2   2  -7  846.52   21.70
  -2   2  -7  687.53   33.50
  -2   2  -7  844.22   22.00
   3  -2   7   52.09    8.50
  -3  -2  -7   68.09    3.90
   3  -2   7   59.09    7.30
   3  -2   7   65.89    4.10
   3  -2   7   69.59    7.40
  -3  -2  -7   76.39    8.30
  -3  -2  -7   68.69    7.10
  -3  -2  -7   70.39    4.70
  -3  -2  -7   67.49    4.40
  -3  -2  -7   79.29    8.10
   3  -2   7   70.49    4.00
  -3  -2  -7   67.19    8.70
  -3  -2  -7   71.99    4.30
  -3   2  -7   70.89    7.40
   3   2   7   66.19    3.50
   3   2   7   75.59    4.20
   3   2   7   81.79   11.20
   3   2   7   66.99    7.90
   3   2   7   64.99    6.30
  -3   2  -7   72.99    7.60
  -3   2  -7   72.39    4.40
  -3   2  -7   68.89    4.10
   3   2   7   64.79    4.30
   4  -2   7  279.87   13.90
  -4  -2  -7  288.07    9.80
  -4  -2  -7  272.57   16.10
  -4  -2  -7  294.77   10.80
   4  -2   7  281.17   14.70
   4  -2   7  289.37    9.30
  -4  -2  -7  266.47   15.70
   4  -2   7  299.17   19.50
   4  -2   7  294.07    9.50
   4   2   7  278.87    9.60
   4   2   7  297.97   13.40
   4   2   7  297.57   15.70
  -4   2  -7  276.17   14.90
  -4   2  -7  279.87    9.30
   4   2   7  281.57    8.90
   4   2   7  273.57   19.70
   4   2   7  272.27   16.30
  -4   2  -7  290.57   13.80
  -4   2  -7  292.97   10.20
   4   2   7  281.37   10.10
  -5  -2  -7    0.50    2.30
  -5  -2  -7   12.40    7.40
   5  -2   7    9.10    6.00
  -5  -2  -7    2.70    7.10
   5  -2   7    3.10    7.20
   5  -2   7    4.60    2.10
   5  -2   7    8.80    2.30
  -5  -2  -7    5.90    2.90
   5   2   7    6.90    6.90
   5   2   7    5.70    8.00
  -5   2  -7    2.80    1.90
  -5   2  -7    5.80    6.10
   5   2   7    6.40    2.40
   5   2   7    6.30    2.30
   5   2   7   -5.60   11.00
  -5   2  -7    5.40    5.40
  -5   2  -7    7.70    2.80
  -6  -3   7   82.39   12.50
   6  -3  -7   84.49   13.20
   6  -3  -7   96.59    7.20
  -6  -3   7   71.59   12.20
  -6  -3   7   89.69    9.70
  -6  -3   7   79.39    5.20
  -6  -3   7   83.19    6.00
  -6  -3   7   87.29    7.50
  -6   3   7   90.49    6.70
   6   3  -7  115.09   15.00
   6   3  -7   69.29    6.40
   6   3  -7   94.09   14.10
  -6   3   7  104.89   13.10
   6   3  -7   97.69    8.10
  -5  -3   7  231.08   12.30
  -5  -3   7  247.48   17.10
  -5  -3   7  243.78   10.00
  -5  -3   7  239.88   18.00
  -5  -3   7  226.38    8.30
  -5  -3   7  236.98    9.20
   5  -3  -7  243.88   10.00
   5  -3  -7  257.37   17.80
  -5   3   7  229.48   11.50
  -5   3   7  242.48    9.50
  -5   3   7  236.68    8.60
   5   3  -7  212.38   22.00
  -5   3   7  247.38   15.30
  -5   3   7  240.88   17.30
   5   3  -7  186.18   20.20
   5   3  -7  201.58   10.90
   5   3  -7  224.08    9.30
   4  -3  -7    9.60    7.00
  -4  -3   7   12.40    2.80
  -4  -3   7   14.00    4.50
  -4  -3   7    3.70    7.20
  -4  -3   7   14.20    2.10
  -4  -3   7   11.50    3.10
  -4  -3   7    4.30    6.60
   4  -3  -7   13.20    2.90
  -4  -3   7   23.70   13.10
  -4  -3   7   10.20    2.60
   4   3  -7   10.00    7.30
  -4   3   7   10.60    2.40
  -4   3   7   13.40    6.80
  -4   3   7   12.50    5.50
   4   3  -7   12.10    2.60
   4   3  -7    4.00    2.30
  -4   3   7    6.70    2.00
  -3  -3   7 1301.67   41.30
   3  -3  -7 1256.87   40.90
  -3  -3   7 1239.18   34.90
  -3  -3   7 1224.68   40.40
  -3  -3   7 1309.87   35.20
   3  -3  -7 1258.37   35.10
  -3   3   7 1272.27   34.50
   3   3  -7 1275.07   35.40
  -3   3   7 1292.17   39.80
   3   3  -7 1272.07   34.50
  -3   3   7 1263.97   37.90
  -3   3   7 1276.47   35.10
  -3   3   7 1242.38   40.90
   3   3  -7 1290.87   41.60
   3   3  -7 1295.57   39.90
   2  -3  -7   18.50    2.30
   2  -3  -7   27.30    6.00
  -2  -3   7   28.10    3.20
  -2   3   7   22.00    5.90
   2   3  -7   23.80    3.10
   2   3  -7   30.20    2.80
   2   3  -7   27.60    6.80
  -2   3   7   32.50    3.50
  -2   3   7   29.90    6.90
   2   3  -7   35.20    5.70
  -1  -3   7    9.10    5.10
   1  -3  -7    3.70    5.00
   1  -3  -7    6.60    1.70
   1  -3  -7    5.40    4.70
   1  -3  -7    3.00    1.70
  -1   3   7    5.80    1.60
  -1   3   7    5.60    4.40
  -1   3   7    8.50    5.40
   1   3  -7    3.60    8.40
   1   3  -7    3.70    3.50
   1   3  -7    7.90    1.40
   0  -3   7   -0.80    1.80
   0  -3  -7    1.60    5.10
   0  -3  -7    0.30    1.50
   0  -3  -7    0.70    3.10
   0  -3   7   -0.30    1.30
   0  -3  -7    5.50    8.50
   0   3  -7    0.10    1.50
   0   3  -7    3.50    4.20
   0   3   7    7.00    4.90
   0   3  -7    2.60    2.60
   0   3  -7    0.00    4.80
   0   3  -7   -1.10    0.90
   0   3  -7    1.00    0.90
   0   3  -7   -0.40    2.40
   0   3   7   -1.40    3.90
  -1  -3  -7 2483.15   71.29
  -1  -3  -7 2605.34   66.49
   1  -3   7 2636.54   73.79
  -1  -3  -7 2586.94   70.19
   1  -3   7 2561.14   71.79
  -1  -3  -7 2471.15   66.89
   1  -3   7 2622.14   67.09
   1   3   7 2599.94   73.89
  -1   3  -7 2724.53   65.39
  -1   3  -7 2372.16   68.99
  -1   3  -7 2650.03   66.49
   1   3   7 2763.32   80.29
   2  -3   7   30.50    2.90
  -2  -3  -7   37.50    7.00
  -2  -3  -7   28.50    3.40
   2  -3   7   21.90    7.90
   2  -3   7   27.00    2.90
  -2  -3  -7   29.50    2.90
   2  -3   7   31.60    6.00
  -2  -3  -7   35.90    7.50
  -2   3  -7   24.20    6.50
  -2   3  -7   26.50    5.50
  -2   3  -7   31.80    3.20
   2   3   7   32.70    2.80
  -2   3  -7   34.20    4.70
   2   3   7   29.30    5.60
  -2   3  -7   31.00    2.80
   2   3   7   33.60    8.00
  -2   3  -7   28.50    2.90
   3  -3   7  572.54   25.10
  -3  -3  -7  583.64   17.40
   3  -3   7  575.14   16.80
  -3  -3  -7  615.44   25.10
  -3  -3  -7  623.34   17.60
  -3  -3  -7  567.64   17.80
   3  -3   7  587.04   24.10
  -3  -3  -7  585.14   22.80
  -3  -3  -7  609.84   23.10
   3  -3   7  555.24   19.10
  -3  -3  -7  611.94   17.90
   3  -3   7  557.44   21.30
  -3  -3  -7  615.14   23.80
   3   3   7  590.04   17.90
   3   3   7  577.84   16.40
   3   3   7  584.74   20.50
   3   3   7  593.54   22.60
  -3   3  -7  591.04   16.90
  -3   3  -7  596.44   16.80
  -3   3  -7  564.24   21.00
  -3   3  -7  585.64   20.00
   3   3   7  557.04   25.60
   4  -3   7  208.28    7.40
  -4  -3  -7  217.78   15.10
  -4  -3  -7  209.38    8.10
   4  -3   7  201.18    7.30
  -4  -3  -7  200.88    8.80
   4  -3   7  208.98   13.20
   4  -3   7  188.48   12.50
  -4  -3  -7  190.98   14.20
   4  -3   7  219.88   18.10
  -4   3  -7  212.38   12.60
   4   3   7  206.38    7.70
   4   3   7  218.68   18.90
  -4   3  -7  200.38    7.20
  -4   3  -7  202.88    8.00
   4   3   7  208.38    7.30
   4   3   7  207.28   14.00
   4   3   7  200.18   12.60
   4   3   7  209.68    8.40
   4   3   7  224.98   15.20
  -4   3  -7  194.48   12.10
  -5  -3  -7   -5.90    7.50
   5  -3   7   16.40    7.30
   5  -3   7    5.70    2.40
  -5  -3  -7    0.00    2.40
  -5  -3  -7    3.50    7.90
  -5  -3  -7    4.80    3.10
   5  -3   7   22.70   16.00
   5   3   7    5.00    2.70
   5   3   7   -4.30    8.00
   5   3   7    7.40    2.20
   5   3   7   -0.90   11.60
  -5   3  -7    0.40    2.70
   5   3   7    6.20    2.30
  -5   3  -7    2.40    7.20
  -5   3  -7    2.30    6.70
   5   3   7   -1.50    8.00
   5   3   7   10.60    7.80
  -6  -4   7  144.39   17.20
  -6  -4   7  162.88    8.00
   6  -4  -7  168.18   15.60
  -6  -4   7  147.59   10.50
  -6  -4   7  174.88   18.70
   6  -4  -7  167.18    8.70
  -6  -4   7  173.98   13.10
  -6  -4   7  154.88    7.20
   6   4  -7  158.38    9.30
   6   4  -7  165.78   17.70
   6   4  -7  132.29   16.10
   6   4  -7  154.68    8.90
  -6   4   7  159.58    8.80
  -6   4   7  171.48   15.80
  -5  -4   7   98.89    6.10
  -5  -4   7   72.99   11.60
  -5  -4   7  111.39    5.20
   5  -4  -7  103.09    6.80
  -5  -4   7  103.89    7.20
  -5  -4   7   96.99    9.60
  -5  -4   7  111.19   13.70
   5  -4  -7  102.29   12.50
  -5   4   7   79.79   10.90
  -5   4   7  102.49    6.60
   5   4  -7   96.29   12.50
  -5   4   7   94.49    5.40
   5   4  -7  104.89    6.30
   5   4  -7  129.89   14.60
  -5   4   7   89.99   11.20
   5   4  -7   93.29    7.00
  -5   4   7  123.19   13.30
  -4  -4   7  153.78    5.60
  -4  -4   7  143.49    9.00
   4  -4  -7  142.39   14.10
  -4  -4   7  128.39   14.20
   4  -4  -7  151.28    7.30
  -4  -4   7  147.39    7.50
  -4   4   7  118.79   12.30
  -4   4   7  154.68   14.70
  -4   4   7  130.09   10.20
   4   4  -7  133.49    7.40
   4   4  -7  124.59   12.90
  -4   4   7  150.78    7.20
  -4   4   7  143.99    6.40
   3  -4  -7  451.25   14.80
   3  -4  -7  482.55   21.00
  -3  -4   7  489.25   15.00
  -3  -4   7  478.05   21.10
   3   4  -7  460.05   14.10
  -3   4   7  426.26   19.40
  -3   4   7  460.75   21.00
  -3   4   7  447.46   17.80
  -3   4   7  454.95   14.80
   3   4  -7  449.56   19.30
  -3   4   7  440.66   15.20
   2  -4  -7  146.19    6.60
   2  -4  -7  159.38   12.80
   2  -4  -7  159.78    7.00
  -2  -4   7  157.78    6.80
   2  -4  -7  150.68   12.60
  -2   4   7  160.38   11.40
  -2   4   7  147.99   12.90
   2   4  -7  156.88    6.00
   2   4  -7  148.99    7.70
  -2   4   7  153.48   15.00
  -2   4   7  165.48    7.20
   2   4  -7  156.98   10.40
   2   4  -7  140.89   15.30
   1  -4  -7 2414.66   62.29
   1  -4  -7 2468.05   68.99
   1  -4  -7 2390.36   66.79
   1  -4  -7 2419.16   63.09
  -1  -4   7 2448.66   68.59
  -1   4   7 2322.57   72.39
  -1   4   7 2451.55   63.29
   1   4  -7 2409.26   64.19
   1   4  -7 2246.48   66.49
   1   4  -7 2433.06   61.39
  -1   4   7 2350.16   71.19
  -1   4   7 2452.65   67.89
   0  -4  -7  143.39   11.60
   0  -4   7  126.29    7.40
   0  -4  -7  124.69    5.60
   0  -4   7  143.19   10.50
   0  -4   7  133.49    7.80
   0   4  -7  129.99   10.50
   0   4   7  152.68   12.00
   0   4  -7  133.79    5.50
   0   4   7  120.09    7.70
   0   4  -7  135.69    5.90
  -1  -4  -7  249.28    9.10
  -1  -4  -7  261.27   14.70
   1  -4   7  272.67    9.10
  -1  -4  -7  280.37   15.00
  -1  -4  -7  267.07    9.00
   1  -4   7  263.17   14.00
   1   4   7  273.47   16.20
   2  -4   7  163.18    6.70
   2  -4   7  165.58    6.50
  -2  -4  -7  176.18    7.00
   2  -4   7  169.78   11.60
  -2  -4  -7  171.58   14.10
   2  -4   7  161.88   13.10
  -2  -4  -7  173.78    6.80
  -2  -4  -7  185.58   13.80
   2   4   7  182.78   12.10
  -2   4  -7  167.78   10.80
  -2   4  -7  165.28   11.10
   2   4   7  166.48   14.40
  -2   4  -7  163.48    8.40
  -2   4  -7  161.48    6.00
  -2   4  -7  177.68    9.00
  -2   4  -7  172.38    5.60
  -2   4  -7  167.58    5.50
  -2   4  -7  166.88    6.50
  -3  -4  -7  192.08   14.20
   3  -4   7  201.88   13.10
  -3  -4  -7  208.98    8.30
   3  -4   7  208.78   14.70
  -3  -4  -7  218.48   14.50
   3  -4   7  193.18    8.40
  -3  -4  -7  214.88   16.30
  -3  -4  -7  217.38    7.90
   3  -4   7  215.78    7.60
   3  -4   7  179.68   15.80
  -3   4  -7  230.38    7.50
  -3   4  -7  220.48    7.70
   3   4   7  212.08   12.40
  -3   4  -7  227.28   11.20
   3   4   7  201.28    7.30
  -3   4  -7  230.28   12.80
   3   4   7  204.68   13.20
   3   4   7  195.98   16.50
   4  -4   7  178.08   11.40
   4  -4   7  146.79    6.20
   4  -4   7  137.19   12.50
  -4  -4  -7  156.88   14.00
   4  -4   7  136.89   14.70
  -4  -4  -7  150.78    7.70
  -4  -4  -7  157.98    7.00
   4  -4   7  145.89    6.00
  -4  -4  -7  148.19   14.50
  -4   4  -7  151.88    6.00
   4   4   7  166.78   13.50
   4   4   7  152.98   12.80
   4   4   7  150.78    6.60
  -4   4  -7  168.18   11.00
  -4   4  -7  149.49   11.40
   4   4   7  152.18    6.30
  -4   4  -7  151.98    6.80
   4   4   7  125.59   17.50
   4   4   7  157.78    7.30
  -5  -4  -7   80.19   10.90
  -5  -4  -7   77.39    6.10
  -5  -4  -7   95.19    6.70
   5  -4   7   92.69    4.40
  -5  -4  -7   91.89   11.60
   5  -4   7   69.69   13.80
   5  -4   7   91.99    9.40
   5  -4   7   84.39    5.30
   5   4   7   92.59    6.20
   5   4   7  117.89   17.10
  -5   4  -7  102.19   10.40
   5   4   7   87.09    5.40
   5   4   7   94.89    5.80
  -5   4  -7   89.19    6.00
   5   4   7   83.99   10.20
   5   4   7   89.49   11.50
  -6  -5   7  361.66   14.20
   6  -5  -7  356.06   13.60
  -6  -5   7  352.36   25.20
  -6  -5   7  363.26   24.50
   6  -5  -7  334.87   23.40
  -6  -5   7  364.16   17.70
  -6  -5   7  337.47   11.90
  -6  -5   7  339.17   12.70
  -6   5   7  373.16   23.90
   6   5  -7  362.06   25.60
   6   5  -7  329.27   26.50
   6   5  -7  342.77   13.50
   6   5  -7  343.77   14.30
  -6   5   7  347.57   13.20
   5  -5  -7    0.40    2.90
  -5  -5   7    0.00    2.60
  -5  -5   7    5.50    5.30
  -5  -5   7   -9.30    8.50
  -5  -5   7    0.40    2.90
  -5  -5   7    4.10    9.30
  -5  -5   7    1.90    2.10
   5  -5  -7    0.20    7.80
  -5   5   7    2.50    2.30
   5   5  -7   10.80   10.00
  -5   5   7    2.10    3.10
   5   5  -7    3.30    9.80
   5   5  -7    4.30    2.50
  -5   5   7   -6.70    7.10
  -5   5   7   11.90    9.90
   5   5  -7   -1.20    3.00
  -4  -5   7  350.46   13.50
  -4  -5   7  334.17   19.80
  -4  -5   7  348.07   12.80
   4  -5  -7  364.06   12.70
  -4  -5   7  346.97   10.50
   4  -5  -7  386.46   20.20
  -4   5   7  369.06   20.00
   4   5  -7  344.87   19.60
  -4   5   7  346.27   12.40
  -4   5   7  352.56   17.50
  -4   5   7  339.07   11.30
   4   5  -7  332.87   12.00
  -4   5   7  336.27   14.70
   4   5  -7  357.26   20.90
   4   5  -7  345.97   13.00
   3  -5  -7   31.00    3.50
   3  -5  -7   27.70    8.00
  -3   5   7   18.40    6.00
   3   5  -7   28.00    6.70
  -3   5   7   26.90    3.30
  -3   5   7   49.30    8.80
  -3   5   7   25.50    3.80
   3   5  -7   25.40    3.30
   3   5  -7   18.60    7.90
   3   5  -7   37.70    3.60
  -2  -5   7  529.15   17.50
   2  -5  -7  550.14   17.30
   2  -5  -7  587.34   23.50
  -2   5   7  576.24   21.40
   2   5  -7  561.64   16.10
   2   5  -7  553.04   20.50
   2   5  -7  572.54   23.30
  -2   5   7  562.64   23.40
  -2   5   7  534.05   23.80
  -2   5   7  577.64   17.50
   1  -5  -7   19.20    6.00
   1  -5  -7   17.80    2.90
   1  -5  -7   20.90    2.80
   1  -5  -7   22.80    7.70
  -1   5   7   17.10    2.50
  -1   5   7   15.70    6.20
   1   5  -7   22.30    2.20
   1   5  -7   15.80    4.40
   0  -5   7  173.48   12.10
   0  -5  -7  171.08    6.90
   0  -5  -7  192.98   14.10
   0   5  -7  178.08   11.90
   0   5  -7  165.08    6.50
   0   5   7  182.08   13.30
   0   5   7  164.88    7.30
   0   5  -7  165.78    6.40
  -1  -5  -7   45.10    8.70
   1  -5   7   58.89    3.90
   1  -5   7   46.90    7.40
  -1  -5  -7   55.19    4.50
  -1   5  -7   56.09    4.60
  -1   5  -7   60.79    7.70
  -1   5  -7   62.99    4.20
  -1   5  -7   58.59   10.10
  -2  -5  -7  131.09   12.00
  -2  -5  -7  104.79   12.10
   2  -5   7  117.89   11.20
  -2  -5  -7  128.89    6.40
   2  -5   7  137.19    5.70
  -2  -5  -7  108.89    5.90
   2  -5   7  133.79    5.70
  -2   5  -7  129.89    5.70
   2   5   7  136.69   13.70
  -2   5  -7  137.79    7.50
  -2   5  -7  110.39    7.40
  -2   5  -7  129.19    7.80
  -2   5  -7  133.99    4.50
  -2   5  -7  130.89    4.50
  -2   5  -7  131.59    4.40
  -2   5  -7  118.69   10.60
   3  -5   7    7.60    6.00
  -3  -5  -7    1.50    2.60
   3  -5   7    3.70    4.40
  -3  -5  -7  -10.20    8.00
   3  -5   7   -0.60    1.70
   3  -5   7   -0.70    1.80
   3  -5   7    0.00    7.60
  -3   5  -7   -0.70    1.70
   3   5   7    7.00    5.40
  -3   5  -7    3.20    5.00
  -3   5  -7    2.10    2.10
   3   5   7   18.50   10.90
   3   5   7    0.40    1.80
  -3   5  -7    7.50    5.30
   3   5   7   -6.90    8.40
  -4  -5  -7  573.34   23.70
   4  -5   7  530.75   19.90
   4  -5   7  537.05   25.30
  -4  -5  -7  533.55   18.00
  -4  -5  -7  526.85   17.60
  -4  -5  -7  527.35   24.10
   4  -5   7  533.75   15.80
   4  -5   7  542.05   21.40
   4  -5   7  525.85   15.40
   4   5   7  505.55   21.80
   4   5   7  536.05   23.40
   4   5   7  530.45   28.50
  -4   5  -7  555.84   15.40
   4   5   7  526.75   16.40
  -4   5  -7  558.14   15.90
  -4   5  -7  542.15   19.40
  -4   5  -7  550.74   20.30
   4   5   7  526.05   16.00
  -5  -5  -7   19.40    3.80
  -5  -5  -7   22.70    8.50
  -5  -5  -7   15.70    3.40
   5  -5   7   14.10    5.10
   5  -5   7   22.20    2.10
  -5  -5  -7   23.30    9.80
   5  -5   7   17.00   11.60
  -5   5  -7   16.50    3.30
  -5   5  -7   25.70    8.30
   5   5   7   21.30    3.30
   5   5   7   22.90    9.50
   5   5   7   10.10    9.10
   5   5   7    9.50    9.10
   5   5   7   14.00    3.00
   5   5   7   28.20   13.90
   5   5   7   17.70    3.60
  -6  -6   7  221.98   24.60
  -6  -6   7  288.37   10.40
  -6  -6   7  298.27   11.70
  -6  -6   7  311.17   13.20
  -6  -6   7  295.37   24.50
  -6  -6   7  274.97   16.10
   6  -6  -7  292.27   12.10
   6  -6  -7  277.47   23.00
   6   6  -7  277.37   24.70
   6   6  -7  286.77   13.00
   6   6  -7  274.67   12.10
   6   6  -7  245.88   26.70
  -5  -6   7  205.78   12.80
  -5  -6   7  198.18   20.70
  -5  -6   7  215.58    9.60
  -5  -6   7  233.88   19.80
  -5  -6   7  226.08    8.10
   5  -6  -7  229.18   10.10
  -5  -6   7  231.08   10.40
   5  -6  -7  231.38   19.00
   5   6  -7  195.28   20.00
  -5   6   7  214.08   19.40
  -5   6   7  233.18   15.80
   5   6  -7  231.78   10.80
  -5   6   7  214.98    9.70
   5   6  -7  234.08   22.00
  -5   6   7  229.18    8.30
   5   6  -7  223.38    9.70
   4  -6  -7  595.54   18.50
  -4  -6   7  579.14   26.50
  -4  -6   7  595.14   18.90
  -4  -6   7  594.74   16.30
   4  -6  -7  577.04   25.70
  -4  -6   7  603.04   19.20
   4   6  -7  589.04   19.10
   4   6  -7  624.74   28.10
  -4   6   7  579.44   23.70
   4   6  -7  604.64   25.60
  -4   6   7  567.34   17.40
  -4   6   7  579.94   26.30
  -4   6   7  579.74   20.50
   4   6  -7  579.04   18.10
  -4   6   7  579.14   18.50
  -3  -6   7   58.99    5.10
   3  -6  -7   69.89    5.40
   3  -6  -7   84.49   10.80
   3   6  -7   60.39    5.10
  -3   6   7   69.89    8.00
   3   6  -7   77.59    9.20
  -3   6   7   61.49    5.20
  -3   6   7   59.89   10.00
   3   6  -7   65.59    4.30
  -2  -6   7   -1.00    1.70
   2  -6  -7    0.60    2.10
   2  -6  -7   -0.60    6.40
   2   6  -7   -6.30    5.90
  -2   6   7    3.10    6.40
   2   6  -7    2.20    1.50
  -2   6   7    0.60    5.60
  -2   6   7    1.30    5.80
   2   6  -7   -5.70    4.80
  -2   6   7   -0.80    2.20
  -1   6   7 1116.99   31.80
   1   6  -7 1126.39   29.70
  -1   6   7 1119.69   36.60
   1   6  -7 1143.59   32.70
   0  -6   7   73.29   10.10
   0  -6  -7   69.39    5.10
   0  -6  -7   62.09    8.00
   0   6  -7   63.79    4.30
   0   6   7   70.49    9.20
   0   6  -7   75.69    4.80
   0   6  -7   70.09    8.00
  -1  -6  -7  167.98    7.70
  -1  -6  -7  173.18   15.50
   1  -6   7  187.78    7.70
   1  -6   7  180.68   14.10
  -1   6  -7  190.38    7.40
  -1   6  -7  162.88   12.30
  -1   6  -7  181.78   11.20
  -1   6  -7  193.48    6.80
  -1   6  -7  187.38   11.90
   1   6   7  191.78   15.10
  -1   6  -7  183.98    6.70
  -2  -6  -7  297.97   11.70
   2  -6   7  321.47   16.30
   2  -6   7  312.37   10.40
   2  -6   7  302.97   10.30
  -2   6  -7  329.07   15.70
   2   6   7  282.07   18.70
  -2   6  -7  310.97    8.60
  -2   6  -7  310.37   10.40
  -2   6  -7  311.07   11.10
   3  -6   7  418.56   21.90
   3  -6   7  396.06   12.70
   3  -6   7  384.56   17.40
   3  -6   7  406.16   12.70
   3  -6   7  411.56   18.70
  -3   6  -7  424.26   15.20
   3   6   7  407.06   19.10
  -3   6  -7  425.46   12.80
  -3   6  -7  412.76   17.70
  -3   6  -7  431.96   12.00
   3   6   7  418.26   18.70
   3   6   7  404.56   12.90
   3   6   7  387.96   23.50
   4  -6   7   41.00   10.90
  -4  -6  -7   58.49   10.50
   4  -6   7   59.59    7.20
   4  -6   7   57.19    4.40
   4  -6   7   48.20    9.10
   4  -6   7   60.79    4.10
   4   6   7   69.79   12.80
  -4   6  -7   53.99    7.10
  -4   6  -7   54.39    8.30
  -4   6  -7   57.49    4.60
   4   6   7   44.20    4.80
   4   6   7   51.09   13.60
   4   6   7   53.09    4.70
  -4   6  -7   49.90    4.10
   4   6   7   50.09    9.50
  -5  -6  -7   27.30    4.70
  -5  -6  -7   43.60   10.40
   5  -6   7   21.90   13.20
   5  -6   7   41.40    5.10
  -5  -6  -7   27.40    4.10
  -5  -6  -7   45.30   11.60
   5   6   7   30.30    3.70
  -5   6  -7   37.20    4.20
   5   6   7   24.00   11.80
   5   6   7   45.30    5.40
   5   6   7   39.50    4.60
   5   6   7   39.40   10.70
   5   6   7   31.50   11.20
  -5   6  -7   36.90    9.00
   5   6   7   65.39   26.20
  -5  -7   7   36.80    4.00
  -5  -7   7   37.40    7.20
   5  -7  -7   27.10    4.30
  -5  -7   7   38.90   12.20
  -5  -7   7   24.80    4.00
   5  -7  -7   34.40   10.60
  -5  -7   7   32.10   11.00
  -5  -7   7   26.70    4.60
   5   7  -7   26.90   10.70
   5   7  -7   36.10    5.00
  -5   7   7   27.00    8.80
   5   7  -7   29.70    4.00
  -5   7   7   38.90   10.50
  -5   7   7   38.30    4.50
   5   7  -7   42.50   13.40
  -5   7   7   38.30    4.70
  -4  -7   7   51.89    3.60
   4  -7  -7   49.40   10.90
  -4  -7   7   51.89    5.10
   4  -7  -7   48.30    5.50
  -4  -7   7   65.99   11.50
  -4  -7   7   58.09    6.70
  -4   7   7   52.89    4.50
   4   7  -7   50.59    4.80
  -4   7   7   59.09   10.60
   4   7  -7   57.59    6.20
  -4   7   7   44.50    4.10
   4   7  -7   43.60   10.50
  -4   7   7   58.09    5.70
  -4   7   7   40.90    8.60
   4   7  -7   57.79   10.40
  -4   7   7   53.09    7.20
  -3  -7   7  890.61   25.80
   3  -7  -7  826.32   32.20
   3  -7  -7  869.61   25.50
  -3   7   7  894.51   29.10
  -3   7   7  860.91   30.40
   3   7  -7  863.21   30.60
   3   7  -7  842.02   26.20
   3   7  -7  846.52   33.30
  -3   7   7  877.21   24.60
   3   7  -7  864.51   24.60
  -3   7   7  907.31   25.80
  -3   7   7  881.71   32.90
   2  -7  -7   30.20   11.10
   2  -7  -7   42.50    5.00
  -2   7   7   53.69    9.50
   2   7  -7   45.10    3.50
  -2   7   7   56.79    7.90
  -2   7   7   57.99    8.00
   2   7  -7   38.50    6.60
  -2   7   7   41.10    4.70
   1  -7  -7   67.39    4.80
   1  -7  -7   68.79   11.60
   1  -7  -7   68.99    9.90
   1   7  -7   57.39    3.30
   1   7  -7   62.59    6.40
  -1   7   7   73.79    9.70
  -1   7   7   58.29    5.50
  -1   7   7   76.89   12.90
   0  -7  -7    3.40    6.40
   0   7   7   -0.50   11.80
   0   7   7    4.70    2.10
   0   7  -7   -0.10    6.70
   0   7  -7   -9.60    6.20
   0   7  -7    0.10    2.20
   0   7  -7    2.90    2.00
   1  -7   7 1564.24   49.20
  -1   7  -7 1631.54   49.10
  -1   7  -7 1636.94   46.90
  -1   7  -7 1599.14   42.10
  -1   7  -7 1711.83   46.90
  -1   7  -7 1638.74   42.50
  -1   7  -7 1603.74   45.80
   1   7   7 1549.54   51.29
   2  -7   7  173.58   12.20
   2  -7   7  182.58   13.90
   2  -7   7  179.68    7.50
   2  -7   7  182.78    7.20
  -2   7  -7  169.48   13.40
  -2   7  -7  174.48    8.80
   2   7   7  196.78   17.50
   2   7   7  164.38   13.70
   2   7   7  178.08    7.30
  -2   7  -7  167.68   10.20
  -2   7  -7  181.28    7.40
   3  -7   7  103.19   11.20
   3  -7   7   96.09    5.20
   3  -7   7   84.99   11.50
   3   7   7   95.69    5.40
   3   7   7  111.59   10.90
   3   7   7  103.39   13.70
  -3   7  -7   95.29    9.10
  -3   7  -7   89.39    5.20
   4  -7   7   16.20    6.10
   4  -7   7    4.40    2.20
  -4  -7  -7   12.50    3.60
   4  -7   7    3.00   11.50
  -4  -7  -7    5.10    7.80
  -4   7  -7   10.00    6.60
  -4   7  -7   10.00    2.90
  -4   7  -7   10.40    2.30
   4   7   7   26.70   13.20
  -4   7  -7   19.60    6.50
   4   7   7    7.10    8.90
   4   7   7   14.20    3.00
   4   7   7   13.80    2.90
  -5  -8   7  -10.10   11.40
  -5  -8   7    5.90    4.20
  -5  -8   7    0.30    6.30
  -5  -8   7   15.40   11.80
   5  -8  -7   -1.70    3.50
  -5  -8   7    1.00    2.50
   5  -8  -7    4.10   10.60
  -5  -8   7    6.00    3.70
   5   8  -7    2.30    2.90
  -5   8   7    4.40   10.50
  -5   8   7    0.30    3.70
   5   8  -7    0.90    4.10
   5   8  -7   -4.40   12.40
   5   8  -7   -3.00   10.20
  -4  -8   7 1210.08   33.60
  -4  -8   7 1199.58   30.30
  -4  -8   7 1040.30   35.50
   4  -8  -7 1127.39   41.30
  -4  -8   7 1178.38   42.30
  -4  -8   7 1184.38   33.10
   4  -8  -7 1155.08   32.90
   4   8  -7 1124.19   32.40
  -4   8   7 1181.18   41.50
  -4   8   7 1150.28   33.10
   4   8  -7 1149.58   33.80
   4   8  -7 1133.29   40.30
   4   8  -7 1134.69   43.50
  -3  -8   7   69.49    5.60
   3  -8  -7   64.19   13.90
   3  -8  -7   71.19    6.90
  -3   8   7   71.79    5.10
  -3   8   7   80.79    9.10
   3   8  -7   74.69    4.90
  -3   8   7   76.19    6.10
  -3   8   7   65.69    4.70
   3   8  -7   79.49   12.40
   3   8  -7   61.69    9.70
  -3   8   7   75.19    9.30
  -3   8   7   65.29   10.40
   2  -8  -7  229.28    9.30
  -2  -8   7  232.38   16.30
   2  -8  -7  205.48   17.20
  -2  -8   7  212.38    8.30
  -2   8   7  222.68   17.30
   2   8  -7  207.38    7.90
   2   8  -7  224.88   13.80
  -2   8   7  219.48   14.80
  -2   8   7  216.38   10.00
  -2   8   7  204.78   15.40
   1  -8  -7  436.06   22.00
  -1  -8   7  424.26   12.70
  -1  -8   7  430.96   17.90
   1  -8  -7  438.76   14.60
   1   8  -7  424.16   16.40
   1   8  -7  419.16   12.30
  -1   8   7  446.66   22.00
   1   8  -7  415.46   13.80
  -1   8   7  418.96   20.70
  -1   8   7  427.06   14.70
   0  -8  -7  199.78   15.30
   0   8  -7  203.38    6.00
   0   8  -7  189.18    8.90
   0   8   7  207.28    9.00
   0   8  -7  209.18   14.70
   0   8  -7  200.28    7.80
   0   8   7  216.98   16.40
   1  -8   7   30.30    8.90
  -1   8  -7    9.60    2.50
   1   8   7   12.60    8.80
  -1   8  -7   -0.50    6.20
  -1   8  -7    7.50    6.40
  -1   8  -7   12.10    6.70
  -1   8  -7    8.70    2.10
   2  -8   7  259.97    9.60
   2  -8   7  238.18   15.20
   2  -8   7  265.07    9.40
   2  -8   7  265.27   17.10
  -2   8  -7  278.87   16.60
   2   8   7  247.48   16.70
  -2   8  -7  261.47    9.60
   2   8   7  254.47    9.50
   2   8   7  261.67   20.90
   3  -8   7  -10.20   10.40
   3  -8   7    2.00    2.10
   3  -8   7   -2.00    6.00
   3  -8   7    2.50    2.80
   3   8   7    8.80   10.70
   3   8   7    3.10    8.00
   3   8   7   -0.30    2.40
  -3   8  -7    3.00    2.30
  -3   8  -7   -4.40    6.90
   4  -8   7  121.89    5.80
   4  -8   7  108.89    6.30
  -4  -8  -7  129.39   18.70
   4  -8   7  156.98   12.80
   4  -8   7  109.29   12.30
   4  -8   7  120.69   15.30
  -4   8  -7  113.69    5.60
   4   8   7  107.99    6.90
   4   8   7  124.69   13.60
   4   8   7  104.89   10.20
   4   8   7  118.59    6.70
   4   8   7   93.19   18.60
  -4   8  -7  131.89   12.80
  -5  -9   7   -2.60    7.20
  -5  -9   7  -12.80   12.80
  -5  -9   7    1.60   13.30
  -5  -9   7   -0.10    4.20
   5  -9  -7    3.60    3.80
   5  -9  -7   22.10   11.80
  -5  -9   7    1.10    2.60
  -5   9   7  -10.60   11.80
  -5   9   7   -1.80    4.30
   5   9  -7    0.40   14.40
   5   9  -7    8.30   12.40
   5   9  -7   -2.20    4.50
   5   9  -7    2.40    3.70
  -4  -9   7  109.59    8.10
  -4  -9   7   63.69   13.80
  -4  -9   7   71.29   10.50
   4  -9  -7   98.79   24.80
  -4  -9   7   86.09    4.40
   4  -9  -7   87.49    8.30
  -4  -9   7   65.49   22.00
   4   9  -7   68.49   15.40
  -4   9   7   67.59   10.40
  -4   9   7   87.09    7.60
  -4   9   7   88.79   13.30
   4   9  -7   82.79    7.90
   4   9  -7   99.29   12.70
   4   9  -7   79.09    6.30
  -4   9   7   72.99    5.70
   3  -9  -7  498.65   26.00
  -3  -9   7  508.35   17.10
   3  -9  -7  520.95   17.10
  -3   9   7  509.65   22.30
   3   9  -7  511.05   16.20
  -3   9   7  488.55   22.60
   3   9  -7  462.45   23.50
  -3   9   7  512.65   15.70
  -3   9   7  493.35   15.70
  -3   9   7  540.85   17.80
  -3   9   7  520.15   27.10
   2  -9  -7  365.46   21.90
   2  -9  -7  365.96   13.20
   2   9  -7  363.96   17.30
  -2   9   7  356.46   12.50
  -2   9   7  346.77   21.80
  -2   9   7  370.46   19.70
  -2   9   7  366.16   13.70
  -2   9   7  367.36   19.30
   2   9  -7  353.46   11.50
  -2   9   7  361.16   12.00
   1  -9  -7   45.90    5.20
   1  -9  -7   55.89   10.80
  -1   9   7   40.60    4.80
   1   9  -7   44.30    4.50
  -1   9   7   55.49    5.70
   1   9  -7   45.00    3.20
   1   9  -7   49.60    6.80
   1   9  -7   46.10    9.60
  -1   9   7   33.10   10.80
  -1   9   7   36.80   10.00
   0  -9  -7   25.00    8.10
   0   9  -7   19.60    8.40
   0   9  -7   34.40    3.50
   0   9   7   25.00    9.60
   0   9  -7   28.50    5.00
   0   9  -7   28.10    2.40
   0   9   7   39.80    4.70
   1  -9   7  269.17   18.40
   1  -9   7  273.37   10.10
  -1   9  -7  245.28   17.70
  -1   9  -7  247.68   16.00
  -1   9  -7  237.68    9.30
  -1   9  -7  280.27   15.10
   1   9   7  240.98   20.70
  -1   9  -7  260.97    8.70
   2  -9   7    7.30    8.70
   2  -9   7   10.90    6.90
   2  -9   7   13.60    3.00
   2  -9   7   16.10    2.70
  -2   9  -7    6.60    7.30
   2   9   7   -8.40   10.70
  -2   9  -7   15.90    3.00
   2   9   7    3.30    9.10
   2   9   7   22.60    3.00
   3  -9   7    0.70    2.70
   3  -9   7   -7.50    9.20
   3  -9   7    6.50    2.40
   3  -9   7    0.40    7.20
   3   9   7   15.80    9.40
  -3   9  -7    2.00    2.40
   3   9   7    4.50    3.10
  -3   9  -7   13.60    8.40
   3   9   7  -16.90   12.30
   4 -10  -7   34.80   12.50
   4 -10  -7   34.30    5.30
  -4 -10   7   23.60    4.50
  -4 -10   7   33.90    3.20
  -4 -10   7   44.70    6.90
   4  10  -7   34.60   14.20
   4  10  -7   36.20   10.90
  -4  10   7   31.70    5.50
  -4  10   7   12.70    9.90
  -4  10   7   28.10    3.60
  -4  10   7   39.20   14.50
   4  10  -7   23.30    4.10
   4  10  -7   21.20    4.60
  -3 -10   7  101.09    7.10
   3 -10  -7   90.19    7.40
   3 -10  -7   99.89   14.00
  -3  10   7   90.59   11.40
   3  10  -7   90.19    6.00
   3  10  -7   89.19   14.20
  -3  10   7   96.29    6.60
   3  10  -7  106.89   12.00
  -3  10   7  108.79    8.60
  -3  10   7   87.19    5.70
  -3  10   7  107.89   12.10
   3  10  -7   71.69   16.10
  -3  10   7   96.59   14.60
   2 -10  -7  379.36   14.00
   2 -10  -7  383.76   23.10
   2  10  -7  377.36   13.40
   2  10  -7  376.46   12.10
   2  10  -7  377.16   18.80
  -2  10   7  390.36   23.70
  -2  10   7  373.96   22.20
  -2  10   7  381.26   13.50
   2  10  -7  400.06   23.60
  -2  10   7  384.96   14.60
  -2  10   7  368.96   12.50
  -2  10   7  363.96   20.20
   1 -10  -7 1596.04   51.29
   1 -10  -7 1509.15   42.50
  -1  10   7 1548.84   43.10
   1  10  -7 1497.75   44.20
  -1  10   7 1547.95   49.50
   1  10  -7 1508.55   41.50
   1  10  -7 1505.55   40.00
  -1  10   7 1468.85   51.69
  -1  10   7 1485.25   42.10
  -1  10   7 1580.34   43.10
   1  10  -7 1524.95   49.50
   0 -10  -7  123.39   13.30
   0 -10   7  127.29   14.40
   0 -10  -7  144.09    7.80
   0  10  -7  148.39    7.00
   0  10   7  158.88    8.80
   0  10   7  143.59   14.80
   0  10  -7  164.48    9.90
   0  10  -7  139.69   15.90
   0  10   7  151.58    8.40
   0  10  -7  146.89    5.30
   1 -10   7  154.78   16.30
   1 -10   7  139.09    7.00
   1  10   7  111.69    8.50
  -1  10  -7  141.59   13.30
   1  10   7  116.09   15.00
  -1  10  -7  115.29    5.60
   2 -10   7   53.59    5.00
   2 -10   7   54.99   12.10
   2 -10   7   54.99    5.60
   2  10   7   87.59   14.90
   2  10   7   60.19    7.00
  -2  10  -7   55.99   11.10
  -2  10  -7   50.19    5.30
   2  10   7   55.99   11.80
   3 -10   7  342.87   11.80
   3 -10   7  344.87   12.40
   3 -10   7  326.17   21.90
   3 -10   7  339.47   19.30
   3  10   7  309.17   19.60
  -3  10  -7  347.07   12.00
   3  10   7  296.67   37.70
   3  10   7  403.56   24.20
  -3  10  -7  384.46   20.90
   3  10   7  324.67   12.50
   3 -11  -7  162.38    9.50
  -3 -11   7  153.58    8.90
   3 -11  -7  144.79   16.90
  -3 -11   7  157.28   23.20
   3  11  -7  171.38   17.90
  -3  11   7  151.78    7.60
  -3  11   7  154.58   17.00
  -3  11   7  132.09   16.90
   3  11  -7  170.78    7.80
  -3  11   7  151.38   10.30
   3  11  -7  146.59   14.20
   2 -11  -7  165.58    9.20
   2 -11  -7  151.28   16.10
  -2  11   7  165.58    7.50
  -2  11   7  139.19   15.90
  -2  11   7  162.08   16.80
   2  11  -7  136.79   16.00
   2  11  -7  160.28    7.10
   2  11  -7  164.98    8.40
   2  11  -7  157.18   15.50
  -2  11   7  220.78   19.30
  -2  11   7  166.78    8.80
  -2  11   7  178.48   10.20
   1 -11  -7    1.90    3.20
   1 -11  -7   -1.20    9.60
   1  11  -7   -2.60    6.80
  -1  11   7    7.40    8.60
  -1  11   7    6.80    4.10
  -1  11   7   17.20   11.40
   1  11  -7    7.90    3.20
   1  11  -7    6.60    2.30
  -1  11   7    7.90    2.70
   1  11  -7    6.70   10.90
  -1  11   7   -9.00   10.30
  -1  11   7    0.90    3.50
   0 -11  -7  203.58   20.50
   0 -11  -7  211.78    9.80
   0  11   7  165.68   21.20
   0  11  -7  197.08    8.20
   0  11   7  178.08   14.40
   0  11  -7  187.48   18.00
   0  11   7  186.98   12.50
   1 -11   7  482.65   25.10
   1 -11   7  446.56   15.50
   1  11   7  468.05   27.80
   1  11   7  430.66   16.70
   1  11   7  472.85   17.00
   2 -11   7  279.87   11.30
   2 -11   7  283.47   10.80
   2 -11   7  313.97   22.80
   2 -11   7  265.47   19.50
  -2  11  -7  277.37   11.00
   2  11   7  296.87   26.90
   2  11   7  283.17   12.90
  -2  11  -7  262.97   21.40
   2 -12  -7   49.30    6.10
   2 -12  -7   44.40   13.90
   2  12  -7   47.70   14.30
  -2  12   7   62.29    7.30
  -2  12   7   53.69    6.60
   2  12  -7   44.80    4.30
  -2  12   7   49.10   13.00
  -2  12   7   56.19    5.90
  -2  12   7   30.80   10.90
   2  12  -7   38.20   10.50
  -2  12   7   50.99   14.00
   2  12  -7   52.99    5.30
   1 -12  -7   38.20   13.20
   1 -12  -7   25.00    4.50
  -1  12   7   33.60    3.90
  -1  12   7   30.90    8.20
   1  12  -7   40.50   12.40
  -1  12   7   30.80   15.70
  -1  12   7   36.00   12.50
  -1  12   7   43.70    5.40
  -1  12   7   42.40   10.50
   1  12  -7   31.50    4.30
   0 -12  -7   52.99    5.70
   0 -12  -7   34.90   13.10
   0  12   7   57.69   21.70
   0  12   7   49.50    5.70
   0  12  -7   63.79   12.20
   0  12   7   49.99    5.90
   0  12   7   50.69   13.20
   0  12  -7   50.79    4.70
   1 -12   7    0.70    3.50
  -1 -12  -7    9.00    3.90
   1 -12   7   -7.20   12.10
   1  12   7  -10.40   12.10
   1  12   7    4.00    4.30
   1  12   7    6.30    4.60
   1  12   7   -2.70   13.60
   6   0  -8   38.90    5.00
  -6   0   8   44.30   11.40
   6   0  -8   48.80   13.70
  -6   0   8   48.80   12.60
   6   0  -8   66.29   14.40
  -6   0   8   34.70    5.30
   6   0  -8   46.20    5.50
  -6   0   8   39.20    4.10
   5   0  -8   -0.70   10.40
  -5   0   8    8.00    6.70
  -5   0   8   -0.30    3.30
  -5   0   8    1.10    8.70
  -5   0   8   -4.60    9.10
   5   0  -8   -3.00    2.80
   5   0  -8    3.40    2.90
  -5   0   8   -2.70    2.40
   5   0  -8   -3.50    9.50
   4   0  -8   28.90    3.50
  -4   0   8   15.30    8.20
  -4   0   8   19.90    7.00
   4   0  -8   16.80    3.20
   4   0  -8   39.10    9.50
   4   0  -8   16.50    8.50
  -4   0   8    8.50    8.70
  -4   0   8   25.30    8.10
  -4   0   8   33.40    4.20
  -3   0   8   -1.70    1.90
   3   0  -8    6.40    7.20
  -3   0   8   -3.20    5.70
   3   0  -8    7.80    6.90
   3   0  -8    0.60    1.90
  -3   0   8   -5.20    6.20
   3   0  -8    3.40    2.10
  -2   0   8    8.50    5.50
   2   0  -8    1.30    1.70
  -2   0   8    1.50    1.80
   2   0  -8   -0.30    1.60
   2   0  -8  -10.10    4.80
   2   0  -8    5.40    5.40
  -1   0   8   -1.90    5.60
   1   0  -8    1.40    4.40
   1   0  -8   -0.90    4.60
  -1   0   8    1.90    1.90
   1   0  -8    0.30    1.40
   1   0  -8    2.10    1.60
   0   0  -8   21.00    2.20
   0   0   8   18.00    6.70
   0   0  -8   26.70    5.10
  -1   0  -8    1.70    4.10
  -1   0  -8    3.10    6.10
  -1   0  -8   -0.10    1.90
   1   0   8   -6.50    6.10
  -1   0  -8    0.60    1.40
   1   0   8    1.90    5.40
  -2   0  -8   34.10    3.70
   2   0   8   27.10    7.10
  -2   0  -8   31.90    3.80
  -2   0  -8   38.80    6.10
  -2   0  -8   40.60    7.20
  -2   0  -8   32.30    3.60
   2   0   8   46.70   10.10
  -2   0  -8   38.10    7.30
   3   0   8    1.50    1.90
   3   0   8   -5.60    5.40
  -3   0  -8   -2.20    5.70
  -3   0  -8   -0.60    1.90
  -3   0  -8    1.50    2.50
   3   0   8   -2.80    5.80
  -3   0  -8    7.00    5.60
   3   0   8   -9.20    8.00
   3   0   8   -2.00    1.90
  -4   0  -8  770.32   28.30
  -4   0  -8  749.73   27.50
   4   0   8  800.12   22.30
   4   0   8  785.82   28.30
  -4   0  -8  772.52   22.90
  -4   0  -8  789.62   22.20
   4   0   8  776.72   33.40
   4   0   8  783.62   22.40
   4   0   8  755.82   28.40
   5   0   8  -12.50    9.00
  -5   0  -8    4.80    8.10
   5   0   8  -12.70   13.00
  -5   0  -8  -10.60    8.30
  -5   0  -8    3.50    2.90
   5   0   8   -2.10    2.70
  -5   0  -8   -1.70    3.00
   5   0   8   17.10    8.80
   5   0   8   -4.90    2.70
   6  -1  -8    0.80   19.30
  -6  -1   8    3.00    3.10
  -6  -1   8    0.50    4.50
  -6  -1   8    2.80   12.20
   6  -1  -8   -3.40    3.40
   6  -1  -8    8.80   11.90
   6  -1  -8   -0.10    3.50
  -6  -1   8   -5.80   11.00
  -6   1   8   -9.00   10.00
   6   1  -8   -5.90    3.60
   6   1  -8    0.90   12.40
  -6   1   8   -1.40    2.90
  -6   1   8    7.00   12.10
   6   1  -8   -1.20    3.60
   6   1  -8  -11.80   13.30
  -6   1   8    7.90    4.10
  -5  -1   8   58.09   10.90
   5  -1  -8   57.99   13.30
   5  -1  -8   46.50    5.90
   5  -1  -8   74.19    6.20
  -5  -1   8   60.39    5.40
  -5   1   8   87.69   12.80
  -5   1   8   53.99   10.40
  -5   1   8   66.49    6.70
   5   1  -8   75.79   12.00
   5   1  -8   61.39    5.80
  -5   1   8   51.09    5.10
  -5   1   8   66.99    8.40
   5   1  -8   63.79   11.90
   5   1  -8   69.29    6.70
   4  -1  -8  136.29   11.80
  -4  -1   8  176.68   18.10
  -4  -1   8  170.08   14.70
  -4  -1   8  172.48    8.90
   4  -1  -8  104.29   19.00
  -4  -1   8  167.48   17.00
   4  -1  -8  160.28    7.60
  -4  -1   8  161.88    7.90
   4   1  -8  148.59    7.40
  -4   1   8  149.69   12.80
  -4   1   8  158.98    7.10
   4   1  -8  157.98   16.40
   4   1  -8  158.58   14.70
  -4   1   8  180.08    8.30
  -4   1   8  157.88   14.00
   4   1  -8  160.08    8.00
  -4   1   8  151.18   15.50
   3  -1  -8  175.98   13.20
   3  -1  -8  110.49   17.00
   3  -1  -8  122.19    9.00
   3  -1  -8  138.29    6.50
  -3  -1   8  148.89   14.20
  -3  -1   8  138.69    7.20
  -3   1   8  157.18   13.90
  -3   1   8  137.89   12.00
   3   1  -8  144.29    7.30
   3   1  -8  120.69   13.80
   3   1  -8  153.38   13.50
  -3   1   8  143.79   12.60
   3   1  -8  153.98    6.70
  -3   1   8  156.78    7.50
  -2  -1   8  103.69    5.70
  -2  -1   8  103.29   11.30
   2  -1  -8  100.19    9.60
   2  -1  -8   91.89    5.60
   2  -1  -8   87.29    9.80
   2  -1  -8  100.99    4.90
   2   1  -8  105.19   10.70
   2   1  -8  102.49    5.70
   2   1  -8  100.49    4.90
  -2   1   8  102.69    5.70
   2   1  -8  118.79   10.80
  -2   1   8   92.29    9.50
   1  -1  -8  477.35   18.50
  -1  -1   8  481.15   20.60
   1  -1  -8  476.05   14.10
  -1   1   8  491.25   20.70
   1   1  -8  488.85   13.90
   1   1  -8  488.55   17.90
  -1   1   8  483.65   15.70
   0  -1  -8   27.60    2.50
   0  -1  -8   23.60    5.60
   0   1  -8   22.50    2.80
   0   1  -8   19.20    7.00
   0   1  -8   23.70    4.40
   0   1  -8   21.90    2.40
   0   1   8   11.60    6.60
   0   1  -8   25.60    4.30
   0   1  -8   26.70    2.30
   1  -1   8  152.28   13.90
  -1  -1  -8  177.78    6.10
  -1  -1  -8  162.18   10.20
   1  -1   8  154.48   11.60
  -1   1  -8  181.28    9.70
  -1   1  -8  173.98    6.20
   1   1   8  176.18   14.90
  -1   1  -8  176.58    6.70
  -1   1  -8  193.28   12.50
  -2  -1  -8  233.98    8.20
   2  -1   8  237.88   14.00
  -2  -1  -8  226.78    8.50
   2  -1   8  212.38   16.50
  -2  -1  -8  250.77   14.70
   2  -1   8  233.78    8.70
  -2  -1  -8  231.58   11.40
  -2  -1  -8  234.58    7.30
  -2  -1  -8  238.98   14.80
  -2  -1  -8  231.28   13.00
  -2   1  -8  229.18   12.10
   2   1   8  216.38   16.90
  -2   1  -8  234.68    8.50
  -2   1  -8  231.58    9.50
   2   1   8  220.78   13.60
  -2   1  -8  242.18    8.20
  -2   1  -8  234.08   14.30
  -3  -1  -8   90.59    9.70
   3  -1   8   92.69   12.60
   3  -1   8   99.59    5.20
   3  -1   8  111.79   11.80
   3  -1   8   97.49   10.00
  -3  -1  -8   95.49    9.90
   3  -1   8   84.09    5.10
  -3  -1  -8   94.59    5.30
  -3  -1  -8   94.89    5.60
   3   1   8   99.89    5.60
  -3   1  -8   87.39    5.10
   3   1   8   98.19    5.20
   3   1   8   89.29    9.40
  -3   1  -8   85.49    9.30
   3   1   8   99.09   13.20
  -3   1  -8   98.39    5.50
  -3   1  -8  101.69   10.80
   4  -1   8  152.38    6.80
   4  -1   8  163.98    7.30
   4  -1   8  135.19   13.70
  -4  -1  -8  149.88   13.80
  -4  -1  -8  160.48    7.20
  -4  -1  -8  147.09    7.50
   4  -1   8  131.99   14.10
   4  -1   8  166.08   14.20
  -4  -1  -8  162.88   15.30
   4   1   8  170.58   14.10
  -4   1  -8  156.58    7.40
  -4   1  -8  165.08    6.90
   4   1   8  152.68    7.30
  -4   1  -8  150.48   13.20
  -4   1  -8  161.28   13.80
   4   1   8  130.19   14.70
   4   1   8  120.39   14.90
   4   1   8  155.28    6.80
  -5  -1  -8   30.70   10.00
  -5  -1  -8   43.80    4.40
   5  -1   8   45.30    5.20
   5  -1   8   65.79   14.40
   5  -1   8   32.60    9.00
   5  -1   8   49.00    5.10
  -5  -1  -8   48.60    5.20
   5  -1   8   34.30    9.80
  -5  -1  -8   47.00    9.40
   5   1   8   38.60    4.10
  -5   1  -8   38.50    3.70
   5   1   8   47.90   10.60
  -5   1  -8   26.90    9.40
  -5   1  -8   39.00    4.60
  -5   1  -8   42.50    8.30
   5   1   8   40.80   14.50
   5   1   8   41.50    3.90
   5   1   8   49.50   10.30
  -6  -2   8    5.40   11.60
   6  -2  -8    5.60    3.90
   6  -2  -8    4.80    6.80
  -6  -2   8    4.20    3.40
  -6  -2   8   -2.40   11.60
  -6  -2   8    8.00    3.90
   6   2  -8  -14.30   12.70
  -6   2   8    1.60    3.70
   6   2  -8    0.90    4.10
   6   2  -8   12.60    3.90
  -6   2   8   17.60   12.40
   6   2  -8   -4.00   12.50
  -5  -2   8   38.40    4.50
  -5  -2   8   43.50    4.90
  -5  -2   8   35.40    9.80
   5  -2  -8   38.20    8.00
  -5  -2   8   33.00   10.50
   5  -2  -8   40.90    4.60
  -5   2   8   33.70    4.20
  -5   2   8   46.50   11.50
  -5   2   8   36.30    7.90
   5   2  -8   46.00   12.00
  -5   2   8   52.49    9.80
   5   2  -8   28.50    3.90
   5   2  -8   26.30    4.20
  -5   2   8   32.60    3.60
   5   2  -8   19.40    9.80
  -4  -2   8   36.20    8.80
   4  -2  -8   36.40    3.90
   4  -2  -8   26.30    6.00
  -4  -2   8   46.60    9.50
  -4  -2   8   44.60    5.20
   4   2  -8   37.50    9.60
  -4   2   8   37.30    7.60
  -4   2   8   29.10    3.60
   4   2  -8   36.20    3.90
  -4   2   8   39.00    9.20
   4   2  -8   38.90    4.50
   4   2  -8   40.40    9.30
  -4   2   8   44.10    9.00
  -4   2   8   35.10    4.00
  -3  -2   8   58.09   11.30
   3  -2  -8   67.19    4.60
  -3  -2   8   51.69    6.00
   3   2  -8   59.69    9.40
  -3   2   8   67.69    8.40
  -3   2   8   59.49    5.10
   3   2  -8   72.89    5.40
   3   2  -8   65.59    4.50
  -3   2   8   58.59    9.00
   3   2  -8   74.99    9.60
  -3   2   8   67.79    9.40
   2  -2  -8    7.40    2.40
  -2  -2   8    3.20    2.30
   2  -2  -8    1.70    6.20
  -2   2   8    0.90    5.80
   2   2  -8    4.00    2.00
   2   2  -8    7.80    6.50
  -2   2   8    3.40    6.20
   2   2  -8   10.50    5.50
  -2   2   8    3.60    1.90
   2   2  -8    2.50    1.80
   1  -2  -8   30.40    7.00
   1  -2  -8   24.40    6.30
   1  -2  -8   26.00    2.80
  -1   2   8   20.10    3.00
  -1   2   8   18.70    6.90
   1   2  -8   31.60    5.30
   1   2  -8   27.00    2.60
   0  -2   8  100.09   11.10
   0  -2  -8   97.39   10.10
   0  -2  -8   91.89    4.50
   0   2  -8   80.19    6.30
   0   2  -8   86.09    4.80
   0   2  -8   97.49    6.20
   0   2   8   99.29   11.20
   0   2  -8   75.49    8.90
   0   2  -8   88.39    6.50
   0   2  -8   88.19    3.40
   0   2  -8   93.29    3.40
   1  -2   8 1031.50   35.60
  -1  -2  -8  931.51   27.80
   1  -2   8  990.90   33.30
  -1  -2  -8 1013.20   27.10
  -1  -2  -8 1004.40   30.90
  -1  -2  -8 1032.70   36.10
  -1   2  -8 1022.60   27.50
  -1   2  -8 1047.90   28.80
  -1   2  -8 1064.49   26.60
  -1   2  -8 1004.00   32.10
   1   2   8 1041.10   35.90
   2  -2   8    2.50    6.00
  -2  -2  -8    2.10    7.60
   2  -2   8    8.30    1.90
  -2  -2  -8    2.00    2.40
  -2  -2  -8    6.10    2.20
  -2  -2  -8   22.60    6.70
   2  -2   8   14.10    8.00
  -2   2  -8   10.80    2.20
   2   2   8    9.30    6.10
  -2   2  -8   10.10    5.60
  -2   2  -8    6.20    4.90
  -2   2  -8    6.80    2.20
  -2   2  -8    4.30    1.80
   2   2   8    2.80    7.20
  -2   2  -8   12.40    5.80
  -3  -2  -8  325.87   11.60
   3  -2   8  341.17   16.90
  -3  -2  -8  344.57   17.70
   3  -2   8  306.67   20.70
   3  -2   8  328.07   10.80
   3  -2   8  362.16   17.70
  -3  -2  -8  329.87   16.90
   3  -2   8  324.67   11.00
  -3  -2  -8  324.97   12.70
   3   2   8  328.47   17.00
  -3   2  -8  323.77   16.70
  -3   2  -8  327.27   11.00
   3   2   8  302.27   10.90
   3   2   8  325.17   21.00
  -3   2  -8  331.87   10.70
  -3   2  -8  328.17   15.30
   4  -2   8   12.30    2.60
   4  -2   8    1.80   10.50
  -4  -2  -8   11.30    2.90
  -4  -2  -8   10.50    8.10
   4  -2   8   23.90    8.30
   4  -2   8   11.30    2.40
   4  -2   8   12.80    6.70
  -4  -2  -8    7.30    2.70
  -4  -2  -8   18.00    6.90
  -4   2  -8   10.20    3.00
   4   2   8   19.90    8.20
   4   2   8   14.90    3.20
   4   2   8   15.20    2.80
   4   2   8    9.50   10.70
  -4   2  -8   20.40    7.40
  -4   2  -8   20.30    7.70
  -4   2  -8    7.60    2.60
   4   2   8    4.70    7.90
   5  -2   8   50.49   12.20
   5  -2   8   51.89    5.20
   5  -2   8   23.20   14.20
  -5  -2  -8   59.29   10.40
   5  -2   8   69.89   10.70
  -5  -2  -8   37.70    6.10
  -5  -2  -8   20.40   11.60
  -5  -2  -8   46.00    4.30
   5  -2   8   49.20    5.50
  -5   2  -8   46.60    4.70
   5   2   8   55.89   10.90
   5   2   8   45.90    4.70
   5   2   8   54.39   16.20
  -5   2  -8   43.40    4.80
  -5   2  -8   35.80    9.30
  -5   2  -8   59.49    8.50
   5   2   8   62.29    5.10
   5   2   8   53.69   10.60
  -6  -3   8    3.90    2.50
  -6  -3   8   12.30   13.10
  -6  -3   8    3.40    4.40
   6  -3  -8    3.30    4.30
  -6  -3   8   -2.00    3.80
   6  -3  -8   11.60   14.10
  -6  -3   8    2.00   12.30
  -6  -3   8   -6.10    6.20
  -6   3   8   30.90   12.60
   6   3  -8    0.70   13.10
   6   3  -8   -4.70    4.00
   6   3  -8    2.00    3.50
  -6   3   8    9.40    4.10
   6   3  -8   -2.90   12.30
  -5  -3   8   96.89   13.30
  -5  -3   8  116.19   14.10
  -5  -3   8   88.79    6.30
   5  -3  -8   98.99    6.90
   5  -3  -8   89.39    8.60
   5  -3  -8  103.69   20.00
   5  -3  -8  113.49   16.80
  -5  -3   8  104.29    7.60
   5   3  -8   90.39    6.30
  -5   3   8  115.09   14.30
  -5   3   8  103.09    7.20
  -5   3   8   96.89   12.40
   5   3  -8   90.19   13.80
   5   3  -8  100.69   14.30
   5   3  -8  103.59    7.60
  -5   3   8   84.69    5.80
   4  -3  -8  141.89   22.90
  -4  -3   8  135.99   15.30
   4  -3  -8  133.69   11.30
   4  -3  -8  142.39    7.10
  -4  -3   8  151.58    7.80
  -4  -3   8  132.69   13.20
   4   3  -8  145.29    7.00
   4   3  -8  136.79    7.80
  -4   3   8  139.29   12.10
  -4   3   8  142.29    7.60
  -4   3   8  135.79    6.60
   4   3  -8  151.78   16.80
  -4   3   8  156.98   16.40
  -4   3   8  136.49   14.30
   4   3  -8  136.99   14.30
  -3  -3   8   56.09    8.90
  -3  -3   8   67.89    5.30
   3  -3  -8   79.19   13.50
   3  -3  -8   74.09    7.60
   3   3  -8   60.69    9.00
   3   3  -8   63.19    5.20
  -3   3   8   67.79    5.30
  -3   3   8   71.79    8.90
   3   3  -8   67.29    4.50
  -3   3   8   88.29   11.20
   3   3  -8   71.89    9.90
  -3   3   8   72.49   11.10
   2  -3  -8   64.19    4.90
  -2  -3   8   64.09    4.60
   2  -3  -8   71.59    9.10
  -2   3   8   59.49    9.10
  -2   3   8   67.89    8.60
   2   3  -8   56.09    8.60
   2   3  -8   52.49    7.30
   2   3  -8   69.39    9.20
  -2   3   8   65.19    4.90
   2   3  -8   63.79    3.90
   1  -3  -8   43.00    4.10
   1  -3  -8   48.20    8.10
   1  -3  -8   43.60    4.10
   1  -3  -8   48.50    8.10
  -1   3   8   28.50    5.10
  -1   3   8   41.40    8.20
   1   3  -8   46.00    2.90
   1   3  -8   53.39    5.70
   0  -3  -8    0.80    6.40
   0  -3  -8    7.80    2.10
   0   3  -8    7.30    3.00
   0   3  -8    0.90    6.40
   0   3  -8    5.10    3.10
   0   3  -8    7.50    2.20
   1  -3   8  163.68   14.00
  -1  -3  -8  162.08   15.50
  -1  -3  -8  146.49    7.30
   1  -3   8  149.79   12.30
   1   3   8  159.98   14.80
  -1   3  -8  173.88   11.80
  -1   3  -8  158.58    6.40
  -1   3  -8  172.38    7.10
   2  -3   8  228.18   16.80
   2  -3   8  214.58    8.20
   2  -3   8  211.18   14.10
  -2  -3  -8  237.98   15.80
  -2  -3  -8  192.08    8.40
  -2  -3  -8  227.88    8.30
   2  -3   8  251.27   11.40
  -2  -3  -8  216.28   15.70
  -2   3  -8  210.58    8.20
  -2   3  -8  222.58   10.30
   2   3   8  235.58   17.70
  -2   3  -8  209.88    9.90
  -2   3  -8  227.68    7.20
  -2   3  -8  243.18   13.90
   3  -3   8  132.49    6.10
   3  -3   8  120.29    5.80
   3  -3   8  118.99   13.20
  -3  -3  -8  132.69   13.90
  -3  -3  -8  119.89   11.90
   3  -3   8  127.49   12.50
   3  -3   8  135.29   12.50
  -3  -3  -8  124.49   13.60
  -3  -3  -8  100.49    7.20
  -3  -3  -8  130.99    6.90
  -3   3  -8  127.59   10.00
  -3   3  -8  133.99    6.10
  -3   3  -8  129.59    5.70
  -3   3  -8  139.09   12.80
   3   3   8  113.69   12.20
   3   3   8  130.09    6.20
   3   3   8  136.49   24.80
  -4  -3  -8  332.87   11.30
   4  -3   8  306.27   10.60
   4  -3   8  275.37   17.60
  -4  -3  -8  317.17   18.20
  -4  -3  -8  309.87   11.70
   4  -3   8  271.67   22.70
   4  -3   8  311.87   17.10
   4  -3   8  292.87   10.40
  -4  -3  -8  285.47   19.10
   4   3   8  320.87   18.10
   4   3   8  280.67   19.50
  -4   3  -8  326.17   16.00
   4   3   8  263.57   22.90
   4   3   8  305.67   10.80
   4   3   8  307.47   11.80
  -4   3  -8  316.87   10.40
  -4   3  -8  320.67   16.70
  -4   3  -8  313.77   10.70
   6  -4  -8   18.90    4.60
  -6  -4   8    5.60    4.00
  -6  -4   8   11.80    4.40
  -6  -4   8  -10.80   12.00
   6  -4  -8   -2.00   13.60
  -6   4   8    1.60   13.10
   6   4  -8   34.30   13.60
  -6   4   8    2.40    4.50
   6   4  -8    8.60    4.00
   6   4  -8  -17.70   13.80
   6   4  -8    2.80    4.40
  -5  -4   8  108.69   14.20
   5  -4  -8  115.29   20.90
   5  -4  -8  123.69    7.60
   5  -4  -8  116.69    9.20
  -5  -4   8  117.09    7.10
  -5  -4   8  139.09   14.70
  -5  -4   8  140.09    8.70
  -5   4   8  133.89   14.70
   5   4  -8  130.59    7.50
   5   4  -8  123.99    8.40
  -5   4   8  112.79    6.50
  -5   4   8  133.59   13.10
  -5   4   8  135.39    8.30
   5   4  -8  138.99   16.20
   5   4  -8  152.18   15.60
  -4  -4   8   50.19   10.60
  -4  -4   8   33.00    4.30
  -4   4   8   38.50    7.60
   4   4  -8   39.40    4.50
  -4   4   8   46.90   10.20
  -4   4   8   42.00    4.60
  -4   4   8   38.40    4.30
  -4   4   8   43.60    8.90
   4   4  -8   26.10    9.50
   4   4  -8   44.20    9.00
   4   4  -8   37.40    4.50
   3  -4  -8    2.60    7.50
  -3  -4   8    0.10    7.90
  -3  -4   8   -0.10    2.40
   3  -4  -8    1.80    2.40
   3   4  -8   -0.40    7.50
  -3   4   8   -2.80    6.30
  -3   4   8    7.00    2.90
   3   4  -8    3.70    6.50
   3   4  -8    0.20    2.30
  -3   4   8    6.20    6.60
   3   4  -8    6.70    2.10
  -3   4   8    4.80    8.00
  -2  -4   8   55.19    4.50
   2  -4  -8   66.69   10.00
   2  -4  -8   49.90    4.80
  -2   4   8   47.20    5.30
  -2   4   8   64.79    8.40
   2   4  -8   53.89    7.20
   2   4  -8   60.09    9.00
   2   4  -8   50.69    3.60
  -2   4   8   57.19   10.80
   1  -4  -8   10.70    2.70
   1  -4  -8    4.60    7.30
   1  -4  -8   18.60    8.30
  -1   4   8   15.00    7.20
   1   4  -8   11.20    1.70
   1   4  -8    4.20    4.40
  -1   4   8   11.40    2.60
   0  -4  -8   87.59    5.10
   0  -4  -8  121.29   13.20
   0   4  -8   71.69    4.80
   0   4   8   95.09   10.30
   0   4  -8   61.19    9.00
   1  -4   8  322.57   18.80
  -1  -4  -8  318.77   11.00
  -1  -4  -8  320.67   17.80
   1  -4   8  331.07   17.10
   1   4   8  334.07   19.30
  -1   4  -8  350.46   10.70
  -1   4  -8  371.46   16.30
  -1   4  -8  347.67   17.30
  -2  -4  -8  106.39   11.20
   2  -4   8   96.09    5.50
   2  -4   8  101.69   10.50
   2  -4   8   98.99   11.70
   2  -4   8  116.29    6.10
  -2  -4  -8  103.49    6.20
  -2   4  -8  115.99   11.60
  -2   4  -8  105.69    4.40
  -2   4  -8  110.19    5.50
  -2   4  -8  108.19    9.40
  -2   4  -8  107.59   10.00
   2   4   8  109.19   13.20
  -2   4  -8  112.89    7.50
  -2   4  -8  113.99    4.40
  -2   4  -8  111.39    4.80
  -3  -4  -8   75.49    8.40
  -3  -4  -8   87.69   16.60
   3  -4   8   89.29    5.10
   3  -4   8   99.49   14.20
   3  -4   8   93.09    9.50
   3  -4   8   93.59    5.00
   3  -4   8   83.29    9.60
   3   4   8   80.09   10.10
  -3   4  -8   76.19    5.00
   3   4   8   94.99    5.40
  -3   4  -8   82.19    9.20
  -3   4  -8   88.79    4.70
   3   4   8   96.19   13.50
  -3   4  -8   89.49    9.30
  -4  -4  -8  361.06   12.70
  -4  -4  -8  355.16   19.70
   4  -4   8  333.97   24.00
  -4  -4  -8  363.36   13.40
   4  -4   8  357.06   11.80
   4  -4   8  340.57   19.70
  -4  -4  -8  393.66   21.80
   4  -4   8  369.76   12.00
   4  -4   8  404.06   18.50
  -4   4  -8  369.46   17.20
   4   4   8  373.66   12.50
  -4   4  -8  378.26   18.10
  -4   4  -8  365.06   11.70
   4   4   8  370.46   23.70
   4   4   8  362.26   20.80
   4   4   8  365.96   25.10
   4   4   8  361.26   13.10
   4   4   8  359.96   11.70
   4   4   8  345.97   19.30
  -4   4  -8  381.56   12.00
  -5  -5   8  221.48   21.70
   5  -5  -8  254.57   26.20
  -5  -5   8  281.77   22.70
  -5  -5   8  279.67   11.20
  -5  -5   8  289.97   12.30
  -5  -5   8  280.77    9.30
  -5  -5   8  284.87   13.80
   5   5  -8  267.87   11.00
  -5   5   8  285.77   24.20
   5   5  -8  263.17   21.10
   5   5  -8  264.37   24.70
  -5   5   8  295.97   18.90
  -5   5   8  266.37   11.80
   5   5  -8  247.68   12.00
  -5   5   8  276.27   10.20
  -4  -5   8  145.09    9.50
  -4  -5   8  104.49   13.30
   4  -5  -8  113.49   14.10
  -4  -5   8  101.49    7.20
   4  -5  -8  100.39    7.40
   4   5  -8  128.29   14.90
  -4   5   8  114.49   13.30
  -4   5   8  104.29    7.30
   4   5  -8   95.99    6.00
  -4   5   8  112.99    6.00
   4   5  -8  106.09   12.70
  -4   5   8  107.69   11.70
   4   5  -8  106.19    7.40
  -4   5   8  108.99   12.10
  -3  -5   8  283.87   11.10
   3  -5  -8  261.97   18.50
  -3  -5   8  304.37   20.50
   3  -5  -8  293.67   11.00
  -3   5   8  272.87   11.30
  -3   5   8  267.97   16.30
   3   5  -8  292.97   16.40
   3   5  -8  280.37   11.10
  -3   5   8  285.57   15.90
   3   5  -8  285.57   19.40
  -3   5   8  274.27   20.00
   3   5  -8  275.47    9.80
   2  -5  -8    6.90    7.60
   2  -5  -8    1.20    2.50
   2   5  -8   -1.60    5.50
   2   5  -8    2.70    1.80
  -2   5   8    1.90    6.60
  -2   5   8   -1.70    2.60
  -2   5   8    0.60    6.40
   1  -5  -8  736.43   29.30
   1   5  -8  735.53   20.10
  -1   5   8  781.62   28.40
  -1   5   8  747.63   22.60
   1   5  -8  739.73   23.30
   0  -5  -8    4.00    9.00
   0  -5  -8    6.20    2.90
   0   5   8    0.70    7.20
   1  -5   8  416.66   19.40
  -1  -5  -8  389.26   23.90
  -1  -5  -8  331.87   13.40
   1   5   8  428.66   21.90
  -1   5  -8  407.06   12.10
  -1   5  -8  406.36   17.40
  -1   5  -8  403.76   19.00
  -2  -5  -8   20.90   12.60
   2  -5   8    6.10    2.10
   2  -5   8    6.00    2.20
  -2  -5  -8    6.60    4.40
   2  -5   8    9.30    7.50
   2  -5   8   12.10    7.30
   2  -5   8    7.70    7.70
   2   5   8    0.70    8.40
  -2   5  -8    8.30    2.40
  -2   5  -8    8.10    1.70
  -2   5  -8    9.70    6.30
  -2   5  -8    4.80    5.40
   3  -5   8  386.36   19.30
   3  -5   8  367.76   12.40
   3  -5   8  343.27   22.50
   3  -5   8  367.16   12.20
   3  -5   8  382.66   18.20
   3   5   8  376.16   23.80
   3   5   8  387.06   12.90
  -3   5  -8  389.66   15.20
   3   5   8  370.46   19.60
  -3   5  -8  381.76   12.40
  -3   5  -8  392.06   11.30
  -3   5  -8  388.36   18.70
   4  -5   8   11.50    8.70
   4  -5   8   -2.80    2.30
   4  -5   8    1.70    2.60
  -4  -5  -8    0.00    2.90
   4  -5   8   11.80   11.40
  -4  -5  -8   -0.20    8.70
  -4  -5  -8   -3.40    9.50
  -4  -5  -8    3.70    3.60
   4  -5   8    3.30    7.40
  -4   5  -8    3.30    7.40
  -4   5  -8   -3.40    2.70
   4   5   8   -4.90   13.10
  -4   5  -8   -4.10    2.40
   4   5   8    8.50    9.20
   4   5   8   -3.20    2.60
   4   5   8    0.60    2.80
  -4   5  -8   -3.90    7.30
   4   5   8   -3.20    8.20
  -5  -6   8    2.60    4.00
  -5  -6   8    0.30    2.50
   5  -6  -8    9.70   11.90
  -5  -6   8    3.40    5.80
  -5  -6   8    0.00    3.40
  -5  -6   8    1.40   11.50
  -5  -6   8  -14.30   11.00
   5  -6  -8    3.00    3.90
   5   6  -8  -14.50   11.30
  -5   6   8   -0.80    9.10
  -5   6   8   -7.80   11.50
   5   6  -8    1.40    4.20
   5   6  -8    5.20   13.40
  -5   6   8   -0.60    3.90
   5   6  -8   -6.20    3.10
  -5   6   8   -0.60    2.80
   4  -6  -8   48.20   10.80
  -4  -6   8   10.80   10.00
  -4  -6   8   14.70    4.20
  -4  -6   8   31.70    4.30
   4  -6  -8   35.20    4.70
  -4   6   8   39.30   11.60
   4   6  -8   26.50    4.70
  -4   6   8   25.50    4.20
  -4   6   8   16.50    8.90
   4   6  -8   15.30    9.20
  -4   6   8   40.30    8.10
  -4   6   8   26.90    3.40
   4   6  -8   25.90    3.50
   4   6  -8   37.90   12.80
  -3  -6   8  139.39    7.40
   3  -6  -8  133.99    7.40
   3  -6  -8  150.28   16.80
   3   6  -8  128.59   13.80
  -3   6   8  133.39   17.10
  -3   6   8  133.09    6.40
   3   6  -8  139.39    6.30
  -3   6   8  118.59   13.40
   3   6  -8  114.49   12.60
  -3   6   8  115.99    8.60
  -3   6   8  102.59   11.00
   2  -6  -8   12.00    8.80
   2  -6  -8    8.20    2.80
  -2   6   8   23.70    8.00
  -2   6   8   13.60    6.90
   2   6  -8    7.80    6.00
   2   6  -8   12.40    2.10
  -2   6   8   10.90    2.90
  -2   6   8   20.90    8.10
   1  -6  -8   -1.20    7.20
   1  -6  -8    2.70    2.40
   1   6  -8   -0.80    4.40
   1   6  -8    0.70    1.40
  -1   6   8    0.80    2.20
  -1   6   8    8.60   13.80
   0   6   8   29.00    8.60
   1  -6   8  212.38   15.90
  -1   6  -8  203.98   15.10
  -1   6  -8  213.68   14.10
   1   6   8  218.58   17.50
  -1   6  -8  228.78    8.00
  -1   6  -8  227.08    7.90
  -1   6  -8  237.78   14.40
   2  -6   8   47.60    9.00
   2  -6   8   59.09   12.50
   2  -6   8   38.60    7.90
   2  -6   8   49.80    4.30
   2  -6   8   40.70    4.20
   2   6   8   46.70   20.40
  -2   6  -8   40.00    8.20
  -2   6  -8   41.40    4.30
   3  -6   8  275.17   17.20
   3  -6   8  250.57   20.30
   3  -6   8  256.97   15.70
   3  -6   8  243.48    8.80
   3  -6   8  230.58    8.90
   3   6   8  244.28   22.50
  -3   6  -8  260.47   16.30
  -3   6  -8  238.38    8.80
  -3   6  -8  177.78   11.30
   3   6   8  225.38    9.60
  -3   6  -8  192.98    7.40
  -4  -6  -8  254.67   11.10
  -4  -6  -8  218.18   18.50
   4  -6   8  252.97   18.60
   4  -6   8  202.58   22.60
   4  -6   8  248.78    9.50
   4  -6   8  265.97   17.10
   4  -6   8  255.27    9.20
  -4   6  -8  257.07    9.10
   4   6   8  234.78   19.90
   4   6   8  242.08    9.90
   4   6   8  285.87   19.50
   4   6   8  215.08   33.20
   4   6   8  253.37    9.60
  -4   6  -8  258.37   16.50
  -5  -7   8   -2.50    3.70
  -5  -7   8  -11.70   11.90
  -5  -7   8    1.20    2.50
   5  -7  -8  -11.40   11.30
  -5  -7   8    2.00    4.50
  -5  -7   8   -4.90    6.30
  -5  -7   8  -29.40   13.30
   5  -7  -8    4.20    4.50
   5   7  -8   -2.00    3.20
  -5   7   8    5.20    4.30
  -5   7   8    4.20   12.60
   5   7  -8    6.00   14.30
   5   7  -8    1.80    4.70
   5   7  -8   -7.00   11.40
   4  -7  -8  150.68    8.70
   4  -7  -8  143.29   14.50
  -4  -7   8  165.28   16.40
  -4  -7   8  170.18    9.20
  -4  -7   8  147.29   16.90
  -4   7   8  143.89   13.50
   4   7  -8  160.58    9.20
   4   7  -8  145.89   14.70
   4   7  -8  161.28    7.80
  -4   7   8  124.79   10.00
   4   7  -8  180.98   18.50
  -4   7   8  132.29   16.50
  -4   7   8  160.98    7.60
  -3  -7   8    0.40    2.40
   3  -7  -8    8.50    9.40
   3  -7  -8   -2.70    2.80
  -3   7   8   10.70    8.50
  -3   7   8    7.20    7.90
  -3   7   8    2.50    3.00
  -3   7   8   -1.70    7.70
   3   7  -8   -3.70    6.90
  -3   7   8    3.20    2.10
   3   7  -8    5.60    2.40
   2  -7  -8   35.10    3.90
   2  -7  -8   40.60    9.90
  -2   7   8   38.60    9.30
   2   7  -8   30.70    7.10
   2   7  -8   39.90    3.70
  -2   7   8   30.40    7.90
  -2   7   8   32.60    3.90
   1  -7  -8   -0.10    2.00
   1  -7  -8    5.50    7.20
  -1   7   8    1.00    7.60
  -1   7   8    2.50    8.00
   1   7  -8    1.00    1.40
   1   7  -8   12.20    5.00
  -1   7   8   -2.30    2.30
   0   7  -8   18.30    2.50
   0   7   8   25.50    9.50
   0   7  -8   17.30    8.30
   1  -7   8   95.09    5.60
   1  -7   8   98.29   11.80
  -1   7  -8  112.49   13.00
  -1   7  -8   93.49    5.20
  -1   7  -8   85.39    9.40
  -1   7  -8   98.99    5.60
   1   7   8   85.29   12.40
  -1   7  -8   62.89    9.40
   2  -7   8  371.76   12.70
   2  -7   8  378.26   12.60
   2  -7   8  400.56   20.60
   2  -7   8  380.26   18.90
  -2   7  -8  374.16   12.60
   2   7   8  378.66   24.60
  -2   7  -8  355.36   19.80
   3  -7   8  109.99    6.30
   3  -7   8  115.69   11.90
   3  -7   8  102.89   10.50
   3  -7   8  112.99   14.90
   3  -7   8  104.59    6.20
  -3   7  -8  112.19    6.00
   3   7   8  118.59   16.20
  -3   7  -8  102.99   11.00
   4  -8  -8   52.49   12.10
   4  -8  -8   40.60    4.90
  -4  -8   8   64.49   13.30
  -4  -8   8   59.89    6.00
   4   8  -8   43.60   14.30
   4   8  -8   37.70    5.10
   4   8  -8   26.50   13.50
  -4   8   8   58.99   13.40
  -4   8   8   47.30    5.90
   4   8  -8   43.10    4.60
  -4   8   8   46.30    4.50
  -4   8   8   46.50   10.90
   3  -8  -8   18.10   10.90
  -3  -8   8   17.90    3.90
   3  -8  -8    7.70    3.40
  -3   8   8   14.30    9.20
  -3   8   8   14.40    3.00
   3   8  -8   15.40    3.80
  -3   8   8   11.70    3.70
  -3   8   8   26.90   10.30
  -3   8   8   18.40    9.20
   3   8  -8   17.60   10.50
   3   8  -8    3.00   10.70
   2  -8  -8   12.90    3.30
   2  -8  -8   18.30    9.90
  -2   8   8   15.70    3.60
   2   8  -8   14.70    2.50
  -2   8   8   28.90    8.90
  -2   8   8   24.30    9.60
   2   8  -8   23.90    7.50
  -2   8   8   14.60    2.80
   1  -8  -8   27.40   10.30
   1  -8  -8   15.30    3.30
   1   8  -8    9.90    2.60
   1   8  -8   16.70    5.40
  -1   8   8   11.10    9.30
   1   8  -8   -0.70    9.10
  -1   8   8   19.20    3.70
   1   8  -8   12.90    1.80
  -1   8   8  -11.60    8.30
   0   8  -8   81.59   10.90
   0   8  -8   87.49    5.50
   0   8   8   78.09    6.60
   0   8   8   98.69   12.80
   1  -8   8  316.07   20.10
   1  -8   8  317.47   11.70
   1   8   8  323.37   35.90
  -1   8  -8  333.07   10.60
  -1   8  -8  335.47   17.50
   2  -8   8   11.30    3.00
   2  -8   8   -5.00    9.50
   2  -8   8   -8.60    9.00
   2  -8   8    5.60    2.80
  -2   8  -8    5.80    2.70
   2   8   8   10.10   12.00
  -2   8  -8    1.30    8.30
   3  -8   8  102.79    6.50
   3  -8   8  113.29   13.80
   3  -8   8  101.09    6.20
   3  -8   8  103.29   11.30
   3  -8   8   91.19   13.80
  -3   8  -8  115.89   12.60
  -3   8  -8  100.09    6.60
   3   8   8  120.99   24.20
   4  -9  -8   44.60    5.50
  -4  -9   8   56.89    6.00
   4  -9  -8   41.00   13.80
   4   9  -8   56.59   16.10
  -4   9   8   64.79    6.70
   4   9  -8   38.80   12.10
   4   9  -8   62.89    7.00
   4   9  -8   52.49    5.10
  -4   9   8   48.50   11.40
  -4   9   8   63.79   14.80
  -4   9   8   46.10    4.60
  -3  -9   8   62.19    6.40
   3  -9  -8   73.49    7.30
   3  -9  -8   58.39   13.40
   3   9  -8   41.20   12.60
  -3   9   8   72.59   11.30
   3   9  -8   51.59    5.50
  -3   9   8   61.59    6.00
   3   9  -8   64.09   18.20
  -3   9   8   49.50   10.80
  -3   9   8   58.89    5.30
  -3   9   8   38.50   11.90
   3   9  -8   59.89   10.60
  -3   9   8   51.09    6.20
   2  -9  -8  101.19    7.50
   2  -9  -8   99.69   14.40
   2   9  -8   92.69    6.70
  -2   9   8  105.59   12.20
   2   9  -8   99.99   10.40
  -2   9   8  102.59    8.20
   2   9  -8  104.79    5.40
  -2   9   8   98.39   13.40
   2   9  -8  104.49   14.00
  -2   9   8   84.09    6.90
  -2   9   8  106.59    6.20
  -2   9   8  115.19   15.00
   1  -9  -8  387.06   13.90
   1  -9  -8  372.56   23.80
  -1   9   8  348.37   22.60
   1   9  -8  351.96   12.70
  -1   9   8  356.56   14.20
   1   9  -8  358.76   19.20
  -1   9   8  355.56   24.20
   1   9  -8  368.36   22.20
   1   9  -8  366.36   12.10
   0  -9  -8   18.30   19.90
   0   9   8   13.60   10.10
   0   9  -8   -6.80   10.70
   0   9  -8   12.50    3.60
   1  -9   8  122.69    7.20
   1  -9   8  140.69   14.70
  -1   9  -8  114.29   12.40
   1   9   8  119.19   15.00
  -1   9  -8  131.39    6.80
  -1   9  -8  114.99   12.80
   2  -9   8   76.19   10.70
   2  -9   8   56.49    6.10
   2  -9   8   69.79    5.90
   2  -9   8   81.49   12.70
  -2   9  -8   67.29   12.10
   2   9   8   80.39   15.00
  -2   9  -8   75.99    6.40
   3 -10  -8   38.60   13.50
   3 -10  -8    7.80    4.20
  -3 -10   8    1.10    3.70
   3  10  -8    0.50   13.00
  -3  10   8   -4.20   10.50
  -3  10   8  -11.10   12.80
  -3  10   8    7.80    5.00
   3  10  -8   -1.50    3.10
  -3  10   8   -1.60    3.10
   3  10  -8    9.40   10.30
   2 -10  -8   52.49    5.80
   2 -10  -8   42.60   12.70
  -2  10   8   81.49   15.50
   2  10  -8   38.70   13.30
   2  10  -8   60.99    6.10
   2  10  -8   62.69    4.70
  -2  10   8   57.89   11.10
  -2  10   8   59.89   12.60
  -2  10   8   57.19    5.60
   2  10  -8   58.69    9.60
  -2  10   8   56.09    5.30
  -2  10   8   74.29    8.30
   1 -10  -8   10.80    3.30
   1 -10  -8   10.80   11.60
  -1  10   8    6.80    2.60
   1  10  -8   16.30   11.80
  -1  10   8    0.70    8.50
  -1  10   8    8.10   10.80
   1  10  -8   12.90    3.40
  -1  10   8   16.10    4.00
   0 -10  -8   21.80    4.20
   0 -10   8   18.80   12.80
   0 -10  -8   18.80   11.70
   0  10  -8   15.40    3.30
   0  10   8   11.80    4.10
   0  10   8   -3.30   10.20
   0  10  -8    2.80   10.20
   0  10   8   13.50   11.90
   0  10   8    8.70    3.90
   1 -10   8   19.00    3.90
   1 -10   8   26.60   11.60
   1  10   8    5.50   13.40
   1  10   8   11.50    4.70
   2 -10   8    4.30   11.40
   2 -10   8    9.70   10.20
   2 -10   8    7.80    3.50
   2 -10   8   10.90    3.00
   2  10   8   13.60    6.00
  -2  10  -8    2.90    3.20
   2  10   8  -31.70   18.10
  -2  10  -8    9.60   11.20
   2 -11  -8  337.27   28.30
   2 -11  -8  296.87   13.50
  -2  11   8  322.27   22.60
   2  11  -8  333.07   24.90
   2  11  -8  324.47   12.70
  -2  11   8  314.07   13.20
  -2  11   8  290.07   29.70
  -2  11   8  312.37   11.90
  -2  11   8  307.07   25.00
  -2  11   8  331.07   17.00
   1 -11  -8  253.87   12.00
   1 -11  -8  274.47   26.20
  -1  11   8  228.08   13.30
   1  11  -8  238.08   10.40
  -1  11   8  225.38   19.80
  -1  11   8  236.18   23.40
  -1  11   8  237.88   12.40
   1  11  -8  278.17   23.70
  -1  11   8  178.28   18.70
   0 -11  -8   -7.00   12.20
   0 -11  -8   -4.60    3.60
   0  11  -8    4.20    3.40
   0  11   8   -3.00    5.00
   0  11   8   -3.60    4.30
   0  11  -8  -12.30   11.60
   0  11   8   19.50   14.00
   0  11   8   10.40   12.70
  -5   0   9 1345.97   46.80
   5   0  -9 1236.18   36.40
  -5   0   9 1256.57   44.40
  -5   0   9 1250.87   41.60
   5   0  -9 1292.47   48.30
  -5   0   9 1242.08   35.80
   5   0  -9 1233.58   36.80
   5   0  -9 1285.67   46.60
  -5   0   9 1332.17   37.00
   4   0  -9    0.10    2.70
  -4   0   9   -9.90    8.50
   4   0  -9   18.10   10.00
  -4   0   9    1.40    3.10
  -4   0   9   -1.90    8.10
  -4   0   9   -2.20    2.50
   4   0  -9   -0.60    2.90
  -4   0   9   -6.50    7.40
   4   0  -9   16.70   10.00
   3   0  -9  432.66   15.20
   3   0  -9  473.95   24.30
  -3   0   9  400.46   24.40
   3   0  -9  438.16   25.40
  -3   0   9  497.75   23.80
   3   0  -9  453.45   15.80
  -3   0   9  485.45   15.90
   2   0  -9    2.80    6.50
   2   0  -9    2.00    7.60
  -2   0   9   -3.40    2.10
   2   0  -9    1.80    2.10
  -2   0   9   -7.10    7.30
   1   0  -9   34.30    6.50
  -1   0   9    9.60    7.90
   1   0  -9    4.30    6.10
   1   0  -9   11.20    2.40
   1   0  -9   16.90    2.30
   0   0  -9    7.30    4.90
   0   0  -9    0.60    5.80
   0   0   9   -7.60    7.20
   0   0  -9   -2.10    1.90
   0   0  -9   -0.90    1.50
   1   0   9   -8.40    8.20
  -1   0  -9    1.10    1.20
  -1   0  -9    4.50    2.20
  -1   0  -9   -3.50    5.20
  -1   0  -9   13.10    4.00
  -2   0  -9    1.10    8.40
  -2   0  -9    1.30    2.40
  -2   0  -9    6.10    6.10
   2   0   9   -4.30    6.60
   2   0   9   18.10   10.30
  -2   0  -9   -1.60    2.60
   2   0   9    1.10    2.10
  -2   0  -9    0.80    6.60
  -3   0  -9  252.37    9.80
   3   0   9  234.68   21.10
  -3   0  -9  243.78    9.40
  -3   0  -9  272.47   15.60
   3   0   9  235.18   11.00
   3   0   9  235.18   17.30
   3   0   9  256.37   24.90
   3   0   9  245.78    9.50
  -3   0  -9  275.87   18.40
   4   0   9   -9.50    9.00
   4   0   9    4.70    2.70
  -4   0  -9  -13.60    9.00
   4   0   9    5.60   13.40
  -4   0  -9    3.70    3.10
   4   0   9    1.60    2.90
  -4   0  -9   -1.80    8.10
   4   0   9   -7.40    8.90
  -4   0  -9   -3.80    2.80
   5  -1  -9   71.59    6.70
  -5  -1   9   61.99   13.30
  -5  -1   9   65.69    6.40
   5  -1  -9   66.39   13.60
  -5  -1   9   71.09    6.80
   5  -1  -9   55.29   14.20
   5  -1  -9   44.90    5.50
  -5  -1   9   60.39   12.50
   5   1  -9   68.39   12.70
  -5   1   9   72.49   12.00
  -5   1   9   67.59   13.80
   5   1  -9   67.29    7.90
  -5   1   9   51.29   12.90
   5   1  -9   62.59   13.90
  -5   1   9   69.89    7.90
   5   1  -9   53.09    5.30
  -5   1   9   57.69    6.20
   4  -1  -9  455.95   15.50
   4  -1  -9  469.55   25.20
  -4  -1   9  404.06   34.40
   4  -1  -9  468.15   16.30
  -4  -1   9  472.75   16.20
   4  -1  -9  460.95   26.40
  -4  -1   9  469.35   15.60
  -4  -1   9  466.15   22.20
  -4  -1   9  465.15   25.40
   4   1  -9  447.26   16.20
   4   1  -9  448.56   24.10
  -4   1   9  448.76   15.10
  -4   1   9  503.95   25.80
  -4   1   9  447.96   23.10
  -4   1   9  416.36   21.30
  -4   1   9  464.35   16.20
   4   1  -9  457.85   26.30
   4   1  -9  466.85   15.40
   3  -1  -9  326.97   20.90
   3  -1  -9  344.47   19.00
   3  -1  -9  310.37   12.40
  -3  -1   9  313.27   20.20
   3  -1  -9  320.77   11.50
  -3  -1   9  337.87   12.60
  -3  -1   9  324.57   18.10
   3   1  -9  355.56   21.80
  -3   1   9  323.17   20.90
   3   1  -9  307.07   11.30
  -3   1   9  311.77   18.60
   3   1  -9  325.37   12.50
  -3   1   9  329.97   12.40
   3   1  -9  335.47   19.10
   2  -1  -9  506.25   15.60
   2  -1  -9  546.55   18.50
   2  -1  -9  503.25   24.00
  -2  -1   9  511.65   23.20
   2  -1  -9  524.25   21.50
  -2  -1   9  499.75   16.70
   2   1  -9  482.35   20.90
   2   1  -9  500.45   15.30
   2   1  -9  483.95   24.20
  -2   1   9  514.95   23.00
  -2   1   9  531.25   16.90
   1  -1  -9   75.39    8.30
   1  -1  -9   84.99    9.20
   1  -1  -9   82.59    4.90
  -1  -1   9   61.59   10.30
   1   1  -9   78.99    4.50
   1   1  -9   84.79    8.40
   1   1  -9   78.29    4.20
  -1   1   9   78.49   10.90
   1   1  -9   83.69    8.10
   0  -1   9   92.49   11.40
   0  -1  -9  104.49    4.90
   0  -1  -9  118.69   11.60
   0   1  -9  100.09    9.70
   0   1  -9   94.09    8.30
   0   1   9  112.39   12.20
   0   1  -9   89.29    4.90
   0   1  -9   97.69    4.10
   1  -1   9   33.80    9.00
  -1   1  -9   36.70    6.20
  -1   1  -9   34.70    3.60
   1   1   9   33.90    9.90
  -2  -1  -9  712.43   20.70
   2  -1   9  728.13   21.10
  -2  -1  -9  684.73   28.00
  -2  -1  -9  722.73   25.70
   2  -1   9  709.33   27.90
   2  -1   9  736.73   31.40
   2   1   9  718.53   31.00
  -2   1  -9  715.33   24.10
  -2   1  -9  730.13   20.10
   2   1   9  697.83   27.50
  -2   1  -9  718.83   27.90
   3  -1   9   59.59    9.80
  -3  -1  -9   49.99   10.00
   3  -1   9   59.19    5.00
  -3  -1  -9   59.79    9.60
  -3  -1  -9   56.29    5.30
   3  -1   9   71.99   12.90
  -3  -1  -9   54.89    5.20
  -3   1  -9   60.69    5.00
   3   1   9   47.10    9.60
  -3   1  -9   54.99    5.20
   3   1   9   57.49    4.90
  -3   1  -9   69.19    8.90
   3   1   9   39.00   11.70
   3   1   9   54.79    4.60
  -3   1  -9   57.09    9.20
  -4  -1  -9   34.20   10.40
   4  -1   9   39.00    4.10
   4  -1   9   36.70   13.30
   4  -1   9   42.40    4.10
   4  -1   9   64.39   10.80
   4  -1   9   70.09   10.90
  -4  -1  -9   39.10    9.70
  -4  -1  -9   43.40    4.70
  -4  -1  -9   39.40    4.40
   4   1   9   37.80    3.90
  -4   1  -9   36.10    4.30
  -4   1  -9   49.99    5.50
  -4   1  -9   23.00    9.50
  -4   1  -9   46.10    9.40
   4   1   9   36.70    4.30
   4   1   9   43.70   10.00
   4   1   9   26.70   21.10
   4   1   9   42.40   10.30
   5  -2  -9    7.60   12.20
   5  -2  -9    6.90   12.60
  -5  -2   9    8.90    4.10
  -5  -2   9   15.90   11.80
  -5  -2   9    1.70    3.30
   5  -2  -9    8.60    3.70
  -5  -2   9   -5.30   11.30
   5  -2  -9   14.60    4.20
  -5   2   9   15.20    4.60
  -5   2   9   15.30    3.30
   5   2  -9    5.90    4.20
   5   2  -9    6.30    3.50
   5   2  -9   17.80   12.80
   5   2  -9   12.50   12.00
  -5   2   9   10.40   10.50
  -5   2   9   21.70   12.80
   4  -2  -9  153.08    7.90
  -4  -2   9  161.78   17.00
  -4  -2   9  158.38    8.70
  -4  -2   9  137.09    7.70
   4  -2  -9  157.78    8.80
  -4  -2   9  158.88   16.10
   4  -2  -9  164.28   18.10
   4  -2  -9  166.48   16.10
  -4   2   9  138.99   14.10
   4   2  -9  175.58   19.40
   4   2  -9  141.69    7.60
  -4   2   9  147.09   16.10
  -4   2   9  146.29    7.30
  -4   2   9  145.59    8.40
   4   2  -9  145.19    8.60
   4   2  -9  138.29   14.20
  -4   2   9  177.78   19.20
   3  -2  -9   54.49    5.10
   3  -2  -9   54.99    5.80
  -3  -2   9   61.29   10.70
   3  -2  -9   50.49    9.60
   3  -2  -9   67.69   11.50
  -3  -2   9   56.29    5.80
   3   2  -9   62.89    9.80
   3   2  -9   56.59    4.80
  -3   2   9   45.70    8.90
   3   2  -9   51.19    5.40
  -3   2   9   46.10    5.50
  -3   2   9   58.69   10.60
   3   2  -9   47.80   10.80
   2  -2  -9  832.12   24.90
   2  -2  -9  874.31   32.90
  -2  -2   9  837.42   31.70
  -2   2   9  787.62   31.20
  -2   2   9  892.71   37.50
   2   2  -9  790.02   28.60
   2   2  -9  833.02   23.40
  -2   2   9  851.71   25.00
   1  -2  -9    9.00    8.00
  -1  -2   9    9.40    7.40
   1  -2  -9    3.90    2.60
   1   2  -9   -2.20    5.30
   1   2  -9    4.90    1.80
  -1   2   9    2.70    7.40
   0  -2  -9 1161.58   35.70
   0  -2  -9 1175.68   30.90
   0  -2   9 1131.79   39.70
   0   2  -9 1133.09   29.60
   0   2  -9 1127.89   29.70
   0   2  -9 1131.19   31.70
   0   2   9 1151.58   40.20
   0   2  -9 1154.78   31.70
   0   2  -9 1189.08   31.10
   1  -2   9   -1.30    6.70
  -1  -2  -9   -0.30    2.80
  -1  -2  -9   -4.30    8.80
   1  -2   9    1.90    7.50
  -1   2  -9    5.50   10.80
  -1   2  -9    4.50    5.20
  -1   2  -9    1.90    2.70
  -1   2  -9    0.90    1.90
   1   2   9   15.90    8.50
   2  -2   9    0.20    2.20
   2  -2   9   -0.50    8.80
  -2  -2  -9   -1.40    6.50
   2  -2   9   19.40    8.20
  -2   2  -9    6.90    2.90
  -2   2  -9    5.40    2.40
   2   2   9   -7.10    7.00
  -2   2  -9   -0.90    7.00
   2   2   9    0.50    9.50
  -3  -2  -9   55.19    5.40
   3  -2   9   42.30   12.20
  -3  -2  -9   59.99    9.30
  -3  -2  -9   56.89   10.40
   3  -2   9   49.00    4.90
   3  -2   9   34.80   10.20
  -3  -2  -9   53.89    5.50
   3   2   9   66.39   13.50
  -3   2  -9   66.49    8.70
  -3   2  -9   47.60    9.70
   3   2   9   59.89   10.30
  -3   2  -9   53.79    4.80
  -3   2  -9   60.29    5.40
   3   2   9   60.19    5.00
   4  -2   9   -8.50   12.30
  -4  -2  -9   -5.80   10.40
   4  -2   9    8.10    2.80
  -4  -2  -9    3.30    3.10
  -4  -2  -9   17.10    9.20
   4  -2   9   16.50    9.20
  -4  -2  -9    1.00    3.10
   4  -2   9    1.00    3.00
   4  -2   9   15.80    9.70
  -4   2  -9    3.50    3.40
   4   2   9  -24.70   20.60
   4   2   9    1.50    9.70
  -4   2  -9   -4.70    9.30
   4   2   9    9.40    3.50
  -4   2  -9    6.50    7.50
   4   2   9    4.70    2.90
   4   2   9    0.80   10.20
  -4   2  -9    5.80    2.90
  -5  -3   9  133.49   15.70
   5  -3  -9  132.89    8.50
  -5  -3   9  145.79    8.00
  -5  -3   9  127.09   16.60
  -5  -3   9  151.08    9.60
   5  -3  -9  143.49   16.70
   5  -3  -9  140.09    9.40
   5  -3  -9  178.78   18.50
   5   3  -9  139.99    9.90
   5   3  -9  148.89   18.00
  -5   3   9  125.79   15.90
  -5   3   9  125.69    7.70
   5   3  -9  133.39   16.00
  -5   3   9  147.09    9.20
  -5   3   9   98.69   13.60
   5   3  -9  139.69    8.40
   4  -3  -9  148.09   15.10
  -4  -3   9  193.48   18.70
   4  -3  -9  150.98    8.70
  -4  -3   9  120.29   14.30
  -4  -3   9  122.09    7.80
   4  -3  -9  181.18   20.20
  -4  -3   9  145.39    8.70
   4  -3  -9  148.49    8.00
  -4   3   9  174.28   16.80
   4   3  -9  148.99    7.40
  -4   3   9  140.19   16.30
  -4   3   9  167.98   15.70
   4   3  -9  154.48    9.20
  -4   3   9  152.58    7.70
   4   3  -9  165.88   16.90
  -4   3   9  162.28    8.80
   4   3  -9  137.19   14.20
   3  -3  -9  551.74   17.90
  -3  -3   9  533.65   17.60
   3  -3  -9  519.05   26.10
   3   3  -9  569.64   26.90
  -3   3   9  504.35   17.40
   3   3  -9  520.05   16.30
  -3   3   9  555.94   26.90
  -3   3   9  528.75   23.70
   3   3  -9  538.45   17.90
   3   3  -9  516.05   23.10
  -3   3   9  531.55   17.70
   2  -3  -9    4.40    7.70
   2  -3  -9    4.60    2.60
  -2   3   9    2.10    8.50
   2   3  -9   -7.70    5.80
  -2   3   9   15.30    7.70
  -2   3   9   10.00    2.40
   2   3  -9    9.40    2.10
   1   3  -9   25.20    2.50
   1   3  -9   30.00    5.70
  -1   3   9   33.80    9.10
   0  -3   9    0.80    7.30
   0  -3  -9    5.30    8.30
   0  -3  -9   11.90    3.10
   0   3   9   14.30    8.70
   1  -3   9  199.68   15.30
  -1  -3  -9  164.78   13.90
   1  -3   9  175.08   16.30
  -1  -3  -9  182.08    8.20
  -1   3  -9  155.08   15.30
  -1   3  -9  160.68    7.10
   1   3   9  195.18   17.50
   2  -3   9   16.40    9.90
   2  -3   9    1.30    7.60
   2  -3   9    6.80    2.50
  -2   3  -9   10.90    2.30
   2   3   9   19.80   10.10
  -2   3  -9    7.80    2.60
  -2   3  -9   10.70    7.30
   2   3   9   11.10    7.30
  -2   3  -9    7.70    5.30
  -3  -3  -9    5.80   14.00
  -3  -3  -9   33.30    4.30
   3  -3   9   21.80    3.40
   3  -3   9   13.40   11.60
   3  -3   9   13.50    9.20
   3  -3   9   24.40    4.60
  -3  -3  -9   21.10    8.50
   3   3   9   14.00   11.70
  -3   3  -9   42.50    9.20
  -3   3  -9   22.60    3.50
   3   3   9   12.10    8.80
  -3   3  -9   28.10    7.30
  -3   3  -9   28.20    3.40
   3   3   9   21.50    3.20
   4  -3   9   29.90    9.60
  -4  -3  -9   19.60   11.20
  -4  -3  -9   20.60    3.90
   4  -3   9   50.59   22.80
   4  -3   9   25.80   11.10
  -4  -3  -9   28.00   10.50
   4  -3   9   22.50    3.50
  -4  -3  -9   20.50    3.90
   4  -3   9   20.60    3.30
   4   3   9   31.30   10.60
   4   3   9   19.40    3.50
  -4   3  -9   20.40    3.80
   4   3   9   18.10    4.00
  -4   3  -9   25.30    4.20
   4   3   9   -4.00   14.20
  -4   3  -9   24.60   10.50
   4   3   9   27.40   13.60
  -4   3  -9   20.20    8.50
  -5  -4   9  990.30   29.90
  -5  -4   9  933.11   40.20
  -5  -4   9 1139.09   57.99
   5  -4  -9 1030.90   42.10
   5  -4  -9 1014.50   30.70
   5  -4  -9 1014.90   41.90
  -5  -4   9 1184.38   36.90
  -5   4   9 1003.90   42.40
  -5   4   9 1008.90   38.50
  -5   4   9  984.80   29.10
  -5   4   9 1049.20   30.80
   5   4  -9 1017.60   31.40
   5   4  -9  983.20   43.40
   5   4  -9  971.20   29.90
   5   4  -9  965.30   39.20
   4  -4  -9   76.69    7.30
   4  -4  -9   88.49   13.70
   4  -4  -9   92.79    6.60
  -4  -4   9   83.39   13.40
  -4  -4   9   79.09    6.60
  -4  -4   9   87.39    7.20
  -4  -4   9   87.39   13.70
   4  -4  -9   76.59   13.40
  -4   4   9   67.39    7.30
   4   4  -9   81.29    6.10
  -4   4   9   80.19   14.70
   4   4  -9   84.09    7.60
  -4   4   9   81.69   10.60
   4   4  -9   74.49   13.20
  -4   4   9   78.49    6.10
   4   4  -9   79.89   12.10
  -4   4   9   90.09   12.50
   3  -4  -9   82.59    7.10
  -3  -4   9   93.79    6.70
   3  -4  -9   87.39   13.70
   3   4  -9   74.79    5.40
   3   4  -9   80.99    6.80
  -3   4   9  104.79   11.30
   3   4  -9   83.39   10.10
  -3   4   9   88.79    6.80
  -3   4   9   94.39   13.70
   3   4  -9   72.69   12.30
  -3   4   9   86.79    5.70
   2  -4  -9  157.28    8.20
   2  -4  -9  176.88   17.50
  -2   4   9  178.98   15.80
   2   4  -9  166.78    6.70
  -2   4   9  157.48    8.40
   2   4  -9  164.98   12.80
  -2   4   9  184.38   17.60
   1  -4  -9   10.80    7.90
  -1   4   9   10.00    4.30
   1   4  -9   18.60    5.20
  -1   4   9   11.10    8.60
   1   4  -9   12.30    1.80
   0  -4  -9  166.58   17.30
   0  -4  -9  142.19    8.10
   0   4   9  155.18   16.40
   1  -4   9   62.19    9.80
  -1  -4  -9   66.99    7.00
   1  -4   9   75.09   13.90
  -1  -4  -9   87.29   12.50
   1   4   9   69.39   11.70
  -1   4  -9   78.69   11.30
   2  -4   9    1.10    2.20
   2  -4   9    1.30    7.70
   2  -4   9    7.30   10.20
  -2   4  -9    7.30    7.20
  -2   4  -9   -1.60    2.10
   2   4   9    0.30   10.10
   3  -4   9  210.28   18.90
  -3  -4  -9  223.48    9.60
  -3  -4  -9  206.38   16.70
   3  -4   9  196.88   17.80
   3  -4   9  227.98    9.20
   3  -4   9  231.78    9.10
   3   4   9  184.18   18.10
   3   4   9  153.58   18.60
  -3   4  -9  224.78    9.10
  -3   4  -9  197.98   17.50
   3   4   9  211.98    9.00
  -4  -5   9  506.65   36.60
   4  -5  -9  532.35   17.90
  -4  -5   9  448.16   22.20
  -4  -5   9  506.65   17.40
  -4  -5   9  531.85   27.90
   4  -5  -9  495.15   28.30
  -4   5   9  522.25   23.40
  -4   5   9  522.45   29.80
  -4   5   9  487.15   16.00
  -4   5   9  493.75   17.70
   4   5  -9  489.05   16.20
   4   5  -9  495.35   25.60
   4   5  -9  487.95   17.80
   4   5  -9  500.95   29.70
  -4   5   9  501.95   25.50
  -3  -5   9   70.49   12.40
   3  -5  -9   71.89   12.10
   3  -5  -9   60.99    6.70
  -3  -5   9   53.29    6.10
  -3   5   9   66.99   10.70
  -3   5   9   46.90    4.80
   3   5  -9   63.99    6.30
  -3   5   9   66.89   12.60
   3   5  -9   66.89   10.30
  -3   5   9   56.69   10.60
   3   5  -9   60.19   11.70
   3   5  -9   58.49    4.80
  -3   5   9   55.29    6.60
   2  -5  -9  341.27   13.10
   2  -5  -9  363.36   21.90
  -2   5   9  379.76   23.00
   2   5  -9  342.17   11.10
  -2   5   9  370.06   13.50
   2   5  -9  361.46   17.00
  -2   5   9  324.27   20.20
  -1   5   9   -7.30    8.70
   1   5  -9    1.70    1.60
   1   5  -9    6.90    5.00
  -1   5   9    1.80    2.60
   0   5   9  238.48   19.40
   1  -5   9   -0.80    2.30
   1  -5   9    4.70    8.40
   1  -5   9   -6.50    9.10
   1   5   9   -0.20    9.90
  -1   5  -9   -3.40    9.60
   2  -5   9  420.76   13.70
   2  -5   9  428.36   14.10
   2  -5   9  397.76   23.80
   2  -5   9  380.06   21.80
  -2   5  -9  413.16   13.90
  -2   5  -9  438.16   21.70
   2   5   9  395.56   25.60
   3  -5   9  106.49   15.10
   3  -5   9  137.69    7.00
   3  -5   9  131.09    6.90
   3  -5   9  130.49   12.60
   3  -5   9  103.99   12.80
   3   5   9   89.69   15.90
   3   5   9  118.39    6.80
  -3   5  -9  137.59   12.50
  -3   5  -9  125.29    7.00
  -4  -6   9  -13.50   11.30
   4  -6  -9    3.30   11.90
   4  -6  -9    0.20    4.10
  -4  -6   9    3.30    3.60
  -4   6   9   -0.10    3.00
  -4   6   9   -8.60   11.80
   4   6  -9    5.30    3.20
   4   6  -9    9.00   13.60
   4   6  -9    7.60    4.20
  -4   6   9  -18.80   10.10
  -4   6   9    1.20    3.90
   4   6  -9   14.40   11.20
  -3  -6   9  126.39    7.90
   3  -6  -9  139.99    8.30
   3  -6  -9  127.49   14.90
  -3   6   9  143.49   13.00
  -3   6   9  103.59   14.30
   3   6  -9  118.39    6.40
   3   6  -9  128.79    8.30
  -3   6   9  111.59   12.90
   3   6  -9  122.79   12.30
  -3   6   9  120.79    6.70
   3   6  -9  138.89   15.50
  -3   6   9  136.29    8.50
   2  -6  -9  415.26   25.00
   2  -6  -9  434.46   15.30
   2   6  -9  426.16   13.10
  -2   6   9  444.06   23.00
   2   6  -9  437.46   19.00
  -2   6   9  433.26   15.50
  -2   6   9  407.06   24.60
   1  -6  -9  251.17   21.60
   1  -6  -9  200.78    9.50
  -1   6   9  199.78   19.00
  -1   6   9  214.18   10.00
   0   6   9  667.03   29.90
   1  -6   9  -10.10    7.90
   1  -6   9    2.30    2.50
  -1   6  -9    1.10    2.20
  -1   6  -9   -7.60    8.00
  -1   6  -9   -7.00   11.70
   1   6   9   16.60   11.60
   2  -6   9   -1.80   10.60
   2  -6   9    7.10    2.60
   2  -6   9    7.80    7.70
   2  -6   9   -2.80    9.00
   2  -6   9    4.70    2.70
   2   6   9   39.10   13.00
  -2   6  -9    6.80    2.90
  -2   6  -9    4.50    8.90
   3  -6   9   30.00    3.90
   3  -6   9   21.30    9.00
   3  -6   9   14.10   12.10
   3  -6   9   15.50   10.40
   3  -6   9   24.50    3.60
  -3   6  -9   35.20    4.10
   3   6   9   21.90    3.80
   3   6   9   18.60   15.00
  -3   6  -9   21.00    9.70
   4  -7  -9   22.10    5.10
   4  -7  -9   17.30   12.90
  -4  -7   9   29.00    5.10
  -4   7   9   26.90   13.10
  -4   7   9   23.20    3.80
   4   7  -9    5.60   11.40
  -4   7   9   18.90    5.00
   4   7  -9   22.30    4.80
  -4   7   9    8.10   11.40
   4   7  -9   24.30   14.00
   4   7  -9   24.60    3.90
   3  -7  -9  260.97   23.20
  -3  -7   9  250.47   11.10
  -3  -7   9  233.38   23.90
   3  -7  -9  252.27   11.30
  -3   7   9  245.58   19.70
  -3   7   9  270.47   19.60
  -3   7   9  263.17   22.20
   3   7  -9  219.68   23.50
  -3   7   9  251.47   11.70
  -3   7   9  228.58    9.70
   3   7  -9  212.18   22.00
   3   7  -9  217.88   10.50
   2  -7  -9  206.88   20.80
   2  -7  -9  191.38    9.80
  -2   7   9  175.58   15.90
  -2   7   9  192.88    9.90
  -2   7   9  234.08   20.80
   2   7  -9  201.68   14.30
  -2   7   9  171.48    8.20
  -2   7   9  181.68   16.80
   2   7  -9  186.08    7.40
   1  -7  -9   87.29    6.70
   1  -7  -9   69.19   12.60
  -1   7   9   98.39   13.70
  -1   7   9   76.89   12.80
  -1   7   9  101.79    7.90
   0  -7  -9    2.30   10.10
   0   7  -9    0.70    2.50
   0   7  -9    2.50    9.80
   1  -7   9   36.60    4.10
   1  -7   9   47.30   15.70
   1   7   9   47.10   13.50
  -1   7  -9   42.20    4.90
  -1   7  -9   57.09   10.40
   2  -7   9    5.50    3.10
   2  -7   9   -7.20    9.40
   2  -7   9   -1.40   10.50
   2  -7   9   -0.70    8.60
   2  -7   9    0.10    2.60
  -2   7  -9  -14.10    9.60
   2   7   9   18.50   13.50
  -2   7  -9    1.90    2.80
   3  -8  -9   63.49   14.40
  -3  -8   9   50.99   21.80
   3  -8  -9   54.49    5.90
  -3  -8   9   63.99    7.00
  -3   8   9   48.30   11.20
   3   8  -9   64.49   11.00
  -3   8   9   57.19   14.00
  -3   8   9   64.79    6.00
  -3   8   9   59.39    6.30
   3   8  -9   60.39    5.90
  -3   8   9   60.99   13.00
   2  -8  -9  328.97   13.60
   2  -8  -9  344.37   25.90
  -2   8   9  330.17   21.60
  -2   8   9  438.36   40.80
  -2   8   9  327.17   23.40
  -2   8   9  363.16   16.30
  -2   8   9  334.47   12.30
   1  -8  -9   46.10    5.30
   1  -8  -9   47.70   12.60
   1   8  -9   42.00   12.10
  -1   8   9   37.60    5.00
  -1   8   9   28.30   11.60
   1   8  -9   46.50    5.50
  -1   8   9   46.20   12.50
   0   8  -9  826.12   24.70
   0   8   9  929.91   37.90
   0   8  -9  810.22   33.20
   0   8   9  883.51   27.60
   1  -8   9   52.29    5.80
   1  -8   9   65.89   12.90
   1   8   9   71.39   14.70
   2  -8   9   13.60    3.50
   2  -8   9   -0.80   10.90
   2  -8   9   10.60    3.40
   2  -8   9   12.50    9.80
   2   8   9   20.20   17.10
  -2   8  -9    7.80   10.80
  -2   8  -9   19.00    3.90
   2  -9  -9  261.87   26.10
   2  -9  -9  274.07   12.50
   2   9  -9  260.87   22.90
  -2   9   9  297.57   20.00
  -2   9   9  267.57   13.10
  -2   9   9  287.07   26.40
   2   9  -9  251.87   11.00
  -2   9   9  202.58   23.20
   1  -9  -9   82.09   14.50
   1  -9  -9   60.49    6.10
  -1   9   9   81.99   15.80
   1   9  -9   59.69   13.40
  -1   9   9   58.49    6.30
   1   9  -9   58.69    6.40
   0  -9  -9   87.99   10.00
   0   9  -9   70.79   13.40
   0   9   9   55.99   14.30
   0   9   9   92.09   15.00
   0   9  -9   86.79    6.60
   0   9   9   93.69    8.60
   1  -9   9   23.40    4.20
   1  -9   9   20.50   12.50
   1   9   9   52.39   15.20
   4   0 -10   57.79    6.50
  -4   0  10   56.39    6.10
  -4   0  10   56.19   12.30
  -4   0  10   62.59   13.40
   4   0 -10   48.30    5.40
   4   0 -10   58.19   13.70
   4   0 -10   86.39   14.00
   3   0 -10    5.80    3.40
  -3   0  10    2.70    4.10
  -3   0  10  -12.60    9.30
   3   0 -10  -14.00   10.20
   3   0 -10   14.00    9.80
  -3   0  10    7.10   11.90
   3   0 -10   -2.50    2.70
  -2   0  10  610.24   21.60
  -2   0  10  613.84   28.50
   2   0 -10  627.24   25.60
   2   0 -10  615.84   18.40
   1   0 -10   -0.70    7.00
  -1   0  10   -6.50    8.80
   1   0 -10    0.30    2.30
   0   0  10  128.39   14.20
   0   0 -10  146.79    5.80
   0   0 -10  140.39   11.90
   1   0  10   10.30   10.80
  -1   0 -10   -1.00    2.60
  -1   0 -10    8.80    7.40
  -2   0 -10  984.90   31.90
   2   0  10  974.40   39.90
   2   0  10  947.61   28.10
  -2   0 -10 1020.90   27.40
  -3   0 -10  -28.20   10.40
  -3   0 -10    9.80    8.90
  -3   0 -10   -3.50    3.30
   3   0  10   28.70   14.10
  -3   0 -10   -2.90    3.10
   3   0  10   -3.50    2.90
   3   0  10    9.00    9.80
   3   0  10    0.60    4.30
  -4  -1  10   27.40   10.80
  -4  -1  10   32.10   13.10
   4  -1 -10   17.00    4.00
  -4  -1  10   15.90    5.10
   4  -1 -10   30.60   12.10
   4  -1 -10   26.00    5.10
  -4  -1  10   -0.60   10.90
  -4  -1  10   13.20    3.70
   4  -1 -10    5.00   12.30
  -4   1  10   25.70   11.50
   4   1 -10   17.80   13.00
   4   1 -10   14.20    3.80
  -4   1  10   12.10   11.20
   4   1 -10    7.10   11.00
   4   1 -10   19.60    3.90
  -4   1  10   17.20    5.30
  -4   1  10   14.80    3.30
  -4   1  10   14.30   16.50
  -3  -1  10  366.86   22.20
  -3  -1  10  352.26   37.50
   3  -1 -10  393.46   14.90
  -3  -1  10  356.46   20.30
   3  -1 -10  382.46   13.30
   3  -1 -10  399.96   25.90
   3  -1 -10  356.46   22.20
  -3   1  10  395.66   14.80
   3   1 -10  376.56   14.60
   3   1 -10  403.76   25.80
  -3   1  10  328.27   22.30
   3   1 -10  381.46   13.10
   3   1 -10  396.96   21.60
  -3   1  10  420.86   25.50
  -3   1  10  379.46   27.70
   2  -1 -10  166.48    7.30
   2  -1 -10  202.08   16.30
  -2  -1  10  139.79   14.20
  -2   1  10  158.28   17.60
   2   1 -10  167.38    7.10
  -2   1  10  162.58    9.00
   2   1 -10  130.89   17.20
   2   1 -10  141.69   14.60
   1  -1 -10  101.09   10.10
   1  -1 -10   90.99    5.30
  -1   1  10   73.29   12.40
   1   1 -10   92.69    9.40
   1   1 -10   97.79    5.00
   0  -1  10  346.87   22.00
   0  -1 -10  340.77   16.50
   0  -1 -10  335.77   10.80
   0   1  10  365.26   23.50
   0   1 -10  351.06   10.50
   0   1 -10  355.46   14.40
   1  -1  10    8.20   10.90
   1   1  10   14.70   10.70
  -1   1 -10    4.20    6.80
  -1   1 -10   12.20    2.80
   2  -1  10   25.30    3.60
  -2  -1 -10   45.70    8.90
   2  -1  10   42.80   10.30
  -2  -1 -10   45.30    4.60
   2  -1  10   13.80   12.30
  -2   1 -10   39.10    4.10
   2   1  10   51.69   12.70
  -2   1 -10   37.60    8.20
   2   1  10   26.70    3.40
  -3  -1 -10  514.55   17.50
   3  -1  10  527.15   17.50
   3  -1  10  554.14   37.20
   3  -1  10  502.05   17.20
   3  -1  10  518.15   33.80
   3  -1  10  507.35   26.90
  -3  -1 -10  558.84   17.30
  -3  -1 -10  582.14   27.60
  -3  -1 -10  542.55   23.90
   3   1  10  546.05   17.90
   3   1  10  538.65   26.90
  -3   1 -10  509.75   27.40
  -3   1 -10  547.75   17.60
  -3   1 -10  572.84   22.60
   3   1  10  536.45   17.20
  -3   1 -10  542.95   16.50
   4  -2 -10   10.60   12.90
   4  -2 -10    5.00    3.40
  -4  -2  10    9.60   11.40
   4  -2 -10   10.60   12.50
  -4  -2  10   -1.30    3.70
  -4  -2  10   -0.10   10.20
   4  -2 -10    9.10    4.30
  -4  -2  10    2.00   10.90
   4   2 -10    8.70   12.50
  -4   2  10   16.90   11.40
  -4   2  10  -14.50   10.70
   4   2 -10    6.00    3.50
   4   2 -10    6.10   11.60
  -4   2  10    1.40   14.20
   4   2 -10    8.60    3.90
  -4   2  10    3.80    3.00
  -4   2  10    4.80    3.70
   3  -2 -10  115.59   16.00
  -3  -2  10   98.99   13.00
   3  -2 -10  123.49   14.10
  -3  -2  10  108.89   14.70
   3  -2 -10  103.79    6.70
   3  -2 -10  113.89    8.10
  -3  -2  10  113.19    7.90
  -3   2  10  112.29    6.60
   3   2 -10  104.39   16.00
  -3   2  10  109.29    7.60
   3   2 -10  108.49   12.60
   3   2 -10  103.09    6.50
  -3   2  10   93.29   17.00
  -3   2  10  109.39   13.60
  -3   2  10  129.09   14.40
   3   2 -10  103.79    7.70
   2  -2 -10   17.00    3.50
   2  -2 -10   29.40   11.30
   2  -2 -10   12.10    3.00
  -2  -2  10   19.80   14.50
   2  -2 -10   20.10    9.60
   2   2 -10    9.90    7.90
   2   2 -10   16.00    2.70
  -2   2  10   19.20    4.20
   2   2 -10   23.90   11.40
  -2   2  10   -0.80   10.10
  -2   2  10   17.70   12.10
  -1  -2  10   25.30   10.40
  -1   2  10   22.80   10.40
   1   2 -10   17.30    2.40
   1   2 -10    5.00    6.80
   0  -2  10   82.69   16.80
   0  -2  10   58.99   11.60
   0   2  10   77.89   13.40
   1  -2  10  128.19   14.90
   1  -2  10  126.49    8.70
   1   2  10  122.49   14.20
   2  -2  10  122.69   15.70
   2  -2  10  139.09    7.40
   2  -2  10  143.79   16.40
  -2  -2 -10  158.58   13.80
  -2  -2 -10  153.28    7.60
  -2   2 -10  151.28   15.30
   2   2  10  120.29    8.70
   2   2  10  160.48   18.10
  -4  -3  10   -8.10   11.20
   4  -3 -10   27.00   12.40
  -4  -3  10   -0.60    4.10
   4  -3 -10   -0.70   13.50
  -4  -3  10   22.30   12.80
   4  -3 -10    4.70    4.50
   4  -3 -10    2.90    3.50
   4   3 -10   -2.50    4.40
  -4   3  10   -3.70    3.00
  -4   3  10   -1.60   11.90
   4   3 -10   -1.00    3.40
   4   3 -10  -10.40   10.30
   4   3 -10    9.00   13.70
  -4   3  10   13.00   15.90
  -4   3  10    3.20    3.70
  -4   3  10   21.90   11.60
   3  -3 -10   79.79   13.30
   3  -3 -10   80.29    7.30
  -3  -3  10   65.29   12.00
   3  -3 -10   80.79   13.30
  -3  -3  10   66.89    7.00
   3  -3 -10   75.69    6.30
  -3   3  10  100.89   13.30
  -3   3  10   72.49    8.20
  -3   3  10   79.09   12.50
  -3   3  10   83.89   15.60
   3   3 -10   83.89   13.60
   3   3 -10   62.39    7.90
  -3   3  10   70.69    5.90
   3   3 -10   71.89    7.40
   3   3 -10   79.89   18.50
  -2  -3  10  558.04   27.40
   2  -3 -10  569.74   28.90
   2  -3 -10  566.84   18.70
   2   3 -10  547.55   16.30
  -2   3  10  550.24   27.20
   2   3 -10  523.75   22.50
  -1  -3  10   19.70    9.70
   1  -3 -10    8.70   15.20
  -1   3  10   15.20   10.40
   0  -3  10 1005.20   38.40
   0   3  10  989.70   39.10
   1  -3  10   34.20    9.80
   1  -3  10   12.20   10.30
   1  -3  10   27.10    3.80
   1   3  10   36.40   11.70
   2  -3  10   19.70    3.80
   2  -3  10   10.50   10.00
   2  -3  10   -0.80   11.80
   2   3  10   20.20    3.60
  -2   3 -10   22.70    3.70
   2   3  10   16.60   12.20
   2   3  10   17.80    9.80
  -2   3 -10   31.20   10.40
   4  -4 -10  146.09   17.40
   4  -4 -10  146.59   10.10
   4  -4 -10  129.79    8.30
  -4  -4  10  129.19    9.70
   4  -4 -10  108.69   16.10
  -4  -4  10   94.39   16.10
  -4  -4  10  117.29   17.20
   4   4 -10  140.69   10.20
   4   4 -10  125.79    8.00
  -4   4  10  109.09   15.40
   4   4 -10  139.99   17.70
   4   4 -10  101.99   14.60
  -4   4  10  125.99    8.00
   3  -4 -10   36.30   12.40
  -3  -4  10   27.60    4.50
  -3  -4  10   38.50   11.80
   3  -4 -10   27.90    4.70
   3   4 -10   17.70   12.00
   3   4 -10   65.99   19.50
  -3   4  10   33.40    4.00
  -3   4  10   27.70   11.00
  -3   4  10   32.10   11.00
   3   4 -10   23.70    4.20
   3   4 -10   11.00    6.00
   2  -4 -10  318.27   13.20
   2  -4 -10  345.37   24.80
   2   4 -10  311.97   10.80
  -2   4  10  378.46   28.60
   2   4 -10  307.27   17.70
  -2   4  10  343.37   22.00
  -2   4  10  338.57   14.00
  -1  -4  10   15.70   10.00
   1  -4 -10   -8.00   10.60
  -1   4  10    2.10   11.70
   0  -4  10  110.59   14.00
   0   4  10  114.89   14.50
   1  -4  10  161.78   16.30
   1  -4  10  159.78    7.80
   1   4  10  130.19   15.80
   2  -4  10  752.52   22.50
   2  -4  10  764.02   22.90
   2  -4  10  687.33   31.60
  -2   4 -10  750.32   31.50
  -2   4 -10  743.53   22.60
  -3  -5  10  104.69   17.00
  -3  -5  10  104.69    8.40
   3  -5 -10  114.99    9.50
   3  -5 -10  125.59   17.70
  -3   5  10  135.49    9.60
   3   5 -10  116.59    9.00
  -3   5  10  122.09   14.30
  -3   5  10  103.59    7.30
   3   5 -10  126.29   16.80
  -3   5  10  105.79   14.20
  -3   5  10  107.49   16.20
   2  -5 -10   27.60   12.30
   2  -5 -10   20.30    4.50
  -2   5  10   43.00   12.40
  -2   5  10   13.60   11.20
  -2   5  10   24.80    4.50
   1  -5 -10   60.39   12.60
  -1   5  10   57.79    6.60
  -1   5  10   80.49   20.60
   0  -5  10    2.60   11.30
   0   5  10   -6.80   11.20
   1  -5  10  -15.20   11.10
   1   5  10    9.80   12.80
   2  -5  10   -6.30   12.30
   2  -5  10   20.70   11.50
   2  -5  10    8.60    3.60
   2  -5  10    6.90    3.30
  -2   5 -10    2.60    3.50
   2   5  10   11.80   13.90
  -2   5 -10   10.40   10.00
  -3  -6  10   29.20    4.70
   3  -6 -10   33.80   14.00
  -3  -6  10    7.00   11.90
   3  -6 -10   14.10    5.30
  -3   6  10   18.40   11.80
  -3   6  10   11.70    4.90
  -3   6  10    6.10   11.30
  -3   6  10    9.30   14.40
   2  -6 -10  200.38   19.30
   2  -6 -10  154.68    9.50
  -2   6  10  206.18   21.30
  -2   6  10  159.28    9.40
  -2   6  10  145.59   17.60
   1  -6 -10   41.40    4.90
   1  -6 -10   53.49   13.30
  -1   6  10   41.70   13.50
  -1   6  10   67.29    7.30
  -1   6  10   43.40   19.00
   0   6  10   67.29   13.90
   1  -6  10   25.40   13.20
   1   6  10   64.59   15.30
   2  -7 -10  225.28   21.70
   2  -7 -10  215.98   11.70
  -2   7  10  238.38   12.10
  -2   7  10  228.68   20.10
  -2   7  10  208.78   20.40
  -2   7  10  255.07   24.80
   1  -7 -10   57.79   15.10
   1  -7 -10   34.20    5.40
  -1   7  10   38.40   14.70
  -1   7  10   23.50   13.70
  -1   7  10   34.90    5.30
   0   7 -10  864.11   24.90
   0   7  10  853.81   38.70
   0   7 -10  826.92   34.10
  -2   0  11   -7.50    3.10
   2   0 -11   -6.30    3.50
  -2   0  11   -5.40   12.20
   2   0 -11   -1.90   11.30
  -1   0  11  312.17   24.10
   0   0 -11    0.50    2.90
   0   0  11    7.40   14.10
   0   0 -11   -0.30    7.70
   2  -1 -11   16.70    3.50
  -2  -1  11   15.80   13.20
   2  -1 -11   19.40    4.50
   2  -1 -11    0.50   10.90
  -2   1  11   20.80   12.30
  -2   1  11    1.00   12.60
  -2   1  11   11.80    3.50
  -1  -1  11    6.40   12.10
  -1   1  11   -9.20   12.50
   0  -1  11  -12.50   13.90
   0   1  11   20.50   13.70
  -1  -1 -11   14.60    3.80
  -1  -1 -11   27.70    9.20
   1  -1  11   15.70   23.00
  -1   1 -11   15.50    8.50
   1   1  11   35.70   15.90
  -2  -2  11   13.50   11.90
   2  -2 -11   19.80    3.70
   2  -2 -11   40.10   11.10
   2  -2 -11    2.70   14.40
   2  -2 -11   22.20    4.60
  -2   2  11   33.70   13.30
  -2   2  11   36.90   13.20
  -2   2  11   18.90    4.00
  -1  -2  11  -20.50   11.60
  -1   2  11   -3.10   12.60
   0   2  11   61.09   14.90
   2  -3 -11   17.40    3.60
   2  -3 -11   28.40   14.20
   2  -3 -11    9.10   11.20
  -2  -3  11   18.80   13.00
   2  -3 -11   11.30    4.60
  -2   3  11   19.40    4.20
  -2   3  11   16.20   14.40
  -2   3  11   23.00   13.80
  -1  -3  11   15.00   15.10
  -1   3  11   -4.30   13.60
   0  -3  11  -10.90   12.60
   0   3  11    1.80   13.90

_computing_structure_solution     'SHELXT 2014/4 (Sheldrick, 2014)'
;
_shelx_hkl_checksum              81109
loop_
_space_group_symop_operation_xyz
'x, y, z'
'-x+1/2, y+1/2, -z+1/2'
'-x, -y, -z'
'x-1/2, -y-1/2, z-1/2'
loop_
_atom_site_label
_atom_site_type_symbol
_atom_site_fract_x
_atom_site_fract_y
_atom_site_fract_z
_atom_site_U_iso_or_equiv
_atom_site_adp_type
_atom_site_occupancy
_atom_site_site_symmetry_order
_atom_site_calc_flag
_atom_site_refinement_flags_posn
_atom_site_refinement_flags_adp
Cl1 Cl 0.65198(4) 0.40577(2) 0.31047(3) 0.01374(8) Uani 1 1 d . .
C1 C 0.54186(19) 0.63778(10) 0.12126(13) 0.0173(3) Uani 1 1 d . .
H1A H 0.6041 0.5739 0.0833 0.026 Uiso 1 1 calc R U
H1B H 0.6522 0.6870 0.1586 0.026 Uiso 1 1 calc R U
H1C H 0.4518 0.6712 0.0399 0.026 Uiso 1 1 calc R U
P1 P 0.39004(4) 0.60323(2) 0.27210(3) 0.01104(9) Uani 1 1 d . .
B1 B 0.56055(18) 0.52034(10) 0.42392(14) 0.0107(2) Uani 1 1 d . .
Cl2 Cl 0.78711(4) 0.61147(2) 0.47867(3) 0.01528(8) Uani 1 1 d . .
C2 C 0.16395(18) 0.53476(10) 0.18617(14) 0.0189(3) Uani 1 1 d . .
H2A H 0.0976 0.5770 0.1028 0.028 Uiso 1 1 calc R U
H2B H 0.0654 0.5237 0.2609 0.028 Uiso 1 1 calc R U
H2C H 0.2058 0.4663 0.1481 0.028 Uiso 1 1 calc R U
C3 C 0.2987(2) 0.72553(10) 0.34249(14) 0.0214(3) Uani 1 1 d . .
H3A H 0.2306 0.7670 0.2589 0.032 Uiso 1 1 calc R U
H3B H 0.4167 0.7654 0.3916 0.032 Uiso 1 1 calc R U
H3C H 0.1991 0.7110 0.4153 0.032 Uiso 1 1 calc R U
loop_
_atom_site_aniso_label
_atom_site_aniso_U_11
_atom_site_aniso_U_22
_atom_site_aniso_U_33
_atom_site_aniso_U_23
_atom_site_aniso_U_13
_atom_site_aniso_U_12
Cl1 0.01638(15) 0.01220(14) 0.01310(15) -0.00166(10) 0.00372(10) 0.00283(10)
C1 0.0214(6) 0.0183(6) 0.0130(6) 0.0035(5) 0.0051(5) -0.0006(5)
P1 0.01318(15) 0.01072(15) 0.00943(16) 0.00068(11) 0.00222(11) 0.00125(10)
B1 0.0108(6) 0.0100(6) 0.0116(6) -0.0012(5) 0.0016(4) -0.0001(5)
Cl2 0.01360(15) 0.01690(15) 0.01540(16) -0.00149(11) 0.00185(10) -0.00535(10)
C2 0.0156(6) 0.0238(7) 0.0165(6) 0.0029(5) -0.0019(5) -0.0017(5)
C3 0.0304(7) 0.0158(6) 0.0182(7) 0.0008(5) 0.0039(5) 0.0100(5)
loop_
_atom_type_symbol
_atom_type_description
_atom_type_scat_dispersion_real
_atom_type_scat_dispersion_imag
_atom_type_scat_source
C C 0.0033 0.0016 'International Tables Vol C Tables 4.2.6.8 and 6.1.1.4'
H H 0.0000 0.0000 'International Tables Vol C Tables 4.2.6.8 and 6.1.1.4'
B B 0.0013 0.0007 'International Tables Vol C Tables 4.2.6.8 and 6.1.1.4'
P P 0.1023 0.0942 'International Tables Vol C Tables 4.2.6.8 and 6.1.1.4'
Cl Cl 0.1484 0.1585 'International Tables Vol C Tables 4.2.6.8 and 6.1.1.4'
loop_
_geom_angle_atom_site_label_1
_geom_angle_atom_site_label_2
_geom_angle_atom_site_label_3
_geom_angle
_geom_angle_site_symmetry_1
P1 C1 H1A 109.5 .
P1 C1 H1B 109.5 .
H1A C1 H1B 109.5 .
P1 C1 H1C 109.5 .
H1A C1 H1C 109.5 .
H1B C1 H1C 109.5 .
C3 P1 C2 106.48(6) .
C3 P1 C1 106.09(6) .
C2 P1 C1 106.14(6) .
C3 P1 B1 113.62(6) .
C2 P1 B1 114.20(6) .
C1 P1 B1 109.74(6) .
B1 B1 Cl2 112.49(10) 3_666
B1 B1 Cl1 112.72(11) 3_666
Cl2 B1 Cl1 109.26(6) .
B1 B1 P1 116.07(10) 3_666
Cl2 B1 P1 102.52(6) .
Cl1 B1 P1 102.87(6) .
P1 C2 H2A 109.5 .
P1 C2 H2B 109.5 .
H2A C2 H2B 109.5 .
P1 C2 H2C 109.5 .
H2A C2 H2C 109.5 .
H2B C2 H2C 109.5 .
P1 C3 H3A 109.5 .
P1 C3 H3B 109.5 .
H3A C3 H3B 109.5 .
P1 C3 H3C 109.5 .
H3A C3 H3C 109.5 .
H3B C3 H3C 109.5 .
loop_
_geom_bond_atom_site_label_1
_geom_bond_atom_site_label_2
_geom_bond_distance
_geom_bond_site_symmetry_2
Cl1 B1 1.9004(13) .
C1 P1 1.8029(13) .
C1 H1A 0.9800 .
C1 H1B 0.9800 .
C1 H1C 0.9800 .
P1 C3 1.7955(13) .
P1 C2 1.8017(12) .
P1 B1 1.9626(13) .
B1 B1 1.718(3) 3_666
B1 Cl2 1.8892(13) .
C2 H2A 0.9800 .
C2 H2B 0.9800 .
C2 H2C 0.9800 .
C3 H3A 0.9800 .
C3 H3B 0.9800 .
C3 H3C 0.9800 .
