#------------------------------------------------------------------------------
#$Date: 2019-11-26 08:28:48 +0200 (Tue, 26 Nov 2019) $
#$Revision: 243066 $
#$URL: file:///home/coder/svn-repositories/cod/cif/4/13/32/4133234.cif $
#------------------------------------------------------------------------------
#
# This file is available in the Crystallography Open Database (COD),
# http://www.crystallography.net/
#
# All data on this site have been placed in the public domain by the
# contributors.
#
data_4133234
loop_
_publ_author_name
'X\'emard, Mathieu'
'Zimmer, S\'ebastien'
'Cordier, Marie'
'Goudy, Violaine'
'Ricard, Louis'
'Clavagu\'era, Carine'
'Nocton, Gr\'egory'
_publ_section_title
;
 Lanthanidocenes: Synthesis, Structure, and Bonding of Linear Sandwich
 Complexes of Lanthanides.
;
_journal_issue                   43
_journal_name_full               'Journal of the American Chemical Society'
_journal_page_first              14433
_journal_page_last               14439
_journal_paper_doi               10.1021/jacs.8b09081
_journal_volume                  140
_journal_year                    2018
_chemical_formula_moiety         'C18 H18 Tm'
_chemical_formula_sum            'C18 H18 Tm'
_chemical_formula_weight         403.25
_space_group_crystal_system      monoclinic
_space_group_IT_number           14
_space_group_name_Hall           '-P 2yn'
_space_group_name_H-M_alt        'P 1 21/n 1'
_atom_sites_solution_hydrogens   geom
_audit_creation_method           SHELXL-2014/7
_cell_angle_alpha                90
_cell_angle_beta                 100.906(2)
_cell_angle_gamma                90
_cell_formula_units_Z            2
_cell_length_a                   7.3412(5)
_cell_length_b                   8.8404(5)
_cell_length_c                   11.1729(7)
_cell_measurement_reflns_used    8647
_cell_measurement_temperature    150.0(1)
_cell_measurement_theta_max      28.5901
_cell_measurement_theta_min      2.9584
_cell_volume                     712.02(8)
_computing_cell_refinement       'Bruker SAINT'
_computing_data_collection       'Bruker APEX2'
_computing_data_reduction        'Bruker SAINT'
_computing_molecular_graphics    'PLATON (Spek, 2009)'
_computing_structure_refinement  'SHELXL-2014/7 (Sheldrick, 2014)'
_computing_structure_solution    SHELXT(Sheldrick,2014)
_diffrn_ambient_temperature      150(2)
_diffrn_measured_fraction_theta_full 0.998
_diffrn_measured_fraction_theta_max 0.997
_diffrn_measurement_device_type  'Kappa APEX II'
_diffrn_measurement_method       'phi and omega scans'
_diffrn_radiation_type           MoK\a
_diffrn_radiation_wavelength     0.71069
_diffrn_reflns_av_R_equivalents  0.0500
_diffrn_reflns_av_unetI/netI     0.0224
_diffrn_reflns_Laue_measured_fraction_full 0.998
_diffrn_reflns_Laue_measured_fraction_max 0.997
_diffrn_reflns_limit_h_max       11
_diffrn_reflns_limit_h_min       -11
_diffrn_reflns_limit_k_max       13
_diffrn_reflns_limit_k_min       -13
_diffrn_reflns_limit_l_max       17
_diffrn_reflns_limit_l_min       -17
_diffrn_reflns_number            29740
_diffrn_reflns_point_group_measured_fraction_full 0.998
_diffrn_reflns_point_group_measured_fraction_max 0.997
_diffrn_reflns_theta_full        25.240
_diffrn_reflns_theta_max         32.891
_diffrn_reflns_theta_min         3.647
_exptl_absorpt_coefficient_mu    6.213
_exptl_absorpt_correction_T_max  0.7464
_exptl_absorpt_correction_T_min  0.6361
_exptl_absorpt_correction_type   multi-scan
_exptl_absorpt_process_details   SADABS
_exptl_crystal_colour            'dark brown'
_exptl_crystal_density_diffrn    1.881
_exptl_crystal_description       block
_exptl_crystal_F_000             390
_exptl_crystal_size_max          0.100
_exptl_crystal_size_mid          0.060
_exptl_crystal_size_min          0.040
_refine_diff_density_max         0.993
_refine_diff_density_min         -0.477
_refine_diff_density_rms         0.121
_refine_ls_extinction_method     none
_refine_ls_goodness_of_fit_ref   0.988
_refine_ls_hydrogen_treatment    constr
_refine_ls_matrix_type           full
_refine_ls_number_parameters     169
_refine_ls_number_reflns         2652
_refine_ls_number_restraints     108
_refine_ls_restrained_S_all      1.008
_refine_ls_R_factor_all          0.0396
_refine_ls_R_factor_gt           0.0219
_refine_ls_shift/su_max          0.000
_refine_ls_shift/su_mean         0.000
_refine_ls_structure_factor_coef Fsqd
_refine_ls_weighting_details
'w=1/[\s^2^(Fo^2^)+(0.0361P)^2^+0.7790P] where P=(Fo^2^+2Fc^2^)/3'
_refine_ls_weighting_scheme      calc
_refine_ls_wR_factor_gt          0.0560
_refine_ls_wR_factor_ref         0.0647
_reflns_Friedel_coverage         0.000
_reflns_number_gt                1750
_reflns_number_total             2652
_reflns_threshold_expression     'I > 2\s(I)'
_cod_data_source_file            ja8b09081_si_002.cif
_cod_data_source_block           6
_cod_original_sg_symbol_H-M      'P 21/n'
_cod_database_code               4133234
_shelx_shelxl_version_number     2014/7
_shelx_space_group_comment
;
The symmetry employed for this shelxl refinement is uniquely defined
by the following loop, which should always be used as a source of
symmetry information in preference to the above space-group names.
They are only intended as comments.
;
_shelx_estimated_absorpt_t_min   0.523
_shelx_estimated_absorpt_t_max   0.636
_shelx_res_file
;

    mx649_1_a.res created by SHELXL-2014/7


TITL mx649_1_a.res
CELL  0.71069   7.3412   8.8404  11.1729   90.000  100.906   90.000
ZERR    2.000   0.0005   0.0005   0.0007    0.000    0.002    0.000
LATT 1
SYMM 1/2-X, 1/2+Y, 1/2-Z
SFAC  C   H   TM
UNIT   36   36   2
L.S. 10
FMAP 2
PLAN -20
ACTA
LIST  4
OMIT  -1  0  1
SIZE 0.12 0.10 0.08
RIGU  C1 > C9
RIGU  C10 > C18
TEMP -123
BOND $H
CONF
WGHT    0.036100    0.779000
FVAR       0.55196
RESI 0
TM1   3    0.000000    0.000000    0.000000    10.50000    0.02749    0.01712 =
         0.01598   -0.00158   -0.00232   -0.00105
PART 1 10.5
C1    1    0.147051   -0.004860    0.246358    10.50000    0.07155    0.03197 =
         0.02031   -0.00286   -0.00414    0.00602
AFIX  43
H1    2    0.166516   -0.084627    0.304352    10.50000   -1.20000
AFIX   0
C2    1    0.303228    0.012223    0.190587    10.50000    0.04953    0.03608 =
         0.03389   -0.00241   -0.01324    0.01529
AFIX  43
H2    2    0.400928   -0.051711    0.229136    10.50000   -1.20000
AFIX   0
C3    1    0.357669    0.091243    0.099236    10.50000    0.02848    0.03782 =
         0.04206   -0.01312   -0.00602    0.00650
AFIX  43
H3    2    0.480096    0.062284    0.092881    10.50000   -1.20000
AFIX   0
C4    1    0.296569    0.195251    0.016138    10.50000    0.02150    0.03991 =
         0.03970   -0.01585    0.00951   -0.00311
AFIX  43
H4    2    0.391241    0.216674   -0.028762    10.50000   -1.20000
AFIX   0
C5    1    0.146772    0.281733   -0.027313    10.50000    0.02900    0.02587 =
         0.02409   -0.00636    0.01705   -0.00908
AFIX  43
H5    2    0.167481    0.339613   -0.095121    10.50000   -1.20000
AFIX   0
C6    1   -0.034667    0.312618   -0.001867    10.50000    0.02246    0.01528 =
         0.02210    0.00028    0.00723   -0.00196
AFIX  43
H6    2   -0.095827    0.386207   -0.057243    10.50000   -1.20000
AFIX   0
C7    1   -0.151556    0.267612    0.080226    10.50000    0.02329    0.02485 =
         0.02796   -0.00799    0.01238   -0.00264
AFIX  43
H7    2   -0.266990    0.319312    0.062803    10.50000   -1.20000
AFIX   0
C8    1   -0.145344    0.171401    0.176873    10.50000    0.03657    0.03347 =
         0.02191   -0.00729    0.01700   -0.01221
AFIX  43
H8    2   -0.254302    0.184243    0.210067    10.50000   -1.20000
AFIX   0
C9    1   -0.036781    0.063920    0.241518    10.50000    0.06732    0.02731 =
         0.01630   -0.00211    0.01358   -0.00507
AFIX  43
H9    2   -0.097214    0.020231    0.301194    10.50000   -1.20000
AFIX   0
PART 2  10.5
C10   1   -0.228087    0.022394   -0.227918    10.50000    0.03179    0.02295 =
         0.01723   -0.00037   -0.00329   -0.00042
AFIX  43
H10   2   -0.283579    0.105383   -0.275264    10.50000   -1.20000
AFIX   0
C11   1   -0.343151   -0.033661   -0.152416    10.50000    0.01766    0.03099 =
         0.02351   -0.01139    0.00258   -0.00193
AFIX  43
H11   2   -0.459697    0.016246   -0.170929    10.50000   -1.20000
AFIX   0
C12   1   -0.346284   -0.135240   -0.061277    10.50000    0.02569    0.03213 =
         0.02428   -0.00459    0.00698   -0.00953
AFIX  43
H12   2   -0.465208   -0.132816   -0.039472    10.50000   -1.20000
AFIX   0
C13   1   -0.242047   -0.236315    0.007777    10.50000    0.04486    0.03014 =
         0.01970    0.00288    0.00078   -0.00936
AFIX  43
H13   2   -0.308214   -0.277501    0.065470    10.50000   -1.20000
AFIX   0
C14   1   -0.063001   -0.302717    0.023063    10.50000    0.05601    0.01980 =
         0.02447   -0.00129   -0.00553    0.00069
AFIX  43
H14   2   -0.041689   -0.371194    0.089781    10.50000   -1.20000
AFIX   0
C15   1    0.097093   -0.293296   -0.036976    10.50000    0.01938    0.02212 =
         0.06330   -0.00959   -0.01720   -0.00379
AFIX  43
H15   2    0.190329   -0.362143   -0.000016    10.50000   -1.20000
AFIX   0
C16   1    0.156444   -0.216136   -0.130516    10.50000    0.02400    0.02700 =
         0.05711   -0.01898   -0.00044    0.00349
AFIX  43
H16   2    0.273809   -0.253794   -0.140581    10.50000   -1.20000
AFIX   0
C17   1    0.101703   -0.105387   -0.211496    10.50000    0.02692    0.03929 =
         0.04014   -0.01904    0.00865   -0.00401
AFIX  43
H17   2    0.198139   -0.083854   -0.254899    10.50000   -1.20000
AFIX   0
C18   1   -0.049242   -0.011568   -0.253087    10.50000    0.04087    0.03295 =
         0.01395   -0.00472    0.01113   -0.01195
AFIX  43
H18   2   -0.025740    0.048760   -0.318877    10.50000   -1.20000
PART  0
AFIX   0
HKLF 4  1  -1 0 0 0 -1 0 0 0 1

REM  mx649_1_a.res
REM R1 =  0.0219 for    1750 Fo > 4sig(Fo)  and  0.0396 for all    2652 data
REM    169 parameters refined using    108 restraints

END

WGHT      0.0208      0.9246

REM Highest difference peak  0.993,  deepest hole -0.477,  1-sigma level  0.121
Q1    1   0.0114 -0.0253 -0.0651  11.00000  0.05    0.99
Q2    1   0.0000  0.5000  0.0000  10.50000  0.05    0.73
Q3    1   0.1066 -0.2806  0.0152  11.00000  0.05    0.63
Q4    1  -0.0073  0.0041  0.2541  11.00000  0.05    0.61
Q5    1   0.0976 -0.0011  0.2724  11.00000  0.05    0.58
Q6    1   0.0010 -0.2814  0.0211  11.00000  0.05    0.52
Q7    1   0.2705  0.0011  0.2211  11.00000  0.05    0.49
Q8    1   0.0999  0.3018  0.0019  11.00000  0.05    0.49
Q9    1   0.1755 -0.2688 -0.0414  11.00000  0.05    0.48
Q10   1   0.3542 -0.0035  0.1711  11.00000  0.05    0.46
Q11   1   0.2023  0.0075  0.2525  11.00000  0.05    0.44
Q12   1  -0.1920  0.2632  0.0993  11.00000  0.05    0.44
Q13   1   0.2031  0.2793 -0.0279  11.00000  0.05    0.43
Q14   1  -0.1311  0.3087  0.0629  11.00000  0.05    0.43
Q15   1  -0.0975  0.0819  0.2547  11.00000  0.05    0.41
Q16   1   0.1096  0.2937 -0.0564  11.00000  0.05    0.40
Q17   1  -0.0055  0.0016  0.4145  11.00000  0.05    0.38
Q18   1  -0.1574  0.1474  0.2123  11.00000  0.05    0.38
Q19   1  -0.2223  0.1914  0.1603  11.00000  0.05    0.36
Q20   1   0.1971  0.2660 -0.1013  11.00000  0.05    0.35
;
_shelx_res_checksum              94600
_shelx_hkl_file
;
  -1   0   0    2.87    1.86
  -1   0   0   -1.29    0.49
  -1   0   0   -0.17    0.73
  -1   0   0    0.78    0.93
  -1   0   0    0.28    1.12
  -1   0   0    0.77    1.16
  -1   0   0    1.38    1.12
   1   0   0    0.87    0.89
   1   0   0    2.23    1.54
   1   0   0    1.54    1.03
   1   0   0   -0.33    0.88
   1   0   0    2.83    1.38
   1   0   0   -0.82    0.78
   1   0   0    0.53    0.91
  -2   0   0 3087.18  162.84
  -2   0   0 3260.18  162.01
  -2   0   0 3238.72  161.39
  -2   0   0 3331.01  162.78
  -2   0   0 3218.32  162.21
  -2   0   0 3426.10  162.53
  -2   0   0 3329.28  162.05
  -2   0   0 3147.73  161.96
   2   0   0 3470.46  161.46
   2   0   0 3454.11  163.16
   2   0   0 3462.89  162.82
   2   0   0 3097.04  161.95
   2   0   0 3248.50  161.90
   2   0   0 3463.66  162.16
   2   0   0 3491.33  162.42
  -3   0   0   -2.52    3.34
  -3   0   0    0.61    2.76
  -3   0   0   -0.95    3.57
  -3   0   0   -2.46    3.32
  -3   0   0    3.35    3.08
  -3   0   0    4.12    2.56
  -3   0   0    2.98    4.91
   3   0   0   -3.09    2.97
   3   0   0   -0.01    1.97
   3   0   0    2.65    3.91
   3   0   0   -2.74    2.99
   3   0   0    6.89    3.93
   3   0   0   -0.50    3.52
  -4   0   0 1763.16   85.31
  -4   0   0 1558.47   82.85
  -4   0   0 1714.94   84.17
  -4   0   0 1576.69   82.86
  -4   0   0 1682.99   84.49
   4   0   0 1660.17   84.35
   4   0   0 1568.83   83.53
   4   0   0 1767.81   83.24
   4   0   0 1601.50   81.59
   4   0   0 1630.12   81.58
  -5   0   0   -4.04    4.92
  -5   0   0    6.08    6.35
  -5   0   0   -5.76    3.92
  -5   0   0   -9.34    4.37
  -5   0   0   12.04    4.84
   5   0   0    3.27    5.31
   5   0   0   -0.39    3.49
   5   0   0    0.81    2.93
  -6   0   0 1365.98   75.47
  -6   0   0 1555.66   75.00
  -6   0   0 1481.72   74.25
  -6   0   0 1474.53   76.58
   6   0   0 1522.37   74.90
   6   0   0 1357.81   73.93
   6   0   0 1404.16   75.23
   6   0   0 1321.35   71.40
  -7   0   0    3.29    6.80
  -7   0   0   -7.93    5.80
  -7   0   0    8.56    8.92
  -7   0   0   11.02    6.37
   7   0   0    4.14    6.69
   7   0   0   -0.94    7.76
   7   0   0    3.08    3.80
   7   0   0   -0.33    7.48
  -8   0   0  481.61   34.83
  -8   0   0  486.36   34.87
  -8   0   0  514.52   32.19
  -8   0   0  476.77   32.98
   8   0   0  496.55   33.15
   8   0   0  508.72   33.58
   8   0   0  564.07   32.78
  -9   0   0   -3.18   12.71
  -9   0   0   -1.25    8.29
  -9   0   0   16.37   11.40
  -9   0   0    0.58    8.11
   9   0   0   -8.61   10.08
   9   0   0   -2.92    8.23
 -10   0   0  113.68   19.34
 -10   0   0  109.55   17.38
  10   0   0  100.49   18.89
  10   0   0  107.83   17.08
  11   0   0  -30.75   16.27
  10  -1   0   14.38   14.20
 -10   1   0   13.14   10.20
 -10   1   0    2.11   13.69
   9  -1   0  320.22   29.32
   9  -1   0  343.61   27.37
  -9   1   0  339.25   30.53
  -9   1   0  303.43   31.97
  -9   1   0  281.21   26.63
  -9   1   0  314.29   27.17
   8  -1   0   13.75    8.73
   8  -1   0   -1.72   10.13
   8  -1   0    3.68    8.90
  -8   1   0   13.25    9.25
  -8   1   0   30.39   11.25
  -8   1   0   11.17    7.44
  -8   1   0   15.44    9.30
   7  -1   0  600.79   35.70
   7  -1   0  603.90   36.53
  -7   1   0  648.90   36.10
  -7   1   0  568.27   35.82
  -7   1   0  621.46   37.41
  -7   1   0  541.26   37.87
   6  -1   0   -0.42    1.90
   6  -1   0   14.88    7.82
   6  -1   0    2.97    3.74
   6  -1   0    5.09    6.12
  -6   1   0    8.73    6.34
  -6   1   0    3.56    6.11
  -6   1   0   -3.69    4.01
  -6   1   0    2.81    6.83
   5  -1   0 1479.72   75.78
   5  -1   0 1550.26   74.79
   5  -1   0 1533.77   80.49
   5  -1   0 1501.33   78.03
   5  -1   0 1470.44   78.09
  -5   1   0 1624.46   78.93
  -5   1   0 1495.81   78.02
  -5   1   0 1543.59   79.95
  -5   1   0 1493.22   79.97
  -5   1   0 1531.88   78.70
   4  -1   0   12.72    5.15
   4  -1   0   22.17    5.95
   4  -1   0   14.54    2.10
   4  -1   0   17.46    3.39
   4  -1   0    9.35    4.38
   4  -1   0   16.66    4.65
  -4   1   0    2.64    3.98
  -4   1   0    7.82    4.80
  -4   1   0   18.13    6.20
  -4   1   0   21.67    5.84
   3  -1   0 4247.18  210.22
   3  -1   0 4483.64  211.56
   3  -1   0 4708.79  211.36
   3  -1   0 4213.26  208.61
   3  -1   0 4238.70  208.95
   3  -1   0 4146.63  209.98
  -3   1   0 4218.92  211.17
  -3   1   0 4356.35  211.33
  -3   1   0 4241.06  210.23
  -3   1   0 4351.12  210.77
  -3   1   0 4021.41  209.80
   2  -1   0  660.91   32.33
   2  -1   0  661.54   33.78
   2  -1   0  582.45   33.72
   2  -1   0  594.70   33.37
   2  -1   0  639.12   33.06
   2  -1   0  657.86   33.25
   2  -1   0  657.39   32.93
  -2   1   0  682.60   33.82
  -2   1   0  636.35   33.60
  -2   1   0  665.50   33.80
  -2   1   0  692.84   33.33
  -2   1   0  640.45   32.81
  -2   1   0  685.01   33.78
  -2   1   0  589.45   33.46
   1  -1   0 5741.42  279.09
   1  -1   0 5931.51  277.59
   1  -1   0 5349.70  280.40
   1  -1   0 5833.65  277.27
   1  -1   0 6082.63  279.91
  -1   1   0 5544.59  277.44
  -1   1   0 5948.06  277.46
  -1   1   0 5278.78  277.04
  -1   1   0 5606.71  279.53
   0  -1   0    5.25    1.61
   0  -1   0   -0.47    0.55
   0  -1   0    0.02    0.71
   0  -1   0    3.76    1.59
   0  -1   0   -0.68    0.57
   0  -1   0    4.31    1.36
   0   1   0    2.54    0.90
   0   1   0    4.87    1.32
   0   1   0   -0.76    0.57
   0   1   0    1.00    0.84
   0   1   0    2.20    0.95
   0   1   0   -1.09    0.60
  -1  -1   0 5439.34  273.57
  -1  -1   0 5621.08  274.09
  -1  -1   0 5790.69  277.47
   1   1   0 5645.79  275.24
   1   1   0 5572.50  274.29
   1   1   0 6018.64  275.73
   1   1   0 5381.70  275.31
  -2  -1   0  681.07   32.93
  -2  -1   0  612.12   32.82
  -2  -1   0  611.13   31.36
  -2  -1   0  638.95   31.22
  -2  -1   0  702.40   31.99
  -2  -1   0  629.21   32.09
  -2  -1   0  627.85   33.05
  -2  -1   0  576.40   32.01
   2   1   0  584.64   31.96
   2   1   0  607.02   32.68
   2   1   0  674.21   32.07
   2   1   0  605.24   32.96
   2   1   0  609.51   31.41
   2   1   0  672.11   32.18
   2   1   0  623.13   31.25
   2   1   0  633.16   32.79
  -3  -1   0 4293.33  209.30
  -3  -1   0 4157.28  210.17
  -3  -1   0 4458.63  208.64
  -3  -1   0 4410.83  210.50
  -3  -1   0 4339.24  207.97
  -3  -1   0 4304.16  211.14
  -3  -1   0 4311.94  208.70
   3   1   0 4191.31  210.16
   3   1   0 4109.11  210.33
   3   1   0 4164.26  209.28
   3   1   0 4249.20  208.65
  -4  -1   0   13.14    3.60
  -4  -1   0    3.97    5.23
  -4  -1   0   18.84    2.94
  -4  -1   0    9.44    5.29
  -4  -1   0    7.57    6.23
  -4  -1   0   22.00    5.31
   4   1   0   18.19    5.81
   4   1   0   15.29    4.61
   4   1   0   11.69    3.76
   4   1   0   23.18    6.46
  -5  -1   0 1529.44   76.75
  -5  -1   0 1583.29   79.58
  -5  -1   0 1605.91   79.74
  -5  -1   0 1438.48   75.03
  -5  -1   0 1452.47   77.45
   5   1   0 1507.82   79.09
   5   1   0 1527.02   77.83
   5   1   0 1549.35   76.69
   5   1   0 1505.27   77.25
  -6  -1   0    3.81    4.73
  -6  -1   0    9.05    3.63
  -6  -1   0    8.23    5.15
  -6  -1   0    0.97    5.43
  -6  -1   0    7.42    7.70
   6   1   0    0.34    4.69
   6   1   0    2.33    6.73
   6   1   0    8.62    6.32
  -7  -1   0  613.25   35.33
  -7  -1   0  588.97   37.73
  -7  -1   0  535.76   37.37
  -7  -1   0  614.43   33.74
   7   1   0  593.03   36.99
   7   1   0  616.65   35.83
   7   1   0  563.49   32.42
  -8  -1   0   13.48    9.79
  -8  -1   0   17.25   12.22
  -8  -1   0   12.60    8.48
   8   1   0  -10.63    8.61
   8   1   0   16.21    9.27
   8   1   0    8.49    6.87
  -9  -1   0  325.81   28.20
  -9  -1   0  300.16   30.77
  -9  -1   0  256.12   28.72
   9   1   0  310.55   25.50
   9   1   0  303.75   27.34
 -10  -1   0    7.95   14.78
 -10  -1   0   -0.59   12.37
  10   1   0  -11.90   12.04
  10   1   0    0.41   11.01
  10  -2   0  193.79   25.31
  10  -2   0  133.03   19.70
 -10   2   0  169.51   22.74
 -10   2   0  174.56   23.80
 -10   2   0  167.17   22.88
   9  -2   0    3.24   10.50
   9  -2   0  -23.18   10.97
  -9   2   0   -0.09    9.86
  -9   2   0    6.59   10.58
  -9   2   0   -1.70    7.36
  -9   2   0   -2.74   13.33
   8  -2   0  437.25   29.32
   8  -2   0  427.22   28.64
  -8   2   0  407.62   30.82
  -8   2   0  422.33   28.99
  -8   2   0  408.15   28.41
  -8   2   0  412.63   29.00
   7  -2   0    7.62    7.48
   7  -2   0    5.29    5.90
   7  -2   0    7.16    4.62
  -7   2   0    7.35    7.12
  -7   2   0    1.89    7.99
  -7   2   0   12.43    8.28
  -7   2   0    6.39    7.70
   6  -2   0  988.35   50.03
   6  -2   0 1001.90   56.11
   6  -2   0 1029.49   52.89
   6  -2   0  921.64   52.71
  -6   2   0  985.54   53.51
  -6   2   0  946.28   55.17
  -6   2   0  999.68   54.51
  -6   2   0  955.26   53.26
   5  -2   0    8.89    5.69
   5  -2   0    9.03    3.46
   5  -2   0    2.94    6.84
   5  -2   0    9.18    5.40
  -5   2   0    3.89    4.38
  -5   2   0    4.48    5.95
  -5   2   0    7.65    5.74
  -5   2   0   -3.17    4.36
   4  -2   0 2565.66  132.35
   4  -2   0 2652.58  133.01
   4  -2   0 2710.84  131.17
   4  -2   0 2695.13  134.17
   4  -2   0 2732.85  134.50
  -4   2   0 2529.97  133.75
  -4   2   0 2485.62  133.89
  -4   2   0 2926.99  134.76
  -4   2   0 2744.69  133.23
   3  -2   0   12.48    3.86
   3  -2   0   14.23    5.31
   3  -2   0    7.76    2.56
   3  -2   0    7.68    3.58
   3  -2   0   10.36    4.66
  -3   2   0    8.95    4.79
  -3   2   0   10.23    3.96
  -3   2   0   11.02    3.21
  -3   2   0    5.36    3.37
  -3   2   0    5.98    3.67
   2  -2   0 4777.27  224.21
   2  -2   0 4375.57  224.59
   2  -2   0 4589.02  224.47
   2  -2   0 4758.95  223.53
   2  -2   0 4620.08  223.96
  -2   2   0 4479.11  223.81
  -2   2   0 4667.38  223.15
  -2   2   0 4268.06  224.20
  -2   2   0 4737.37  224.67
  -2   2   0 4492.08  224.12
   1  -2   0    4.48    2.35
   1  -2   0    6.61    2.70
   1  -2   0    5.55    3.08
   1  -2   0    8.85    3.51
   1  -2   0    8.58    2.93
   1  -2   0    2.85    2.16
  -1   2   0    7.45    2.44
  -1   2   0    2.47    3.39
  -1   2   0    9.52    2.54
  -1   2   0    7.78    3.41
  -1   2   0    6.28    2.47
  -1   2   0    2.76    2.12
  -1   2   0    8.54    3.01
   0  -2   0 4097.78  199.47
   0  -2   0 4227.86  199.22
   0  -2   0 4219.14  199.06
   0  -2   0 4175.88  199.86
   0  -2   0 3914.02  199.17
   0  -2   0 4052.84  198.67
   0   2   0 3954.23  199.12
   0   2   0 4243.03  199.87
   0   2   0 3705.16  198.99
   0   2   0 4076.98  199.34
   0   2   0 4235.33  199.07
   0   2   0 4099.46  198.79
  -1  -2   0    7.33    2.94
  -1  -2   0    2.45    1.77
  -1  -2   0    7.68    1.94
  -1  -2   0    5.40    2.80
  -1  -2   0   10.09    3.45
  -1  -2   0    8.55    2.76
  -1  -2   0    6.39    2.72
  -1  -2   0    4.82    1.38
  -1  -2   0    7.69    2.46
   1   2   0    3.57    2.00
   1   2   0    4.94    2.33
   1   2   0    5.04    1.31
   1   2   0    4.63    2.38
   1   2   0    1.86    1.99
   1   2   0    5.91    2.34
  -2  -2   0 4448.05  223.73
  -2  -2   0 4267.19  224.58
  -2  -2   0 4754.06  224.04
  -2  -2   0 4969.12  223.74
   2   2   0 4526.64  223.94
   2   2   0 4847.09  223.11
   2   2   0 4816.57  223.63
   2   2   0 4520.72  223.61
   2   2   0 4223.49  223.62
   2   2   0 4417.65  225.05
  -3  -2   0   14.81    4.05
  -3  -2   0    9.42    3.87
  -3  -2   0   12.03    4.89
   3   2   0    8.72    2.15
   3   2   0    8.87    4.37
   3   2   0    5.12    3.40
   3   2   0    3.49    3.37
   3   2   0    6.35    3.90
   3   2   0    9.85    2.48
  -4  -2   0 2553.22  129.90
  -4  -2   0 2555.77  131.44
  -4  -2   0 2463.17  128.09
  -4  -2   0 2550.45  130.96
  -4  -2   0 2505.66  127.80
  -4  -2   0 2604.69  132.63
   4   2   0 2823.20  131.23
   4   2   0 2596.62  131.81
   4   2   0 2896.34  130.12
   4   2   0 2609.60  128.31
   4   2   0 2664.25  129.81
  -5  -2   0   11.89    6.93
  -5  -2   0    1.95    6.29
  -5  -2   0    4.99    3.48
  -5  -2   0    9.38    2.44
  -5  -2   0   19.34    6.39
   5   2   0   10.79    5.76
   5   2   0    3.84    3.86
   5   2   0    9.50    5.14
   5   2   0   10.03    5.19
  -6  -2   0  985.45   53.36
  -6  -2   0  942.38   55.24
  -6  -2   0  957.82   55.27
   6   2   0  995.58   55.37
   6   2   0  987.99   53.31
   6   2   0 1054.90   53.08
   6   2   0 1004.42   53.03
  -7  -2   0   11.19    8.47
  -7  -2   0    5.45    7.23
  -7  -2   0   15.05   10.00
   7   2   0    4.00    7.11
   7   2   0    1.29    7.38
   7   2   0   10.19    6.13
   7   2   0   19.50    8.11
  -8  -2   0  414.48   29.53
  -8  -2   0  392.76   30.29
  -8  -2   0  367.09   32.85
   8   2   0  462.45   29.31
   8   2   0  424.35   28.59
   8   2   0  449.67   26.30
  -9  -2   0   15.65   14.54
  -9  -2   0   -1.34    9.73
  -9  -2   0   22.64   12.10
   9   2   0    2.23    9.35
   9   2   0   13.22   10.16
 -10  -2   0  171.86   25.73
 -10  -2   0  143.69   21.43
  10   2   0  163.08   26.19
  10   2   0  148.00   19.40
  10   2   0  159.79   21.19
  10  -3   0  -11.72   15.20
  10  -3   0   -6.07   12.47
 -10   3   0   13.60   13.73
 -10   3   0    3.11   13.95
 -10   3   0  -13.31   11.87
   9  -3   0  286.15   26.77
  -9   3   0  321.52   28.91
  -9   3   0  288.78   27.98
  -9   3   0  266.41   28.43
   8  -3   0   17.25    9.87
  -8   3   0    5.74   11.09
  -8   3   0    8.14    9.01
  -8   3   0   18.47   11.47
  -8   3   0   -2.85    6.88
   7  -3   0  510.43   27.77
   7  -3   0  489.12   33.96
   7  -3   0  547.94   32.78
   7  -3   0  518.17   30.62
  -7   3   0  474.64   32.33
  -7   3   0  517.59   33.88
  -7   3   0  549.02   34.47
  -7   3   0  451.25   31.62
   6  -3   0   -1.84    6.44
   6  -3   0    0.52    5.95
   6  -3   0   -2.98    5.19
   6  -3   0   -0.91    3.64
  -6   3   0    4.87    5.52
  -6   3   0    3.53    8.23
  -6   3   0   -5.50    7.62
   5  -3   0 1446.24   74.93
   5  -3   0 1443.74   77.68
   5  -3   0 1471.31   73.40
   5  -3   0 1461.46   76.14
  -5   3   0 1568.21   78.02
  -5   3   0 1479.87   76.12
  -5   3   0 1406.52   77.19
  -5   3   0 1447.21   77.35
   4  -3   0   -1.84    4.51
   4  -3   0   -1.69    3.97
   4  -3   0    1.53    4.07
   4  -3   0    1.77    4.80
   4  -3   0    0.34    3.27
  -4   3   0    5.45    4.84
  -4   3   0   -2.68    3.73
  -4   3   0   10.33    4.89
  -4   3   0    2.63    3.71
   3  -3   0 2762.48  148.21
   3  -3   0 2785.35  148.66
   3  -3   0 2846.96  147.78
   3  -3   0 3100.29  147.87
   3  -3   0 3199.89  147.14
  -3   3   0 3062.45  147.70
  -3   3   0 3064.34  148.10
  -3   3   0 3145.99  148.61
  -3   3   0 2960.79  145.50
  -3   3   0 2896.29  148.65
  -3   3   0 2932.99  144.46
   2  -3   0   55.20    6.82
   2  -3   0   55.52    7.45
   2  -3   0   53.48    8.03
   2  -3   0   53.72    6.24
  -2   3   0   54.24    6.86
  -2   3   0   70.17    7.00
  -2   3   0   62.24    7.48
  -2   3   0   38.64    6.34
   1  -3   0 6242.65  321.66
   1  -3   0 6148.81  321.19
   1  -3   0 6613.01  320.96
   1  -3   0 6984.66  319.85
  -1   3   0 6593.97  323.25
  -1   3   0 6694.98  321.32
  -1   3   0 6339.16  320.91
  -1   3   0 6548.87  320.52
  -1   3   0 6945.39  320.46
   0  -3   0    4.04    3.24
   0  -3   0    2.38    2.38
   0  -3   0    8.38    3.78
   0  -3   0    1.92    3.27
   0  -3   0    3.03    2.33
   0   3   0    3.48    3.00
   0   3   0    4.76    3.08
   0   3   0    5.92    3.21
   0   3   0    1.43    2.69
   0   3   0    0.73    2.96
   0   3   0    7.32    1.62
  -1  -3   0 6342.01  315.45
  -1  -3   0 6551.71  314.16
  -1  -3   0 6691.05  314.62
  -1  -3   0 6503.23  313.41
  -1  -3   0 6930.64  314.95
  -1  -3   0 6160.44  314.85
   1   3   0 6408.52  314.20
   1   3   0 6570.02  314.36
   1   3   0 6385.76  315.01
   1   3   0 6460.36  314.80
   1   3   0 6209.10  314.30
   1   3   0 6150.79  315.25
  -2  -3   0   60.91    6.60
  -2  -3   0   62.52    7.52
  -2  -3   0   64.30    6.03
  -2  -3   0   67.12    8.25
  -2  -3   0   66.47    5.69
   2   3   0   68.02    6.40
   2   3   0   58.70    6.14
   2   3   0   55.40    6.73
   2   3   0   68.65    7.60
   2   3   0   53.55    5.68
   2   3   0   66.81    6.33
  -3  -3   0 3215.97  151.42
  -3  -3   0 2978.05  149.58
  -3  -3   0 3029.06  149.87
   3   3   0 3236.00  148.51
   3   3   0 2990.82  149.52
   3   3   0 2850.07  149.18
   3   3   0 2902.30  149.72
  -4  -3   0   -1.45    4.67
  -4  -3   0   -1.98    5.66
  -4  -3   0   -0.23    2.92
   4   3   0    9.84    4.42
   4   3   0    6.93    4.12
   4   3   0    2.91    2.63
   4   3   0    3.31    4.53
   4   3   0    0.63    3.30
  -5  -3   0 1401.53   74.75
  -5  -3   0 1447.15   73.74
  -5  -3   0 1417.71   75.73
   5   3   0 1470.96   73.33
   5   3   0 1461.16   76.22
   5   3   0 1354.08   72.92
  -6  -3   0   -6.20    7.72
  -6  -3   0  -10.05    6.95
  -6  -3   0    4.89    5.07
   6   3   0   11.47    6.54
   6   3   0    7.66    6.13
   6   3   0   11.77    6.86
  -7  -3   0  516.88   34.17
  -7  -3   0  484.78   31.16
  -7  -3   0  489.72   33.86
   7   3   0  527.09   31.64
   7   3   0  505.90   31.08
   7   3   0  525.16   30.96
  -8  -3   0    1.81   10.38
  -8  -3   0   -5.37    8.79
  -8  -3   0    1.34    8.15
   8   3   0   -2.28    7.66
   8   3   0    3.97    6.57
   8   3   0   17.18    9.25
  -9  -3   0  236.00   28.20
  -9  -3   0  258.30   27.86
  -9  -3   0  302.74   27.57
   9   3   0  296.47   23.84
   9   3   0  302.28   26.08
   9   3   0  233.84   28.78
 -10  -3   0   22.96   14.24
 -10  -3   0    2.01   11.16
  10   3   0   10.66   13.08
  10   3   0   -3.70   11.38
  10  -4   0  124.29   19.96
 -10   4   0  104.59   21.39
 -10   4   0   62.89   18.13
   9  -4   0   10.05   11.70
  -9   4   0    8.43    8.98
  -9   4   0   11.25   10.27
  -9   4   0   -1.14   10.27
   8  -4   0  296.21   30.41
   8  -4   0  353.12   28.88
  -8   4   0  304.97   29.16
  -8   4   0  269.45   29.13
  -8   4   0  330.82   28.63
  -8   4   0  352.37   25.22
   7  -4   0   -1.39    7.45
   7  -4   0   -4.94    6.19
   7  -4   0    1.92    6.60
  -7   4   0    1.10    7.23
  -7   4   0    9.57    8.04
  -7   4   0    6.36    6.66
  -7   4   0    0.06    6.44
   6  -4   0  856.16   48.42
   6  -4   0  856.73   46.41
   6  -4   0  849.50   44.70
   6  -4   0  835.12   50.06
  -6   4   0  821.94   48.35
  -6   4   0  873.12   49.95
  -6   4   0  901.00   50.72
   5  -4   0   48.27    6.68
   5  -4   0   47.42    7.73
   5  -4   0   44.86   10.10
   5  -4   0   35.74    8.96
  -5   4   0   51.63    9.90
  -5   4   0   42.97   10.76
  -5   4   0   44.52    8.69
  -5   4   0   61.88   10.19
   4  -4   0 2048.05   99.46
   4  -4   0 1961.64   99.48
   4  -4   0 1916.86  100.08
   4  -4   0 1925.68   97.91
   4  -4   0 1863.61  100.51
  -4   4   0 1895.67   99.47
  -4   4   0 1986.34   95.91
  -4   4   0 1922.78   98.99
  -4   4   0 1988.65  100.07
   3  -4   0   -2.55    4.03
   3  -4   0    5.92    3.77
   3  -4   0    2.38    4.65
   3  -4   0    1.51    3.90
   3  -4   0    3.79    5.30
  -3   4   0    5.19    4.47
  -3   4   0    3.48    2.08
  -3   4   0   -3.54    4.44
  -3   4   0   -0.24    3.79
  -3   4   0   -0.43    1.02
  -3   4   0    0.46    3.99
   2  -4   0 2331.26  112.11
   2  -4   0 2377.20  113.89
   2  -4   0 2381.63  113.33
   2  -4   0 2386.87  114.80
  -2   4   0 2215.15  111.96
  -2   4   0 2146.77  112.52
  -2   4   0 2251.80  113.50
  -2   4   0 1980.47  113.08
   1  -4   0    7.17    4.55
   1  -4   0    4.43    3.02
   1  -4   0    2.41    3.69
   1  -4   0    9.92    5.12
   1  -4   0   12.27    4.62
  -1   4   0    5.64    2.57
  -1   4   0   -8.80    3.67
  -1   4   0    3.15    4.57
   0  -4   0 6168.36  302.11
   0  -4   0 6027.24  301.29
   0  -4   0 6221.37  300.99
   0  -4   0 6134.44  299.57
   0   4   0 5890.71  299.81
   0   4   0 6350.63  300.41
   0   4   0 6719.14  300.66
   0   4   0 5670.02  300.35
  -1  -4   0    6.54    2.96
  -1  -4   0   -3.43    4.16
  -1  -4   0    2.26    5.09
  -1  -4   0    8.36    4.52
   1   4   0   -1.60    2.57
   1   4   0    1.83    1.77
   1   4   0    1.37    2.06
   1   4   0    8.16    3.61
   1   4   0    0.32    3.63
  -2  -4   0 2186.69  108.74
  -2  -4   0 2119.11  110.88
  -2  -4   0 2202.07  108.29
  -2  -4   0 2075.34  111.33
  -2  -4   0 2240.14  110.11
   2   4   0 2385.16  110.47
   2   4   0 2216.72  108.71
   2   4   0 2202.56  109.78
  -3  -4   0    4.86    4.16
  -3  -4   0    7.94    5.68
  -3  -4   0    1.20    3.00
  -3  -4   0    4.10    4.40
   3   4   0    1.88    3.92
   3   4   0    6.52    3.67
   3   4   0   -6.61    4.39
   3   4   0    3.75    3.91
   3   4   0    3.21    2.75
  -4  -4   0 2056.96   95.90
  -4  -4   0 1852.04   97.52
  -4  -4   0 1850.30   97.31
  -4  -4   0 1892.16   95.66
   4   4   0 1858.96   96.86
   4   4   0 1775.38   94.69
   4   4   0 1891.78   93.48
   4   4   0 1884.50   95.17
   4   4   0 1898.34   95.55
  -5  -4   0   45.82    9.56
  -5  -4   0   61.73    9.08
  -5  -4   0   51.91    9.43
   5   4   0   48.73    5.37
   5   4   0   43.35    7.67
   5   4   0   49.59    8.18
   5   4   0   73.05   10.71
  -6  -4   0  896.74   48.23
  -6  -4   0  903.03   49.47
  -6  -4   0  866.93   50.42
   6   4   0  860.60   47.12
   6   4   0  862.85   48.46
   6   4   0  824.09   46.81
   6   4   0  806.47   49.38
  -7  -4   0    2.39    9.23
  -7  -4   0    1.98    7.85
  -7  -4   0    3.59    7.72
   7   4   0   -2.95    7.59
   7   4   0   -3.66    7.28
   7   4   0   24.79   11.55
   7   4   0   -0.93    6.45
  -8  -4   0  317.86   28.32
  -8  -4   0  304.81   26.02
  -8  -4   0  292.24   28.97
   8   4   0  325.15   24.45
   8   4   0  312.95   31.34
   8   4   0  287.63   24.57
   8   4   0  310.46   24.90
  -9  -4   0   21.06   14.89
  -9  -4   0    7.48   10.21
  -9  -4   0   16.80   12.51
   9   4   0    9.16   10.42
   9   4   0   21.51   12.73
   9   4   0   -7.74    9.28
 -10  -4   0  144.27   26.06
 -10  -4   0  112.20   20.19
  10   4   0   79.80   21.80
  10  -5   0   -1.52   14.26
 -10   5   0   -1.03   11.69
 -10   5   0    4.76   14.23
   9  -5   0  168.57   21.66
  -9   5   0  140.88   21.22
  -9   5   0  119.26   20.43
   8  -5   0   10.25    7.98
   8  -5   0   -5.55   13.24
  -8   5   0    8.80    9.91
  -8   5   0   12.59    9.16
  -8   5   0   -1.09    7.90
  -8   5   0    6.17   11.24
   7  -5   0  539.07   37.83
   7  -5   0  524.98   35.81
  -7   5   0  558.53   36.31
  -7   5   0  567.98   37.79
  -7   5   0  578.35   38.89
   6  -5   0   -3.17    5.56
   6  -5   0    5.89    5.56
   6  -5   0   -7.24    8.56
   6  -5   0   -0.98    5.74
  -6   5   0    7.01    6.14
  -6   5   0    5.92    6.49
  -6   5   0   -6.41    8.83
   5  -5   0 1049.69   57.72
   5  -5   0  993.42   54.31
   5  -5   0  983.77   56.04
  -5   5   0 1063.87   58.27
  -5   5   0 1031.59   56.16
  -5   5   0 1058.71   56.89
   4  -5   0   -5.90    4.48
   4  -5   0    1.33    5.02
   4  -5   0   -1.03    6.49
   4  -5   0    3.15    5.49
   4  -5   0   -1.75    6.22
  -4   5   0   -3.25    4.16
  -4   5   0    8.50    5.63
  -4   5   0   -2.79    1.57
  -4   5   0    8.37    5.83
  -4   5   0    5.16    5.35
   3  -5   0 1667.89   87.11
   3  -5   0 1720.47   87.73
   3  -5   0 1602.69   85.84
   3  -5   0 1727.43   88.83
  -3   5   0 1617.73   83.93
  -3   5   0 1696.09   88.10
  -3   5   0 1885.81   87.26
  -3   5   0 1627.00   87.38
  -3   5   0 1739.79   86.19
   2  -5   0   10.16    5.61
   2  -5   0    8.24    4.01
   2  -5   0   10.43    4.14
   2  -5   0    5.60    5.08
   2  -5   0    2.30    4.13
  -2   5   0    6.08    3.30
  -2   5   0    7.91    5.34
  -2   5   0   14.16    6.10
   1  -5   0 1816.63  104.56
   1  -5   0 2249.04  107.01
   1  -5   0 2035.66  104.40
   1  -5   0 1988.26  102.50
   1  -5   0 2104.55  101.25
   1  -5   0 2095.58  106.15
  -1   5   0 2249.24  104.51
  -1   5   0 2008.31  104.57
  -1   5   0 2131.79  102.20
   0  -5   0   -5.69    4.14
   0  -5   0   -0.26    2.89
   0  -5   0   -1.96    5.26
   0  -5   0    0.54    3.98
   0   5   0    2.00    3.05
   0   5   0   -4.89    3.20
   0   5   0   -1.25    2.34
   0   5   0    0.18    1.30
   0   5   0    2.58    3.37
  -1  -5   0 2242.37  108.49
  -1  -5   0 2201.14  109.64
  -1  -5   0 2072.59  108.32
   1   5   0 2096.52  107.48
   1   5   0 2223.07  105.41
   1   5   0 2230.70  106.57
   1   5   0 2061.54  104.77
   1   5   0 2069.25  107.16
  -2  -5   0    0.89    4.32
  -2  -5   0   21.20    5.80
  -2  -5   0    9.46    2.73
  -2  -5   0    2.26    5.21
  -2  -5   0    5.45    2.53
   2   5   0    6.07    4.95
   2   5   0    4.15    2.23
   2   5   0    7.09    4.78
   2   5   0    6.10    2.79
  -3  -5   0 1698.52   89.20
  -3  -5   0 1871.30   91.74
  -3  -5   0 1619.40   87.63
  -3  -5   0 1705.22   90.82
  -3  -5   0 1746.08   88.00
   3   5   0 1843.51   88.23
   3   5   0 1767.59   89.92
   3   5   0 1633.00   88.62
   3   5   0 1895.50   88.15
  -4  -5   0   -1.24    4.81
  -4  -5   0    0.28    5.35
  -4  -5   0   -2.79    4.96
  -4  -5   0    6.11    7.44
   4   5   0    9.73    5.52
   4   5   0    0.66    3.88
   4   5   0   -4.51    4.12
   4   5   0   -5.61    5.59
  -5  -5   0 1082.45   59.31
  -5  -5   0 1103.42   56.87
  -5  -5   0 1007.00   58.98
  -5  -5   0 1036.76   56.38
   5   5   0 1021.97   55.64
   5   5   0  998.43   53.28
   5   5   0 1110.47   58.73
   5   5   0 1055.29   55.64
  -6  -5   0    3.25    7.38
  -6  -5   0    1.22    6.86
  -6  -5   0    8.01    7.34
  -6  -5   0    2.75    7.49
   6   5   0   11.16    7.15
   6   5   0    7.70    6.70
   6   5   0   -0.91    5.26
   6   5   0   21.23   10.96
  -7  -5   0  602.43   40.42
  -7  -5   0  562.62   37.67
  -7  -5   0  603.09   37.25
  -7  -5   0  618.24   41.23
   7   5   0  615.30   36.15
   7   5   0  545.34   37.10
   7   5   0  611.79   35.49
   7   5   0  570.81   39.72
  -8  -5   0   -1.25    9.75
  -8  -5   0   11.20   13.31
  -8  -5   0   33.63   14.66
  -8  -5   0    7.02   11.44
   8   5   0   -7.47    7.72
   8   5   0    8.71    9.87
   8   5   0    0.38    8.94
   8   5   0    0.17    8.42
  -9  -5   0  211.75   23.25
  -9  -5   0  172.11   25.37
  -9  -5   0  176.73   26.54
  -9  -5   0  143.92   20.61
   9   5   0  149.91   19.73
   9   5   0  132.70   19.88
   9   5   0  145.60   22.20
 -10  -5   0   -7.36   18.15
 -10  -5   0    8.84   14.14
 -10  -5   0    6.19   17.20
  10   5   0    3.57   17.91
   9  -6   0    7.95   13.60
  -9   6   0    1.30   10.17
  -9   6   0    4.94   11.36
   8  -6   0  221.06   23.81
   8  -6   0  176.54   24.82
  -8   6   0  204.15   23.78
  -8   6   0  215.24   26.57
  -8   6   0  189.42   24.41
   7  -6   0   -0.53    9.48
   7  -6   0    4.88   11.39
  -7   6   0    0.93   11.19
  -7   6   0    2.32    7.78
  -7   6   0    5.79   10.35
   6  -6   0  590.03   34.46
   6  -6   0  638.40   38.27
   6  -6   0  598.30   39.63
   6  -6   0  629.19   35.52
  -6   6   0  573.22   39.46
  -6   6   0  680.04   38.57
  -6   6   0  601.56   38.60
   5  -6   0    7.32    6.59
   5  -6   0    1.85    5.37
   5  -6   0  -11.97    7.40
   5  -6   0   -3.47    9.75
  -5   6   0    3.71    6.92
  -5   6   0    9.68    7.65
  -5   6   0   12.12    8.29
   4  -6   0 1370.62   68.64
   4  -6   0 1343.18   66.68
   4  -6   0 1285.23   66.75
   4  -6   0 1207.26   69.40
   4  -6   0 1341.67   68.83
  -4   6   0 1169.99   62.74
  -4   6   0 1277.15   67.21
  -4   6   0 1172.31   68.53
  -4   6   0 1231.61   66.37
   3  -6   0    1.78    4.89
   3  -6   0    2.28    6.33
   3  -6   0    9.43    5.53
   3  -6   0    0.37    8.14
  -3   6   0    3.57    4.72
  -3   6   0   -3.57    4.00
  -3   6   0    1.52    5.28
  -3   6   0   -2.47    5.29
  -3   6   0   -2.14    4.68
   2  -6   0 1663.73   95.86
   2  -6   0 1884.59   97.03
   2  -6   0 1963.89   98.41
  -2   6   0 1853.36   93.34
  -2   6   0 1915.31   96.76
  -2   6   0 1927.00   95.61
   1  -6   0   -4.18    1.74
   1  -6   0    0.36    5.42
   1  -6   0  -12.48    6.02
   1  -6   0   -1.16    4.72
   1  -6   0    7.03    7.22
  -1   6   0    4.12    2.75
  -1   6   0    0.08    5.30
  -1   6   0   -4.45    4.99
   0  -6   0 2632.56  130.93
   0  -6   0 2720.80  131.35
   0  -6   0 2472.45  129.10
   0  -6   0 2588.63  128.81
   0   6   0 2740.17  128.21
   0   6   0 2300.61  125.74
   0   6   0 2507.06  128.02
  -1  -6   0   -1.83    4.04
  -1  -6   0    3.76    6.44
  -1  -6   0   -5.17    6.45
   1   6   0   -2.62    2.12
   1   6   0    0.42    3.67
   1   6   0    4.18    4.36
   1   6   0   -2.13    3.48
  -2  -6   0 1848.65   96.38
  -2  -6   0 1804.47   95.26
  -2  -6   0 1815.03   94.37
  -2  -6   0 1844.53   91.60
   2   6   0 1853.39   91.34
   2   6   0 1869.98   93.66
   2   6   0 1903.59   93.92
   2   6   0 1814.32   90.85
  -3  -6   0   -0.37    7.02
  -3  -6   0    0.28    3.13
  -3  -6   0    9.76    7.65
  -3  -6   0   -2.78    4.08
   3   6   0    0.48    4.39
   3   6   0   -1.18    3.59
   3   6   0    5.72    4.82
   3   6   0   -5.12    4.90
  -4  -6   0 1404.32   73.64
  -4  -6   0 1311.80   72.58
  -4  -6   0 1310.58   70.54
  -4  -6   0 1349.00   68.89
   4   6   0 1346.34   69.58
   4   6   0 1339.93   68.44
   4   6   0 1254.10   71.00
  -5  -6   0    6.64    7.28
  -5  -6   0   -0.32    6.51
  -5  -6   0    2.54    6.35
  -5  -6   0    2.75    9.27
   5   6   0   -0.58    3.80
   5   6   0    3.82    7.48
   5   6   0   -0.50    6.78
   5   6   0   -3.00    8.09
  -6  -6   0  701.29   43.71
  -6  -6   0  648.06   42.96
  -6  -6   0  627.45   39.04
  -6  -6   0  630.91   38.98
   6   6   0  688.06   38.36
   6   6   0  681.61   41.65
   6   6   0  642.53   40.90
  -7  -6   0   -1.80    9.22
  -7  -6   0   -5.95   11.13
  -7  -6   0   -1.43    6.86
  -7  -6   0   10.53   11.60
   7   6   0   -2.79    9.52
   7   6   0    9.23    8.08
   7   6   0   -9.42   10.93
   7   6   0    2.12    9.08
  -8  -6   0  189.04   26.03
  -8  -6   0  234.73   24.35
  -8  -6   0  281.91   30.68
  -8  -6   0  255.68   25.58
   8   6   0  283.94   26.48
   8   6   0  177.25   19.78
   8   6   0  242.70   26.69
  -9  -6   0    5.46   13.80
  -9  -6   0   -9.73   10.64
  -9  -6   0    8.37   15.18
   9   6   0    5.37   15.92
   9   6   0   -4.28   11.10
   9  -7   0  129.94   20.49
  -9   7   0  127.75   22.38
  -9   7   0  140.78   25.59
   8  -7   0  -23.21   11.87
  -8   7   0   -1.82   12.05
  -8   7   0  -16.56   13.29
  -8   7   0    3.71   14.37
   7  -7   0  259.18   28.60
   7  -7   0  348.61   31.06
  -7   7   0  366.26   30.99
  -7   7   0  357.64   32.63
  -7   7   0  344.74   31.26
   6  -7   0   21.91   10.85
   6  -7   0    4.40   10.62
  -6   7   0    7.93    8.76
  -6   7   0    7.47   10.26
  -6   7   0   19.13    9.52
   5  -7   0  572.28   34.71
   5  -7   0  577.02   37.85
   5  -7   0  634.39   38.30
   5  -7   0  591.24   39.42
  -5   7   0  593.73   35.98
  -5   7   0  532.91   38.77
  -5   7   0  638.96   36.90
   4  -7   0    7.55    6.09
   4  -7   0   10.42    9.98
   4  -7   0   -0.35    8.80
   4  -7   0   19.88    9.25
  -4   7   0    8.37    7.07
  -4   7   0    2.80    4.04
  -4   7   0    9.58    6.52
  -4   7   0    6.71    5.69
   3  -7   0 1117.47   62.05
   3  -7   0 1154.11   60.27
   3  -7   0 1140.95   59.67
  -3   7   0 1093.57   58.15
  -3   7   0  968.37   55.43
  -3   7   0 1091.34   56.19
  -3   7   0  987.06   59.18
   2  -7   0   15.05    7.75
   2  -7   0    0.41    7.12
   2  -7   0    0.20    5.82
  -2   7   0   -0.44    4.80
  -2   7   0   -2.02    3.48
  -2   7   0   -3.89    5.97
  -2   7   0   -2.77    4.88
   1  -7   0 2013.80  103.67
   1  -7   0 2149.37  101.32
   1  -7   0 1916.82  102.87
   1  -7   0 1831.06   96.04
   1  -7   0 1893.06  101.62
  -1   7   0 1916.16  100.22
  -1   7   0 1963.14   96.28
  -1   7   0 2066.30  101.20
   0  -7   0   -3.95    5.63
   0  -7   0   19.23    9.10
   0  -7   0   -5.95    7.14
   0  -7   0  -12.83    6.18
   0   7   0    1.36    3.50
   0   7   0   -4.83    4.72
   0   7   0    1.79    5.70
  -1  -7   0 1770.10   97.30
  -1  -7   0 1875.53   99.23
  -1  -7   0 1957.67   97.81
   1   7   0 1862.46   95.01
   1   7   0 1872.33   96.07
   1   7   0 1996.39   95.81
   1   7   0 1858.63   92.53
  -2  -7   0    3.54    5.70
  -2  -7   0  -12.90    7.01
  -2  -7   0    8.63    5.88
   2   7   0   -2.22    5.37
   2   7   0    7.43    6.58
   2   7   0   -1.11    2.99
   2   7   0    3.11    1.77
  -3  -7   0 1095.95   57.82
  -3  -7   0 1051.84   58.62
  -3  -7   0 1069.70   59.79
   3   7   0 1007.96   55.80
   3   7   0 1020.48   55.90
   3   7   0 1065.22   53.49
   3   7   0 1041.26   57.00
  -4  -7   0    8.44    9.95
  -4  -7   0    3.12    7.35
  -4  -7   0    4.98    7.02
   4   7   0    2.83    8.18
   4   7   0    7.45    6.37
   4   7   0   12.09    5.20
  -5  -7   0  622.46   40.32
  -5  -7   0  605.70   37.29
  -5  -7   0  602.01   40.29
   5   7   0  601.43   35.63
   5   7   0  635.54   37.67
   5   7   0  557.28   33.19
  -6  -7   0    4.93   10.28
  -6  -7   0    7.63    9.28
  -6  -7   0   19.23   12.88
  -6  -7   0   16.75   10.04
   6   7   0    6.62    8.54
   6   7   0   26.62    8.91
   6   7   0   16.55   11.89
  -7  -7   0  377.80   34.56
  -7  -7   0  375.82   34.34
  -7  -7   0  298.87   28.47
   7   7   0  329.16   26.10
   7   7   0  381.25   31.77
   7   7   0  303.72   30.13
  -8  -7   0   -5.94   11.47
  -8  -7   0   32.01   17.74
  -8  -7   0   13.64   11.67
   8   7   0   18.75   13.66
   8   7   0    9.75   11.07
  -9  -7   0  133.74   23.58
  -9  -7   0  163.39   24.28
  -9  -7   0  143.11   22.49
   9   7   0  128.59   25.26
   9   7   0  166.88   23.75
   8  -8   0  170.31   25.34
  -8   8   0  201.97   28.76
  -8   8   0  179.51   26.04
   7  -8   0   23.69   10.76
  -7   8   0    7.11   10.34
  -7   8   0   -3.26    8.37
  -7   8   0   18.55   13.38
   6  -8   0  335.39   32.60
   6  -8   0  389.42   33.98
   6  -8   0  408.43   36.34
  -6   8   0  432.23   29.53
  -6   8   0  407.74   36.55
  -6   8   0  413.94   33.73
   5  -8   0    8.62    6.52
   5  -8   0    0.31    9.99
   5  -8   0  -13.59    6.93
   5  -8   0    8.55    8.47
  -5   8   0   20.79   12.34
  -5   8   0   16.31    8.15
  -5   8   0   13.12   10.40
   4  -8   0  643.38   41.79
   4  -8   0  680.09   39.80
   4  -8   0  641.34   44.55
   4  -8   0  648.74   41.09
  -4   8   0  745.90   43.11
  -4   8   0  701.63   38.41
  -4   8   0  584.11   39.21
   3  -8   0   -2.29    7.70
   3  -8   0   10.57    8.61
   3  -8   0   -5.18    8.58
  -3   8   0    3.15    5.71
  -3   8   0   -6.38    8.86
  -3   8   0    0.38    4.65
  -3   8   0   -3.62    5.33
   2  -8   0  796.82   49.41
   2  -8   0  778.81   48.07
   2  -8   0  781.01   47.04
  -2   8   0  840.85   42.01
  -2   8   0  760.16   46.99
  -2   8   0  900.14   46.35
  -2   8   0  784.88   44.80
   1  -8   0   -1.29    7.78
   1  -8   0    1.54    8.49
   1  -8   0   -7.24    6.39
   1  -8   0    0.81    7.31
  -1   8   0   -8.34    6.10
  -1   8   0  -10.25    5.92
   0  -8   0 1285.81   66.86
   0  -8   0 1227.25   67.40
   0  -8   0 1262.57   69.21
   0  -8   0 1225.16   68.89
   0   8   0 1245.58   65.46
   0   8   0 1140.75   61.83
   0   8   0 1258.97   65.32
  -1  -8   0  -12.71    7.25
  -1  -8   0   -3.09    6.10
  -1  -8   0   -1.16    7.00
   1   8   0   -0.49    4.82
   1   8   0   -0.78    6.51
   1   8   0   -0.41    5.31
  -2  -8   0  776.74   47.39
  -2  -8   0  888.66   50.53
  -2  -8   0  779.39   47.87
   2   8   0  825.44   45.50
   2   8   0  822.82   45.78
  -3  -8   0    9.42    9.37
  -3  -8   0   -0.35    8.15
  -3  -8   0    6.84   10.31
   3   8   0    4.66    6.52
   3   8   0   12.10    7.45
   3   8   0   12.90    8.17
  -4  -8   0  755.43   42.48
  -4  -8   0  649.16   44.62
  -4  -8   0  664.55   43.52
   4   8   0  657.47   38.74
   4   8   0  693.53   39.89
   4   8   0  694.49   41.63
  -5  -8   0   12.17    7.92
  -5  -8   0    4.46    8.89
  -5  -8   0   -6.19   10.53
   5   8   0    7.67    8.71
   5   8   0   13.10   10.38
   5   8   0   17.97    8.10
   5   8   0    6.49    6.12
  -6  -8   0  408.76   36.03
  -6  -8   0  438.25   29.61
  -6  -8   0  354.01   34.75
   6   8   0  376.55   33.62
   6   8   0  456.78   37.21
  -7  -8   0   11.83   14.49
  -7  -8   0   -4.71   11.86
  -7  -8   0    4.92   14.15
   7   8   0   -3.01    9.23
   7   8   0    2.07   12.95
   7   8   0    7.87    9.97
  -8  -8   0  188.62   28.90
  -8  -8   0  223.74   30.12
  -8  -8   0  221.54   26.85
   8   8   0  176.37   27.22
   8   8   0  226.77   26.13
   8  -9   0  -18.78   14.53
  -8   9   0   17.15   14.41
  -8   9   0   -1.05   14.76
   7  -9   0  199.80   26.75
  -7   9   0  185.25   27.13
  -7   9   0  224.62   25.51
   6  -9   0    2.87   10.50
   6  -9   0   -8.03    8.29
  -6   9   0    9.95   14.75
  -6   9   0    5.60   12.33
   5  -9   0  418.04   35.34
   5  -9   0  370.61   36.74
   5  -9   0  406.01   31.62
  -5   9   0  437.85   29.72
  -5   9   0  378.99   34.85
   4  -9   0   -0.23    9.46
   4  -9   0    4.42    9.91
   4  -9   0   -1.36    8.69
   4  -9   0   -6.36   10.17
  -4   9   0    3.68    8.21
  -4   9   0   -8.11    8.70
   3  -9   0  734.45   47.00
   3  -9   0  815.29   47.63
   3  -9   0  671.85   47.72
  -3   9   0  850.47   45.95
  -3   9   0  689.16   45.70
  -3   9   0  764.70   42.74
   2  -9   0   -7.07   10.03
   2  -9   0   -2.27   12.22
   2  -9   0    8.88   10.10
  -2   9   0   -2.20    5.89
  -2   9   0   -4.16    5.84
  -2   9   0    2.85    7.56
   1  -9   0  774.02   48.04
   1  -9   0  777.56   50.00
   1  -9   0  832.88   52.01
  -1   9   0  934.51   47.81
  -1   9   0  791.14   43.24
  -1   9   0  837.19   47.36
  -1   9   0  790.92   47.30
   0  -9   0   -6.12    9.37
   0  -9   0  -17.38    7.93
   0  -9   0   -2.51    6.96
   0  -9   0   -5.62    5.91
   0   9   0    3.72    7.96
   0   9   0   -7.67    6.51
  -1  -9   0  822.09   51.72
  -1  -9   0  819.97   48.32
  -1  -9   0  817.74   48.84
  -1  -9   0  813.20   51.52
   1   9   0  834.27   46.46
   1   9   0  809.57   45.09
  -2  -9   0    1.78    9.68
  -2  -9   0   -6.71   10.08
  -2  -9   0  -11.94    5.73
   2   9   0    4.71    7.11
   2   9   0   -8.79    6.67
  -3  -9   0  868.63   49.80
  -3  -9   0  838.37   49.12
  -3  -9   0  822.71   50.77
   3   9   0  849.29   46.42
   3   9   0  764.65   45.52
   3   9   0  726.99   46.14
  -4  -9   0   -2.86    8.10
  -4  -9   0    1.34   11.50
  -4  -9   0    5.01   10.59
   4   9   0   -3.98    8.99
   4   9   0    2.35    8.46
   4   9   0   10.66    7.68
   4   9   0    0.49    8.20
  -5  -9   0  421.94   37.35
  -5  -9   0  416.35   34.38
  -5  -9   0  438.28   38.15
   5   9   0  406.43   28.38
   5   9   0  431.51   34.82
   5   9   0  437.73   36.82
  -6  -9   0  -12.00   13.50
  -6  -9   0   -0.87   13.05
  -6  -9   0    0.87   11.11
   6   9   0    7.42   10.22
   6   9   0   10.87   10.69
   6   9   0    8.75   12.31
  -7  -9   0  183.97   24.67
  -7  -9   0  216.22   29.80
  -7  -9   0  193.17   28.76
   7   9   0  221.66   27.23
   7   9   0  192.64   26.74
  -8  -9   0    1.32   18.03
  -8  -9   0    4.87   18.05
  -8  -9   0    5.57   12.12
   8   9   0    3.07   16.87
   8   9   0  -24.31   14.63
   7 -10   0   -1.62   15.01
  -7  10   0   31.93   19.02
  -7  10   0   -5.67    9.95
   6 -10   0  237.20   28.26
   6 -10   0  201.53   29.43
  -6  10   0  219.32   29.20
  -6  10   0  175.44   23.93
   5 -10   0   -6.90    8.61
   5 -10   0   -2.18   14.73
  -5  10   0    9.89   11.14
  -5  10   0    8.99   11.83
   4 -10   0  349.67   33.66
   4 -10   0  433.42   37.12
   4 -10   0  364.74   36.36
  -4  10   0  457.58   34.64
  -4  10   0  453.39   37.59
   3 -10   0   14.18   12.70
   3 -10   0    7.44   11.85
   3 -10   0    5.52   14.61
  -3  10   0    1.80    8.54
  -3  10   0   -1.67   11.05
  -3  10   0   16.98   10.57
   2 -10   0  720.29   44.94
   2 -10   0  591.63   44.32
   2 -10   0  718.53   43.18
  -2  10   0  655.47   40.21
  -2  10   0  668.20   40.64
  -2  10   0  626.86   42.18
   1 -10   0   32.83   14.86
   1 -10   0    3.08    8.39
   1 -10   0    3.71   10.69
  -1  10   0   11.40    9.74
  -1  10   0   -5.44    8.14
  -1  10   0   -1.80    8.11
   0 -10   0  954.17   58.14
   0 -10   0 1025.61   55.95
   0 -10   0  893.67   55.42
   0 -10   0  786.52   56.34
   0  10   0  960.80   54.43
   0  10   0  909.29   52.80
   0  10   0  969.51   53.15
  -1 -10   0  -12.29    8.25
  -1 -10   0    7.83    9.36
  -1 -10   0    5.47   10.70
  -1 -10   0  -14.11   10.24
   1  10   0   -3.01    6.12
   1  10   0    0.86    8.11
   1  10   0   17.92   11.18
  -2 -10   0  747.12   47.81
  -2 -10   0  671.68   42.93
  -2 -10   0  677.07   43.37
   2  10   0  651.02   44.05
   2  10   0  646.52   39.82
   2  10   0  666.66   39.77
  -3 -10   0    7.58   10.17
  -3 -10   0  -12.34    6.82
  -3 -10   0    1.07   11.44
   3  10   0   -6.01    7.76
   3  10   0    5.30    8.89
   3  10   0  -13.45   11.09
   3  10   0    0.14   10.35
  -4 -10   0  383.46   35.83
  -4 -10   0  377.82   33.26
  -4 -10   0  375.64   34.80
   4  10   0  403.03   27.10
   4  10   0  396.90   31.27
   4  10   0  334.90   28.40
   4  10   0  390.63   34.29
  -5 -10   0    1.47    9.25
  -5 -10   0  -29.79   12.12
  -5 -10   0   -5.90   14.31
   5  10   0   -7.45    8.97
   5  10   0   17.90   10.43
   5  10   0    1.04   11.95
  -6 -10   0  178.37   27.75
  -6 -10   0  274.56   28.95
  -6 -10   0  201.90   26.98
   6  10   0  238.73   27.98
   6  10   0  226.94   26.11
  -7 -10   0   11.16   16.04
  -7 -10   0    0.72   17.33
  -7 -10   0   -1.78   12.43
   7  10   0   12.94   16.78
   7  10   0    5.46   16.02
   6 -11   0    1.76   15.63
   6 -11   0  -20.38   16.80
  -6  11   0    5.67   11.87
  -6  11   0  -10.00   11.60
   5 -11   0  252.89   32.83
   5 -11   0  192.29   25.65
  -5  11   0  229.83   26.61
  -5  11   0  239.51   30.15
   4 -11   0   -0.15   12.02
   4 -11   0  -23.58   12.77
  -4  11   0   -1.01    9.68
  -4  11   0   -3.32   11.43
   3 -11   0  276.18   32.08
   3 -11   0  310.53   30.26
  -3  11   0  276.47   29.46
  -3  11   0  329.79   29.17
   2 -11   0   -3.36   13.35
   2 -11   0  -10.00   13.95
   2 -11   0    6.65   13.83
  -2  11   0   -4.94    8.74
  -2  11   0   -8.30    9.17
  -2  11   0   -2.96   10.89
   1 -11   0  531.35   45.91
   1 -11   0  446.62   40.88
   1 -11   0  562.39   36.52
  -1  11   0  526.94   35.13
  -1  11   0  470.35   34.67
  -1  11   0  502.13   33.99
   0 -11   0    0.37   10.79
   0 -11   0   -3.50   13.10
   0 -11   0    2.94   11.96
   0 -11   0   11.93   16.47
   0  11   0    0.15    8.42
   0  11   0   -4.97   10.38
   0  11   0   -7.25    8.49
  -1 -11   0  483.15   42.64
  -1 -11   0  512.89   43.76
  -1 -11   0  436.14   36.95
  -1 -11   0  479.43   39.14
   1  11   0  454.51   33.58
   1  11   0  489.32   32.73
  -2 -11   0  -18.38   11.76
  -2 -11   0    5.99   12.90
  -2 -11   0   -2.12   10.04
  -2 -11   0    2.18   15.77
   2  11   0    2.05   12.72
   2  11   0   -3.83    8.56
   2  11   0   -9.01    9.23
  -3 -11   0  326.50   33.34
  -3 -11   0  340.58   32.55
  -3 -11   0  295.91   30.35
   3  11   0  250.68   25.99
   3  11   0  276.95   24.94
   3  11   0  293.84   29.60
  -4 -11   0   13.94   15.92
  -4 -11   0    2.55   10.06
  -4 -11   0   15.57   12.14
   4  11   0   -4.02   10.66
   4  11   0    0.83   13.87
  -5 -11   0  277.77   31.90
  -5 -11   0  189.92   28.91
  -5 -11   0  174.57   26.61
   5  11   0  226.18   27.36
  -6 -11   0  -12.56   17.11
  -6 -11   0   14.13   18.54
  -6 -11   0   21.50   17.04
   6  11   0    1.29   11.59
   5 -12   0   13.08   13.26
   5 -12   0    9.63   20.44
  -5  12   0   -3.27   15.21
   4 -12   0  272.38   35.82
   4 -12   0  256.74   30.56
  -4  12   0  309.04   30.46
  -4  12   0  240.65   30.85
   3 -12   0   14.18   15.23
   3 -12   0    7.10   18.19
  -3  12   0   -1.21   13.86
  -3  12   0  -12.50   10.96
   2 -12   0  343.60   34.16
   2 -12   0  307.94   36.69
  -2  12   0  281.64   30.20
  -2  12   0  372.16   30.69
   1 -12   0  -15.57   15.25
   1 -12   0  -24.54   11.67
  -1  12   0    2.66   12.72
  -1  12   0  -21.67    9.80
  -1  12   0    7.03   12.14
   0 -12   0  333.78   36.38
   0 -12   0  361.28   32.97
   0 -12   0  310.46   34.90
   0 -12   0  310.08   30.33
   0  12   0  348.35   28.90
   0  12   0  292.11   29.08
  -1 -12   0    9.59   10.96
  -1 -12   0  -20.33   12.61
  -1 -12   0  -23.71   15.11
  -1 -12   0   10.96   18.00
   1  12   0  -11.23   11.95
   1  12   0   12.63   11.76
  -2 -12   0  328.97   32.48
  -2 -12   0  257.15   33.15
  -2 -12   0  313.03   32.74
   2  12   0  351.30   27.70
   2  12   0  367.51   34.23
   2  12   0  282.05   29.78
  -3 -12   0   -6.36   15.79
  -3 -12   0   -2.73   11.23
  -3 -12   0    4.57   15.06
   3  12   0   -1.18   12.12
   3  12   0    0.19   11.41
   3  12   0    6.63   10.60
  -4 -12   0  278.54   34.33
  -4 -12   0  261.69   33.38
  -4 -12   0  316.56   33.81
   4  12   0  254.51   31.54
  -5 -12   0   13.63   18.66
   2 -13   0   -6.86   18.53
   2 -13   0   22.49   16.21
  -2  13   0    4.11   12.92
  -2  13   0    7.88   15.04
   1 -13   0  257.50   36.75
   1 -13   0  325.24   34.26
  -1  13   0  322.06   31.59
  -1  13   0  354.88   31.27
   0 -13   0    8.73   15.07
   0 -13   0   11.97   16.15
   0  13   0   14.91   14.92
   0  13   0  -14.06   11.41
  -1 -13   0  278.98   35.62
  -1 -13   0  333.21   34.61
   1  13   0  339.41   29.67
   1  13   0  277.90   31.84
   1  13   0  274.50   32.21
  -2 -13   0  -15.30   16.05
  -2 -13   0   10.14   20.16
  -2 -13   0   -4.46   15.26
   2  13   0   -9.05   15.01
   2  13   0  -11.74   13.57
   2  13   0    8.84   13.95
   2  13  -1  256.97   31.46
   2  13  -1  221.65   28.52
  -2 -13   1  268.62   32.19
  -2 -13   1  220.17   33.83
   1  13  -1    1.05   10.63
   1  13  -1   12.76   15.47
  -1 -13   1  -16.08   12.36
  -1 -13   1   -1.00   11.49
   0  13  -1  308.06   31.51
   0  13  -1  280.50   32.12
   0  13  -1  291.62   27.68
   0 -13   1  262.15   31.50
   0 -13   1  347.85   39.01
  -1  13  -1   -5.36   13.51
  -1  13  -1    6.87   11.72
   1 -13   1   -6.31   18.30
   1 -13   1    7.83   15.94
  -2  13  -1  257.21   26.96
   2 -13   1  263.45   36.95
   2 -13   1  301.88   33.78
   3 -13   1   12.03   17.85
   4  12  -1  -10.54   14.13
  -4 -12   1   -8.63   11.41
  -4 -12   1  -10.09   15.01
  -4 -12   1  -12.05   16.87
   3  12  -1  261.00   28.04
   3  12  -1  307.39   31.15
  -3 -12   1  291.96   30.96
  -3 -12   1  261.01   32.86
  -3 -12   1  280.16   31.89
   2  12  -1    2.62   10.20
   2  12  -1   18.11   12.54
   2  12  -1   -0.21    9.20
  -2 -12   1   -4.10   13.73
  -2 -12   1  -22.15   12.90
  -2 -12   1   -3.21   12.08
   1  12  -1  228.16   22.62
   1  12  -1  331.35   29.73
   1  12  -1  274.68   29.66
  -1 -12   1  253.87   30.88
  -1 -12   1  285.92   30.42
  -1 -12   1  273.22   28.27
   0  12  -1   14.41   11.63
   0  12  -1    3.55    9.17
   0 -12   1   -4.33   16.15
   0 -12   1   15.10   14.10
   0 -12   1    6.23   16.31
  -1  12  -1  380.61   31.87
  -1  12  -1  293.03   29.58
  -1  12  -1  324.54   28.26
   1 -12   1  317.73   37.96
   1 -12   1  378.91   38.15
   1 -12   1  383.65   35.33
  -2  12  -1    7.68   11.53
  -2  12  -1   -1.24   10.72
  -2  12  -1   -3.89   12.11
   2 -12   1   -2.20   19.38
   2 -12   1   28.40   19.75
   2 -12   1  -13.37   12.93
  -3  12  -1  278.73   30.80
  -3  12  -1  327.60   28.83
   3 -12   1  247.01   34.76
   3 -12   1  260.52   29.94
  -4  12  -1   14.62   15.22
  -4  12  -1   -4.75   12.12
   4 -12   1   22.00   18.45
   4 -12   1   -5.34   10.98
  -5  12  -1  206.96   29.66
  -5  12  -1  226.16   27.29
   5 -12   1  253.66   36.06
   5 -12   1  191.58   29.45
   6  11  -1  168.36   25.71
   6  11  -1  277.81   30.63
  -6 -11   1  173.23   29.72
  -6 -11   1  163.30   28.38
   5  11  -1   17.07   15.13
   5  11  -1   15.26   11.90
  -5 -11   1   -2.83   16.03
  -5 -11   1   27.27   16.31
  -5 -11   1  -15.27   14.92
   4  11  -1  217.00   23.59
   4  11  -1  260.86   26.23
   4  11  -1  234.97   29.15
  -4 -11   1  283.90   28.68
  -4 -11   1  254.65   27.93
  -4 -11   1  281.43   31.38
   3  11  -1    4.38    9.18
   3  11  -1   -3.79    9.00
   3  11  -1   -7.88   10.32
  -3 -11   1   12.81   12.16
  -3 -11   1    6.19   10.22
  -3 -11   1   12.21   13.94
   2  11  -1  385.98   27.52
   2  11  -1  381.37   34.79
   2  11  -1  407.13   33.64
  -2 -11   1  403.73   40.77
  -2 -11   1  439.84   39.22
  -2 -11   1  363.76   33.86
  -2 -11   1  404.39   34.56
   1  11  -1   -4.76    8.17
   1  11  -1   -0.03    8.69
  -1 -11   1  -10.60   14.33
  -1 -11   1   17.66   14.13
  -1 -11   1  -10.60   11.00
  -1 -11   1    8.50   11.56
   0  11  -1  478.33   31.03
   0  11  -1  435.06   35.81
   0 -11   1  429.52   41.58
   0 -11   1  482.72   33.57
   0 -11   1  456.87   41.67
   0 -11   1  478.07   33.42
  -1  11  -1    1.22    8.99
  -1  11  -1   -3.81    8.99
  -1  11  -1   -7.45   10.36
   1 -11   1   11.16   14.61
   1 -11   1   -7.45   11.73
   1 -11   1  -17.41   13.81
  -2  11  -1  420.83   32.73
  -2  11  -1  397.52   34.59
  -2  11  -1  376.58   31.53
   2 -11   1  435.72   39.42
   2 -11   1  447.24   41.48
   2 -11   1  459.46   38.04
  -3  11  -1   -7.89   10.74
  -3  11  -1    5.54   10.70
   3 -11   1   15.97   14.21
   3 -11   1  -11.26   10.28
   3 -11   1   -1.28   13.85
  -4  11  -1  234.25   27.28
  -4  11  -1  308.53   27.98
   4 -11   1  245.23   29.23
   4 -11   1  303.20   33.15
  -5  11  -1    6.50   12.64
  -5  11  -1    2.35   10.73
   5 -11   1  -10.89    9.43
   5 -11   1   16.78   17.55
  -6  11  -1  228.72   26.64
  -6  11  -1  143.30   25.95
   6 -11   1  231.16   30.03
   6 -11   1  139.38   25.89
   7  10  -1  166.06   26.79
   7  10  -1  187.72   26.92
  -7 -10   1  171.00   28.50
  -7 -10   1  167.88   29.08
   6  10  -1   -0.25   10.56
   6  10  -1  -11.69   13.50
  -6 -10   1    4.73   15.00
  -6 -10   1    2.87   12.36
  -6 -10   1   18.40   14.82
   5  10  -1  300.09   29.74
   5  10  -1  283.03   29.41
  -5 -10   1  261.62   29.21
  -5 -10   1  309.63   34.50
  -5 -10   1  297.60   28.53
   4  10  -1   -0.37    9.57
   4  10  -1    4.83   12.61
   4  10  -1    6.38    8.08
   4  10  -1   -6.59    9.85
  -4 -10   1   23.09   13.79
  -4 -10   1    0.20   11.98
  -4 -10   1   -7.93    7.98
   3  10  -1  579.08   33.75
   3  10  -1  601.60   39.00
   3  10  -1  493.47   35.48
   3  10  -1  547.36   36.38
  -3 -10   1  515.11   38.70
  -3 -10   1  570.72   38.21
  -3 -10   1  623.18   41.29
   2  10  -1   12.54   11.34
   2  10  -1  -16.36    8.02
   2  10  -1   13.25   10.38
   2  10  -1    5.41    8.68
  -2 -10   1  -16.12    9.31
  -2 -10   1   -1.96    8.74
  -2 -10   1  -10.86    9.99
   1  10  -1  715.28   42.66
   1  10  -1  826.34   46.51
  -1 -10   1  708.80   45.87
  -1 -10   1  689.37   47.94
  -1 -10   1  769.86   45.92
  -1 -10   1  736.64   50.72
   0  10  -1   -9.66    7.25
   0  10  -1   -5.25    9.87
   0  10  -1    2.14    6.88
   0 -10   1  -18.86    7.92
   0 -10   1    7.71   11.99
   0 -10   1   -0.67    9.31
   0 -10   1   -0.30   11.82
  -1  10  -1  836.52   48.62
  -1  10  -1  821.21   48.57
  -1  10  -1  829.87   47.44
   1 -10   1  803.48   52.57
   1 -10   1  815.19   53.01
   1 -10   1  797.80   50.18
  -2  10  -1    0.91    8.49
  -2  10  -1   -9.00    8.00
  -2  10  -1   -2.41    9.42
   2 -10   1   21.30   15.35
   2 -10   1   21.02    9.43
   2 -10   1   -8.85   11.78
  -3  10  -1  474.42   36.50
  -3  10  -1  563.63   34.83
   3 -10   1  529.82   38.73
   3 -10   1  489.99   39.70
   3 -10   1  522.13   43.96
  -4  10  -1  -12.47   10.69
  -4  10  -1   -2.01   10.06
   4 -10   1  -11.79   12.71
   4 -10   1   -6.91   10.29
   4 -10   1   -8.75   11.67
   4 -10   1   -7.77   10.69
  -5  10  -1  341.17   28.70
  -5  10  -1  257.73   28.59
   5 -10   1  207.91   30.59
   5 -10   1  244.03   26.97
   5 -10   1  310.82   33.57
  -6  10  -1   16.86   10.81
  -6  10  -1   23.44   15.80
   6 -10   1    0.93   11.80
   6 -10   1   -4.53   13.66
  -7  10  -1   98.95   20.63
  -7  10  -1  168.85   26.94
   7 -10   1  172.73   25.91
   8   9  -1  151.03   25.46
   8   9  -1  155.46   26.53
  -8  -9   1  167.95   29.06
  -8  -9   1  156.17   29.45
   7   9  -1    7.40   14.36
   7   9  -1    3.19   11.15
  -7  -9   1    0.50   11.17
  -7  -9   1    5.45   15.75
  -7  -9   1   17.50   14.42
   6   9  -1  223.31   27.23
   6   9  -1  239.67   27.34
  -6  -9   1  237.92   29.75
  -6  -9   1  272.88   26.83
  -6  -9   1  304.70   30.36
   5   9  -1    2.17   11.07
   5   9  -1    9.66    9.52
   5   9  -1    5.55    6.91
  -5  -9   1    1.68   12.77
  -5  -9   1   -0.37    7.82
  -5  -9   1    3.45   10.01
   4   9  -1  590.89   37.18
   4   9  -1  575.43   40.96
   4   9  -1  603.10   39.24
   4   9  -1  623.09   35.40
  -4  -9   1  611.38   40.23
  -4  -9   1  601.65   39.44
  -4  -9   1  665.85   43.99
   3   9  -1    6.07    9.04
   3   9  -1   13.06    8.57
   3   9  -1  -11.98    7.35
   3   9  -1   -5.00    7.21
  -3  -9   1   -8.50   10.37
  -3  -9   1    1.29    7.48
  -3  -9   1   11.40   10.44
   2   9  -1  730.27   43.59
   2   9  -1  713.16   38.84
   2   9  -1  722.99   41.13
   2   9  -1  678.47   40.31
  -2  -9   1  634.10   40.76
  -2  -9   1  601.34   42.94
  -2  -9   1  639.96   41.89
   1   9  -1   -4.45    7.06
   1   9  -1    1.70    6.45
   1   9  -1   -4.78    8.89
  -1  -9   1   -5.17    7.59
  -1  -9   1    7.76   11.85
  -1  -9   1   -8.38    6.29
  -1  -9   1    5.25    7.79
   0   9  -1  923.03   53.11
   0   9  -1  941.10   51.36
   0   9  -1  912.06   50.99
   0  -9   1  935.27   57.23
   0  -9   1  875.88   52.85
   0  -9   1  865.59   56.02
   0  -9   1  987.92   52.92
  -1   9  -1   -0.58    4.84
  -1   9  -1    4.13    6.85
  -1   9  -1   10.93    8.29
  -1   9  -1   22.32    9.23
   1  -9   1   11.62    8.20
   1  -9   1   19.46   10.97
   1  -9   1    2.22   10.35
   1  -9   1   -1.85    8.04
  -2   9  -1  922.93   52.29
  -2   9  -1  853.28   49.87
  -2   9  -1  863.34   49.60
   2  -9   1  839.12   54.15
   2  -9   1  929.73   53.02
   2  -9   1  912.45   54.59
  -3   9  -1   -0.23    9.32
  -3   9  -1   -0.69    8.93
  -3   9  -1    3.15    7.75
   3  -9   1   -8.41   10.64
   3  -9   1    9.78   11.45
   3  -9   1    3.95    9.25
  -4   9  -1  700.66   44.72
  -4   9  -1  762.55   41.76
   4  -9   1  639.72   44.76
   4  -9   1  681.06   43.95
   4  -9   1  613.30   41.70
   4  -9   1  657.61   44.60
  -5   9  -1   -5.13    7.84
  -5   9  -1   -5.22   10.42
   5  -9   1   -2.35   13.92
   5  -9   1    9.45   11.92
   5  -9   1  -16.13   12.62
   5  -9   1    5.39    8.71
  -6   9  -1  306.17   32.05
  -6   9  -1  235.00   25.27
   6  -9   1  298.56   32.62
   6  -9   1  273.55   29.85
   6  -9   1  281.43   28.36
  -7   9  -1   -8.13   11.91
  -7   9  -1   18.54   15.50
   7  -9   1  -11.56   12.93
  -8   9  -1  169.65   27.38
  -8   9  -1  126.88   22.68
   8  -9   1  103.12   23.17
   8   8  -1   -7.07   14.98
   8   8  -1   -5.70    9.34
  -8  -8   1   -9.88   14.14
  -8  -8   1   -2.18   15.80
  -8  -8   1   -1.86   12.08
   7   8  -1  257.18   27.55
   7   8  -1  231.82   27.53
  -7  -8   1  293.14   27.61
  -7  -8   1  200.68   28.20
  -7  -8   1  264.76   31.51
   6   8  -1   -1.18   11.80
   6   8  -1   10.33    7.69
   6   8  -1    8.56    9.15
  -6  -8   1  -14.85    9.39
  -6  -8   1  -11.45    8.42
  -6  -8   1   15.70   14.11
   5   8  -1  591.70   38.69
   5   8  -1  574.06   37.54
   5   8  -1  516.08   31.81
   5   8  -1  535.12   32.55
  -5  -8   1  660.75   40.38
  -5  -8   1  425.79   40.24
  -5  -8   1  558.99   35.86
   4   8  -1    9.84   10.01
   4   8  -1    2.70    5.64
   4   8  -1    6.06   10.37
   4   8  -1    3.52    7.14
  -4  -8   1    1.28    8.06
  -4  -8   1    1.53    9.85
  -4  -8   1   11.55    9.01
   3   8  -1  803.26   42.67
   3   8  -1  767.07   46.21
   3   8  -1  724.96   44.26
   3   8  -1  819.10   44.38
  -3  -8   1  674.02   46.68
  -3  -8   1  796.88   45.58
  -3  -8   1  817.67   47.08
   2   8  -1    3.97    7.57
   2   8  -1   -4.54    5.79
   2   8  -1    4.03    9.14
   2   8  -1   -1.00    7.35
  -2  -8   1   -0.04    8.07
  -2  -8   1    2.40    7.63
  -2  -8   1   -6.75    5.42
   1   8  -1  696.90   39.13
   1   8  -1  740.99   41.82
   1   8  -1  744.90   41.20
   1   8  -1  820.46   45.24
   1   8  -1  728.65   42.19
  -1  -8   1  731.48   46.42
  -1  -8   1  851.00   44.79
  -1  -8   1  837.36   44.55
   0   8  -1   -0.72    3.98
   0   8  -1   -0.76    7.28
   0   8  -1   -2.74    4.03
   0   8  -1    3.91    5.95
   0  -8   1    0.44    6.97
   0  -8   1    3.55    7.21
   0  -8   1    2.64    8.30
   0  -8   1   13.98   10.74
  -1   8  -1 1177.79   62.27
  -1   8  -1 1381.00   65.46
  -1   8  -1 1252.84   64.22
  -1   8  -1 1109.17   64.52
   1  -8   1 1263.04   68.94
   1  -8   1 1287.70   66.67
   1  -8   1 1123.00   67.48
   1  -8   1 1080.46   63.87
  -2   8  -1   -5.32    6.77
  -2   8  -1   -0.01    2.60
  -2   8  -1   -1.53    6.20
  -2   8  -1   -5.84    6.90
   2  -8   1    8.90    9.50
   2  -8   1    2.80    9.12
   2  -8   1    7.44   11.54
  -3   8  -1  831.30   50.72
  -3   8  -1  885.83   49.06
  -3   8  -1  810.40   45.34
  -3   8  -1  877.90   46.85
   3  -8   1  922.54   52.74
   3  -8   1  903.59   52.89
   3  -8   1  865.18   50.28
  -4   8  -1    0.75    6.11
  -4   8  -1   15.83    5.79
  -4   8  -1    7.31   10.46
  -4   8  -1   -6.35    5.65
   4  -8   1   -1.21    6.77
   4  -8   1    2.24    9.92
   4  -8   1    7.88    7.99
   4  -8   1   -6.74    7.94
  -5   8  -1  581.80   38.47
  -5   8  -1  638.21   37.14
  -5   8  -1  587.09   40.17
   5  -8   1  587.41   37.57
   5  -8   1  621.18   39.23
   5  -8   1  620.82   41.42
   5  -8   1  632.94   41.73
  -6   8  -1    9.42   13.19
  -6   8  -1    8.99    9.07
  -6   8  -1    7.17    8.27
   6  -8   1   -1.38   11.25
   6  -8   1    0.97   12.37
   6  -8   1   -1.45    9.40
  -7   8  -1  205.07   33.75
  -7   8  -1  321.63   29.94
  -7   8  -1  319.16   32.74
   7  -8   1  308.83   29.76
  -8   8  -1   14.53   14.08
  -8   8  -1   12.84   12.66
   8  -8   1   10.88   14.15
   9   7  -1    1.81   12.70
   9   7  -1   29.46   15.34
  -9  -7   1   -4.12   17.51
  -9  -7   1  -15.81   16.87
   8   7  -1  218.57   23.75
   8   7  -1  178.90   25.88
  -8  -7   1  237.43   25.22
  -8  -7   1  196.59   27.62
  -8  -7   1  180.24   26.64
   7   7  -1    3.80   12.20
   7   7  -1   -5.56    7.00
  -7  -7   1    8.30   10.62
  -7  -7   1   11.67   13.94
  -7  -7   1   -0.62    9.33
   6   7  -1  438.73   36.73
   6   7  -1  488.83   29.34
   6   7  -1  466.70   34.59
  -6  -7   1  524.84   37.37
  -6  -7   1  494.12   35.14
  -6  -7   1  471.29   30.85
  -6  -7   1  538.91   33.50
   5   7  -1    5.57    5.75
   5   7  -1   -3.06    7.01
   5   7  -1    3.09    7.42
   5   7  -1   -0.95    5.69
  -5  -7   1    3.19   10.79
  -5  -7   1    9.92   11.52
  -5  -7   1    0.40    6.90
  -5  -7   1    7.15    7.94
   4   7  -1  761.64   43.24
   4   7  -1  656.00   42.33
   4   7  -1  749.62   39.73
   4   7  -1  717.11   39.73
  -4  -7   1  704.59   44.20
  -4  -7   1  682.37   41.30
  -4  -7   1  702.31   43.08
   3   7  -1   -2.62    5.64
   3   7  -1    0.12    5.23
   3   7  -1    4.13    3.20
   3   7  -1    6.70    7.35
   3   7  -1   10.10    4.67
  -3  -7   1    3.88    8.71
  -3  -7   1   18.34    9.25
  -3  -7   1   -3.76    6.40
   2   7  -1 1490.25   75.84
   2   7  -1 1409.94   74.23
   2   7  -1 1422.66   75.79
  -2  -7   1 1442.82   76.31
  -2  -7   1 1459.90   77.00
  -2  -7   1 1454.75   78.61
   1   7  -1    7.36    4.71
   1   7  -1   10.13    5.92
   1   7  -1    3.45    3.53
   1   7  -1   -1.57    5.11
  -1  -7   1   -2.97    5.93
  -1  -7   1    6.18    5.61
  -1  -7   1   -1.52    7.40
   0   7  -1 1903.56  100.20
   0   7  -1 2046.17  101.80
   0   7  -1 1944.09   98.70
   0   7  -1 2032.61  100.27
   0  -7   1 1997.52  103.79
   0  -7   1 1935.80  101.91
   0  -7   1 1986.66  101.06
   0  -7   1 1950.96  104.40
  -1   7  -1    4.53    6.48
  -1   7  -1   -1.68    5.39
  -1   7  -1    4.61    4.17
   1  -7   1   -2.45    8.91
   1  -7   1   -1.46    2.72
   1  -7   1   -7.28    5.60
   1  -7   1    4.48    8.51
   1  -7   1   -3.49    4.90
  -2   7  -1 1658.93   88.43
  -2   7  -1 1694.27   83.92
  -2   7  -1 1676.54   86.95
  -2   7  -1 1787.60   86.52
   2  -7   1 1695.92   90.89
   2  -7   1 1604.53   88.25
   2  -7   1 1644.47   90.05
  -3   7  -1    4.65    6.36
  -3   7  -1   -2.83    4.68
  -3   7  -1    2.06    4.16
  -3   7  -1    7.30    7.11
   3  -7   1   11.81    5.33
   3  -7   1   19.47    9.00
   3  -7   1   20.16    8.44
   3  -7   1    4.75    6.65
  -4   7  -1  762.41   42.14
  -4   7  -1  774.69   48.25
  -4   7  -1  903.65   45.10
  -4   7  -1  721.94   45.19
   4  -7   1  784.53   48.59
   4  -7   1  832.23   48.81
   4  -7   1  900.89   47.35
   4  -7   1  819.84   47.03
   4  -7   1  789.54   44.74
  -5   7  -1   -6.42    5.95
  -5   7  -1   19.34    8.42
  -5   7  -1   -4.05    8.04
   5  -7   1   10.88    7.36
   5  -7   1    6.55   10.60
   5  -7   1   -0.06    7.43
   5  -7   1    4.91    6.14
  -6   7  -1  511.23   35.21
  -6   7  -1  558.27   35.46
  -6   7  -1  498.61   36.75
   6  -7   1  594.61   37.23
   6  -7   1  579.92   34.37
   6  -7   1  493.34   37.27
   6  -7   1  547.06   37.70
  -7   7  -1    8.73   11.49
  -7   7  -1    6.35    9.38
  -7   7  -1   12.57   11.41
   7  -7   1   -7.29   12.29
   7  -7   1    1.90   10.74
  -8   7  -1  206.88   27.61
  -8   7  -1  221.51   23.82
  -8   7  -1  234.83   26.65
   8  -7   1  143.61   28.72
   8  -7   1  241.11   26.63
  -9   7  -1   32.61   15.63
  -9   7  -1    5.79   11.90
   9  -7   1   12.65   14.80
   9   6  -1  142.17   21.43
   9   6  -1  222.01   28.90
  -9  -6   1  226.03   29.86
  -9  -6   1  160.59   24.76
  -9  -6   1  200.37   24.09
   8   6  -1    8.25   10.80
   8   6  -1    5.30   10.68
   8   6  -1    6.08   14.51
  -8  -6   1   -8.25    8.67
  -8  -6   1    9.44   10.68
  -8  -6   1   -5.53   11.29
  -8  -6   1    7.02   13.35
   7   6  -1  396.02   24.87
   7   6  -1  388.50   27.00
   7   6  -1  387.84   27.94
   7   6  -1  344.91   33.04
  -7  -6   1  381.72   34.87
  -7  -6   1  363.55   30.62
  -7  -6   1  412.05   35.10
  -7  -6   1  390.94   30.31
   6   6  -1    7.80    6.16
   6   6  -1   -1.12    6.58
   6   6  -1    7.71    7.69
   6   6  -1   14.42    8.45
  -6  -6   1   -9.24    7.61
  -6  -6   1    3.93    7.75
  -6  -6   1    0.18    8.20
  -6  -6   1   14.58   11.42
   5   6  -1  727.13   37.16
   5   6  -1  688.21   37.90
   5   6  -1  748.62   42.51
   5   6  -1  760.20   42.28
   5   6  -1  498.73   38.78
  -5  -6   1  655.08   38.63
  -5  -6   1  688.16   39.58
  -5  -6   1  753.07   44.05
  -5  -6   1  663.85   41.81
   4   6  -1    3.22    5.71
   4   6  -1   10.21    4.76
   4   6  -1   -0.74    5.39
   4   6  -1   12.38    8.72
   4   6  -1    1.63    5.48
  -4  -6   1   12.74    6.95
  -4  -6   1    1.13    5.25
  -4  -6   1    1.40    5.48
  -4  -6   1   10.06    6.56
   3   6  -1 1553.69   83.64
   3   6  -1 1639.94   83.28
   3   6  -1 1697.16   85.75
   3   6  -1 1647.79   82.27
  -3  -6   1 1637.07   84.62
  -3  -6   1 1650.29   86.39
  -3  -6   1 1665.65   87.45
  -3  -6   1 1645.34   82.24
   2   6  -1    8.82    5.11
   2   6  -1    0.87    2.13
   2   6  -1    7.06    5.71
   2   6  -1   -0.35    4.16
  -2  -6   1   -6.65    5.15
  -2  -6   1   -3.84    3.06
  -2  -6   1    2.71    5.80
  -2  -6   1    5.92    5.60
   1   6  -1 1509.71   82.79
   1   6  -1 1659.39   83.67
   1   6  -1 1568.79   84.30
   1   6  -1 1691.58   82.62
  -1  -6   1 1793.59   85.62
  -1  -6   1 1743.50   85.29
  -1  -6   1 1644.93   86.77
   0   6  -1    9.37    4.56
   0   6  -1    3.75    4.65
   0   6  -1   -1.90    3.52
   0   6  -1    2.40    3.89
   0  -6   1    6.64    4.99
   0  -6   1    0.36    4.92
   0  -6   1    2.04    4.40
   0  -6   1    4.68    5.54
  -1   6  -1 2609.59  131.37
  -1   6  -1 2574.01  134.50
  -1   6  -1 2674.04  135.45
  -1   6  -1 2621.59  134.77
   1  -6   1 2770.11  131.93
   1  -6   1 2766.79  134.86
   1  -6   1 2689.47  138.10
   1  -6   1 2637.47  137.43
   1  -6   1 2953.96  136.60
  -2   6  -1   10.58    6.57
  -2   6  -1   -0.71    4.54
  -2   6  -1   -1.52    4.71
  -2   6  -1    8.55    3.69
   2  -6   1    3.90    5.05
   2  -6   1    6.49    8.15
   2  -6   1    6.08    3.72
   2  -6   1   16.03    7.29
  -3   6  -1 1643.23   98.95
  -3   6  -1 1997.37   96.34
  -3   6  -1 1875.72   94.55
  -3   6  -1 1850.75   93.78
  -3   6  -1 1878.29   97.81
   3  -6   1 1838.71   96.79
   3  -6   1 1881.03   98.68
   3  -6   1 1996.36   94.89
   3  -6   1 1868.94   98.36
  -4   6  -1    5.17    7.18
  -4   6  -1    1.67    3.47
  -4   6  -1    7.60    5.94
  -4   6  -1    0.48    5.41
   4  -6   1    4.63    6.47
   4  -6   1    9.19    5.90
   4  -6   1   -1.96    7.53
   4  -6   1   -1.89    5.85
   4  -6   1    2.96    7.28
  -5   6  -1  882.25   48.45
  -5   6  -1  828.09   50.38
  -5   6  -1  861.56   47.93
   5  -6   1  839.83   47.39
   5  -6   1  753.95   49.53
   5  -6   1  918.50   49.51
   5  -6   1  864.67   51.19
  -6   6  -1   12.31    9.38
  -6   6  -1   30.85   12.04
  -6   6  -1   12.00    7.15
   6  -6   1   16.65    8.16
   6  -6   1   24.24   11.74
   6  -6   1   13.58    6.67
   6  -6   1   15.59    7.34
  -7   6  -1  429.99   36.71
  -7   6  -1  430.95   34.34
  -7   6  -1  441.09   32.30
   7  -6   1  479.05   34.86
   7  -6   1  404.22   33.42
  -8   6  -1    0.41    9.13
  -8   6  -1   -6.85   10.90
  -8   6  -1    8.99    9.82
   8  -6   1   -4.65   14.29
   8  -6   1   -5.27    7.72
  -9   6  -1  162.75   21.55
  -9   6  -1  170.49   25.54
   9  -6   1  195.31   24.55
  10   5  -1   89.17   22.90
 -10  -5   1  126.74   23.90
 -10  -5   1  121.49   23.88
 -10  -5   1  127.74   25.72
   9   5  -1    6.65   12.29
   9   5  -1  -30.90   12.35
   9   5  -1   -2.69   11.67
  -9  -5   1    4.52   11.85
  -9  -5   1   12.09   12.77
  -9  -5   1    5.79   12.08
   8   5  -1  307.65   26.04
   8   5  -1  244.41   20.88
   8   5  -1  293.58   26.14
   8   5  -1  324.40   29.97
  -8  -5   1  316.20   27.21
  -8  -5   1  258.31   26.71
  -8  -5   1  287.13   29.84
   7   5  -1    6.10   11.69
   7   5  -1    0.80    8.47
   7   5  -1    1.17    6.40
   7   5  -1   14.79    9.49
  -7  -5   1    0.94    8.84
  -7  -5   1   13.53    9.42
  -7  -5   1   -2.10   10.51
   6   5  -1  782.00   47.46
   6   5  -1  781.11   44.26
   6   5  -1  787.04   42.81
   6   5  -1  802.18   46.01
  -6  -5   1  737.75   47.56
  -6  -5   1  734.67   44.79
  -6  -5   1  776.69   47.44
  -6  -5   1  814.89   44.73
   5   5  -1   -1.02    5.50
   5   5  -1   11.22    5.87
   5   5  -1   10.39    6.58
   5   5  -1   10.26    4.23
   5   5  -1    5.15    7.61
  -5  -5   1    2.74    8.23
  -5  -5   1   -0.99    5.74
  -5  -5   1    4.13    5.97
  -5  -5   1   10.61    6.96
   4   5  -1 1344.88   72.10
   4   5  -1 1425.93   72.08
   4   5  -1 1468.09   71.55
   4   5  -1 1483.32   71.24
   4   5  -1 1318.14   73.45
   4   5  -1 1363.71   74.07
  -4  -5   1 1342.98   71.65
  -4  -5   1 1356.76   72.14
  -4  -5   1 1476.56   75.38
  -4  -5   1 1333.95   74.20
   3   5  -1    5.26    4.12
   3   5  -1   -0.50    3.34
   3   5  -1    3.31    3.86
   3   5  -1   -8.51    5.04
  -3  -5   1    5.49    3.76
  -3  -5   1   -0.89    4.37
  -3  -5   1   -4.38    2.96
  -3  -5   1   -3.44    5.69
   2   5  -1 1229.83   65.38
   2   5  -1 1415.07   67.26
   2   5  -1 1216.63   65.91
   2   5  -1 1260.57   64.10
  -2  -5   1 1235.88   63.73
  -2  -5   1 1465.93   67.93
  -2  -5   1 1312.55   65.39
  -2  -5   1 1220.57   66.10
  -2  -5   1 1261.80   68.34
  -2  -5   1 1320.00   64.15
   1   5  -1   17.83    4.48
   1   5  -1    4.28    4.90
   1   5  -1    5.30    3.44
   1   5  -1    6.14    3.16
  -1  -5   1   -1.10    4.13
  -1  -5   1    7.59    3.45
  -1  -5   1   16.20    5.68
  -1  -5   1    8.41    5.13
   0   5  -1 2114.07   96.97
   0   5  -1 1963.23   97.00
   0   5  -1 1960.32   97.06
   0   5  -1 1917.47   96.15
   0  -5   1 1984.81   95.84
   0  -5   1 1786.41   97.70
   0  -5   1 1766.04   98.85
   0  -5   1 1940.72   97.26
  -1   5  -1   -0.18    4.36
  -1   5  -1   -3.52    3.60
  -1   5  -1    0.41    1.77
  -1   5  -1   -2.22    3.83
   1  -5   1    0.83    5.47
   1  -5   1   10.95    5.72
   1  -5   1   11.90    4.18
   1  -5   1    1.54    1.82
   1  -5   1    3.94    4.76
  -2   5  -1 2047.11  101.72
  -2   5  -1 2110.94  102.82
  -2   5  -1 1855.48  103.48
  -2   5  -1 2165.45  101.43
   2  -5   1 1949.07  104.76
   2  -5   1 2016.44  101.29
   2  -5   1 1974.62  103.42
   2  -5   1 2178.67  105.28
  -3   5  -1   32.25    8.17
  -3   5  -1   32.89    6.42
  -3   5  -1   33.90    8.20
  -3   5  -1   31.93    6.26
  -3   5  -1   33.34    4.76
   3  -5   1   32.98    6.02
   3  -5   1   46.23    9.32
   3  -5   1   44.60    8.47
   3  -5   1   36.70    8.00
  -4   5  -1 1940.14  102.00
  -4   5  -1 1981.63  100.45
  -4   5  -1 2014.54  100.24
  -4   5  -1 1979.50  102.11
  -4   5  -1 1963.16   96.30
   4  -5   1 1945.34  100.19
   4  -5   1 1867.09   99.88
   4  -5   1 1987.80  101.01
   4  -5   1 2029.65  102.54
   4  -5   1 1926.14  102.34
  -5   5  -1    1.31    6.13
  -5   5  -1    5.80    5.23
  -5   5  -1    7.05    5.62
   5  -5   1   19.47    9.28
   5  -5   1    6.44    8.77
   5  -5   1   10.81    5.78
   5  -5   1   11.62    5.70
  -6   5  -1  738.86   41.17
  -6   5  -1  724.43   43.10
  -6   5  -1  631.48   40.83
   6  -5   1  631.01   40.41
   6  -5   1  754.31   40.36
   6  -5   1  709.02   43.00
   6  -5   1  676.24   36.80
  -7   5  -1    8.95   10.91
  -7   5  -1    4.44    9.13
  -7   5  -1    5.06    7.91
  -7   5  -1    8.75    6.27
   7  -5   1   -3.02   10.31
   7  -5   1   21.37   10.13
   7  -5   1   10.86    7.91
  -8   5  -1  194.08   23.39
  -8   5  -1  220.95   25.53
  -8   5  -1  213.89   23.30
   8  -5   1  225.15   23.60
   8  -5   1  198.86   25.75
  -9   5  -1  -13.45   11.54
  -9   5  -1   -1.62    8.02
   9  -5   1    1.77    9.02
   9  -5   1  -10.57   17.00
 -10   5  -1  112.66   21.81
 -10   5  -1  134.81   24.26
  10  -5   1  127.89   21.77
  10   4  -1  -14.44   11.01
 -10  -4   1   -7.11   17.94
 -10  -4   1    6.43   15.25
   9   4  -1  197.15   25.48
   9   4  -1  214.02   22.74
  -9  -4   1  213.19   26.79
  -9  -4   1  230.24   25.36
  -9  -4   1  223.69   27.17
   8   4  -1   -1.10    7.67
   8   4  -1    5.25    7.67
   8   4  -1    6.49   11.70
   8   4  -1   12.19    9.71
  -8  -4   1    9.99    9.30
  -8  -4   1   14.45   10.41
  -8  -4   1    8.26    8.55
   7   4  -1  674.08   39.88
   7   4  -1  668.46   39.68
   7   4  -1  583.67   41.20
   7   4  -1  647.21   37.86
  -7  -4   1  632.11   43.50
  -7  -4   1  700.29   40.06
  -7  -4   1  749.23   42.48
   6   4  -1  -17.73    7.36
   6   4  -1    4.27    7.33
   6   4  -1    2.62    6.54
   6   4  -1   -2.09    6.80
  -6  -4   1   -0.74    7.05
  -6  -4   1    8.32    5.77
  -6  -4   1    2.42    6.86
   5   4  -1  963.13   49.86
   5   4  -1  971.53   52.14
   5   4  -1  965.78   54.07
   5   4  -1  951.29   52.77
   5   4  -1  934.72   50.90
  -5  -4   1 1066.46   55.68
  -5  -4   1  956.31   51.72
  -5  -4   1  980.67   52.67
   4   4  -1   17.65    5.95
   4   4  -1   20.24    6.26
   4   4  -1   19.08    6.77
   4   4  -1   24.40    5.71
   4   4  -1   27.09    8.00
   4   4  -1   15.98    4.22
  -4  -4   1   20.51    5.29
  -4  -4   1   17.13    6.26
  -4  -4   1   17.55    5.70
   3   4  -1 1819.07   88.95
   3   4  -1 1858.02   89.86
   3   4  -1 1737.40   88.79
   3   4  -1 1659.00   90.66
   3   4  -1 1743.20   89.16
  -3  -4   1 1840.07   91.90
  -3  -4   1 1713.53   89.26
  -3  -4   1 1769.30   91.18
  -3  -4   1 1840.17   89.28
   2   4  -1   32.99    4.32
   2   4  -1   30.79    4.30
   2   4  -1   24.81    5.35
   2   4  -1   16.12    4.43
   2   4  -1   31.69    5.07
  -2  -4   1   21.76    6.21
  -2  -4   1   25.17    3.89
  -2  -4   1   20.67    4.89
  -2  -4   1   19.11    5.55
  -2  -4   1   24.69    2.64
  -2  -4   1   29.14    4.43
   1   4  -1 3143.43  149.10
   1   4  -1 3019.22  150.24
   1   4  -1 2881.25  147.58
   1   4  -1 3071.74  148.73
   1   4  -1 3257.84  149.43
   1   4  -1 2996.78  149.14
  -1  -4   1 2939.92  149.77
  -1  -4   1 3129.22  151.67
  -1  -4   1 2931.86  148.66
  -1  -4   1 3105.52  150.38
  -1  -4   1 2949.11  148.70
   0   4  -1    2.88    3.84
   0   4  -1   -1.86    3.23
   0   4  -1    1.56    3.09
   0   4  -1   -1.55    2.96
   0  -4   1   -0.04    3.87
   0  -4   1    5.72    3.30
   0  -4   1    6.49    2.44
   0  -4   1    0.23    4.28
  -1   4  -1 4239.82  237.73
  -1   4  -1 4916.73  240.12
  -1   4  -1 4862.32  239.38
  -1   4  -1 4947.03  238.84
  -1   4  -1 4835.75  239.33
   1  -4   1 4969.67  241.86
   1  -4   1 4943.09  241.30
   1  -4   1 4766.94  240.07
   1  -4   1 5006.49  237.58
   1  -4   1 5111.20  237.98
   1  -4   1 5107.98  239.24
   1  -4   1 4972.18  239.24
  -2   4  -1   23.93    5.25
  -2   4  -1   20.43    5.35
  -2   4  -1   13.02    3.78
  -2   4  -1   19.05    3.77
  -2   4  -1   11.34    4.50
  -2   4  -1   16.61    3.84
   2  -4   1   18.66    6.08
   2  -4   1   21.75    5.79
   2  -4   1   15.49    3.76
   2  -4   1   27.28    7.01
  -3   4  -1 1867.65   96.01
  -3   4  -1 1893.13   95.87
  -3   4  -1 1913.60   94.65
  -3   4  -1 1714.67   93.99
  -3   4  -1 1734.94   92.02
   3  -4   1 1926.91   94.96
   3  -4   1 1810.38   95.83
   3  -4   1 1999.03   94.54
   3  -4   1 1957.66   96.56
   3  -4   1 1971.21   95.12
  -4   4  -1   26.75    7.53
  -4   4  -1   15.27    6.30
  -4   4  -1    6.35    4.60
  -4   4  -1   15.68    5.87
   4  -4   1   20.05    6.20
   4  -4   1   15.21    5.58
   4  -4   1   23.50    7.10
   4  -4   1   12.57    5.19
   4  -4   1   20.24    6.63
  -5   4  -1 1443.13   73.95
  -5   4  -1 1233.70   73.72
  -5   4  -1 1384.67   75.07
   5  -4   1 1412.59   73.13
   5  -4   1 1439.68   70.58
   5  -4   1 1370.54   75.34
   5  -4   1 1563.07   74.59
  -6   4  -1    7.58    5.77
  -6   4  -1    3.12    5.12
  -6   4  -1    2.92    5.70
  -6   4  -1  -17.11    6.60
   6  -4   1    2.48    5.20
   6  -4   1   -3.32    3.52
   6  -4   1   -0.92    8.72
   6  -4   1   -0.72    7.02
  -7   4  -1  639.27   39.88
  -7   4  -1  672.42   38.42
  -7   4  -1  682.08   42.07
  -7   4  -1  616.71   41.36
   7  -4   1  637.61   39.77
   7  -4   1  634.91   42.65
   7  -4   1  667.20   38.76
  -8   4  -1    3.63    7.51
  -8   4  -1    4.76    8.80
  -8   4  -1    6.29    7.73
  -8   4  -1    8.61   10.76
   8  -4   1   -0.29    9.15
   8  -4   1    2.63    7.36
  -9   4  -1  169.57   20.28
  -9   4  -1  200.46   23.83
  -9   4  -1  160.56   22.05
   9  -4   1  142.39   22.72
   9  -4   1  223.59   22.71
 -10   4  -1   -3.68   12.84
 -10   4  -1   11.63   11.43
  10  -4   1   -0.26   12.64
  10   3  -1  131.79   24.34
 -10  -3   1  114.27   20.65
 -10  -3   1  147.55   25.71
   9   3  -1  -10.62   10.21
   9   3  -1   21.32   15.00
   9   3  -1   -0.75    8.90
  -9  -3   1   -0.67   11.13
  -9  -3   1    6.67   14.36
  -9  -3   1   20.83   15.69
   8   3  -1  439.64   27.81
   8   3  -1  473.13   38.46
   8   3  -1  438.72   28.22
   8   3  -1  402.76   29.60
  -8  -3   1  384.80   34.92
  -8  -3   1  444.14   30.12
  -8  -3   1  418.52   35.09
   7   3  -1   -6.53    7.51
   7   3  -1   -4.54    6.32
   7   3  -1    7.99    8.07
   7   3  -1    4.14    6.56
  -7  -3   1    1.64    5.08
  -7  -3   1    3.87    7.13
  -7  -3   1   -7.49    7.04
   6   3  -1  884.39   47.90
   6   3  -1  860.06   50.68
   6   3  -1  953.43   47.01
   6   3  -1  928.98   48.23
  -6  -3   1  822.57   47.56
  -6  -3   1  826.03   50.04
  -6  -3   1  794.28   49.17
   5   3  -1   44.43    7.03
   5   3  -1   66.69   11.98
   5   3  -1   57.77    8.77
   5   3  -1   40.56    7.97
  -5  -3   1   18.49    6.94
  -5  -3   1   45.36    9.20
  -5  -3   1   43.37    6.79
   4   3  -1 2037.26   96.51
   4   3  -1 1934.54   95.72
   4   3  -1 2067.34   99.18
   4   3  -1 1964.10   97.38
   4   3  -1 1781.92   97.41
   4   3  -1 1931.69   97.82
  -4  -3   1 1848.03   98.94
  -4  -3   1 1816.33   96.56
  -4  -3   1 1977.07   97.92
   3   3  -1  144.16    9.57
   3   3  -1  155.18   11.81
   3   3  -1  103.34   11.76
   3   3  -1  138.80    8.87
   3   3  -1  115.16    8.83
   3   3  -1  150.74   11.80
  -3  -3   1  145.85   11.49
  -3  -3   1  146.06    9.86
  -3  -3   1  132.96   12.38
   2   3  -1 2985.85  168.10
   2   3  -1 3278.09  167.17
   2   3  -1 3482.95  167.15
   2   3  -1 3702.57  167.52
   2   3  -1 3370.00  166.74
   2   3  -1 3537.64  167.93
  -2  -3   1 3440.76  165.65
  -2  -3   1 3393.18  167.36
  -2  -3   1 3367.89  168.64
  -2  -3   1 3553.21  167.26
  -2  -3   1 3210.74  167.15
  -2  -3   1 3584.49  169.38
   1   3  -1    5.44    2.93
   1   3  -1    2.77    4.01
   1   3  -1    9.93    2.75
   1   3  -1    8.39    2.21
   1   3  -1    3.76    3.22
  -1  -3   1    8.63    2.09
  -1  -3   1    9.74    3.56
  -1  -3   1   -2.12    1.81
  -1  -3   1    4.05    2.93
  -1  -3   1    5.97    4.59
  -1  -3   1    4.78    2.53
   0   3  -1 5242.00  262.08
   0   3  -1 5352.09  261.48
   0   3  -1 5400.25  261.73
   0   3  -1 5371.69  261.46
   0   3  -1 5006.33  261.44
   0   3  -1 5350.10  261.76
   0  -3   1 5310.86  261.67
   0  -3   1 5595.67  261.22
   0  -3   1 5663.25  261.76
   0  -3   1 4956.86  261.97
   0  -3   1 5337.14  262.97
   0  -3   1 5779.66  262.06
  -1   3  -1    4.45    3.74
  -1   3  -1    9.84    3.20
  -1   3  -1   -0.94    2.64
  -1   3  -1    1.91    2.42
  -1   3  -1    6.56    2.86
  -1   3  -1    7.96    2.65
  -1   3  -1    2.12    3.01
   1  -3   1   11.23    3.33
   1  -3   1    2.74    3.06
   1  -3   1    5.31    2.97
   1  -3   1    2.59    2.27
   1  -3   1    7.66    1.73
   1  -3   1   12.10    5.65
   1  -3   1    0.28    4.99
  -2   3  -1 5511.73  248.70
  -2   3  -1 5009.18  246.13
  -2   3  -1 5318.73  247.15
  -2   3  -1 4674.37  245.38
  -2   3  -1 5143.10  246.79
  -2   3  -1 4561.96  245.64
  -2   3  -1 4969.52  247.90
   2  -3   1 5266.69  246.81
   2  -3   1 5058.60  247.37
   2  -3   1 4969.98  248.21
   2  -3   1 5126.56  248.55
  -3   3  -1    8.54    3.75
  -3   3  -1   14.96    5.33
  -3   3  -1   15.45    5.03
  -3   3  -1   15.22    5.01
   3  -3   1   19.48    6.05
   3  -3   1   10.34    4.31
   3  -3   1    7.60    4.81
   3  -3   1   10.50    4.67
   3  -3   1   21.88    5.57
  -4   3  -1 2025.62  102.46
  -4   3  -1 2152.46  101.98
  -4   3  -1 2166.21  102.56
  -4   3  -1 1978.10  100.90
   4  -3   1 1821.99  101.09
   4  -3   1 1959.97  102.43
   4  -3   1 2024.73  100.86
   4  -3   1 1877.05  100.90
  -5   3  -1   21.75    6.40
  -5   3  -1   15.14    6.88
  -5   3  -1   30.99    7.04
   5  -3   1   17.90    6.21
   5  -3   1   19.07    6.92
   5  -3   1   17.18    3.44
   5  -3   1   23.57    8.85
  -6   3  -1  853.85   47.40
  -6   3  -1  909.21   49.23
  -6   3  -1  776.75   46.27
  -6   3  -1  872.24   49.21
   6  -3   1  824.79   50.08
   6  -3   1  885.37   47.97
   6  -3   1  866.03   43.28
   6  -3   1  851.69   47.30
  -7   3  -1   14.66   10.34
  -7   3  -1   21.87    8.04
  -7   3  -1    0.08    8.01
  -7   3  -1   20.38    7.79
   7  -3   1   26.12   12.13
   7  -3   1   11.06    6.95
   7  -3   1    1.25    8.96
  -8   3  -1  353.96   30.14
  -8   3  -1  408.06   28.06
  -8   3  -1  403.36   29.90
  -8   3  -1  363.70   33.10
   8  -3   1  382.29   34.84
   8  -3   1  389.27   30.58
   8  -3   1  411.28   28.28
  -9   3  -1   13.84   11.54
  -9   3  -1    2.81   10.96
  -9   3  -1    1.47   10.40
  -9   3  -1    2.74   10.27
   9  -3   1    6.15   10.85
 -10   3  -1   91.06   19.24
 -10   3  -1  126.19   20.50
  10  -3   1  135.78   20.29
  10   2  -1   -5.78   15.41
  10   2  -1    9.44   13.33
 -10  -2   1   12.78   13.27
 -10  -2   1   -0.57   14.95
   9   2  -1  233.26   22.10
   9   2  -1  289.87   26.42
   9   2  -1  259.20   29.41
  -9  -2   1  273.36   29.90
  -9  -2   1  282.90   26.23
  -9  -2   1  258.63   29.56
   8   2  -1   11.12   11.95
   8   2  -1   14.90    9.93
   8   2  -1    3.61    6.51
   8   2  -1   -3.65    7.54
  -8  -2   1   -1.73    7.97
  -8  -2   1   -1.30    8.46
  -8  -2   1    5.31    8.46
   7   2  -1  478.63   28.23
   7   2  -1  474.42   28.03
   7   2  -1  429.34   29.67
  -7  -2   1  480.71   30.00
  -7  -2   1  454.79   26.84
  -7  -2   1  472.27   31.87
  -7  -2   1  467.40   32.14
   6   2  -1   11.72    6.30
   6   2  -1   15.78    7.46
   6   2  -1    2.67    4.89
  -6  -2   1    8.38    6.60
  -6  -2   1   11.41    8.43
  -6  -2   1    7.46    4.44
  -6  -2   1   19.27    9.71
   5   2  -1 1851.75   96.59
   5   2  -1 2045.92   98.14
   5   2  -1 1958.03   97.33
  -5  -2   1 1870.44   97.27
  -5  -2   1 1844.81   98.76
  -5  -2   1 1877.52   99.50
  -5  -2   1 1996.00   95.73
   4   2  -1    1.80    2.60
   4   2  -1    0.79    3.82
   4   2  -1   -1.34    3.45
   4   2  -1   -0.24    3.89
   4   2  -1    0.58    3.30
  -4  -2   1    1.73    4.91
  -4  -2   1   -0.32    3.75
  -4  -2   1   -1.35    3.98
  -4  -2   1    3.28    2.47
  -4  -2   1   -2.73    5.61
  -4  -2   1    3.32    3.14
   3   2  -1 3511.29  184.44
   3   2  -1 4000.26  183.19
   3   2  -1 3702.75  184.33
   3   2  -1 3879.01  183.41
   3   2  -1 4112.22  184.53
   3   2  -1 3794.52  183.14
  -3  -2   1 3652.40  185.26
  -3  -2   1 3711.26  184.66
  -3  -2   1 3570.41  182.30
  -3  -2   1 3542.85  183.46
  -3  -2   1 3715.27  183.01
   2   2  -1   93.25    8.92
   2   2  -1   83.80    6.86
   2   2  -1   81.49    7.67
   2   2  -1   72.16    7.23
   2   2  -1   92.65    6.90
   2   2  -1   92.38    5.95
   2   2  -1  100.03    7.95
  -2  -2   1  107.55    7.38
  -2  -2   1  103.54    8.03
  -2  -2   1   90.78    7.77
  -2  -2   1   85.51    6.28
  -2  -2   1   94.16    9.10
  -2  -2   1   81.21    5.10
   1   2  -1  419.89   22.69
   1   2  -1  474.91   23.06
   1   2  -1  433.71   21.83
   1   2  -1  458.26   21.85
   1   2  -1  428.59   22.79
   1   2  -1  474.12   22.49
   1   2  -1  449.53   22.39
   1   2  -1  422.85   21.53
   1   2  -1  381.99   22.44
  -1  -2   1  395.49   22.10
  -1  -2   1  400.20   21.67
  -1  -2   1  389.53   22.49
  -1  -2   1  446.00   23.28
  -1  -2   1  398.21   22.75
  -1  -2   1  415.22   22.04
  -1  -2   1  454.68   21.90
  -1  -2   1  406.77   21.33
  -1  -2   1  423.21   22.43
   0   2  -1  432.68   21.39
   0   2  -1  437.17   21.28
   0   2  -1  434.67   21.38
   0   2  -1  432.89   21.95
   0   2  -1  418.60   21.00
   0   2  -1  368.53   20.95
   0   2  -1  394.04   21.51
   0   2  -1  434.32   22.07
   0  -2   1  372.42   21.16
   0  -2   1  443.29   21.71
   0  -2   1  387.18   20.94
   0  -2   1  386.81   22.09
   0  -2   1  396.78   21.05
   0  -2   1  442.95   21.23
   0  -2   1  398.31   21.44
  -1   2  -1 5413.84  272.23
  -1   2  -1 5665.51  271.83
  -1   2  -1 5348.11  271.78
  -1   2  -1 5223.87  273.74
  -1   2  -1 5766.56  271.48
  -1   2  -1 5758.92  272.77
  -1   2  -1 5401.37  272.75
  -1   2  -1 5825.55  273.43
  -1   2  -1 5635.03  272.10
   1  -2   1 6050.38  272.46
   1  -2   1 5601.44  273.37
   1  -2   1 5173.35  272.04
   1  -2   1 5612.61  274.26
   1  -2   1 5741.02  272.73
   1  -2   1 5604.17  272.98
  -2   2  -1  193.88   13.23
  -2   2  -1  173.04   12.09
  -2   2  -1  212.74   11.76
  -2   2  -1  190.26   10.18
  -2   2  -1  191.12   12.65
  -2   2  -1  194.55   12.05
   2  -2   1  192.93   12.61
   2  -2   1  176.57   11.57
   2  -2   1  179.56   11.96
   2  -2   1  193.43   11.85
   2  -2   1  201.24   12.90
  -3   2  -1 3811.16  194.91
  -3   2  -1 3883.59  195.66
  -3   2  -1 4010.11  194.56
  -3   2  -1 4052.88  195.38
   3  -2   1 4184.39  195.31
   3  -2   1 3950.58  195.01
   3  -2   1 3695.28  194.44
   3  -2   1 4138.71  194.76
   3  -2   1 3903.18  195.82
  -4   2  -1  112.81   11.98
  -4   2  -1   90.14   10.68
  -4   2  -1   96.57    9.62
  -4   2  -1   78.91   10.26
   4  -2   1  116.38   10.43
   4  -2   1  129.19   10.87
   4  -2   1   98.69    6.51
   4  -2   1  102.96   11.33
   4  -2   1  100.68   10.48
  -5   2  -1 1399.78   75.33
  -5   2  -1 1484.64   74.29
  -5   2  -1 1520.42   76.31
  -5   2  -1 1324.70   76.09
  -5   2  -1 1438.38   74.51
   5  -2   1 1466.61   71.36
   5  -2   1 1420.98   74.64
   5  -2   1 1488.93   76.83
   5  -2   1 1427.99   74.61
  -6   2  -1   -0.32    4.50
  -6   2  -1   10.70    8.41
  -6   2  -1    1.86    6.60
  -6   2  -1    4.96    5.53
   6  -2   1    3.49    4.67
   6  -2   1    5.60    3.07
   6  -2   1    2.82    6.10
   6  -2   1    0.88    8.61
  -7   2  -1  552.55   37.81
  -7   2  -1  575.67   35.95
  -7   2  -1  603.97   35.84
  -7   2  -1  628.73   37.06
   7  -2   1  576.50   38.16
   7  -2   1  558.08   35.42
   7  -2   1  619.32   36.01
  -8   2  -1   29.55   10.45
  -8   2  -1   12.19    9.15
  -8   2  -1   17.67   10.50
  -8   2  -1   -4.39    8.01
   8  -2   1   -3.74    9.53
   8  -2   1   13.80    9.75
  -9   2  -1  402.81   32.21
  -9   2  -1  356.15   31.26
  -9   2  -1  410.55   29.64
  -9   2  -1  271.69   31.29
   9  -2   1  378.50   30.79
 -10   2  -1   -2.37   13.40
 -10   2  -1   12.14   13.39
  10  -2   1    4.52   12.92
  10  -2   1   24.96   15.10
  10   1  -1  172.06   21.66
  10   1  -1  112.94   17.55
  10   1  -1  161.47   25.59
 -10  -1   1  162.30   25.67
 -10  -1   1  114.44   19.95
   9   1  -1    3.52   10.72
   9   1  -1   13.78   10.49
   9   1  -1   -0.10    9.75
  -9  -1   1    5.41   10.21
  -9  -1   1   15.47   10.69
  -9  -1   1    9.49   14.88
   8   1  -1  478.34   29.56
   8   1  -1  426.03   30.40
  -8  -1   1  435.63   36.78
  -8  -1   1  498.47   29.61
  -8  -1   1  468.90   31.50
  -8  -1   1  489.33   34.96
   7   1  -1    4.95    4.57
   7   1  -1    7.76    6.40
   7   1  -1   -0.09    6.36
  -7  -1   1    3.47    7.23
  -7  -1   1   10.06    5.99
  -7  -1   1    8.71    7.91
  -7  -1   1   10.84    9.62
   6   1  -1 1105.57   58.68
   6   1  -1 1116.13   56.58
   6   1  -1 1127.78   59.43
  -6  -1   1 1074.77   58.13
  -6  -1   1 1033.64   59.82
  -6  -1   1 1115.18   57.15
  -6  -1   1 1039.47   59.94
   5   1  -1    0.03    5.25
   5   1  -1    7.39    5.91
   5   1  -1    5.06    4.16
  -5  -1   1   -0.37    3.90
  -5  -1   1    3.05    4.97
  -5  -1   1    3.62    6.38
  -5  -1   1   -2.58    6.24
   4   1  -1 1913.83   90.63
   4   1  -1 1818.14   89.03
   4   1  -1 1810.63   91.01
   4   1  -1 1941.26   90.25
  -4  -1   1 1786.04   89.28
  -4  -1   1 1512.54   88.39
  -4  -1   1 1773.43   90.99
  -4  -1   1 1701.47   91.34
  -4  -1   1 1736.83   90.92
  -4  -1   1 1840.23   88.83
   3   1  -1   89.72    8.75
   3   1  -1   76.13    7.30
   3   1  -1   92.13    7.32
   3   1  -1   78.93    7.15
   3   1  -1   91.39    9.11
   3   1  -1   93.21    7.58
   3   1  -1   87.29    8.18
  -3  -1   1   85.76    7.54
  -3  -1   1   90.44    9.04
  -3  -1   1   97.77    6.62
  -3  -1   1   89.88    6.67
  -3  -1   1   70.93    9.39
  -3  -1   1  103.39    9.46
   2   1  -1 4827.50  216.82
   2   1  -1 4747.16  216.36
   2   1  -1 4390.46  216.31
   2   1  -1 4146.98  216.75
   2   1  -1 4539.48  217.44
   2   1  -1 4517.87  216.18
   2   1  -1 4318.24  216.38
   2   1  -1 4278.54  217.03
  -2  -1   1 4474.11  216.43
  -2  -1   1 4263.36  216.32
  -2  -1   1 4628.65  216.42
  -2  -1   1 4574.70  217.08
  -2  -1   1 4384.37  217.39
  -2  -1   1 4303.22  216.64
  -2  -1   1 4515.43  217.66
  -2  -1   1 4337.22  216.25
  -2  -1   1 4250.95  217.33
   1   1  -1  255.64   14.45
   1   1  -1  266.71   13.41
   1   1  -1  243.96   13.93
   1   1  -1  273.02   14.27
   1   1  -1  292.42   13.99
   1   1  -1  268.75   14.20
   1   1  -1  255.55   14.30
  -1  -1   1  272.99   14.17
  -1  -1   1  256.77   14.42
  -1  -1   1  245.41   14.43
  -1  -1   1  273.73   13.44
  -1  -1   1  273.66   13.97
  -1  -1   1  251.56   13.45
  -1  -1   1  266.84   14.32
  -1  -1   1  251.53   14.11
  -1  -1   1  257.05   14.05
  -1   1  -1    6.21    2.13
  -1   1  -1    4.79    1.93
  -1   1  -1    6.22    2.25
  -1   1  -1    6.01    1.53
  -1   1  -1    1.56    1.68
  -1   1  -1    3.07    1.72
  -1   1  -1    1.82    2.05
   1  -1   1    5.66    2.10
   1  -1   1    0.90    1.49
   1  -1   1    5.23    2.22
   1  -1   1   -3.14    1.19
   1  -1   1    1.66    1.13
   1  -1   1    5.66    2.35
   1  -1   1    4.60    1.85
   1  -1   1    1.15    2.34
  -2   1  -1 2428.99  118.20
  -2   1  -1 2503.10  119.03
  -2   1  -1 2503.79  118.44
  -2   1  -1 2354.63  118.33
  -2   1  -1 2401.41  117.94
  -2   1  -1 2337.75  118.02
  -2   1  -1 2537.73  117.53
  -2   1  -1 2215.40  117.79
   2  -1   1 2295.37  118.23
   2  -1   1 2696.60  119.34
   2  -1   1 2211.14  117.85
   2  -1   1 2399.29  118.24
   2  -1   1 2360.43  117.87
   2  -1   1 2344.58  118.34
  -3   1  -1    6.85    3.28
  -3   1  -1    7.44    3.65
  -3   1  -1   18.03    5.69
  -3   1  -1    5.68    3.76
  -3   1  -1   12.23    4.90
   3  -1   1   16.00    6.26
   3  -1   1   12.70    4.10
   3  -1   1   13.56    2.07
   3  -1   1   15.02    4.73
   3  -1   1   17.98    3.98
  -4   1  -1 2247.35  117.62
  -4   1  -1 2456.66  118.71
  -4   1  -1 2398.75  117.15
  -4   1  -1 2266.41  116.63
  -4   1  -1 2204.56  116.47
   4  -1   1 2376.90  118.72
   4  -1   1 2320.64  117.69
   4  -1   1 2425.15  117.25
   4  -1   1 2473.05  114.37
   4  -1   1 2185.30  116.62
  -5   1  -1    0.18    5.01
  -5   1  -1    2.81    4.06
  -5   1  -1    5.66    4.99
  -5   1  -1   16.54    7.08
  -5   1  -1    7.36    5.41
   5  -1   1    5.68    5.40
   5  -1   1   11.40    7.68
   5  -1   1   -2.99    4.93
   5  -1   1   -2.28    1.90
  -6   1  -1 1410.66   74.49
  -6   1  -1 1456.72   76.49
  -6   1  -1 1294.35   74.55
  -6   1  -1 1493.68   75.15
   6  -1   1 1437.45   77.68
   6  -1   1 1424.01   70.28
   6  -1   1 1440.49   74.61
   6  -1   1 1461.48   75.29
  -7   1  -1    2.75    6.96
  -7   1  -1   12.56    8.52
  -7   1  -1   14.64    6.52
  -7   1  -1   10.00    7.77
   7  -1   1   -0.11    6.72
   7  -1   1    1.34    7.86
  -8   1  -1  380.67   30.39
  -8   1  -1  383.81   28.32
  -8   1  -1  339.48   31.43
  -8   1  -1  406.44   27.58
   8  -1   1  416.17   28.00
   8  -1   1  388.45   28.06
  -9   1  -1    1.87   13.02
  -9   1  -1   26.01   11.71
  -9   1  -1    7.81   11.19
   9  -1   1    8.39   10.19
   9  -1   1   -7.01   11.13
   9  -1   1  -11.39    8.85
 -10   1  -1  138.30   21.96
 -10   1  -1  109.39   17.70
  10  -1   1  159.57   22.36
 -11   1  -1    2.61   16.67
 -11   1  -1    6.43   14.86
  11  -1   1  -10.92   15.34
  10   0  -1   19.76   11.52
  10   0  -1  -18.79   13.21
  10   0  -1   -5.44   14.73
 -10   0   1  -16.77   11.83
 -10   0   1  -12.63   13.78
   9   0  -1  236.07   24.98
  -9   0   1  271.38   28.54
  -9   0   1  223.40   28.44
  -9   0   1  247.59   24.55
   8   0  -1   10.66    8.29
  -8   0   1    5.12    8.42
  -8   0   1   15.79   10.11
  -8   0   1    2.53    8.28
  -8   0   1   18.81   11.93
   7   0  -1  639.66   34.18
   7   0  -1  638.77   39.15
   7   0  -1  685.94   38.40
   7   0  -1  675.85   37.43
  -7   0   1  664.04   40.87
  -7   0   1  642.05   37.58
  -7   0   1  625.01   38.15
  -7   0   1  598.54   39.69
   6   0  -1    4.87    3.16
   6   0  -1    9.62    6.44
   6   0  -1   -3.64    5.00
   6   0  -1    4.15    5.71
  -6   0   1    4.33    5.42
  -6   0   1    2.18    6.46
  -6   0   1   10.56    7.62
  -6   0   1    2.70    5.45
   5   0  -1 1223.86   63.24
   5   0  -1 1275.48   64.63
   5   0  -1 1197.24   62.17
   5   0  -1 1304.85   64.23
   5   0  -1 1267.38   61.83
  -5   0   1 1083.94   65.22
  -5   0   1 1184.60   65.39
  -5   0   1 1308.19   65.68
  -5   0   1 1237.20   63.68
  -5   0   1 1171.53   63.45
   4   0  -1   -0.35    4.71
   4   0  -1   -1.56    3.07
   4   0  -1   -1.90    3.25
   4   0  -1    1.36    2.63
   4   0  -1    4.97    3.11
  -4   0   1   -4.16    2.43
  -4   0   1    4.92    3.75
  -4   0   1   -2.03    3.47
  -4   0   1    2.24    3.92
  -4   0   1    2.90    4.53
   3   0  -1 4264.98  215.56
   3   0  -1 4818.46  216.06
   3   0  -1 4462.08  217.40
   3   0  -1 4553.04  215.77
   3   0  -1 4768.89  215.42
   3   0  -1 4235.58  216.18
  -3   0   1 4214.82  216.30
  -3   0   1 4215.22  215.91
  -3   0   1 4429.93  217.45
  -3   0   1 4190.40  216.02
  -3   0   1 4403.06  217.42
   2   0  -1    0.16    2.35
   2   0  -1    1.35    2.35
   2   0  -1   -1.32    2.41
   2   0  -1    1.32    2.84
   2   0  -1   -2.00    2.55
   2   0  -1    4.91    2.49
   2   0  -1    2.12    2.08
  -2   0   1    0.18    2.48
  -2   0   1    4.44    2.69
  -2   0   1    0.13    2.33
  -2   0   1    2.08    2.94
  -2   0   1    4.24    2.64
  -2   0   1   -0.42    1.59
  -2   0   1    5.16    2.72
   1   0  -1 6653.34  327.34
   1   0  -1 6909.33  329.34
   1   0  -1 6307.11  328.34
   1   0  -1 7363.90  332.43
   1   0  -1 7618.00  330.97
   1   0  -1 6923.70  329.62
   1   0  -1 6726.73  329.66
  -1   0   1 7043.45  329.64
  -1   0   1 6006.62  328.32
  -1   0   1 6460.97  327.71
  -1   0   1 6352.92  329.74
  -1   0   1 6775.09  331.02
  -1   0   1 6657.41  328.66
   0   0  -1    2.23    0.87
   0   0  -1    0.43    0.67
   0   0  -1    0.24    0.46
   0   0  -1   -0.04    0.65
   0   0  -1   -0.03    0.66
   0   0  -1    0.74    0.69
   0   0  -1   -0.18    0.70
   0   0   1   -0.15    0.33
   0   0   1   -0.52    0.28
   0   0   1    0.08    0.51
   0   0   1    0.22    0.54
   0   0   1   -0.98    0.46
   0   0   1    1.60    0.85
   0   0   1    0.30    0.57
   0   0   1    0.36    0.39
   0   0   1    1.40    0.79
   0   0   1    0.14    0.34
   0   0   1   -0.28    0.39
   1   0   1 3807.16  186.68
  -2   0  -1    0.61    2.24
  -2   0  -1   -0.50    1.97
  -2   0  -1    7.60    2.96
  -2   0  -1    4.54    2.59
  -2   0  -1    2.76    2.61
  -2   0  -1   -1.67    2.58
  -2   0  -1    2.19    1.17
  -2   0  -1    2.58    2.79
   2   0   1   -0.36    2.51
   2   0   1   -0.92    2.18
   2   0   1    4.15    3.15
   2   0   1   -0.50    1.59
   2   0   1    1.35    3.41
   2   0   1    2.57    2.31
   2   0   1    4.02    2.62
  -3   0  -1 3198.23  150.76
  -3   0  -1 2715.77  150.03
  -3   0  -1 3207.39  148.87
  -3   0  -1 3119.41  150.42
  -3   0  -1 2942.27  151.76
  -3   0  -1 2932.43  151.15
   3   0   1 2996.75  151.15
   3   0   1 3046.86  150.83
   3   0   1 3212.53  152.07
   3   0   1 2973.92  150.39
   3   0   1 3257.81  151.32
  -4   0  -1    4.89    3.66
  -4   0  -1   -0.60    3.90
  -4   0  -1   -3.75    2.89
  -4   0  -1    2.21    3.27
  -4   0  -1    1.63    2.23
  -4   0  -1   -0.66    5.15
   4   0   1    1.53    3.50
   4   0   1    7.14    3.71
   4   0   1    0.08    4.73
   4   0   1   -3.58    5.75
  -5   0  -1 1360.59   76.42
  -5   0  -1 1626.07   76.16
  -5   0  -1 1416.06   75.87
  -5   0  -1 1468.07   78.35
  -5   0  -1 1515.24   77.67
   5   0   1 1401.42   78.44
   5   0   1 1563.27   77.24
   5   0   1 1494.31   76.18
  -6   0  -1   -1.25    4.19
  -6   0  -1    3.78    6.84
  -6   0  -1    5.79    5.48
  -6   0  -1   -1.54    3.22
  -6   0  -1    6.50    7.99
   6   0   1   -4.13    3.51
   6   0   1    6.98    7.14
   6   0   1    3.04    6.51
  -7   0  -1  835.71   47.18
  -7   0  -1  831.89   49.06
  -7   0  -1  857.65   46.14
  -7   0  -1  852.32   46.93
   7   0   1  817.74   46.01
   7   0   1  818.00   47.28
   7   0   1  778.86   42.20
   7   0   1  776.47   45.90
  -8   0  -1   -0.06    8.04
  -8   0  -1    7.39    7.07
  -8   0  -1   -9.18    8.92
   8   0   1   -7.21    8.71
   8   0   1    7.01    9.92
   8   0   1    2.03    6.33
  -9   0  -1  233.94   26.31
  -9   0  -1  274.30   26.49
  -9   0  -1  340.35   28.52
   9   0   1  244.85   24.63
   9   0   1  260.10   26.71
 -10   0  -1   -7.24    8.84
 -10   0  -1   22.22   13.97
  10   0   1    7.22   11.50
  10   0   1   -2.04   12.74
 -11   0  -1  102.48   21.31
 -11   0  -1   78.81   21.58
  11   0   1   94.62   20.95
  11   0   1   67.32   17.58
  10  -1  -1  130.50   21.59
  10  -1  -1  127.99   19.75
 -10   1   1  138.21   20.63
 -10   1   1  117.05   21.09
   9  -1  -1    2.88    9.40
   9  -1  -1   -3.71    9.19
  -9   1   1    4.39    8.82
  -9   1   1    5.68   11.51
  -9   1   1   12.63    8.49
  -9   1   1   -0.25    9.23
   8  -1  -1  491.44   33.67
   8  -1  -1  493.76   32.05
   8  -1  -1  558.04   32.86
  -8   1   1  458.99   34.65
  -8   1   1  539.84   33.81
  -8   1   1  502.38   33.55
  -8   1   1  535.74   36.34
   7  -1  -1    6.65    6.71
   7  -1  -1    4.24    5.51
   7  -1  -1   -3.02    5.32
   7  -1  -1   -0.55    7.14
  -7   1   1    5.85    8.62
  -7   1   1    2.56    8.77
  -7   1   1    6.31    7.54
  -7   1   1    6.76    6.99
   6  -1  -1 1094.44   56.44
   6  -1  -1 1124.90   56.53
   6  -1  -1 1029.72   54.27
   6  -1  -1 1027.60   52.44
  -6   1   1 1115.77   59.56
  -6   1   1 1080.23   56.61
  -6   1   1 1017.88   57.59
  -6   1   1  991.80   56.90
   5  -1  -1    9.42    4.28
   5  -1  -1    7.45    2.50
   5  -1  -1    1.08    4.15
   5  -1  -1    2.05    3.63
  -5   1   1    5.58    5.71
  -5   1   1    4.03    5.26
  -5   1   1    3.14    4.60
  -5   1   1    3.91    5.00
   4  -1  -1 1991.57   95.56
   4  -1  -1 1776.11   92.51
   4  -1  -1 1729.04   93.38
   4  -1  -1 1916.84   95.39
   4  -1  -1 1947.46   93.43
   4  -1  -1 1927.26   91.49
  -4   1   1 1721.55   93.54
  -4   1   1 2009.73   95.38
  -4   1   1 1768.94   94.31
  -4   1   1 1866.25   95.36
   3  -1  -1  106.68    8.54
   3  -1  -1   97.88    9.85
   3  -1  -1   93.90    9.51
   3  -1  -1   82.99    7.15
   3  -1  -1   81.77    5.37
   3  -1  -1   76.00    6.76
  -3   1   1   84.97    8.77
  -3   1   1   98.98    8.16
  -3   1   1   92.70    7.25
  -3   1   1   79.57    8.76
  -3   1   1   72.07    8.46
   2  -1  -1 4493.20  211.76
   2  -1  -1 4141.49  211.86
   2  -1  -1 4601.39  211.29
   2  -1  -1 4474.29  212.97
   2  -1  -1 4130.36  212.29
   2  -1  -1 4359.01  211.91
   2  -1  -1 4374.17  213.42
  -2   1   1 4195.37  212.82
  -2   1   1 4171.80  211.80
  -2   1   1 4453.13  210.92
  -2   1   1 4223.11  212.72
  -2   1   1 4317.06  211.99
  -2   1   1 4319.14  212.34
  -2   1   1 4490.95  211.23
   1  -1  -1  271.72   13.78
   1  -1  -1  279.16   13.86
   1  -1  -1  266.13   13.63
   1  -1  -1  251.19   14.63
   1  -1  -1  267.15   14.40
   1  -1  -1  251.63   13.50
   1  -1  -1  266.39   12.77
   1  -1  -1  252.38   14.23
  -1   1   1  266.79   13.95
  -1   1   1  240.14   14.52
  -1   1   1  266.68   14.55
  -1   1   1  247.97   13.53
  -1   1   1  246.92   14.28
  -1   1   1  254.16   13.78
  -1   1   1  237.46   13.43
  -1  -1  -1    2.64    2.36
  -1  -1  -1    1.56    1.43
  -1  -1  -1    1.02    1.69
  -1  -1  -1    4.84    1.95
  -1  -1  -1    3.17    1.66
  -1  -1  -1    5.77    0.97
  -1  -1  -1    1.39    1.67
  -1  -1  -1    0.82    1.66
   1   1   1    3.74    0.99
   1   1   1    4.09    1.80
   1   1   1    3.09    1.49
   1   1   1    2.18    1.90
   1   1   1    0.70    2.09
   1   1   1    3.86    3.09
  -2  -1  -1 2269.81  117.08
  -2  -1  -1 2321.93  117.13
  -2  -1  -1 2429.67  116.74
  -2  -1  -1 2401.99  117.20
  -2  -1  -1 2383.80  117.87
  -2  -1  -1 2344.48  117.47
   2   1   1 2348.53  116.60
   2   1   1 2517.51  116.07
   2   1   1 2431.99  116.03
   2   1   1 2279.43  117.48
   2   1   1 2375.08  117.14
   2   1   1 2347.08  117.07
  -3  -1  -1   18.78    5.03
  -3  -1  -1   17.84    3.13
  -3  -1  -1   12.90    4.27
  -3  -1  -1   17.40    4.75
  -3  -1  -1   16.92    5.06
   3   1   1    7.16    3.03
   3   1   1   17.10    3.61
   3   1   1    9.71    3.79
   3   1   1    9.14    3.32
   3   1   1   15.24    4.73
  -4  -1  -1 2497.76  116.32
  -4  -1  -1 2194.55  112.18
  -4  -1  -1 2304.93  114.17
  -4  -1  -1 2285.41  117.07
  -4  -1  -1 2216.55  114.98
  -4  -1  -1 2309.44  116.14
   4   1   1 2524.38  116.97
   4   1   1 2251.69  114.94
   4   1   1 2300.65  114.47
   4   1   1 2240.12  116.01
  -5  -1  -1    2.11    1.56
  -5  -1  -1   -3.00    3.81
  -5  -1  -1    2.70    5.79
  -5  -1  -1    6.79    4.98
  -5  -1  -1    2.22    5.20
   5   1   1    7.39    5.47
   5   1   1    4.74    4.88
   5   1   1   -2.24    4.04
  -6  -1  -1 1376.42   73.38
  -6  -1  -1 1456.37   74.92
  -6  -1  -1 1338.97   74.89
  -6  -1  -1 1305.52   68.83
   6   1   1 1554.80   73.26
   6   1   1 1407.64   73.06
   6   1   1 1497.94   75.89
  -7  -1  -1   -6.33    7.52
  -7  -1  -1    1.31    6.55
  -7  -1  -1   -2.87    9.64
   7   1   1   22.97    8.39
   7   1   1   -2.92    4.16
   7   1   1   -2.22    8.54
  -8  -1  -1  392.42   28.60
  -8  -1  -1  382.56   30.07
  -8  -1  -1  398.27   29.33
   8   1   1  387.98   29.51
   8   1   1  389.79   26.87
  -9  -1  -1    6.19   10.41
  -9  -1  -1    2.39    8.18
  -9  -1  -1   -5.23   11.34
   9   1   1  -18.41    8.91
   9   1   1   -2.64    9.55
   9   1   1    5.29   11.20
 -10  -1  -1  128.70   20.27
 -10  -1  -1  150.41   20.81
  10   1   1  139.11   18.84
  10   1   1  124.53   18.61
 -11  -1  -1    3.50   17.52
 -11  -1  -1   -7.40   15.50
  11   1   1    5.45   13.97
  10  -2  -1  -16.58   10.62
  10  -2  -1   19.62   17.02
 -10   2   1   -5.03    9.51
 -10   2   1   11.49   14.06
 -10   2   1   24.26   14.21
   9  -2  -1  285.92   25.19
   9  -2  -1  291.74   28.45
  -9   2   1  241.91   25.80
  -9   2   1  261.40   27.67
  -9   2   1  242.41   25.04
   8  -2  -1    8.16    9.14
  -8   2   1   -5.55    7.90
  -8   2   1   -3.61    8.50
  -8   2   1    2.52    9.22
  -8   2   1    7.70    7.47
   7  -2  -1  453.23   25.41
   7  -2  -1  433.29   26.92
   7  -2  -1  424.44   28.11
  -7   2   1  509.30   30.84
  -7   2   1  411.70   30.08
  -7   2   1  416.23   28.04
  -7   2   1  421.74   29.77
   6  -2  -1   29.51    7.74
   6  -2  -1   29.62    6.00
   6  -2  -1   13.28    5.59
  -6   2   1    1.92    6.67
  -6   2   1   17.89    7.51
  -6   2   1    6.60    6.15
   5  -2  -1 1953.37   95.04
   5  -2  -1 1943.22   96.71
   5  -2  -1 1810.96   95.46
   5  -2  -1 1852.25   98.18
  -5   2   1 1900.61   98.92
  -5   2   1 1991.35   97.25
  -5   2   1 1935.18   98.20
  -5   2   1 1860.01   98.12
   4  -2  -1    3.51    3.51
   4  -2  -1    5.70    3.80
   4  -2  -1   -2.31    3.51
   4  -2  -1    1.15    3.39
   4  -2  -1    3.26    3.87
  -4   2   1    3.71    3.49
  -4   2   1    1.48    4.00
  -4   2   1    8.34    4.59
  -4   2   1    0.67    2.90
  -4   2   1    8.55    5.90
   3  -2  -1 3559.86  177.12
   3  -2  -1 3384.28  177.77
   3  -2  -1 3465.90  178.77
   3  -2  -1 3794.55  176.78
   3  -2  -1 3896.27  178.76
  -3   2   1 3624.62  177.09
  -3   2   1 3545.97  178.36
  -3   2   1 3637.44  179.13
  -3   2   1 3678.07  178.06
  -3   2   1 3524.44  178.88
   2  -2  -1   99.02    8.24
   2  -2  -1   88.90    7.92
   2  -2  -1   85.04    5.70
   2  -2  -1   85.14    8.59
   2  -2  -1   76.35    7.49
  -2   2   1   87.89    8.52
  -2   2   1   79.87    7.27
  -2   2   1   82.55    7.65
  -2   2   1   73.48    5.74
  -2   2   1   99.95    9.34
   1  -2  -1  429.34   24.14
   1  -2  -1  447.93   23.42
   1  -2  -1  443.57   23.31
   1  -2  -1  404.90   23.03
   1  -2  -1  448.94   22.11
   1  -2  -1  452.56   23.90
   1  -2  -1  427.55   22.80
  -1   2   1  457.07   23.40
  -1   2   1  444.66   23.91
  -1   2   1  406.15   23.74
  -1   2   1  432.07   22.82
  -1   2   1  425.12   23.08
  -1   2   1  460.01   23.25
   0  -2  -1  463.53   23.22
   0  -2  -1  453.42   23.35
   0  -2  -1  454.39   23.56
   0  -2  -1  427.20   23.66
   0  -2  -1  430.87   23.71
   0  -2  -1  417.97   23.20
   0   2   1  461.71   21.86
   0   2   1  417.37   23.17
   0   2   1  433.97   23.27
   0   2   1  446.43   23.58
   0   2   1  420.95   23.39
   0   2   1  467.31   23.90
  -1  -2  -1 5429.54  268.84
  -1  -2  -1 5504.50  269.46
  -1  -2  -1 5136.18  267.83
  -1  -2  -1 5880.64  269.27
  -1  -2  -1 5715.09  268.86
  -1  -2  -1 5095.40  269.11
   1   2   1 5374.32  268.69
   1   2   1 5565.00  268.86
   1   2   1 5077.44  268.02
   1   2   1 5542.62  269.11
   1   2   1 5533.21  269.48
   1   2   1 6121.76  268.57
   1   2   1 5736.64  269.28
  -2  -2  -1  194.06   11.83
  -2  -2  -1  195.98   12.27
  -2  -2  -1  194.94   12.32
  -2  -2  -1  197.98   10.59
  -2  -2  -1  181.53   11.65
   2   2   1  206.84   10.63
   2   2   1  165.96   13.22
   2   2   1  141.62   11.47
   2   2   1  187.81   11.74
   2   2   1  174.69   11.64
  -3  -2  -1 3786.66  192.22
  -3  -2  -1 3629.05  192.55
  -3  -2  -1 3831.83  191.75
  -3  -2  -1 3836.10  193.53
   3   2   1 3813.04  189.54
   3   2   1 3961.99  190.87
   3   2   1 3993.58  192.33
   3   2   1 3968.45  190.11
   3   2   1 4135.10  191.95
   3   2   1 4081.10  193.63
  -4  -2  -1   97.97   10.88
  -4  -2  -1  127.41   12.77
  -4  -2  -1  104.32   10.89
  -4  -2  -1   95.52    9.43
   4   2   1  100.62   10.34
   4   2   1   93.28    7.28
   4   2   1  111.64   12.25
   4   2   1  110.10   10.23
   4   2   1  117.72    9.29
  -5  -2  -1 1471.25   76.82
  -5  -2  -1 1441.14   75.00
  -5  -2  -1 1497.63   76.48
   5   2   1 1355.46   73.98
   5   2   1 1463.68   74.86
   5   2   1 1546.07   77.69
  -6  -2  -1   19.24    9.02
  -6  -2  -1    2.82    7.61
  -6  -2  -1   -4.21    6.01
   6   2   1    8.75    5.50
   6   2   1   -5.87    4.97
   6   2   1   -7.89    7.33
  -7  -2  -1  606.27   35.17
  -7  -2  -1  627.62   37.47
  -7  -2  -1  526.90   36.18
   7   2   1  602.63   34.47
   7   2   1  566.42   37.88
   7   2   1  554.23   34.59
   7   2   1  596.65   33.48
  -8  -2  -1   10.60   10.03
  -8  -2  -1   -5.08    8.36
  -8  -2  -1    5.58    8.07
   8   2   1    0.10    7.59
   8   2   1    0.10   10.58
   8   2   1    4.22    8.53
   8   2   1    7.48    5.64
  -9  -2  -1  315.82   30.51
  -9  -2  -1  318.72   28.85
  -9  -2  -1  296.68   29.76
   9   2   1  336.25   31.73
   9   2   1  381.39   28.58
   9   2   1  341.42   27.43
 -10  -2  -1   13.06   15.40
 -10  -2  -1   -6.16   12.42
  10   2   1  -23.93   22.43
  10   2   1    9.40   11.67
  11   2   1   39.12   21.36
  10  -3  -1  115.53   20.36
  10  -3  -1  127.76   19.46
 -10   3   1  135.38   21.65
 -10   3   1  122.50   20.21
 -10   3   1  133.91   22.18
   9  -3  -1    9.11   11.38
  -9   3   1    2.20   12.51
  -9   3   1   12.20   11.97
  -9   3   1   -2.98   10.99
   8  -3  -1  412.20   27.89
  -8   3   1  377.52   34.54
  -8   3   1  379.41   31.91
  -8   3   1  390.81   30.98
  -8   3   1  320.77   30.31
   7  -3  -1   -1.76    5.07
   7  -3  -1   -5.62    5.45
   7  -3  -1    6.02    7.82
  -7   3   1    1.13    7.34
  -7   3   1    2.97    6.80
  -7   3   1    6.17    6.58
  -7   3   1    6.09    8.36
   6  -3  -1  913.83   46.18
   6  -3  -1  854.22   48.51
   6  -3  -1  873.57   46.64
   6  -3  -1  867.05   50.57
  -6   3   1  813.14   50.23
  -6   3   1  907.43   49.37
  -6   3   1  900.58   51.31
   5  -3  -1   45.41    9.44
   5  -3  -1   43.20    6.34
   5  -3  -1   44.88    8.64
   5  -3  -1   56.52    6.99
  -5   3   1   38.81    7.41
  -5   3   1   31.64    8.10
  -5   3   1   29.17    8.89
  -5   3   1   40.06    9.68
   4  -3  -1 1929.53   99.96
   4  -3  -1 1953.68   97.92
   4  -3  -1 2042.31   99.54
   4  -3  -1 1954.35   97.52
   4  -3  -1 1854.67  100.10
  -4   3   1 1971.49  100.51
  -4   3   1 1984.64   99.91
  -4   3   1 1950.10  100.70
  -4   3   1 2031.98   99.63
   3  -3  -1  129.84   12.98
   3  -3  -1  158.30   12.81
   3  -3  -1  176.77   12.01
   3  -3  -1  154.07   11.45
   3  -3  -1  150.67    9.73
  -3   3   1  147.64   12.92
  -3   3   1  156.68   14.13
  -3   3   1  152.58    9.50
  -3   3   1  160.81   12.56
  -3   3   1  147.66   11.41
   2  -3  -1 3455.77  170.72
   2  -3  -1 3434.98  169.49
   2  -3  -1 3502.72  169.39
   2  -3  -1 3375.60  169.55
  -2   3   1 3220.78  170.23
  -2   3   1 3577.70  169.35
  -2   3   1 3525.55  169.59
  -2   3   1 3338.53  169.45
  -2   3   1 3474.17  167.49
   1  -3  -1    5.80    3.36
   1  -3  -1    8.64    3.59
   1  -3  -1    9.77    2.33
   1  -3  -1    4.17    3.85
  -1   3   1   17.98    4.80
  -1   3   1   12.87    3.50
  -1   3   1   -3.84    4.40
   0  -3  -1 5201.19  265.29
   0  -3  -1 5408.62  265.81
   0  -3  -1 5649.60  265.33
   0  -3  -1 4934.73  265.94
   0  -3  -1 5320.45  265.74
   0   3   1 5517.35  263.80
   0   3   1 5701.25  265.51
   0   3   1 5685.28  265.32
  -1  -3  -1    6.44    4.65
  -1  -3  -1    8.04    3.57
  -1  -3  -1    3.41    3.14
  -1  -3  -1    7.80    2.91
   1   3   1    1.18    2.74
   1   3   1    3.54    2.77
   1   3   1    2.75    3.08
   1   3   1   -0.15    2.64
  -2  -3  -1 5104.12  257.86
  -2  -3  -1 5327.21  258.76
  -2  -3  -1 5091.86  257.41
  -2  -3  -1 5153.88  258.76
  -2  -3  -1 5464.28  256.85
   2   3   1 5334.04  257.53
   2   3   1 5442.43  257.50
   2   3   1 5168.77  257.88
   2   3   1 5319.47  259.44
  -3  -3  -1   14.47    4.96
  -3  -3  -1    7.75    3.52
  -3  -3  -1   15.16    5.12
  -3  -3  -1   14.97    4.96
  -3  -3  -1    5.23    3.77
   3   3   1   12.12    3.81
   3   3   1    8.03    3.44
   3   3   1    5.35    2.30
   3   3   1    8.20    1.27
   3   3   1   13.58    4.74
   3   3   1    8.73    4.97
   3   3   1   11.28    1.45
  -4  -3  -1 1909.72   99.05
  -4  -3  -1 2030.11  101.88
  -4  -3  -1 1974.44  100.67
  -4  -3  -1 2175.59  100.10
   4   3   1 2153.17  100.06
   4   3   1 2012.85  101.61
   4   3   1 1976.66   99.03
   4   3   1 1990.20   98.02
   4   3   1 1790.94   96.12
   4   3   1 1819.71   95.97
  -5  -3  -1   25.72    6.69
  -5  -3  -1   23.55    7.69
  -5  -3  -1   10.58    5.57
   5   3   1   20.63    5.25
   5   3   1   11.82    6.04
   5   3   1   15.29    3.39
   5   3   1   11.47    6.09
  -6  -3  -1  889.68   49.98
  -6  -3  -1  846.72   49.38
  -6  -3  -1  834.62   47.98
   6   3   1  922.97   51.38
   6   3   1  857.13   47.19
   6   3   1  863.40   46.59
  -7  -3  -1   11.69    8.57
  -7  -3  -1    5.83    9.71
  -7  -3  -1    5.56    7.22
   7   3   1   18.15    8.25
   7   3   1    8.96   10.28
   7   3   1   16.99    7.07
  -8  -3  -1  394.17   30.76
  -8  -3  -1  360.99   32.34
  -8  -3  -1  418.48   35.34
   8   3   1  400.06   34.05
   8   3   1  396.62   26.83
   8   3   1  405.05   27.23
   8   3   1  388.60   26.63
  -9  -3  -1   16.07   11.49
  -9  -3  -1   -3.11   13.18
  -9  -3  -1    4.23   13.20
   9   3   1   18.04   10.99
   9   3   1   16.82   10.14
 -10  -3  -1  118.64   23.30
 -10  -3  -1  140.74   21.04
  10   3   1   82.99   18.86
  10   3   1  181.49   20.12
  10  -4  -1    6.26   17.84
  10  -4  -1   19.01   15.27
 -10   4   1   -3.96   15.36
 -10   4   1  -12.97   13.71
   9  -4  -1  202.53   22.65
  -9   4   1  154.23   22.41
  -9   4   1  219.27   23.34
  -9   4   1  246.02   26.81
   8  -4  -1    7.59   10.22
  -8   4   1    2.11    9.02
  -8   4   1    7.02   10.52
  -8   4   1   -1.20    9.56
  -8   4   1    2.25    8.69
   7  -4  -1  667.58   40.12
   7  -4  -1  701.55   42.53
   7  -4  -1  661.03   36.11
  -7   4   1  641.85   41.40
  -7   4   1  635.15   41.29
  -7   4   1  612.45   40.14
   6  -4  -1    2.24    5.04
   6  -4  -1    5.21    5.28
   6  -4  -1    5.58    7.66
   6  -4  -1    3.75    8.84
  -6   4   1    6.47    8.34
  -6   4   1    5.19    7.33
  -6   4   1   -1.46    5.75
   5  -4  -1  969.59   51.04
   5  -4  -1 1003.33   53.85
   5  -4  -1  957.40   51.50
   5  -4  -1  932.01   54.21
  -5   4   1  989.02   53.97
  -5   4   1 1069.52   55.89
  -5   4   1 1042.70   55.43
  -5   4   1  972.81   54.24
   4  -4  -1   18.45    5.84
   4  -4  -1   23.11    6.72
   4  -4  -1   12.88    4.20
   4  -4  -1    8.03    4.74
   4  -4  -1   20.75    8.31
  -4   4   1   13.29    6.68
  -4   4   1   14.24    6.08
  -4   4   1   23.68    6.16
  -4   4   1   19.62    3.90
  -4   4   1   17.12    6.73
   3  -4  -1 1812.73   89.73
   3  -4  -1 1887.45   89.80
   3  -4  -1 1534.76   90.38
   3  -4  -1 1903.21   89.84
   3  -4  -1 1632.61   87.60
  -3   4   1 1854.61   90.97
  -3   4   1 1800.34   89.56
  -3   4   1 1759.21   89.53
  -3   4   1 1772.04   86.32
  -3   4   1 1654.89   89.12
   2  -4  -1   23.74    5.71
   2  -4  -1   28.74    5.20
   2  -4  -1   28.84    6.70
   2  -4  -1   23.93    6.48
  -2   4   1   21.67    4.84
  -2   4   1   17.81    6.62
  -2   4   1   20.80    6.32
  -2   4   1   17.53    5.23
   1  -4  -1 3037.89  154.20
   1  -4  -1 3131.64  158.09
   1  -4  -1 3197.87  157.21
   1  -4  -1 3101.84  156.81
  -1   4   1 3169.80  157.14
  -1   4   1 3245.63  155.60
  -1   4   1 3290.17  156.75
   0  -4  -1    7.35    4.92
   0  -4  -1    8.80    6.07
   0  -4  -1   -2.42    3.49
   0   4   1    6.66    2.61
   0   4   1   -0.31    4.65
   0   4   1    0.43    3.89
  -1  -4  -1 4719.13  232.78
  -1  -4  -1 4854.71  234.15
  -1  -4  -1 4683.19  234.69
  -1  -4  -1 4661.35  234.34
   1   4   1 4626.86  233.68
   1   4   1 4985.05  232.79
   1   4   1 5000.61  232.22
   1   4   1 4523.12  232.48
  -2  -4  -1   18.34    2.31
  -2  -4  -1   20.08    6.35
  -2  -4  -1   15.53    5.93
  -2  -4  -1   20.95    4.67
   2   4   1   20.83    4.97
   2   4   1   25.34    3.22
   2   4   1   10.84    5.21
   2   4   1   18.29    3.60
  -3  -4  -1 1955.78   98.43
  -3  -4  -1 2034.85  100.47
  -3  -4  -1 2023.18   99.16
  -3  -4  -1 1931.86   96.97
  -3  -4  -1 1993.74  100.32
   3   4   1 1934.31   97.14
   3   4   1 1927.01   98.86
   3   4   1 1928.10   98.30
  -4  -4  -1   16.04    6.19
  -4  -4  -1   10.74    4.58
  -4  -4  -1   20.46    6.43
  -4  -4  -1   19.57    6.93
   4   4   1    4.94    5.53
   4   4   1   11.83    4.43
   4   4   1   14.62    5.40
   4   4   1    2.28    4.97
   4   4   1   12.34    3.15
  -5  -4  -1 1327.94   73.06
  -5  -4  -1 1344.24   73.96
  -5  -4  -1 1386.65   72.18
  -5  -4  -1 1427.03   72.10
   5   4   1 1356.99   70.10
   5   4   1 1443.34   71.74
   5   4   1 1313.36   74.59
  -6  -4  -1   -6.63    6.52
  -6  -4  -1    5.24    6.61
  -6  -4  -1    4.74    8.03
   6   4   1   -4.31    6.17
   6   4   1    9.24    5.77
   6   4   1    6.83    6.72
  -7  -4  -1  727.69   42.26
  -7  -4  -1  625.70   38.38
  -7  -4  -1  659.96   40.69
   7   4   1  671.32   38.37
   7   4   1  577.09   36.49
  -8  -4  -1   23.70   13.21
  -8  -4  -1   13.60    9.44
  -8  -4  -1   12.89   11.49
   8   4   1   -0.16    8.10
   8   4   1   -1.40    7.49
   8   4   1   14.44    8.10
  -9  -4  -1  189.22   22.73
  -9  -4  -1  149.15   20.21
  -9  -4  -1  152.75   22.62
   9   4   1  212.14   20.64
   9   4   1  129.17   22.20
   9   4   1  162.58   20.66
 -10  -4  -1    8.19   12.91
 -10  -4  -1    9.47   13.99
  10   4   1  -10.55   12.63
  10   4   1   17.24   17.90
  10  -5  -1   84.31   20.29
 -10   5   1   90.34   20.58
 -10   5   1   97.66   22.80
   9  -5  -1    9.29   13.03
  -9   5   1   -6.07   12.17
  -9   5   1    9.05   13.26
  -9   5   1    9.73   14.57
   8  -5  -1  364.05   29.25
  -8   5   1  270.74   28.51
  -8   5   1  293.90   27.20
  -8   5   1  274.47   25.98
  -8   5   1  300.86   30.93
   7  -5  -1    1.63    5.35
   7  -5  -1  -11.65    9.14
   7  -5  -1    5.64    9.29
  -7   5   1   -3.36    9.70
  -7   5   1    3.52   10.01
  -7   5   1    2.27   10.92
   6  -5  -1  684.12   44.06
   6  -5  -1  753.58   41.97
   6  -5  -1  783.87   46.52
  -6   5   1  776.51   46.70
  -6   5   1  806.74   45.97
  -6   5   1  877.27   48.97
   5  -5  -1    6.93    5.73
   5  -5  -1    9.58    7.62
   5  -5  -1    1.29    4.90
   5  -5  -1    0.21    4.02
  -5   5   1    7.62    6.29
  -5   5   1   -5.22    8.05
  -5   5   1   -0.05    7.35
  -5   5   1   -0.70    7.07
   4  -5  -1 1259.76   73.58
   4  -5  -1 1356.23   72.22
   4  -5  -1 1318.39   71.86
   4  -5  -1 1413.03   69.83
  -4   5   1 1318.03   67.16
  -4   5   1 1507.77   74.25
  -4   5   1 1391.93   72.20
  -4   5   1 1485.75   72.60
  -4   5   1 1309.10   71.76
   3  -5  -1   -0.11    5.00
   3  -5  -1   -1.08    4.00
   3  -5  -1    2.89    4.54
   3  -5  -1   -1.69    7.18
  -3   5   1    5.16    5.59
  -3   5   1    1.24    4.01
  -3   5   1   -2.03    6.76
  -3   5   1    2.89    4.85
   2  -5  -1 1290.09   68.05
   2  -5  -1 1417.27   68.26
   2  -5  -1 1230.35   69.28
  -2   5   1 1222.30   67.56
  -2   5   1 1323.40   66.60
  -2   5   1 1312.71   68.60
   1  -5  -1    5.63    4.74
   1  -5  -1    6.79    5.33
   1  -5  -1    7.41    5.02
   1  -5  -1   14.48    2.63
   1  -5  -1    5.81    5.23
  -1   5   1   13.50    6.03
  -1   5   1   13.13    5.25
  -1   5   1   13.28    3.62
   0  -5  -1 1849.33   99.81
   0  -5  -1 1930.26   99.83
   0  -5  -1 2097.12  101.36
   0   5   1 1987.85   97.13
   0   5   1 2027.55   99.20
   0   5   1 2006.81   99.45
   0   5   1 1898.56   97.10
  -1  -5  -1    4.05    4.47
  -1  -5  -1   -5.69    3.17
  -1  -5  -1   -3.09    5.26
   1   5   1    3.59    2.55
   1   5   1    0.07    3.34
   1   5   1   -0.11    2.83
   1   5   1   -5.35    4.68
  -2  -5  -1 1946.29  103.18
  -2  -5  -1 1986.16  104.63
  -2  -5  -1 2026.14  104.18
   2   5   1 2169.18  101.36
   2   5   1 2006.82  100.73
   2   5   1 2021.47  103.08
   2   5   1 2111.67  102.51
  -3  -5  -1   28.36    8.20
  -3  -5  -1   33.16    6.50
  -3  -5  -1   29.81    3.94
  -3  -5  -1   43.44    8.93
   3   5   1   22.07    6.52
   3   5   1   36.17    5.77
   3   5   1   39.35    7.05
  -4  -5  -1 2044.38  101.55
  -4  -5  -1 2005.81  102.32
  -4  -5  -1 1890.00  103.59
  -4  -5  -1 2050.47  103.94
   4   5   1 1939.26  102.43
   4   5   1 2057.10   99.61
   4   5   1 2018.69  101.48
   4   5   1 1974.94  101.83
  -5  -5  -1   14.41    7.61
  -5  -5  -1   -0.19    4.59
  -5  -5  -1    8.67    6.93
  -5  -5  -1    2.73    5.62
   5   5   1    8.89    6.50
   5   5   1   -0.42    7.73
   5   5   1    8.78    5.07
   5   5   1    2.36    3.10
  -6  -5  -1  709.06   41.89
  -6  -5  -1  689.47   44.29
  -6  -5  -1  778.85   44.54
  -6  -5  -1  718.03   41.74
   6   5   1  696.22   39.37
   6   5   1  703.83   40.78
   6   5   1  680.11   43.21
  -7  -5  -1   -2.18    7.91
  -7  -5  -1   15.00   11.10
  -7  -5  -1    4.70    7.29
  -7  -5  -1    6.66    9.34
   7   5   1   13.10    8.27
   7   5   1   -0.16   10.98
   7   5   1   -0.08    7.90
  -8  -5  -1  160.09   21.90
  -8  -5  -1  241.54   22.42
  -8  -5  -1  261.32   26.88
  -8  -5  -1  206.24   25.38
   8   5   1  194.82   25.00
   8   5   1  166.64   19.66
   8   5   1  218.16   22.86
   8   5   1  257.75   23.34
  -9  -5  -1   -1.30   13.43
  -9  -5  -1    1.63    8.87
  -9  -5  -1    2.40   13.78
  -9  -5  -1  -15.45    9.61
   9   5   1    9.07   10.76
   9   5   1   -0.01   10.49
   9   5   1    5.81   10.99
 -10  -5  -1   97.97   23.46
 -10  -5  -1  135.25   23.11
 -10  -5  -1  113.07   23.22
  10   5   1  121.04   21.58
   9  -6  -1  206.86   25.55
  -9   6   1  204.34   28.45
  -9   6   1  168.23   23.31
   8  -6  -1   -0.87   11.62
  -8   6   1   -1.12   10.86
  -8   6   1   -1.81    9.73
  -8   6   1    3.07   13.76
  -8   6   1  -10.66   13.17
   7  -6  -1  293.67   28.93
   7  -6  -1  384.88   30.06
  -7   6   1  382.05   34.45
  -7   6   1  345.45   30.37
  -7   6   1  371.33   31.16
   6  -6  -1   -0.47    6.42
   6  -6  -1    3.56    9.51
   6  -6  -1    0.32    6.40
  -6   6   1   13.65    9.80
  -6   6   1   -0.73    7.72
  -6   6   1    6.11   10.00
   5  -6  -1  667.69   41.25
   5  -6  -1  757.29   38.58
   5  -6  -1  732.44   42.17
   5  -6  -1  617.00   43.80
  -5   6   1  702.31   44.32
  -5   6   1  692.86   41.86
  -5   6   1  707.34   42.11
   4  -6  -1   13.87    8.29
   4  -6  -1    8.71    4.81
   4  -6  -1    3.42    8.82
   4  -6  -1    9.03    8.03
  -4   6   1    7.97    6.81
  -4   6   1   28.91    7.93
  -4   6   1   -1.47    6.02
  -4   6   1    0.23    3.05
  -4   6   1    1.76    6.40
   3  -6  -1 1729.75   89.82
   3  -6  -1 1692.94   89.02
   3  -6  -1 1851.91   92.00
  -3   6   1 1615.35   87.73
  -3   6   1 1695.96   90.26
  -3   6   1 1758.25   89.28
   2  -6  -1    5.85    5.80
   2  -6  -1    7.96    6.44
   2  -6  -1   -5.09    5.08
   2  -6  -1    0.04    2.71
  -2   6   1   -0.90    5.96
  -2   6   1   -3.17    4.19
  -2   6   1   -0.44    3.70
   1  -6  -1 1655.30   86.22
   1  -6  -1 1729.55   86.47
   1  -6  -1 1651.25   81.61
   1  -6  -1 1827.19   86.41
   1  -6  -1 1594.98   87.24
  -1   6   1 1647.52   85.56
  -1   6   1 1547.49   84.97
  -1   6   1 1619.73   82.61
   0  -6  -1   -7.78    3.75
   0  -6  -1   -0.17    4.83
   0  -6  -1    1.14    4.37
   0   6   1    0.44    2.49
   0   6   1   -5.59    4.26
   0   6   1    9.80    5.54
  -1  -6  -1 2522.34  138.17
  -1  -6  -1 2655.98  138.59
  -1  -6  -1 2809.93  139.84
   1   6   1 2793.38  137.80
   1   6   1 2732.01  134.58
   1   6   1 2819.18  136.14
   1   6   1 2855.77  136.54
  -2  -6  -1    6.74    6.39
  -2  -6  -1    6.22    5.85
  -2  -6  -1   -4.43    5.74
   2   6   1    9.19    3.33
   2   6   1    4.77    4.43
   2   6   1    4.96    5.92
   2   6   1    2.85    3.36
  -3  -6  -1 1832.97   96.44
  -3  -6  -1 1902.95   98.60
  -3  -6  -1 1907.39   98.01
   3   6   1 1838.25   94.09
   3   6   1 1991.03   96.23
   3   6   1 1805.04   95.79
  -4  -6  -1   -2.50    5.84
  -4  -6  -1   -4.55    7.34
  -4  -6  -1   13.16    7.39
   4   6   1    3.20    4.30
   4   6   1   11.28    5.26
   4   6   1   18.88    7.60
   4   6   1    7.12    7.13
  -5  -6  -1  847.76   51.73
  -5  -6  -1  843.37   51.43
  -5  -6  -1  890.12   48.34
  -5  -6  -1  888.82   49.64
   5   6   1  865.31   50.03
   5   6   1  908.29   45.43
   5   6   1  832.28   48.41
  -6  -6  -1   24.43    9.92
  -6  -6  -1   33.48   12.07
  -6  -6  -1   23.14    9.05
  -6  -6  -1    7.25   11.63
   6   6   1   20.57    9.19
   6   6   1   16.32    8.57
  -7  -6  -1  417.80   33.56
  -7  -6  -1  423.95   31.54
  -7  -6  -1  392.12   34.83
  -7  -6  -1  453.27   31.09
   7   6   1  432.00   29.03
   7   6   1  442.83   35.38
  -8  -6  -1  -10.42   11.81
  -8  -6  -1    0.66    9.79
  -8  -6  -1    8.41   13.05
  -8  -6  -1   16.26   11.48
   8   6   1   -0.75    8.07
   8   6   1    7.22   14.04
   8   6   1   10.23   10.60
  -9  -6  -1  128.70   23.43
  -9  -6  -1  153.24   25.46
  -9  -6  -1  152.08   19.80
   9   6   1  162.13   20.98
   9   6   1   99.26   19.74
   9   6   1  146.45   18.33
   9  -7  -1   -5.92   15.56
  -9   7   1    9.47   15.13
  -9   7   1   17.60   17.92
   8  -7  -1  242.12   25.71
  -8   7   1  258.58   28.21
  -8   7   1  223.04   27.59
   7  -7  -1   -6.26   11.06
  -7   7   1   23.33   14.42
  -7   7   1   -7.05    7.90
  -7   7   1   -0.84    8.43
   6  -7  -1  517.09   33.34
   6  -7  -1  451.99   29.42
   6  -7  -1  464.61   31.92
  -6   7   1  436.79   31.76
  -6   7   1  441.64   31.04
  -6   7   1  433.30   33.24
   5  -7  -1  -13.06    8.78
   5  -7  -1    6.54    9.13
   5  -7  -1   17.33   10.06
  -5   7   1    2.00    7.04
  -5   7   1   -8.68    6.90
  -5   7   1   13.64   11.91
   4  -7  -1  707.28   43.56
   4  -7  -1  615.21   37.11
   4  -7  -1  706.01   41.05
   4  -7  -1  648.51   39.30
  -4   7   1  671.57   39.38
  -4   7   1  646.56   38.28
  -4   7   1  672.00   34.95
  -4   7   1  640.75   41.78
   3  -7  -1   15.89    7.47
   3  -7  -1    7.77    8.12
   3  -7  -1    3.24    6.17
  -3   7   1   -3.70    8.00
  -3   7   1   -2.68    5.45
  -3   7   1    7.83    8.06
   2  -7  -1 1403.15   76.83
   2  -7  -1 1412.46   76.68
   2  -7  -1 1528.08   79.47
  -2   7   1 1413.57   77.12
  -2   7   1 1473.17   76.43
  -2   7   1 1442.70   73.54
   1  -7  -1   -2.43    6.36
   1  -7  -1   -2.32    7.05
   1  -7  -1   12.77    7.64
   1  -7  -1   -5.56    5.51
  -1   7   1   -2.38    6.58
  -1   7   1    1.62    5.90
  -1   7   1    2.35    3.30
   0  -7  -1 2034.12  102.86
   0  -7  -1 2029.87  104.79
   0  -7  -1 2117.37  103.53
   0  -7  -1 1955.34  103.77
   0   7   1 1907.53  101.14
   0   7   1 2031.66   97.68
   0   7   1 2043.26  101.75
   0   7   1 1845.79   97.79
  -1  -7  -1   -6.55    6.72
  -1  -7  -1    3.83    5.32
  -1  -7  -1   -9.15    4.74
   1   7   1   -2.35    4.72
   1   7   1    1.37    6.47
   1   7   1   -0.09    1.92
   1   7   1    1.69    2.11
   1   7   1    1.82    4.74
  -2  -7  -1 1706.82   87.91
  -2  -7  -1 1681.29   88.51
  -2  -7  -1 1665.95   89.26
   2   7   1 1593.30   82.70
   2   7   1 1612.62   85.25
   2   7   1 1732.00   83.98
   2   7   1 1728.48   86.66
  -3  -7  -1    7.39    6.03
  -3  -7  -1   -0.30    7.98
  -3  -7  -1   -1.64    5.64
   3   7   1    5.49    6.95
   3   7   1    3.02    4.23
   3   7   1   14.62    6.64
  -4  -7  -1  818.68   48.91
  -4  -7  -1  823.98   49.83
  -4  -7  -1  829.40   47.66
   4   7   1  841.37   47.22
   4   7   1  899.98   44.96
   4   7   1  835.68   46.48
   4   7   1  758.35   44.23
  -5  -7  -1    9.39   10.60
  -5  -7  -1   11.32    7.06
  -5  -7  -1    2.86    7.34
   5   7   1   -5.55    7.35
   5   7   1    8.30    5.06
   5   7   1   15.84   10.03
  -6  -7  -1  535.20   37.71
  -6  -7  -1  596.89   39.18
  -6  -7  -1  509.26   34.99
   6   7   1  522.60   35.91
   6   7   1  479.78   32.69
  -7  -7  -1   12.84   10.74
  -7  -7  -1    2.88   12.36
  -7  -7  -1    2.42    8.16
   7   7   1   -7.68   11.35
   7   7   1   19.51   10.00
   7   7   1   -0.21    8.82
  -8  -7  -1  297.62   31.28
  -8  -7  -1  228.90   27.78
  -8  -7  -1  241.83   26.66
   8   7   1  225.59   26.20
   8   7   1  212.46   21.61
   8   7   1  198.46   27.50
  -9  -7  -1    0.96   11.29
  -9  -7  -1   -6.82   10.70
  -9  -7  -1   35.00   18.40
   9   7   1   37.51   15.47
   9   7   1   32.64   16.80
   8  -8  -1   -4.11   14.05
  -8   8   1   10.87   14.73
  -8   8   1   17.22   17.33
   7  -8  -1  227.61   26.29
  -7   8   1  289.26   30.00
  -7   8   1  231.70   27.25
  -7   8   1  210.49   25.37
   6  -8  -1    2.43   11.29
  -6   8   1    0.26    9.25
  -6   8   1   -1.03   10.22
  -6   8   1    1.14    8.32
   5  -8  -1  550.40   35.51
   5  -8  -1  564.18   39.17
   5  -8  -1  489.32   35.08
  -5   8   1  534.34   34.06
  -5   8   1  546.58   38.86
  -5   8   1  555.86   35.40
   4  -8  -1    5.85    6.96
   4  -8  -1   10.28   10.02
   4  -8  -1   -6.01    8.34
   4  -8  -1   -0.34   12.01
  -4   8   1    2.03    7.04
  -4   8   1    7.85   11.17
  -4   8   1   -5.23    6.22
   3  -8  -1  772.46   48.36
   3  -8  -1  720.65   45.56
   3  -8  -1  756.51   44.81
  -3   8   1  733.77   45.48
  -3   8   1  683.07   43.41
  -3   8   1  786.27   41.66
  -3   8   1  792.49   41.90
   2  -8  -1    1.18    7.76
   2  -8  -1   -0.29   10.71
   2  -8  -1   -5.75    6.25
  -2   8   1   -1.55    8.15
  -2   8   1   -0.50    5.58
  -2   8   1    0.86    3.92
   1  -8  -1  774.92   49.23
   1  -8  -1  741.81   46.83
   1  -8  -1  812.31   47.84
  -1   8   1  801.51   45.35
  -1   8   1  771.21   40.96
  -1   8   1  922.17   47.06
   0  -8  -1    4.46    9.76
   0  -8  -1   -3.90    7.83
   0  -8  -1    1.30    5.49
   0  -8  -1   -4.82    8.00
   0   8   1    0.39    1.63
   0   8   1   -0.72    2.68
   0   8   1    0.42    1.39
   0   8   1    7.71    7.27
   0   8   1    4.97    6.37
  -1  -8  -1 1133.45   63.06
  -1  -8  -1 1107.47   64.10
  -1  -8  -1 1191.76   62.87
   1   8   1 1142.76   59.73
   1   8   1 1072.69   58.60
   1   8   1 1165.13   61.34
  -2  -8  -1    0.32    5.88
  -2  -8  -1   19.71   10.40
  -2  -8  -1   -4.22    8.59
   2   8   1   -1.46    4.05
   2   8   1    4.36    6.54
   2   8   1   -5.78    4.57
  -3  -8  -1  753.26   47.04
  -3  -8  -1  768.13   49.02
  -3  -8  -1  809.16   50.03
   3   8   1  851.60   46.36
   3   8   1  896.25   46.91
  -4  -8  -1    1.17    6.77
  -4  -8  -1    2.24    7.47
  -4  -8  -1    6.28   10.25
   4   8   1   -3.37    7.79
   4   8   1   -1.90    7.61
   4   8   1    5.51    6.44
  -5  -8  -1  625.38   42.83
  -5  -8  -1  631.24   40.49
  -5  -8  -1  594.66   41.49
   5   8   1  636.08   39.94
   5   8   1  673.98   39.31
  -6  -8  -1   12.54   11.55
  -6  -8  -1  -13.31   11.69
  -6  -8  -1   -1.86   11.04
   6   8   1    4.29   11.09
   6   8   1   17.32   10.23
  -7  -8  -1  281.02   28.58
  -7  -8  -1  263.63   30.05
  -7  -8  -1  286.42   31.51
   7   8   1  274.86   24.46
   7   8   1  322.10   30.54
   7   8   1  297.81   29.17
  -8  -8  -1   14.09   12.18
  -8  -8  -1    4.75   14.32
  -8  -8  -1   -1.19   15.57
   8   8   1    0.94   10.59
   8   8   1   15.26   14.82
   8   8   1    2.34   14.90
   8  -9  -1  138.16   24.53
  -8   9   1  124.48   26.17
  -8   9   1  113.26   22.41
   7  -9  -1   26.33   15.99
  -7   9   1   -7.97   13.81
  -7   9   1   25.96   13.13
   6  -9  -1  258.66   30.52
   6  -9  -1  272.18   28.34
  -6   9   1  350.63   32.61
  -6   9   1  260.50   26.88
   5  -9  -1   -3.20   10.73
   5  -9  -1    9.01   14.95
  -5   9   1  -10.26   10.71
  -5   9   1    4.48    9.56
   4  -9  -1  678.87   42.04
   4  -9  -1  585.12   38.88
   4  -9  -1  578.85   42.06
  -4   9   1  584.10   39.27
  -4   9   1  646.58   41.36
   3  -9  -1   13.11   12.70
   3  -9  -1    2.22    7.96
   3  -9  -1   -8.26   10.42
  -3   9   1   -1.53    6.55
  -3   9   1    2.74    7.20
  -3   9   1   22.91   11.76
   2  -9  -1  656.77   43.52
   2  -9  -1  747.92   45.53
   2  -9  -1  716.39   46.74
  -2   9   1  786.49   45.14
  -2   9   1  715.27   42.77
   1  -9  -1    7.02   10.45
   1  -9  -1    6.07    7.63
   1  -9  -1    2.02    8.52
  -1   9   1    6.12    8.87
  -1   9   1   -5.44    7.32
   0  -9  -1  906.57   54.19
   0  -9  -1  865.80   52.24
   0  -9  -1 1036.52   53.79
   0  -9  -1  875.67   55.45
   0   9   1  878.94   51.07
   0   9   1  851.82   50.27
  -1  -9  -1   -1.45    9.85
  -1  -9  -1   -8.20    6.34
  -1  -9  -1   -6.39    7.11
   1   9   1    0.41    7.63
   1   9   1    2.47    5.81
  -2  -9  -1  959.65   54.17
  -2  -9  -1  857.40   51.15
  -2  -9  -1  877.88   52.59
   2   9   1  875.49   48.06
   2   9   1  894.56   49.67
   2   9   1  815.95   46.29
  -3  -9  -1    0.65   10.21
  -3  -9  -1    3.48   10.50
  -3  -9  -1   12.84   12.03
   3   9   1  -11.05    7.54
   3   9   1   13.19    9.34
  -4  -9  -1  700.18   45.33
  -4  -9  -1  613.09   43.31
  -4  -9  -1  739.92   43.71
   4   9   1  634.89   40.37
   4   9   1  707.05   39.67
   4   9   1  628.48   39.97
  -5  -9  -1   -9.67    8.98
  -5  -9  -1   -2.80   11.97
  -5  -9  -1    6.92   11.23
   5   9   1    5.26    9.95
   5   9   1    4.98    8.75
  -6  -9  -1  265.36   27.89
  -6  -9  -1  260.24   29.59
  -6  -9  -1  291.81   30.69
   6   9   1  302.27   29.54
   6   9   1  358.85   30.61
  -7  -9  -1   -4.74   12.66
  -7  -9  -1    1.39   11.30
  -7  -9  -1   -0.23   11.14
   7   9   1   -6.35   13.80
   7   9   1   -0.76   11.90
   7   9   1   -7.91   12.69
  -8  -9  -1  147.44   24.41
  -8  -9  -1  201.87   29.09
  -8  -9  -1  149.08   24.46
   8   9   1  136.60   24.68
   8   9   1  105.49   23.29
   7 -10  -1  143.09   22.13
  -7  10   1  122.83   23.16
  -7  10   1  178.24   25.88
   6 -10  -1   -0.95   16.37
   6 -10  -1   25.52   16.08
  -6  10   1   -5.49   12.91
  -6  10   1   14.69   12.36
   5 -10  -1  263.06   32.21
   5 -10  -1  233.36   26.97
  -5  10   1  300.99   29.19
  -5  10   1  277.54   29.77
   4 -10  -1   -4.38   10.39
   4 -10  -1    8.80   12.38
  -4  10   1   -6.32   10.78
  -4  10   1    0.83   12.20
   3 -10  -1  566.85   39.44
   3 -10  -1  592.57   47.44
   3 -10  -1  519.50   45.45
  -3  10   1  540.19   37.49
  -3  10   1  526.82   34.24
  -3  10   1  576.95   37.36
   2 -10  -1   -8.85    8.94
   2 -10  -1    8.00    8.70
   2 -10  -1   -4.26    9.20
  -2  10   1   -3.17    6.83
  -2  10   1  -10.49    7.32
  -2  10   1    1.91    7.38
   1 -10  -1  726.15   46.36
   1 -10  -1  716.26   45.57
   1 -10  -1  699.97   48.04
  -1  10   1  709.86   44.66
  -1  10   1  807.71   45.18
   0 -10  -1    0.72   10.38
   0 -10  -1   10.12   11.64
   0 -10  -1    2.97   13.03
   0 -10  -1   -5.61   10.20
   0  10   1   -2.35    7.02
   0  10   1    1.46    8.81
  -1 -10  -1  935.73   56.90
  -1 -10  -1  802.34   51.83
  -1 -10  -1  903.08   55.42
  -1 -10  -1  840.68   53.11
   1  10   1  920.47   51.13
  -2 -10  -1  -11.54   10.29
  -2 -10  -1    0.11   12.30
  -2 -10  -1  -12.62    7.74
   2  10   1   -0.19    8.61
  -3 -10  -1  569.69   37.52
  -3 -10  -1  568.36   40.32
  -3 -10  -1  585.08   42.09
   3  10   1  582.29   34.67
   3  10   1  480.54   35.19
   3  10   1  552.77   35.61
  -4 -10  -1    4.15   13.58
  -4 -10  -1    2.97   12.90
  -4 -10  -1  -16.20   11.17
   4  10   1   -9.01    8.57
   4  10   1    1.47    7.54
   4  10   1   17.05   11.64
  -5 -10  -1  301.22   31.57
  -5 -10  -1  300.56   33.04
  -5 -10  -1  318.23   30.96
   5  10   1  300.03   25.79
   5  10   1  304.98   30.40
   5  10   1  305.21   28.12
  -6 -10  -1  -16.81   12.34
  -6 -10  -1    2.88   15.90
  -6 -10  -1    3.86   12.26
   6  10   1   -3.94   10.49
   6  10   1   13.90   12.16
   6  10   1   -5.44   14.49
  -7 -10  -1  187.19   29.39
  -7 -10  -1  148.77   22.47
  -7 -10  -1  166.40   25.54
   7  10   1  166.15   24.79
   7  10   1  135.44   25.15
   6 -11  -1  178.85   30.93
   6 -11  -1  221.33   29.04
  -6  11   1  176.59   29.28
  -6  11   1  175.12   25.80
   5 -11  -1   -1.71   11.41
   5 -11  -1    2.07   17.07
  -5  11   1   29.62   18.21
  -5  11   1   -2.07   13.50
   4 -11  -1  213.13   28.27
   4 -11  -1  257.21   29.86
  -4  11   1  260.77   28.79
  -4  11   1  238.75   25.42
   3 -11  -1   -0.87   10.56
   3 -11  -1   -6.89    9.45
  -3  11   1   -3.22   11.94
  -3  11   1   16.98   12.14
   2 -11  -1  368.56   37.79
   2 -11  -1  397.34   35.76
  -2  11   1  426.85   33.38
  -2  11   1  355.34   30.72
  -2  11   1  388.00   33.53
   1 -11  -1  -13.16   10.67
   1 -11  -1    6.22    9.55
   1 -11  -1    8.49   12.22
  -1  11   1   -1.81    9.99
  -1  11   1  -15.00    6.01
  -1  11   1   18.67   11.53
   0 -11  -1  550.48   40.81
   0 -11  -1  533.02   38.64
   0 -11  -1  441.21   39.77
   0 -11  -1  475.85   35.15
   0  11   1  461.14   37.38
   0  11   1  513.57   33.72
   0  11   1  430.61   31.47
  -1 -11  -1   12.50   12.82
  -1 -11  -1    1.66   12.90
  -1 -11  -1    7.61   11.59
  -1 -11  -1  -11.87   10.70
   1  11   1   -3.84    9.73
  -2 -11  -1  393.56   35.20
  -2 -11  -1  442.70   40.34
  -2 -11  -1  397.76   36.06
   2  11   1  405.48   31.77
  -3 -11  -1   -3.59   12.69
  -3 -11  -1    4.33   13.26
  -3 -11  -1   19.37   15.83
   3  11   1    0.91    9.69
   3  11   1   -0.76    9.16
   3  11   1  -23.09    8.72
  -4 -11  -1  275.15   29.07
  -4 -11  -1  331.24   34.82
  -4 -11  -1  351.49   36.97
   4  11   1  251.29   30.60
  -5 -11  -1  -10.86   10.73
  -5 -11  -1   10.15   16.64
  -5 -11  -1  -11.73   13.56
   5  11   1   -9.44   10.57
   5  11   1    9.46   10.75
  -6 -11  -1  233.29   30.10
  -6 -11  -1  185.15   29.30
  -6 -11  -1  177.67   27.06
   6  11   1  203.88   29.50
   4 -12  -1   16.45   12.43
   4 -12  -1   -0.21   17.72
  -4  12   1  -10.65   14.20
  -4  12   1    6.30   10.41
   3 -12  -1  263.63   31.38
   3 -12  -1  223.92   35.56
  -3  12   1  262.19   28.08
  -3  12   1  278.71   29.74
   2 -12  -1   10.11   14.83
   2 -12  -1  -23.25   16.72
  -2  12   1   19.18   12.84
  -2  12   1   -7.22   12.71
   1 -12  -1  260.47   35.03
   1 -12  -1  287.57   30.06
  -1  12   1  305.80   29.22
  -1  12   1  295.45   27.80
   0 -12  -1   23.18   11.35
   0 -12  -1    6.21   12.51
   0  12   1    0.69    9.09
   0  12   1   -4.27   10.47
  -1 -12  -1  287.68   32.17
  -1 -12  -1  380.18   33.40
  -1 -12  -1  288.65   34.25
  -1 -12  -1  292.65   36.00
   1  12   1  395.16   31.50
   1  12   1  309.46   31.96
  -2 -12  -1  -11.23   14.36
  -2 -12  -1   -7.57   17.35
  -2 -12  -1    3.90   13.02
  -2 -12  -1   -2.51   12.63
   2  12   1    3.95   10.38
   2  12   1    0.29   11.23
  -3 -12  -1  239.52   30.25
  -3 -12  -1  263.05   32.68
  -3 -12  -1  288.97   31.94
   3  12   1  328.54   29.72
   3  12   1  285.27   32.49
   3  12   1  290.48   27.16
  -4 -12  -1   10.85   19.30
  -4 -12  -1   16.99   17.85
  -4 -12  -1    7.14   15.73
   4  12   1   14.85   17.04
   4  12   1   13.09   13.75
  -5 -12  -1  140.06   26.40
  -5 -12  -1  206.25   31.41
  -5 -12  -1  152.18   25.80
   5  12   1  193.73   28.70
   2 -13  -1  200.74   33.87
   2 -13  -1  220.10   29.45
  -2  13   1  249.61   27.04
   1 -13  -1    0.80   15.92
   1 -13  -1  -23.09   17.27
  -1  13   1   -8.08   12.80
  -1  13   1    7.73   14.32
   0 -13  -1  348.72   34.95
   0 -13  -1  252.98   34.05
   0  13   1  300.32   32.28
   0  13   1  300.45   28.47
  -1 -13  -1    0.79   15.64
  -1 -13  -1   -2.06   16.24
  -1 -13  -1   -8.98   13.84
   1  13   1   -5.64   11.13
   1  13   1   12.09   14.56
  -2 -13  -1  210.43   34.73
  -2 -13  -1  323.57   32.46
  -2 -13  -1  239.62   32.27
   2  13   1  291.80   31.78
   2  13   1  286.73   27.75
   2  13   1  317.12   34.13
   2  13  -2   -6.90   10.77
   2  13  -2  -13.52   13.92
  -2 -13   2    0.36   13.12
  -2 -13   2    7.37   16.77
   1  13  -2  277.60   29.79
   1  13  -2  264.48   31.00
  -1 -13   2  245.21   30.07
  -1 -13   2  211.14   31.28
   0  13  -2   -9.43   13.76
   0  13  -2   -1.83   11.65
   0 -13   2  -12.62   18.26
   0 -13   2   -0.74   15.25
  -1  13  -2  253.13   24.86
  -1  13  -2  237.47   27.50
  -1  13  -2  302.16   32.98
   1 -13   2  188.43   30.18
   1 -13   2  252.45   28.65
  -2  13  -2   22.40   14.57
   2 -13   2    5.12   11.46
   2 -13   2  -18.43   19.53
   4  12  -2  256.28   31.74
  -4 -12   2  344.77   35.47
  -4 -12   2  197.36   31.88
   3  12  -2   -8.99   12.09
   3  12  -2  -13.60    9.33
  -3 -12   2  -13.41   13.76
  -3 -12   2    3.86   15.71
  -3 -12   2   22.17   14.24
   2  12  -2  263.37   27.98
   2  12  -2  244.03   27.44
  -2 -12   2  217.04   27.45
  -2 -12   2  301.99   34.01
  -2 -12   2  265.64   28.67
   1  12  -2    8.85   13.73
   1  12  -2    3.33    9.16
   1  12  -2   -6.41   15.06
  -1 -12   2   13.27   14.21
  -1 -12   2   -2.25   12.35
   0  12  -2  262.79   26.97
   0  12  -2  255.59   23.98
   0  12  -2  302.74   29.72
   0 -12   2  296.41   30.41
   0 -12   2  278.21   32.68
  -1  12  -2   10.11   12.61
  -1  12  -2   -3.94   11.15
   1 -12   2  -14.94   11.86
   1 -12   2    2.82   16.97
  -2  12  -2  323.00   28.57
  -2  12  -2  317.59   27.46
   2 -12   2  245.88   28.52
   2 -12   2  330.77   37.70
  -3  12  -2   -6.69   11.73
  -3  12  -2    0.40   12.08
   3 -12   2    7.80   14.68
   3 -12   2  -37.04   15.79
  -4  12  -2  232.64   30.21
  -4  12  -2  260.27   26.87
   4 -12   2  239.03   30.22
   4 -12   2  256.50   34.59
  -5  12  -2   13.26   16.98
  -5  12  -2    3.58   13.69
   5 -12   2    7.21   14.35
   5 -12   2  -21.13   15.95
   5  11  -2  240.43   28.72
   5  11  -2  262.56   30.05
  -5 -11   2  225.37   31.80
  -5 -11   2  254.91   31.46
   4  11  -2    6.19   10.86
   4  11  -2    4.57   14.04
   4  11  -2    9.56   13.52
  -4 -11   2    2.22   13.45
  -4 -11   2   -4.64   14.04
  -4 -11   2   -4.63   10.98
   3  11  -2  357.48   33.29
   3  11  -2  371.71   31.21
   3  11  -2  333.65   30.72
  -3 -11   2  347.63   33.69
  -3 -11   2  383.13   33.79
  -3 -11   2  349.37   35.54
   2  11  -2   -0.62    7.59
   2  11  -2   -0.73   10.91
   2  11  -2    4.77    9.33
  -2 -11   2   -9.72   11.17
  -2 -11   2  -13.24   14.21
  -2 -11   2    8.20   11.63
  -2 -11   2  -19.02   10.54
   1  11  -2  417.21   28.08
   1  11  -2  413.28   35.82
   1  11  -2  463.04   36.22
  -1 -11   2  386.97   40.07
  -1 -11   2  447.60   35.80
  -1 -11   2  429.58   35.16
  -1 -11   2  428.65   40.13
   0  11  -2   -1.10    7.92
   0  11  -2   14.49    9.07
   0  11  -2   -1.97    8.67
   0 -11   2    5.56   12.30
   0 -11   2    3.64    9.59
   0 -11   2    5.17   14.37
   0 -11   2   -6.09   13.87
  -1  11  -2  367.75   31.71
  -1  11  -2  400.18   27.66
   1 -11   2  400.81   39.46
   1 -11   2  431.66   35.68
   1 -11   2  402.03   38.75
  -2  11  -2  -11.63    8.65
  -2  11  -2   12.04   11.08
  -2  11  -2    1.87    9.52
   2 -11   2   -7.99   14.83
   2 -11   2   -6.13   15.08
   2 -11   2   -2.07   10.87
  -3  11  -2  389.47   30.02
  -3  11  -2  291.33   30.21
   3 -11   2  278.91   33.22
   3 -11   2  336.34   34.45
   3 -11   2  313.34   31.61
  -4  11  -2  -12.96    9.62
  -4  11  -2    5.22    9.45
   4 -11   2    8.34   16.80
   4 -11   2  -13.47   12.16
   4 -11   2   -7.91    9.22
   4 -11   2   -0.91   17.29
  -5  11  -2  271.20   30.21
  -5  11  -2  247.13   26.58
   5 -11   2  257.41   33.49
   5 -11   2  206.50   28.02
  -6  11  -2    7.23   16.88
  -6  11  -2  -10.27   12.71
   6 -11   2  -10.17   17.85
   6 -11   2  -14.88   16.28
   7  10  -2    4.86   17.49
   6  10  -2  352.89   31.64
   6  10  -2  129.54   23.41
  -6 -10   2  193.06   29.27
  -6 -10   2  163.57   23.52
   5  10  -2    1.28    9.53
   5  10  -2   -3.83    8.89
  -5 -10   2  -18.67   12.53
  -5 -10   2   14.32   13.65
  -5 -10   2  -12.18   14.39
   4  10  -2  431.13   35.38
   4  10  -2  406.08   29.83
   4  10  -2  469.11   39.48
  -4 -10   2  411.81   38.38
  -4 -10   2  472.69   36.31
  -4 -10   2  400.74   36.53
   3  10  -2   -1.62   10.15
   3  10  -2    6.15    6.79
   3  10  -2   -2.59    8.41
   3  10  -2   10.72    9.94
  -3 -10   2  -10.04    7.95
  -3 -10   2    5.68   11.53
  -3 -10   2   17.23   12.26
   2  10  -2  794.97   41.98
   2  10  -2  685.67   44.57
   2  10  -2  759.03   46.98
   2  10  -2  786.55   45.31
  -2 -10   2  772.82   49.57
  -2 -10   2  698.58   46.02
  -2 -10   2  771.57   47.01
  -2 -10   2  699.04   50.07
   1  10  -2   -6.55    6.85
   1  10  -2   -4.71    9.21
   1  10  -2  -11.63    6.82
  -1 -10   2   -3.68    9.12
  -1 -10   2   -3.46    9.31
  -1 -10   2   -9.29    8.26
  -1 -10   2   -6.37    9.39
   0  10  -2  670.32   40.80
   0  10  -2  706.64   43.76
   0 -10   2  698.36   43.88
   0 -10   2  794.59   50.55
   0 -10   2  745.30   43.47
   0 -10   2  717.89   47.52
  -1  10  -2   -1.59    7.52
  -1  10  -2    0.83    9.07
  -1  10  -2    3.56    8.70
   1 -10   2   -5.28    7.34
   1 -10   2   -2.71    9.97
   1 -10   2    8.61   10.65
   1 -10   2    9.90   13.22
  -2  10  -2  638.00   39.74
  -2  10  -2  625.57   38.37
  -2  10  -2  654.24   40.48
  -2  10  -2  693.70   42.09
   2 -10   2  718.16   43.96
   2 -10   2  708.97   47.67
   2 -10   2  663.19   46.57
  -3  10  -2    9.69    8.31
  -3  10  -2   -4.09    8.50
  -3  10  -2   16.05   11.61
   3 -10   2    7.85   11.78
   3 -10   2    5.67   13.52
   3 -10   2   -2.68   13.85
  -4  10  -2  412.07   32.71
  -4  10  -2  492.37   33.63
   4 -10   2  362.13   37.56
   4 -10   2  367.28   34.45
   4 -10   2  458.09   37.74
   4 -10   2  445.85   38.96
  -5  10  -2    0.66   10.56
  -5  10  -2    6.40    9.78
   5 -10   2    8.24   12.06
   5 -10   2   -5.00   12.60
   5 -10   2  -10.58   15.24
   5 -10   2  -19.25   14.58
  -6  10  -2  249.78   26.53
  -6  10  -2  262.50   31.00
   6 -10   2  244.93   31.93
   6 -10   2  211.93   28.22
  -7  10  -2   13.07   13.58
  -7  10  -2   -2.46   11.48
   7 -10   2  -12.80   10.03
   7   9  -2  219.03   28.69
   7   9  -2  241.44   27.51
  -7  -9   2  220.92   30.06
  -7  -9   2  212.61   29.03
   6   9  -2  -14.96   11.70
   6   9  -2   -9.67   13.48
  -6  -9   2   -4.54   12.95
  -6  -9   2    5.90   11.80
  -6  -9   2   14.08   12.52
   5   9  -2  462.18   38.91
   5   9  -2  414.89   34.64
   5   9  -2  555.74   40.45
  -5  -9   2  469.07   40.72
  -5  -9   2  437.97   39.06
  -5  -9   2  500.65   33.44
   4   9  -2    3.81    5.82
   4   9  -2    8.83   11.76
   4   9  -2   -0.48    6.89
   4   9  -2   20.60   12.05
  -4  -9   2    9.68   13.02
  -4  -9   2  -10.26   10.72
  -4  -9   2   10.20   11.21
   3   9  -2  836.60   41.70
   3   9  -2  692.64   46.15
   3   9  -2  751.41   45.46
   3   9  -2  755.34   44.85
  -3  -9   2  731.14   46.72
  -3  -9   2  766.17   49.87
  -3  -9   2  743.77   45.68
   2   9  -2    6.98    7.68
   2   9  -2   -4.97    8.66
   2   9  -2   -2.11    5.54
   2   9  -2  -19.43    7.16
  -2  -9   2    3.02    8.42
  -2  -9   2   -2.10    7.27
  -2  -9   2    4.12    9.87
   1   9  -2  681.15   42.13
   1   9  -2  742.73   43.63
   1   9  -2  645.47   38.49
   1   9  -2  663.18   40.51
  -1  -9   2  730.70   47.70
  -1  -9   2  753.40   42.29
  -1  -9   2  669.34   42.14
  -1  -9   2  680.40   44.52
   0   9  -2   -0.14    4.94
   0   9  -2    1.67    6.35
   0   9  -2   -6.61    5.99
   0  -9   2    6.85    8.73
   0  -9   2    2.83    8.70
   0  -9   2    8.31    9.00
   0  -9   2   -9.39    8.42
  -1   9  -2  777.44   46.61
  -1   9  -2  832.22   45.30
  -1   9  -2  875.65   47.34
  -1   9  -2  756.12   44.06
   1  -9   2  832.35   47.61
   1  -9   2  747.19   45.22
   1  -9   2  833.12   50.66
   1  -9   2  834.40   52.07
  -2   9  -2   -5.70    6.91
  -2   9  -2    6.46    7.70
  -2   9  -2   12.25    9.13
  -2   9  -2   -2.23    5.28
   2  -9   2   -2.68   10.19
   2  -9   2   -4.65    8.97
   2  -9   2   -7.96    6.60
  -3   9  -2  829.08   49.18
  -3   9  -2  835.37   46.09
  -3   9  -2  774.75   46.21
   3  -9   2  750.77   50.79
   3  -9   2  882.37   49.54
   3  -9   2  816.13   52.31
  -4   9  -2    2.70    9.01
  -4   9  -2   14.50    9.22
   4  -9   2    3.02   10.72
   4  -9   2    6.16   10.10
   4  -9   2    1.93   12.13
   4  -9   2   -0.86    7.83
  -5   9  -2  457.45   34.48
  -5   9  -2  463.91   33.31
   5  -9   2  436.20   31.53
   5  -9   2  389.94   34.74
   5  -9   2  416.64   38.01
   5  -9   2  409.06   37.52
  -6   9  -2    2.51   13.72
  -6   9  -2   -0.70   10.92
   6  -9   2    1.73    9.18
   6  -9   2    9.21   15.16
   6  -9   2  -15.97   13.00
  -7   9  -2  210.26   28.35
  -7   9  -2  176.88   23.00
   7  -9   2  193.43   25.63
  -8   9  -2   12.95   10.70
  -8   9  -2  -12.62   15.68
   8  -9   2    3.79   15.33
   8   8  -2  238.10   28.73
   8   8  -2  219.04   27.76
  -8  -8   2  235.12   29.43
  -8  -8   2  184.08   27.86
   7   8  -2   12.75   15.25
   7   8  -2    6.53   13.07
  -7  -8   2   -5.98   13.33
  -7  -8   2  -10.84   14.24
  -7  -8   2  -10.05    9.66
   6   8  -2  446.92   36.64
   6   8  -2  396.40   34.91
  -6  -8   2  434.50   33.81
  -6  -8   2  511.47   35.06
  -6  -8   2  383.63   36.70
   5   8  -2   11.74    9.03
   5   8  -2    4.38    8.12
   5   8  -2    1.31    6.08
  -5  -8   2   10.97    9.52
  -5  -8   2    2.61   11.92
  -5  -8   2   13.32   13.15
   4   8  -2  592.30   37.72
   4   8  -2  685.06   41.49
   4   8  -2  607.82   40.45
   4   8  -2  662.34   35.22
  -4  -8   2  672.42   42.11
  -4  -8   2  631.14   39.11
  -4  -8   2  668.18   42.97
   3   8  -2    4.73    9.14
   3   8  -2    5.70    7.51
   3   8  -2    8.49    9.17
   3   8  -2   -4.45    4.28
  -3  -8   2   -5.05    7.69
  -3  -8   2    6.23    9.09
  -3  -8   2   -7.41    6.46
   2   8  -2  956.86   54.90
   2   8  -2  928.85   54.28
   2   8  -2  991.19   51.85
   2   8  -2  990.62   56.40
  -2  -8   2 1086.84   56.02
  -2  -8   2  862.63   56.42
  -2  -8   2 1058.90   55.43
   1   8  -2   -1.95    4.16
   1   8  -2    8.44    7.99
   1   8  -2   -2.67    5.80
   1   8  -2    2.81    5.87
   1   8  -2    4.92    8.33
  -1  -8   2   -4.42    6.26
  -1  -8   2   -3.15    6.21
  -1  -8   2    2.90    7.90
   0   8  -2  859.85   49.49
   0   8  -2  981.22   49.17
   0   8  -2  900.80   51.33
   0   8  -2  898.11   48.28
   0  -8   2  768.96   52.94
   0  -8   2  964.47   50.46
   0  -8   2  921.46   51.65
   0  -8   2  977.26   55.53
  -1   8  -2  -10.20    4.92
  -1   8  -2   -9.54    4.84
  -1   8  -2    0.60    6.68
  -1   8  -2    2.10    6.56
   1  -8   2   -0.28    9.61
   1  -8   2    0.89    7.48
   1  -8   2   -6.54    5.44
   1  -8   2    2.21    6.54
  -2   8  -2  987.06   52.19
  -2   8  -2  982.39   52.20
  -2   8  -2 1004.55   54.47
   2  -8   2  871.62   55.61
   2  -8   2  956.32   57.16
   2  -8   2  893.57   53.36
  -3   8  -2   -3.08    5.66
  -3   8  -2    8.27    5.79
  -3   8  -2    0.58    6.98
  -3   8  -2    1.27    4.31
   3  -8   2    6.62    9.41
   3  -8   2    4.94   10.38
   3  -8   2   17.38   12.16
  -4   8  -2  765.54   43.19
  -4   8  -2  711.07   40.34
  -4   8  -2  698.51   44.62
   4  -8   2  702.54   44.73
   4  -8   2  756.59   45.22
   4  -8   2  704.33   46.77
   4  -8   2  769.51   46.65
  -5   8  -2   14.64   10.06
  -5   8  -2    7.98    7.68
  -5   8  -2   -0.55    8.58
   5  -8   2  -10.45   10.82
   5  -8   2   -3.79    8.28
   5  -8   2   -7.60   10.23
   5  -8   2    4.10   11.74
  -6   8  -2  470.24   32.91
  -6   8  -2  514.19   35.50
  -6   8  -2  458.13   31.28
   6  -8   2  441.75   39.46
   6  -8   2  419.24   38.12
   6  -8   2  440.05   36.19
   6  -8   2  478.93   32.17
  -7   8  -2   15.98   14.47
  -7   8  -2    2.55    8.35
   7  -8   2   -9.35   14.70
   7  -8   2  -12.10   10.86
  -8   8  -2  188.72   27.77
  -8   8  -2  178.57   22.47
   8  -8   2  197.58   26.19
  -9   8  -2   14.40   15.71
   9   7  -2  184.62   24.40
   9   7  -2  156.53   28.64
  -9  -7   2  162.97   28.49
  -9  -7   2  132.48   26.66
   8   7  -2    5.97   15.98
   8   7  -2    9.26   13.07
  -8  -7   2   17.67   16.48
  -8  -7   2   -6.14   10.91
   7   7  -2  240.57   29.21
   7   7  -2  297.28   28.08
  -7  -7   2  326.65   32.61
  -7  -7   2  274.86   25.94
  -7  -7   2  234.43   27.37
   6   7  -2   -0.06    7.11
   6   7  -2  -17.46    6.62
  -6  -7   2    5.77    8.28
  -6  -7   2   12.58   12.89
  -6  -7   2    3.37   11.92
   5   7  -2  684.28   42.44
   5   7  -2  650.19   35.55
   5   7  -2  636.84   37.62
   5   7  -2  673.61   42.55
  -5  -7   2  650.14   37.64
  -5  -7   2  668.59   39.64
  -5  -7   2  716.90   42.73
  -5  -7   2  653.49   44.14
   4   7  -2   23.15   10.33
   4   7  -2   17.07    6.82
   4   7  -2    8.67    4.97
   4   7  -2    5.90    8.74
  -4  -7   2   -0.65    5.08
  -4  -7   2    7.83    7.19
  -4  -7   2   -1.44    6.08
  -4  -7   2    0.90    7.29
   3   7  -2 1184.41   62.47
   3   7  -2 1103.31   64.19
   3   7  -2 1179.24   60.28
   3   7  -2 1187.57   64.19
  -3  -7   2 1170.80   62.84
  -3  -7   2 1272.13   65.34
  -3  -7   2 1104.59   66.08
   2   7  -2   -0.18    4.56
   2   7  -2   -2.70    5.74
   2   7  -2    3.64    5.26
   2   7  -2   -2.43    6.90
  -2  -7   2    0.95    6.25
  -2  -7   2    5.88    4.99
  -2  -7   2   -7.16    5.38
   1   7  -2 1672.24   84.75
   1   7  -2 1674.25   87.04
   1   7  -2 1790.87   88.05
   1   7  -2 1748.31   87.23
   1   7  -2 1591.62   84.62
  -1  -7   2 1762.40   89.79
  -1  -7   2 1516.21   86.59
  -1  -7   2 1675.25   86.79
   0   7  -2    2.48    4.74
   0   7  -2   -4.19    4.10
   0   7  -2   -9.18    4.36
   0   7  -2    3.73    5.40
   0  -7   2   -2.66    4.70
   0  -7   2    6.37    8.83
   0  -7   2    7.59    6.33
   0  -7   2    2.47    5.97
  -1   7  -2 1728.07   89.55
  -1   7  -2 1721.48   90.96
  -1   7  -2 1879.36   91.08
  -1   7  -2 1775.70   89.66
   1  -7   2 1690.35   94.31
   1  -7   2 1659.30   91.35
   1  -7   2 1792.30   89.89
   1  -7   2 1819.19   93.82
  -2   7  -2    1.35    5.12
  -2   7  -2   -1.99    5.43
  -2   7  -2    2.63    5.95
   2  -7   2    9.80    6.02
   2  -7   2   -2.43    8.45
   2  -7   2   20.83    8.10
  -3   7  -2  964.59   53.52
  -3   7  -2 1075.60   52.01
  -3   7  -2  939.63   52.24
  -3   7  -2  936.72   55.82
   3  -7   2 1044.98   57.72
   3  -7   2 1058.53   58.52
   3  -7   2  977.30   51.74
   3  -7   2  952.47   55.33
  -4   7  -2    8.45    6.02
  -4   7  -2    6.37    7.09
  -4   7  -2    4.36    4.91
  -4   7  -2   -4.72    8.13
   4  -7   2   -1.43    7.15
   4  -7   2  -10.62    9.30
   4  -7   2    5.21    5.82
   4  -7   2    9.91    7.01
   4  -7   2    5.15    8.18
  -5   7  -2  716.03   44.34
  -5   7  -2  626.79   40.05
  -5   7  -2  746.19   40.73
   5  -7   2  651.53   43.10
   5  -7   2  657.57   42.17
   5  -7   2  709.23   43.94
   5  -7   2  695.47   41.70
  -6   7  -2    7.47    7.39
  -6   7  -2   20.29    9.47
  -6   7  -2   15.06   10.55
   6  -7   2    9.89   12.62
   6  -7   2    8.11   11.14
   6  -7   2    1.93    7.05
   6  -7   2    4.58    7.90
  -7   7  -2  330.87   29.46
  -7   7  -2  432.90   32.09
  -7   7  -2  292.77   30.01
   7  -7   2  329.06   30.70
   7  -7   2  329.70   33.40
  -8   7  -2   -8.20   12.74
  -8   7  -2   34.66   16.65
  -8   7  -2    9.29   12.57
   8  -7   2   -9.59   16.01
   8  -7   2   10.15   13.11
  -9   7  -2  132.68   21.73
  -9   7  -2  131.81   24.74
   9  -7   2  133.40   22.09
   9   6  -2   -0.72   12.58
   9   6  -2   -2.40   11.30
  -9  -6   2   10.09   12.93
  -9  -6   2    5.83   17.57
   8   6  -2  238.44   28.54
   8   6  -2  246.06   24.58
   8   6  -2  203.95   23.44
  -8  -6   2  234.02   28.03
  -8  -6   2  192.04   22.52
  -8  -6   2  201.26   25.62
  -8  -6   2  220.06   27.28
   7   6  -2    5.56    9.49
   7   6  -2   -5.88   12.14
   7   6  -2   -9.20    8.59
  -7  -6   2    5.25    9.82
  -7  -6   2   -5.99   12.72
  -7  -6   2   -1.66    8.71
  -7  -6   2   -3.86    9.60
   6   6  -2  622.60   36.88
   6   6  -2  574.70   39.74
   6   6  -2  564.11   37.12
  -6  -6   2  611.92   41.17
  -6  -6   2  615.16   36.89
  -6  -6   2  559.74   38.88
  -6  -6   2  585.79   35.99
   5   6  -2   -0.84    4.53
   5   6  -2   -5.87    7.23
   5   6  -2   13.81   10.30
   5   6  -2  -10.66    9.04
   5   6  -2   11.13    5.39
  -5  -6   2   10.25   10.44
  -5  -6   2   13.22    7.42
  -5  -6   2    5.22    9.61
  -5  -6   2    8.85    7.38
   4   6  -2 1102.93   60.90
   4   6  -2 1092.11   56.46
   4   6  -2 1106.11   57.84
   4   6  -2 1123.72   61.31
   4   6  -2 1051.03   58.08
  -4  -6   2  980.27   61.43
  -4  -6   2 1193.14   61.83
  -4  -6   2 1145.37   58.97
  -4  -6   2 1121.98   57.64
   3   6  -2    3.14    3.82
   3   6  -2   18.05    6.10
   3   6  -2   12.97    8.29
   3   6  -2    9.50    4.57
   3   6  -2    7.51    5.84
   3   6  -2    6.91    4.29
  -3  -6   2    9.37    5.98
  -3  -6   2   12.43    4.38
  -3  -6   2    1.22    6.87
  -3  -6   2   -0.91    7.21
   2   6  -2 2168.17  109.10
   2   6  -2 2268.72  112.72
   2   6  -2 2223.69  112.05
   2   6  -2 2241.68  111.25
  -2  -6   2 2291.61  114.27
  -2  -6   2 2180.59  111.99
  -2  -6   2 2165.61  108.33
  -2  -6   2 2046.56  110.57
   1   6  -2    2.20    4.09
   1   6  -2    0.38    5.02
   1   6  -2   -1.39    5.33
   1   6  -2    1.01    6.05
   1   6  -2    3.45    3.61
  -1  -6   2   -7.45    5.51
  -1  -6   2    6.93    5.21
  -1  -6   2   -9.22    4.56
   0   6  -2 1728.32   85.16
   0   6  -2 1681.45   84.51
   0   6  -2 1644.88   84.10
   0   6  -2 1857.30   86.05
   0   6  -2 1747.73   86.23
   0  -6   2 1590.11   89.06
   0  -6   2 1573.21   84.79
   0  -6   2 1528.21   85.58
   0  -6   2 1677.33   87.69
  -1   6  -2    6.55    4.42
  -1   6  -2   -3.87    4.65
  -1   6  -2    6.27    4.30
  -1   6  -2   -4.16    4.00
   1  -6   2    7.56    3.40
   1  -6   2    8.30    5.98
   1  -6   2    0.21    5.55
   1  -6   2    2.99    7.94
   1  -6   2   -2.67    4.08
  -2   6  -2 2362.68  115.76
  -2   6  -2 2197.66  115.76
  -2   6  -2 2261.87  117.55
  -2   6  -2 2498.65  114.19
   2  -6   2 2179.71  117.03
   2  -6   2 2263.34  119.75
   2  -6   2 2305.56  113.93
   2  -6   2 2310.59  119.34
  -3   6  -2    8.85    4.67
  -3   6  -2   13.94    5.20
  -3   6  -2   13.83    6.44
  -3   6  -2    2.95    5.40
   3  -6   2    4.70    4.63
   3  -6   2   -6.93    5.99
   3  -6   2    6.93    8.29
   3  -6   2   28.88   10.12
  -4   6  -2 1199.24   61.90
  -4   6  -2 1270.36   65.16
  -4   6  -2 1158.48   66.74
  -4   6  -2 1174.03   64.33
   4  -6   2 1219.53   66.18
   4  -6   2 1284.46   68.81
   4  -6   2 1175.55   64.11
   4  -6   2 1244.14   66.54
   4  -6   2 1350.75   68.62
  -5   6  -2    4.59    6.84
  -5   6  -2   21.66    8.03
  -5   6  -2    8.25    8.05
   5  -6   2    3.64    8.32
   5  -6   2   21.13   10.39
   5  -6   2    2.86    7.10
   5  -6   2    1.36    9.63
  -6   6  -2  549.03   33.80
  -6   6  -2  468.27   34.04
  -6   6  -2  460.22   31.78
   6  -6   2  518.82   36.55
   6  -6   2  537.14   32.75
   6  -6   2  522.97   34.02
  -7   6  -2   -7.30    7.37
  -7   6  -2   13.92   10.87
  -7   6  -2   12.30    8.28
   7  -6   2    3.77    8.78
   7  -6   2    9.74    8.77
   7  -6   2    2.14   12.80
  -8   6  -2  286.59   27.05
  -8   6  -2  283.32   28.69
  -8   6  -2  183.67   24.44
   8  -6   2  260.72   25.55
   8  -6   2  181.58   26.98
  -9   6  -2   15.46   15.34
  -9   6  -2   -0.07   12.42
   9  -6   2   13.86   10.99
 -10   6  -2  112.22   21.86
   9   5  -2  192.01   23.49
   9   5  -2  208.26   29.66
  -9  -5   2  228.22   25.09
  -9  -5   2  206.41   29.64
   8   5  -2    4.38    9.60
   8   5  -2   -8.84    8.99
   8   5  -2   -7.88    9.81
  -8  -5   2   12.01   11.89
  -8  -5   2   -4.07    9.42
  -8  -5   2    6.80   10.80
   7   5  -2  493.28   34.53
   7   5  -2  527.57   31.40
   7   5  -2  557.08   34.87
   7   5  -2  480.35   39.82
  -7  -5   2  560.90   37.85
  -7  -5   2  504.35   34.87
  -7  -5   2  582.96   34.23
   6   5  -2    3.69    8.31
   6   5  -2   11.43    8.92
   6   5  -2   13.60    5.61
   6   5  -2   11.81    6.83
  -6  -5   2   13.69    8.38
  -6  -5   2    7.85    7.55
  -6  -5   2   19.66   11.13
   5   5  -2  792.17   43.04
   5   5  -2  844.44   48.14
   5   5  -2  795.32   45.40
   5   5  -2  781.39   45.78
   5   5  -2  798.42   42.32
  -5  -5   2  888.48   45.42
  -5  -5   2  797.92   44.32
  -5  -5   2  798.79   48.03
  -5  -5   2  747.81   47.55
   4   5  -2   22.86    7.38
   4   5  -2   11.17    8.20
   4   5  -2    5.76    4.96
   4   5  -2   18.52    4.13
   4   5  -2   14.50    5.65
   4   5  -2    7.48    7.25
   4   5  -2   11.05    4.56
  -4  -5   2   11.34    5.55
  -4  -5   2   15.35    6.62
  -4  -5   2   20.50    5.84
  -4  -5   2   10.16    8.75
   3   5  -2 1772.13   89.56
   3   5  -2 1710.72   89.11
   3   5  -2 1705.71   92.62
   3   5  -2 1921.28   90.61
   3   5  -2 1811.34   91.17
   3   5  -2 1824.59   93.11
  -3  -5   2 1802.93   90.99
  -3  -5   2 1694.06   93.75
  -3  -5   2 1837.42   90.25
  -3  -5   2 1902.13   93.39
   2   5  -2   -2.17    3.13
   2   5  -2    9.49    6.34
   2   5  -2    2.20    2.83
   2   5  -2    2.54    5.92
   2   5  -2    0.45    3.04
  -2  -5   2   12.32    4.46
  -2  -5   2    4.95    2.58
  -2  -5   2    2.42    2.66
  -2  -5   2   -4.42    3.96
  -2  -5   2    1.69    3.73
   1   5  -2 1685.38   77.65
   1   5  -2 1364.06   74.64
   1   5  -2 1405.21   75.61
   1   5  -2 1511.56   77.27
   1   5  -2 1477.93   74.87
   1   5  -2 1622.09   76.96
  -1  -5   2 1592.41   76.79
  -1  -5   2 1397.30   78.15
  -1  -5   2 1489.48   76.32
   0   5  -2    4.18    3.87
   0   5  -2    5.96    3.45
   0   5  -2    0.71    3.30
   0   5  -2    4.58    4.58
   0   5  -2   10.90    4.72
   0  -5   2    8.12    5.21
   0  -5   2    1.72    7.00
   0  -5   2    9.74    4.03
   0  -5   2    4.53    6.08
  -1   5  -2 1770.82   89.55
  -1   5  -2 1730.64   90.11
  -1   5  -2 1745.86   90.66
  -1   5  -2 1788.11   88.85
   1  -5   2 1936.79   92.74
   1  -5   2 2042.96   94.63
   1  -5   2 1745.20   89.27
   1  -5   2 1759.50   87.50
   1  -5   2 1806.81   90.92
   1  -5   2 1683.14   88.25
  -2   5  -2   11.95    3.87
  -2   5  -2    8.84    3.23
  -2   5  -2    9.55    5.04
  -2   5  -2   -0.05    3.80
  -2   5  -2   -0.28    4.24
  -2   5  -2   -1.54    3.36
   2  -5   2    5.27    5.21
   2  -5   2    7.55    3.51
   2  -5   2    3.48    5.37
   2  -5   2    9.15    7.08
  -3   5  -2 1941.65   93.07
  -3   5  -2 2030.64   94.73
  -3   5  -2 1969.14   95.34
  -3   5  -2 1738.29   96.49
  -3   5  -2 1796.36   93.25
  -3   5  -2 1918.18   97.88
   3  -5   2 1694.23   96.79
   3  -5   2 1972.64   98.26
   3  -5   2 1803.70   95.71
   3  -5   2 1902.94   94.38
   3  -5   2 1821.23   96.47
  -4   5  -2    2.97    4.65
  -4   5  -2    0.68    0.91
  -4   5  -2    5.64    5.51
  -4   5  -2   -0.33    6.95
  -4   5  -2    1.30    2.79
  -4   5  -2    1.95    0.77
   4  -5   2    1.65    5.63
   4  -5   2    8.01    5.40
   4  -5   2   -2.45    6.65
   4  -5   2   -2.28    5.17
   4  -5   2   -4.55    7.22
  -5   5  -2  924.27   57.04
  -5   5  -2 1012.92   56.03
  -5   5  -2 1038.07   56.43
   5  -5   2 1101.82   58.32
   5  -5   2 1007.51   56.16
   5  -5   2 1027.25   56.72
   5  -5   2 1100.62   59.47
  -6   5  -2   -7.82    4.99
  -6   5  -2   -0.74    4.55
  -6   5  -2   -1.72    6.27
  -6   5  -2   -1.08    5.73
   6  -5   2    8.09    4.20
   6  -5   2   15.21   10.90
   6  -5   2    5.74    7.97
   6  -5   2  -10.55    7.03
  -7   5  -2  442.98   28.19
  -7   5  -2  518.04   33.77
  -7   5  -2  467.08   30.86
  -7   5  -2  458.08   33.05
   7  -5   2  492.00   31.00
   7  -5   2  439.46   33.47
   7  -5   2  497.88   32.64
  -8   5  -2  -11.70    9.52
  -8   5  -2   -0.66    8.33
  -8   5  -2   15.04   12.69
   8  -5   2    9.09   11.07
   8  -5   2   -8.38   13.27
  -9   5  -2  155.11   23.43
  -9   5  -2  148.71   21.30
   9  -5   2  120.61   23.84
   9  -5   2  184.23   22.86
 -10   5  -2  -16.87   12.56
  10  -5   2   -2.72   14.41
  10   4  -2  135.27   21.60
  10   4  -2  166.85   27.87
 -10  -4   2   88.83   20.44
   9   4  -2    4.30   11.34
   9   4  -2  -11.80    9.65
  -9  -4   2    3.46   10.49
  -9  -4   2   -9.02   10.99
   8   4  -2  380.75   30.96
   8   4  -2  371.52   33.28
   8   4  -2  349.45   26.79
  -8  -4   2  476.92   39.26
  -8  -4   2  358.27   32.66
  -8  -4   2  424.12   31.44
   7   4  -2   18.51    9.41
   7   4  -2   17.77    6.67
   7   4  -2   13.08    9.62
   7   4  -2   12.46    8.51
  -7  -4   2   26.60    8.81
  -7  -4   2   19.34   10.82
  -7  -4   2   12.49    9.15
   6   4  -2  748.20   44.95
   6   4  -2  813.85   43.58
   6   4  -2  712.81   42.91
   6   4  -2  755.59   39.88
  -6  -4   2  734.43   45.06
  -6  -4   2  695.03   43.24
  -6  -4   2  738.81   41.90
   5   4  -2   -4.52    7.30
   5   4  -2    3.21    4.80
   5   4  -2   -8.64    3.76
   5   4  -2   17.99    7.52
   5   4  -2    9.70    6.75
  -5  -4   2   -6.84    5.40
  -5  -4   2   -5.63    4.79
  -5  -4   2    5.17    8.19
   4   4  -2 1315.14   69.05
   4   4  -2 1375.47   71.98
   4   4  -2 1387.61   71.28
   4   4  -2 1374.87   70.00
   4   4  -2 1364.39   71.49
   4   4  -2 1315.86   68.55
   4   4  -2 1444.33   73.46
  -4  -4   2 1429.61   73.52
  -4  -4   2 1359.13   70.26
  -4  -4   2 1424.27   71.25
   3   4  -2   36.96    4.40
   3   4  -2   28.16    5.77
   3   4  -2   27.96    7.81
   3   4  -2   41.07    7.28
   3   4  -2   37.08    4.99
   3   4  -2   24.92    6.89
   3   4  -2   40.59    6.18
  -3  -4   2   48.90    6.69
  -3  -4   2   25.03    6.71
  -3  -4   2   35.42    7.39
  -3  -4   2   31.20    5.59
   2   4  -2 3157.26  143.40
   2   4  -2 2972.89  143.86
   2   4  -2 3013.65  143.11
   2   4  -2 3015.01  146.06
   2   4  -2 2637.74  145.62
   2   4  -2 2780.23  144.73
   2   4  -2 2900.28  145.27
  -2  -4   2 3020.83  146.96
  -2  -4   2 3021.19  144.27
  -2  -4   2 2852.93  143.61
  -2  -4   2 2851.08  145.78
  -2  -4   2 2824.84  142.76
   1   4  -2   59.34    7.35
   1   4  -2   50.45    7.17
   1   4  -2   62.56    7.24
   1   4  -2   41.88    6.47
   1   4  -2   51.72    5.18
   1   4  -2   53.79    5.16
  -1  -4   2   50.71    5.34
  -1  -4   2   48.87    7.44
  -1  -4   2   72.03    7.26
  -1  -4   2   57.07    6.47
  -1  -4   2   46.19    3.94
   0   4  -2 3043.83  150.33
   0   4  -2 3318.01  149.31
   0   4  -2 3071.42  150.56
   0   4  -2 3112.96  149.81
   0   4  -2 3137.21  149.21
   0   4  -2 2995.76  148.78
   0  -4   2 2927.26  151.15
   0  -4   2 3091.86  152.85
   0  -4   2 3013.24  149.31
   0  -4   2 2767.59  149.69
   0  -4   2 2885.15  148.97
  -1   4  -2   -6.18    3.58
  -1   4  -2   -0.68    3.46
  -1   4  -2    0.41    2.28
  -1   4  -2    6.53    3.46
   1  -4   2   -0.30    4.43
   1  -4   2   -0.76    1.92
   1  -4   2    7.39    4.28
   1  -4   2    3.66    4.22
   1  -4   2    1.18    2.45
   1  -4   2    6.67    2.81
  -2   4  -2 2430.39  122.75
  -2   4  -2 2593.63  124.50
  -2   4  -2 2393.85  127.20
  -2   4  -2 2387.22  124.87
  -2   4  -2 2389.93  123.30
  -2   4  -2 2668.75  126.69
  -2   4  -2 2734.35  124.64
   2  -4   2 2737.39  124.52
   2  -4   2 2554.87  127.02
   2  -4   2 2515.78  127.73
   2  -4   2 2312.95  125.39
  -3   4  -2   15.40    3.38
  -3   4  -2    7.25    5.79
  -3   4  -2   12.44    2.34
  -3   4  -2   13.62    4.92
  -3   4  -2   16.94    4.59
  -3   4  -2   20.29    3.84
  -3   4  -2    4.23    4.27
   3  -4   2   19.92    6.67
   3  -4   2   21.85    5.60
   3  -4   2   13.88    4.46
   3  -4   2   12.34    5.70
   3  -4   2   13.40    6.13
  -4   4  -2 1708.44   85.28
  -4   4  -2 1442.67   86.37
  -4   4  -2 1753.05   87.22
  -4   4  -2 1809.58   85.93
   4  -4   2 1553.01   85.45
   4  -4   2 1832.42   88.23
   4  -4   2 1639.65   85.24
   4  -4   2 1677.74   85.58
   4  -4   2 1610.14   86.32
  -5   4  -2    2.41    3.79
  -5   4  -2    9.36    5.25
  -5   4  -2    3.07    4.81
  -5   4  -2   -8.79    4.20
   5  -4   2    6.01    3.15
   5  -4   2   11.99    5.76
   5  -4   2   10.75    6.49
   5  -4   2    4.51    5.61
  -6   4  -2  673.39   42.73
  -6   4  -2  681.95   42.79
  -6   4  -2  680.66   39.37
  -6   4  -2  741.93   42.08
   6  -4   2  775.25   42.28
   6  -4   2  726.76   45.09
   6  -4   2  822.29   43.07
  -7   4  -2    2.14    7.45
  -7   4  -2   -0.02    8.54
  -7   4  -2    0.76    7.26
  -7   4  -2   -4.86    4.61
   7  -4   2   -4.16    7.35
   7  -4   2    0.20    6.04
   7  -4   2    2.73    7.13
  -8   4  -2  322.59   23.53
  -8   4  -2  269.98   28.02
  -8   4  -2  346.33   31.00
  -8   4  -2  332.60   28.80
   8  -4   2  338.46   31.47
   8  -4   2  324.85   27.37
   8  -4   2  333.76   25.03
  -9   4  -2    6.50   11.29
  -9   4  -2    3.23    9.28
   9  -4   2   13.19   12.54
   9  -4   2   15.47   16.80
 -10   4  -2  147.11   22.73
  10  -4   2  176.16   24.12
  10   3  -2    0.90   15.00
  10   3  -2   -0.21   16.11
 -10  -3   2    2.69   14.42
 -10  -3   2   -5.28   16.18
   9   3  -2  260.35   25.07
   9   3  -2  157.25   25.00
  -9  -3   2  205.59   21.71
  -9  -3   2  208.38   26.34
   8   3  -2    3.35    7.21
   8   3  -2    0.06    7.77
   8   3  -2    8.04    9.90
   8   3  -2    2.53    8.89
  -8  -3   2  -10.68    8.00
  -8  -3   2   17.40   13.10
  -8  -3   2   17.82   11.79
   7   3  -2  553.73   36.42
   7   3  -2  595.41   33.01
   7   3  -2  557.54   34.52
   7   3  -2  574.09   38.86
  -7  -3   2  666.74   40.72
  -7  -3   2  619.53   38.44
  -7  -3   2  547.18   34.46
   6   3  -2    5.89    7.59
   6   3  -2   -2.62    5.81
   6   3  -2    5.25    6.05
   6   3  -2    0.83    5.24
  -6  -3   2   -7.42    6.14
  -6  -3   2   -7.08    4.69
  -6  -3   2    6.87    3.69
  -6  -3   2   -0.40    8.55
   5   3  -2 1499.21   71.73
   5   3  -2 1425.04   73.41
   5   3  -2 1292.80   70.91
   5   3  -2 1534.34   76.01
   5   3  -2 1382.66   73.35
  -5  -3   2 1382.13   72.27
  -5  -3   2 1397.38   73.98
  -5  -3   2 1333.92   69.71
  -5  -3   2 1517.52   76.26
   4   3  -2   -4.27    3.06
   4   3  -2    2.12    4.77
   4   3  -2    0.77    3.44
   4   3  -2    3.27    2.86
   4   3  -2   -1.09    4.41
   4   3  -2    3.95    3.96
   4   3  -2    4.98    5.27
  -4  -3   2    4.90    2.19
  -4  -3   2   11.58    5.39
  -4  -3   2    3.45    3.59
  -4  -3   2    5.86    4.87
   3   3  -2 2063.72  102.09
   3   3  -2 1964.31   99.54
   3   3  -2 1921.41  102.10
   3   3  -2 2005.09  102.90
   3   3  -2 2150.49  100.05
   3   3  -2 2051.21  101.00
   3   3  -2 2094.05  101.83
  -3  -3   2 2092.70  100.68
  -3  -3   2 1967.96  102.81
  -3  -3   2 1962.75   99.24
  -3  -3   2 2015.75  101.67
   2   3  -2   20.78    5.18
   2   3  -2   21.50    4.05
   2   3  -2   14.51    6.21
   2   3  -2   22.69    4.80
   2   3  -2   14.17    2.42
   2   3  -2   14.70    4.21
   2   3  -2   14.50    2.78
  -2  -3   2    5.27    3.73
  -2  -3   2   13.05    5.01
  -2  -3   2   27.83    4.11
   1   3  -2 4339.28  205.32
   1   3  -2 4501.14  204.70
   1   3  -2 4043.37  204.82
   1   3  -2 3936.06  204.34
   1   3  -2 4544.30  202.88
   1   3  -2 3906.19  202.66
  -1  -3   2 4167.13  204.85
  -1  -3   2 4317.38  203.17
  -1  -3   2 4097.96  203.46
  -1  -3   2 4118.84  204.44
  -1  -3   2 4129.16  203.36
  -1  -3   2 3899.95  205.28
   0   3  -2   11.41    2.61
   0   3  -2   12.84    2.99
   0   3  -2    9.30    4.41
   0   3  -2   17.95    3.51
   0   3  -2   15.13    5.38
   0   3  -2    8.46    3.77
   0   3  -2   11.26    3.56
   0  -3   2   16.77    3.42
   0  -3   2   12.18    3.40
   0  -3   2   16.52    4.00
   0  -3   2    8.85    3.76
   0  -3   2    5.63    2.72
  -1   3  -2 5912.69  281.85
  -1   3  -2 5845.28  282.72
  -1   3  -2 5729.92  281.30
  -1   3  -2 5547.85  280.50
  -1   3  -2 5693.42  279.59
  -1   3  -2 5662.60  280.16
  -1   3  -2 5964.05  280.68
   1  -3   2 6085.73  279.53
   1  -3   2 5677.61  282.89
   1  -3   2 5824.83  280.76
   1  -3   2 5565.59  281.62
   1  -3   2 5529.30  279.62
   1  -3   2 5694.00  279.83
  -2   3  -2    2.53    3.87
  -2   3  -2   10.88    3.81
  -2   3  -2    7.65    3.52
  -2   3  -2    5.72    2.70
  -2   3  -2   10.35    2.35
  -2   3  -2    8.38    3.92
  -2   3  -2    7.21    2.01
   2  -3   2    6.36    5.52
   2  -3   2    6.83    2.69
   2  -3   2   21.73    5.81
   2  -3   2   13.10    4.42
   2  -3   2    3.41    3.49
  -3   3  -2 1938.17   94.28
  -3   3  -2 1815.24   92.79
  -3   3  -2 1809.87   94.56
  -3   3  -2 1690.57   92.80
   3  -3   2 1835.39   93.62
   3  -3   2 1916.00   95.13
   3  -3   2 1992.19   93.27
   3  -3   2 1720.69   92.92
   3  -3   2 1945.04   93.87
  -4   3  -2    4.69    6.43
  -4   3  -2    6.40    4.88
  -4   3  -2    8.10    4.60
  -4   3  -2    5.99    3.24
  -4   3  -2    5.06    3.99
   4  -3   2    1.75    4.66
   4  -3   2   10.06    4.27
   4  -3   2    4.75    4.87
   4  -3   2    4.38    3.70
   4  -3   2   10.83    5.57
  -5   3  -2 1193.25   63.21
  -5   3  -2 1212.13   64.31
  -5   3  -2 1180.77   61.73
  -5   3  -2 1226.43   64.92
   5  -3   2 1220.53   66.19
   5  -3   2 1175.21   63.73
   5  -3   2 1185.88   63.39
   5  -3   2 1219.85   59.32
  -6   3  -2    4.90    5.35
  -6   3  -2   -3.67    7.03
  -6   3  -2    3.01    4.89
  -6   3  -2   -6.37    7.47
   6  -3   2   -0.05    8.47
   6  -3   2    2.42    1.77
   6  -3   2    9.93    7.63
   6  -3   2   -5.91    6.85
  -7   3  -2  651.40   41.14
  -7   3  -2  705.53   39.89
  -7   3  -2  672.98   38.60
  -7   3  -2  671.73   41.43
   7  -3   2  633.84   39.80
   7  -3   2  704.24   43.11
   7  -3   2  631.89   39.89
  -8   3  -2    9.01    8.99
  -8   3  -2   17.13    7.81
  -8   3  -2   20.02    9.07
  -8   3  -2    7.32    7.62
   8  -3   2   30.71   11.11
   8  -3   2   -1.75    8.27
   8  -3   2    1.25    8.89
  -9   3  -2  215.58   24.10
  -9   3  -2  247.21   23.51
  -9   3  -2  211.01   21.95
  -9   3  -2  177.45   23.38
   9  -3   2  170.53   26.77
   9  -3   2  241.06   23.11
 -10   3  -2    3.11   13.21
  10  -3   2   14.21   13.79
  10   2  -2  123.47   23.65
  10   2  -2  123.85   21.67
 -10  -2   2  132.58   21.52
 -10  -2   2  131.26   22.85
   9   2  -2   -7.23   10.72
   9   2  -2    1.42   13.38
  -9  -2   2  -17.50   12.44
  -9  -2   2   -5.14   10.33
   8   2  -2  362.23   25.00
   8   2  -2  389.47   34.29
   8   2  -2  417.21   32.08
  -8  -2   2  401.38   35.36
  -8  -2   2  415.19   30.32
  -8  -2   2  414.50   28.34
   7   2  -2    9.42    9.07
   7   2  -2    1.02    7.45
   7   2  -2   -1.24    5.27
   7   2  -2   -0.03    6.42
  -7  -2   2   11.52    7.82
  -7  -2   2   14.35    8.22
  -7  -2   2    4.20    7.80
  -7  -2   2    6.42    5.18
   6   2  -2 1145.81   61.54
   6   2  -2 1045.00   59.09
   6   2  -2 1010.30   57.30
   6   2  -2 1136.51   56.72
  -6  -2   2 1124.34   60.51
  -6  -2   2  996.59   60.45
  -6  -2   2 1144.60   58.33
  -6  -2   2 1116.25   56.45
   5   2  -2   12.55    7.92
   5   2  -2    2.89    6.02
   5   2  -2    3.84    4.59
   5   2  -2   13.30    4.94
  -5  -2   2   -0.39    4.41
  -5  -2   2    4.35    3.77
  -5  -2   2    6.86    5.25
  -5  -2   2   -3.24    6.75
   4   2  -2 2022.76   99.29
   4   2  -2 1860.98   98.85
   4   2  -2 2080.99  102.09
   4   2  -2 2035.77  101.47
   4   2  -2 2199.55  102.90
   4   2  -2 2033.77  100.91
  -4  -2   2 1950.84   99.92
  -4  -2   2 2027.44  102.05
  -4  -2   2 1985.53   99.27
  -4  -2   2 1900.59  102.32
   3   2  -2   28.95    3.51
   3   2  -2   28.90    3.97
   3   2  -2   33.33    6.05
   3   2  -2   32.19    4.91
   3   2  -2   32.58    5.96
   3   2  -2   20.46    5.34
   3   2  -2   29.25    5.23
  -3  -2   2   27.83    3.78
  -3  -2   2   33.01    4.62
  -3  -2   2   22.28    6.27
  -3  -2   2   31.65    5.96
   2   2  -2 3482.64  175.11
   2   2  -2 3455.50  174.57
   2   2  -2 3323.09  174.42
   2   2  -2 3625.54  174.46
   2   2  -2 3843.35  172.66
   2   2  -2 3906.97  174.20
  -2  -2   2 3222.92  173.06
  -2  -2   2 3758.16  174.43
  -2  -2   2 3429.27  174.93
  -2  -2   2 3548.11  173.33
  -2  -2   2 3401.24  173.05
   1   2  -2  287.41   16.38
   1   2  -2  298.51   15.90
   1   2  -2  302.80   16.35
   1   2  -2  225.93   15.79
   1   2  -2  258.60   16.04
  -1  -2   2  278.52   15.24
  -1  -2   2  253.82   15.69
  -1  -2   2  271.52   15.63
  -1  -2   2  303.79   14.59
  -1  -2   2  262.44   14.20
  -1  -2   2  285.27   16.14
   0   2  -2  239.65   14.55
   0   2  -2  250.43   14.09
   0   2  -2  249.74   14.36
   0   2  -2  245.81   13.72
   0   2  -2  267.80   14.42
   0   2  -2  240.36   14.34
   0   2  -2  232.70   12.56
   0  -2   2  242.32   14.19
   0  -2   2  247.29   14.43
   0  -2   2  247.38   13.55
   0  -2   2  214.79   14.01
   0  -2   2  241.17   13.26
   0  -2   2  242.52   12.90
   0  -2   2  244.99   13.78
   0  -2   2  276.36   13.46
   0  -2   2  251.46   14.09
   0  -2   2  261.79   15.74
   0  -2   2  249.18   14.13
  -1   2  -2  257.01   14.54
  -1   2  -2  252.79   16.04
  -1   2  -2  291.39   14.59
  -1   2  -2  268.73   14.27
  -1   2  -2  297.42   15.28
  -1   2  -2  233.24   13.99
   1  -2   2  272.29   14.63
   1  -2   2  248.04   16.51
   1  -2   2  254.26   14.32
   1  -2   2  272.82   14.61
   1  -2   2  249.05   15.03
   1  -2   2  255.71   15.05
   1  -2   2  267.44   14.33
  -2   2  -2 5277.44  236.04
  -2   2  -2 4778.61  234.43
  -2   2  -2 4938.15  235.07
  -2   2  -2 4448.19  233.89
  -2   2  -2 4641.27  234.27
  -2   2  -2 4522.26  234.24
  -2   2  -2 4775.05  233.34
   2  -2   2 4578.03  233.23
   2  -2   2 5159.11  234.64
   2  -2   2 4467.87  234.11
   2  -2   2 4984.95  234.31
   2  -2   2 4919.78  235.96
   2  -2   2 4845.98  235.12
  -3   2  -2    1.82    3.54
  -3   2  -2    0.30    2.31
  -3   2  -2    4.56    4.50
  -3   2  -2   -1.37    4.59
  -3   2  -2   -4.07    3.68
   3  -2   2   -0.56    3.81
   3  -2   2    0.54    2.97
   3  -2   2    5.53    4.48
   3  -2   2    2.81    1.97
   3  -2   2    4.68    4.81
   3  -2   2    1.35    3.52
  -4   2  -2 1894.54   99.96
  -4   2  -2 2039.37  101.16
  -4   2  -2 2037.38  102.09
  -4   2  -2 1971.32  101.91
  -4   2  -2 1956.54  102.88
   4  -2   2 2018.10  101.38
   4  -2   2 2091.33   97.91
   4  -2   2 1873.58  101.62
   4  -2   2 2097.85  103.57
   4  -2   2 2071.70  102.02
   4  -2   2 2039.74   98.24
  -5   2  -2    9.84    6.58
  -5   2  -2    1.71    5.14
  -5   2  -2    6.36    4.31
  -5   2  -2    1.92    4.18
   5  -2   2    3.67    4.02
   5  -2   2    2.77    1.20
   5  -2   2    7.73    4.57
   5  -2   2    0.17    7.10
  -6   2  -2  956.57   54.74
  -6   2  -2  968.34   53.94
  -6   2  -2  981.09   52.28
  -6   2  -2  929.35   52.99
   6  -2   2  947.28   52.85
   6  -2   2 1025.88   54.03
   6  -2   2  996.38   55.87
  -7   2  -2   12.84    7.19
  -7   2  -2    0.07    8.21
  -7   2  -2    5.26    7.31
  -7   2  -2   -3.40    5.37
   7  -2   2   11.11    8.22
   7  -2   2   10.45    8.39
   7  -2   2    7.78    8.09
  -8   2  -2  410.98   29.36
  -8   2  -2  418.79   29.12
  -8   2  -2  481.50   32.50
  -8   2  -2  486.14   29.97
   8  -2   2  440.35   31.31
   8  -2   2  391.21   28.57
   8  -2   2  452.61   33.42
  -9   2  -2   -0.39   10.06
  -9   2  -2   -0.16    9.56
  -9   2  -2   -3.16    9.17
   9  -2   2   19.41   11.52
   9  -2   2    3.67   11.39
 -10   2  -2  136.61   21.30
 -10   2  -2  161.20   21.51
  10  -2   2  154.63   21.05
  10  -2   2  132.15   21.25
 -11   2  -2    9.94   15.99
  11  -2   2   -4.03   16.69
  11  -2   2   -5.80   15.31
  10   1  -2    4.67   10.34
  10   1  -2    2.49   16.14
 -10  -1   2   15.47   16.19
 -10  -1   2    6.74   12.94
   9   1  -2  186.53   18.57
   9   1  -2  195.69   25.61
   9   1  -2  195.43   23.16
  -9  -1   2  219.96   22.01
  -9  -1   2  227.08   26.97
   8   1  -2    6.81   10.05
   8   1  -2  -16.34    6.87
   8   1  -2   -4.93   11.43
  -8  -1   2    5.81    6.81
  -8  -1   2   -4.35   11.06
  -8  -1   2   12.92    9.47
  -8  -1   2    8.34    9.12
   7   1  -2  626.98   37.36
   7   1  -2  623.94   34.09
   7   1  -2  635.83   34.88
   7   1  -2  626.50   39.70
  -7  -1   2  559.97   38.40
  -7  -1   2  632.32   35.63
  -7  -1   2  608.55   36.60
  -7  -1   2  565.07   38.31
   6   1  -2    3.93    5.91
   6   1  -2    6.41    5.04
   6   1  -2    1.33    7.41
   6   1  -2   19.05    7.19
  -6  -1   2    2.22    8.41
  -6  -1   2    3.96    5.36
  -6  -1   2   -2.58    5.24
  -6  -1   2   -0.09    5.79
   5   1  -2 1826.37   90.37
   5   1  -2 1723.86   92.80
   5   1  -2 1779.30   90.47
   5   1  -2 1720.85   91.90
   5   1  -2 1745.40   89.93
  -5  -1   2 1837.21   90.94
  -5  -1   2 1799.04   93.54
  -5  -1   2 1759.11   90.56
  -5  -1   2 1964.47   93.98
   4   1  -2   32.57    5.66
   4   1  -2   32.82    4.94
   4   1  -2   40.45    5.41
   4   1  -2   42.13    7.71
   4   1  -2   29.64    5.97
   4   1  -2   49.59    7.76
   4   1  -2   41.09    5.99
  -4  -1   2   50.55    8.18
  -4  -1   2   49.04    6.28
  -4  -1   2   32.11    7.91
  -4  -1   2   28.65    7.33
  -4  -1   2   48.89    6.48
   3   1  -2 2980.02  158.82
   3   1  -2 3306.92  157.33
   3   1  -2 3145.51  159.42
   3   1  -2 3639.15  158.58
   3   1  -2 3131.09  159.54
   3   1  -2 3189.71  158.27
   3   1  -2 3385.75  157.24
   3   1  -2 2972.51  157.98
  -3  -1   2 3309.87  157.76
  -3  -1   2 3083.94  159.37
  -3  -1   2 3198.78  158.18
   2   1  -2   40.01    4.94
   2   1  -2   53.22    5.42
   2   1  -2   48.97    3.65
   2   1  -2   25.98    3.08
   2   1  -2   41.40    6.00
   2   1  -2   53.35    6.86
   2   1  -2   33.46    5.68
   2   1  -2   44.31    4.78
  -2  -1   2   48.66    5.18
  -2  -1   2   39.91    4.09
  -2  -1   2   40.35    4.11
  -2  -1   2   58.66    5.21
  -2  -1   2   53.02    5.58
  -2  -1   2   49.78    5.63
   1   1  -2  941.21   49.66
   1   1  -2 1020.91   49.95
   1   1  -2  964.91   49.74
   1   1  -2  907.18   49.87
   1   1  -2 1004.22   49.65
   1   1  -2  922.77   49.36
   1   1  -2  985.19   50.12
  -1  -1   2 1062.61   50.11
  -1  -1   2  934.56   49.68
  -1  -1   2 1088.93   48.23
  -1  -1   2 1005.15   49.87
  -1  -1   2  964.01   49.40
  -1  -1   2  995.79   49.59
  -1  -1   2 1065.70   49.84
  -1  -1   2  963.39   48.12
  -1  -1   2  969.97   49.72
  -1  -1   2  978.49   50.05
   0   1  -2  520.68   25.71
   0   1  -2  494.25   25.27
   0   1  -2  498.88   26.28
   0   1  -2  453.16   25.63
   0   1  -2  500.40   25.65
   0   1  -2  472.83   25.86
   0   1  -2  480.21   25.58
   0  -1   2  497.92   25.26
   0  -1   2  507.86   25.66
   0  -1   2  449.80   25.88
   0  -1   2  513.42   26.72
   0  -1   2  511.76   25.68
   0  -1   2  498.69   24.38
   0  -1   2  502.76   25.94
   0  -1   2  522.71   25.73
   0  -1   2  491.62   25.56
   0  -1   2  526.99   24.33
  -1   1  -2 2956.61  151.51
  -1   1  -2 3239.09  152.74
  -1   1  -2 3226.40  151.28
  -1   1  -2 2945.23  151.55
  -1   1  -2 2866.66  151.20
  -1   1  -2 3283.78  150.95
  -1   1  -2 3195.64  151.28
   1  -1   2 2851.05  151.68
   1  -1   2 2969.66  151.51
   1  -1   2 3348.20  151.79
   1  -1   2 3268.12  152.79
   1  -1   2 3200.75  151.36
   1  -1   2 3185.24  152.41
   1  -1   2 2831.92  151.19
   1  -1   2 3289.80  151.41
   1  -1   2 3001.98  150.88
  -2   1  -2   28.72    5.49
  -2   1  -2   26.28    5.97
  -2   1  -2   30.03    4.60
  -2   1  -2   33.43    3.51
  -2   1  -2   34.76    4.22
  -2   1  -2   40.61    4.88
  -2   1  -2   33.25    4.75
  -2   1  -2   27.78    4.40
   2  -1   2   36.35    4.85
   2  -1   2   31.71    3.88
   2  -1   2   35.90    4.79
   2  -1   2   38.31    3.94
   2  -1   2   32.63    5.34
   2  -1   2   36.16    5.54
  -3   1  -2 3570.48  164.24
  -3   1  -2 3408.98  162.35
  -3   1  -2 3315.91  163.04
  -3   1  -2 3176.69  161.53
  -3   1  -2 3154.13  162.63
   3  -1   2 3138.85  162.22
   3  -1   2 3358.60  163.15
   3  -1   2 3217.57  162.84
   3  -1   2 3347.38  164.03
  -4   1  -2   62.87    8.38
  -4   1  -2   84.20    8.27
  -4   1  -2   71.23    8.19
  -4   1  -2   68.39    9.33
  -4   1  -2   78.70    7.88
   4  -1   2   59.10    8.35
   4  -1   2   96.92   11.22
   4  -1   2   59.45    8.11
   4  -1   2   74.71    8.13
  -5   1  -2 1431.22   71.59
  -5   1  -2 1475.10   71.23
  -5   1  -2 1399.45   72.63
  -5   1  -2 1306.81   70.47
   5  -1   2 1321.55   73.36
   5  -1   2 1385.07   71.23
   5  -1   2 1296.77   71.67
  -6   1  -2   38.56    8.71
  -6   1  -2   18.98    6.35
  -6   1  -2   43.85    7.76
  -6   1  -2   44.29    8.12
   6  -1   2   38.00    9.89
   6  -1   2   37.33    8.61
   6  -1   2   31.18    7.58
  -7   1  -2  740.78   42.29
  -7   1  -2  706.06   44.33
  -7   1  -2  712.34   42.34
  -7   1  -2  768.23   42.44
   7  -1   2  721.79   41.68
   7  -1   2  740.17   46.37
   7  -1   2  676.64   42.85
  -8   1  -2   10.27   11.90
  -8   1  -2   -7.55    6.44
  -8   1  -2    5.14    8.14
   8  -1   2    0.27   10.09
   8  -1   2    5.89    8.42
  -9   1  -2  253.13   24.66
  -9   1  -2  303.10   27.00
  -9   1  -2  257.29   28.55
   9  -1   2  288.96   26.57
   9  -1   2  307.98   28.60
   9  -1   2  266.12   25.48
 -10   1  -2   12.34   13.38
 -10   1  -2    4.13    9.38
  10  -1   2   15.49   12.95
  10  -1   2   11.23   12.03
 -11   1  -2   67.33   18.39
  11  -1   2   56.73   18.84
  10   0  -2  128.76   21.59
  10   0  -2  110.66   19.80
 -10   0   2  172.86   23.00
 -10   0   2  142.07   22.59
   9   0  -2    7.34   12.50
   9   0  -2    0.18   13.66
   9   0  -2    7.09    9.84
  -9   0   2  -22.51    9.74
  -9   0   2   10.68   10.22
   8   0  -2  624.48   39.24
   8   0  -2  526.97   39.06
  -8   0   2  614.35   39.57
  -8   0   2  608.35   36.37
  -8   0   2  573.64   36.88
  -8   0   2  567.20   39.20
   7   0  -2    0.77    6.67
   7   0  -2    4.96    4.19
  -7   0   2    1.64    6.98
  -7   0   2  -10.18    6.52
  -7   0   2   -0.45    5.55
  -7   0   2    2.93    6.62
   6   0  -2  793.65   45.03
   6   0  -2  888.99   44.08
   6   0  -2  851.93   48.02
   6   0  -2  868.39   45.11
  -6   0   2  829.94   49.26
  -6   0   2  819.71   48.64
  -6   0   2  881.06   46.73
  -6   0   2  799.44   46.12
   5   0  -2   -4.77    3.81
   5   0  -2    2.46    6.06
   5   0  -2   -0.17    4.30
   5   0  -2    2.66    3.26
  -5   0   2   -5.09    4.01
  -5   0   2    0.47    4.32
  -5   0   2    0.37    3.64
  -5   0   2    2.52    6.62
  -5   0   2    0.61    4.65
   4   0  -2 1612.47   80.28
   4   0  -2 1570.27   78.14
   4   0  -2 1629.26   81.20
   4   0  -2 1611.66   78.84
   4   0  -2 1640.46   78.61
  -4   0   2 1456.89   79.47
  -4   0   2 1488.28   80.82
  -4   0   2 1449.99   80.35
  -4   0   2 1630.45   79.09
   3   0  -2   -0.88    2.44
   3   0  -2    1.61    3.31
   3   0  -2    2.42    4.54
   3   0  -2    0.64    2.91
   3   0  -2    1.58    3.50
   3   0  -2    0.09    2.97
  -3   0   2   11.84    4.20
  -3   0   2   -2.35    3.02
  -3   0   2    0.26    4.19
  -3   0   2   -2.44    2.66
  -3   0   2    1.19    4.99
   2   0  -2 9033.76  408.10
   2   0  -2 7840.17  407.02
   2   0  -2 7979.68  406.28
   2   0  -2 8083.89  407.56
   2   0  -2 7992.01  407.12
   2   0  -2 8429.09  406.61
   2   0  -2 8016.27  407.69
   2   0  -2 8249.95  407.12
  -2   0   2 7931.65  406.17
  -2   0   2 8353.50  407.18
  -2   0   2 9365.81  406.20
  -2   0   2 9348.33  408.93
  -2   0   2 8307.87  406.33
  -2   0   2 8155.82  407.67
   1   0  -2    0.43    2.91
   1   0  -2    1.37    0.96
   1   0  -2    2.30    2.02
   1   0  -2   -1.14    1.79
   1   0  -2    2.35    1.71
   1   0  -2    4.85    2.41
   1   0  -2    0.10    0.23
  -1   0   2   -1.88    2.38
  -1   0   2    1.63    1.97
  -1   0   2    2.66    1.40
  -1   0   2    4.65    2.63
  -1   0   2    0.38    1.72
  -1   0   2    3.72    2.04
  -1   0   2    4.38    2.71
  -1   0   2    1.96    1.67
  -1   0   2    3.01    2.39
  -1   0   2   -0.50    1.95
  -1   0   2    3.69    1.52
   0   0  -2 6184.21  278.12
   0   0  -2 6059.92  278.57
   0   0  -2 5538.77  278.44
   0   0  -2 5216.69  279.75
   0   0  -2 5575.56  278.28
   0   0  -2 6229.02  278.51
   0   0  -2 6057.55  278.32
   0   0   2 5901.76  281.00
   0   0   2 4924.20  277.89
   0   0   2 5649.30  278.79
   0   0   2 5425.88  280.46
   0   0   2 6443.93  278.11
   0   0   2 5496.29  278.35
   0   0   2 5343.63  278.38
  -1   0  -2    5.28    2.11
  -1   0  -2    1.10    1.50
  -1   0  -2    5.39    2.00
  -1   0  -2    0.19    1.83
  -1   0  -2   -3.38    2.46
  -1   0  -2    4.23    2.10
   1   0   2    2.90    1.98
   1   0   2    7.26    3.19
   1   0   2   -2.13    1.32
   1   0   2    2.28    2.18
   1   0   2    7.16    2.05
   1   0   2    5.04    1.88
  -2   0  -2 1174.37   53.95
  -2   0  -2 1047.63   54.85
  -2   0  -2 1102.46   53.75
  -2   0  -2 1049.28   52.77
  -2   0  -2 1032.43   53.74
  -2   0  -2 1039.24   54.40
  -2   0  -2 1011.57   54.49
   2   0   2 1087.62   53.63
   2   0   2 1043.77   54.58
   2   0   2 1032.81   54.86
   2   0   2 1120.73   54.01
   2   0   2 1173.77   54.66
   2   0   2 1048.62   53.92
  -3   0  -2    1.92    1.38
  -3   0  -2   -1.97    3.19
  -3   0  -2    6.98    4.15
  -3   0  -2    2.38    2.71
  -3   0  -2    2.38    3.42
   3   0   2   -1.74    3.98
   3   0   2   -2.79    2.85
   3   0   2    2.43    3.82
   3   0   2    4.78    5.56
  -4   0  -2 2720.39  139.87
  -4   0  -2 2891.51  144.49
  -4   0  -2 2979.49  143.78
  -4   0  -2 2942.39  142.68
  -4   0  -2 2894.72  142.58
   4   0   2 2848.54  143.50
   4   0   2 2842.48  144.57
   4   0   2 2735.62  143.48
   4   0   2 3030.35  142.75
  -5   0  -2   -6.70    5.54
  -5   0  -2    1.04    3.26
  -5   0  -2   -1.32    2.77
  -5   0  -2   -2.20    5.37
  -5   0  -2    4.97    4.96
   5   0   2    4.40    5.72
   5   0   2    7.01    5.71
   5   0   2    7.61    6.20
  -6   0  -2 1547.73   76.99
  -6   0  -2 1412.91   75.00
  -6   0  -2 1469.06   75.10
   6   0   2 1433.73   78.20
   6   0   2 1359.81   74.42
   6   0   2 1371.56   76.08
  -7   0  -2    0.00    5.36
  -7   0  -2    9.44    8.27
  -7   0  -2   10.15   10.31
   7   0   2   11.12    7.92
   7   0   2    7.37    9.19
  -8   0  -2  285.39   27.32
  -8   0  -2  258.90   24.72
  -8   0  -2  351.75   27.98
   8   0   2  315.26   25.43
   8   0   2  349.50   23.60
   8   0   2  282.80   27.33
  -9   0  -2  -12.36    9.82
  -9   0  -2   -6.15   10.16
  -9   0  -2    0.97    9.52
   9   0   2    7.42   10.53
   9   0   2  -15.88   10.57
 -10   0  -2  184.74   22.15
 -10   0  -2  163.52   22.76
  10   0   2  154.11   20.96
  10   0   2  163.42   24.24
 -11   0  -2  -12.21   13.77
 -11   0  -2   20.15   17.54
  11   0   2    3.93   13.82
  10  -1  -2   -4.23   12.60
  10  -1  -2    0.23   15.19
  10  -1  -2  -12.44   10.47
 -10   1   2    1.76   14.71
 -10   1   2   12.08   13.71
   9  -1  -2  184.74   23.03
   9  -1  -2  238.97   25.76
  -9   1   2  212.24   25.66
  -9   1   2  189.74   21.13
  -9   1   2  205.64   21.79
   8  -1  -2   12.27   11.66
   8  -1  -2   -2.76    6.89
  -8   1   2   23.27   13.52
  -8   1   2   -8.35    8.58
  -8   1   2   -3.86    8.32
  -8   1   2   -1.27    6.95
   7  -1  -2  605.70   35.10
   7  -1  -2  633.82   36.68
   7  -1  -2  604.64   38.51
  -7   1   2  668.89   38.81
  -7   1   2  658.22   40.59
  -7   1   2  675.13   38.18
  -7   1   2  595.50   39.86
   6  -1  -2   -0.40    5.30
   6  -1  -2   14.06    8.49
   6  -1  -2   10.61    5.70
  -6   1   2   12.93    6.94
  -6   1   2    8.99    6.86
  -6   1   2    4.49    6.31
  -6   1   2   -3.19    5.20
   5  -1  -2 1837.83   91.03
   5  -1  -2 1891.19   89.55
   5  -1  -2 1825.20   91.51
  -5   1   2 1815.43   93.15
  -5   1   2 1784.95   94.45
  -5   1   2 1713.14   91.87
  -5   1   2 1756.87   93.47
   4  -1  -2   42.90    4.58
   4  -1  -2   39.19    6.18
   4  -1  -2   43.11    5.37
   4  -1  -2   30.30    7.26
   4  -1  -2   29.76    5.48
  -4   1   2   54.82    8.89
  -4   1   2   42.70    5.22
  -4   1   2   35.89    7.07
  -4   1   2   26.57    5.90
  -4   1   2   35.54    7.11
   3  -1  -2 2826.22  154.82
   3  -1  -2 3095.54  156.77
   3  -1  -2 2767.02  155.32
   3  -1  -2 3110.94  154.94
  -3   1   2 3102.15  155.19
  -3   1   2 3320.60  157.14
  -3   1   2 3479.97  156.82
  -3   1   2 3347.67  156.08
  -3   1   2 3350.15  154.21
  -3   1   2 3131.77  154.06
   2  -1  -2   43.19    4.79
   2  -1  -2   49.33    5.76
   2  -1  -2   41.58    6.65
   2  -1  -2   44.79    4.82
   2  -1  -2   37.61    5.19
  -2   1   2   47.45    5.36
  -2   1   2   38.50    3.99
  -2   1   2   46.42    5.13
  -2   1   2   62.79    6.98
  -2   1   2   44.66    5.42
  -2   1   2   42.15    3.06
  -2   1   2   39.12    5.82
   1  -1  -2  940.24   48.11
   1  -1  -2  891.95   47.96
   1  -1  -2  974.34   49.34
   1  -1  -2  965.90   48.09
   1  -1  -2  984.87   48.61
  -1   1   2 1075.86   49.61
  -1   1   2  930.41   48.26
  -1   1   2  927.78   48.10
  -1   1   2  902.04   49.14
  -1   1   2  966.17   48.48
  -1   1   2 1057.82   49.29
  -1   1   2 1003.71   47.60
   0  -1  -2  574.08   25.89
   0  -1  -2  473.61   25.48
   0  -1  -2  483.32   25.51
   0  -1  -2  510.50   25.89
   0  -1  -2  477.79   25.76
   0   1   2  543.97   25.84
   0   1   2  471.98   26.21
   0   1   2  489.15   25.31
   0   1   2  510.25   26.44
   0   1   2  492.89   25.87
   0   1   2  497.16   25.88
   0   1   2  468.48   25.47
   0   1   2  517.63   25.68
   0   1   2  536.60   24.91
  -1  -1  -2 3233.60  152.69
  -1  -1  -2 3071.83  153.10
  -1  -1  -2 3228.95  153.15
  -1  -1  -2 3246.99  152.22
  -1  -1  -2 3165.46  152.86
   1   1   2 2925.28  152.10
   1   1   2 3201.07  152.62
   1   1   2 3239.15  152.93
   1   1   2 3049.61  152.99
   1   1   2 2971.50  152.54
   1   1   2 3001.74  153.09
  -2  -1  -2   31.31    4.59
  -2  -1  -2   34.79    4.92
  -2  -1  -2   27.46    4.10
  -2  -1  -2   28.19    4.93
   2   1   2   27.36    4.64
   2   1   2   38.43    2.62
   2   1   2   27.99    5.80
   2   1   2   40.51    5.77
   2   1   2   25.63    4.70
  -3  -1  -2 2988.21  156.31
  -3  -1  -2 3015.59  156.07
  -3  -1  -2 3137.56  157.21
  -3  -1  -2 3429.39  155.99
   3   1   2 3261.12  155.15
   3   1   2 3364.30  157.13
   3   1   2 3130.07  157.27
   3   1   2 3061.26  155.71
   3   1   2 3053.56  156.29
  -4  -1  -2   75.63    8.52
  -4  -1  -2   61.06    8.21
  -4  -1  -2   79.06    9.16
  -4  -1  -2   68.71    9.48
  -4  -1  -2   71.35    5.71
   4   1   2   73.24    9.45
   4   1   2   73.54   11.03
   4   1   2   50.45    7.40
   4   1   2   70.22    8.44
  -5  -1  -2 1279.05   70.91
  -5  -1  -2 1354.47   70.76
  -5  -1  -2 1325.32   69.91
   5   1   2 1417.90   71.75
   5   1   2 1374.86   70.00
  -6  -1  -2   42.11    7.93
  -6  -1  -2   33.74    8.18
  -6  -1  -2   33.75    8.90
   6   1   2   35.48    7.21
   6   1   2   41.78    8.54
   6   1   2   30.19    8.95
  -7  -1  -2  837.46   46.53
  -7  -1  -2  822.55   45.27
  -7  -1  -2  726.28   43.31
   7   1   2  677.98   44.42
   7   1   2  716.28   41.83
  -8  -1  -2   -8.64    6.23
  -8  -1  -2   13.35   10.16
  -8  -1  -2   -9.83    6.52
   8   1   2   -2.43    7.33
   8   1   2    0.58    5.45
   8   1   2   -2.58    7.63
  -9  -1  -2  219.54   25.80
  -9  -1  -2  311.00   26.42
  -9  -1  -2  288.48   27.75
   9   1   2  257.68   24.47
   9   1   2  266.94   24.28
   9   1   2  227.35   26.38
 -10  -1  -2    8.31   12.51
 -10  -1  -2   -3.83   13.23
  10   1   2   -8.42   10.91
  10   1   2    4.81   13.10
  10   1   2   10.36   14.85
 -11  -1  -2   77.53   19.59
 -11  -1  -2   84.03   21.93
  11   1   2   49.96   16.73
  10  -2  -2  142.76   21.35
  10  -2  -2  149.32   23.49
 -10   2   2  142.23   21.81
 -10   2   2  155.54   24.24
   9  -2  -2  -17.46   11.39
   9  -2  -2   -2.08    9.83
   9  -2  -2    7.10   10.43
  -9   2   2    1.45    9.09
  -9   2   2   15.56   11.98
  -9   2   2    3.25    8.29
   8  -2  -2  413.18   27.54
   8  -2  -2  386.36   32.13
   8  -2  -2  363.25   24.78
  -8   2   2  418.70   30.05
  -8   2   2  390.90   34.46
  -8   2   2  384.53   31.25
  -8   2   2  444.33   35.05
   7  -2  -2   -2.38    6.23
   7  -2  -2    1.85    7.11
  -7   2   2   16.50    9.20
  -7   2   2    5.36    8.57
  -7   2   2   -1.75    7.12
  -7   2   2   12.62    8.71
   6  -2  -2  999.70   55.59
   6  -2  -2 1125.54   57.36
   6  -2  -2 1058.17   55.29
  -6   2   2 1056.79   57.96
  -6   2   2 1186.82   61.60
  -6   2   2 1049.20   58.86
   5  -2  -2    9.93    4.96
   5  -2  -2   -5.74    3.39
   5  -2  -2   -2.14    4.63
  -5   2   2   -7.25    4.00
  -5   2   2   -2.50    5.69
  -5   2   2    5.94    3.73
  -5   2   2    1.80    5.47
  -5   2   2    2.42    5.64
   4  -2  -2 1948.55  101.19
   4  -2  -2 2010.39  100.36
   4  -2  -2 2052.17   99.86
   4  -2  -2 2063.09  102.37
   4  -2  -2 2012.63   98.56
  -4   2   2 1990.17  100.58
  -4   2   2 1958.51  101.03
  -4   2   2 1958.41  102.27
  -4   2   2 1968.64   98.37
  -4   2   2 2021.08  102.24
   3  -2  -2   30.20    5.91
   3  -2  -2   29.30    4.84
   3  -2  -2   26.29    5.11
   3  -2  -2   33.32    3.17
   3  -2  -2   34.80    6.25
  -3   2   2   29.33    7.15
  -3   2   2   36.18    3.51
  -3   2   2   28.60    5.78
  -3   2   2   38.80    5.54
  -3   2   2   29.01    5.26
   2  -2  -2 3190.91  167.40
   2  -2  -2 3795.02  169.83
   2  -2  -2 3467.96  169.12
   2  -2  -2 3400.86  167.57
   2  -2  -2 3584.29  168.09
  -2   2   2 3151.50  169.09
  -2   2   2 3425.93  168.17
  -2   2   2 3415.93  169.18
  -2   2   2 3426.05  167.54
  -2   2   2 3387.38  167.49
   1  -2  -2  261.32   15.38
   1  -2  -2  303.17   14.04
   1  -2  -2  267.14   14.91
   1  -2  -2  253.21   14.00
   1  -2  -2  288.64   16.32
   1  -2  -2  283.94   13.99
   1  -2  -2  256.68   15.43
  -1   2   2  252.93   14.06
  -1   2   2  270.65   16.35
  -1   2   2  263.73   14.77
  -1   2   2  248.83   16.00
  -1   2   2  263.58   15.65
   0  -2  -2  264.61   14.87
   0  -2  -2  246.06   14.02
   0  -2  -2  246.20   14.91
   0  -2  -2  258.89   14.80
   0  -2  -2  231.36   13.83
   0  -2  -2  243.18   14.86
   0   2   2  272.36   14.61
   0   2   2  229.75   14.35
   0   2   2  234.47   14.24
   0   2   2  236.93   14.39
   0   2   2  250.15   13.94
   0   2   2  260.47   13.35
   0   2   2  236.71   14.63
  -1  -2  -2  250.78   15.41
  -1  -2  -2  281.82   15.06
  -1  -2  -2  242.21   13.34
  -1  -2  -2  270.32   15.05
  -1  -2  -2  255.91   14.64
  -1  -2  -2  257.13   15.09
   1   2   2  253.05   15.31
   1   2   2  264.42   15.13
   1   2   2  273.21   14.80
   1   2   2  260.58   14.65
  -2  -2  -2 5158.84  238.52
  -2  -2  -2 5466.28  238.55
  -2  -2  -2 4745.27  238.99
  -2  -2  -2 4955.72  239.28
   2   2   2 4498.24  238.35
   2   2   2 4575.87  239.32
   2   2   2 4695.94  238.26
  -3  -2  -2    4.87    5.58
  -3  -2  -2    9.96    4.95
  -3  -2  -2    2.97    4.54
  -3  -2  -2   -0.32    3.84
   3   2   2    4.49    4.35
   3   2   2    4.17    2.45
   3   2   2    1.30    2.48
   3   2   2    1.66    4.35
   3   2   2   10.19    6.07
  -4  -2  -2 1986.72  101.54
  -4  -2  -2 2159.83  100.59
  -4  -2  -2 1840.71  100.03
  -4  -2  -2 2097.82   99.65
   4   2   2 1989.56   97.76
   4   2   2 1958.91  101.39
   4   2   2 1947.45   99.36
   4   2   2 1982.52  100.13
   4   2   2 1843.99   97.55
  -5  -2  -2    4.27    4.21
  -5  -2  -2    5.36    6.49
  -5  -2  -2    4.95    4.64
   5   2   2   10.06    8.09
   5   2   2    9.19    4.74
   5   2   2    4.32    3.79
  -6  -2  -2  930.40   52.64
  -6  -2  -2  948.99   51.39
  -6  -2  -2 1044.50   53.63
   6   2   2  873.31   49.20
   6   2   2  966.64   51.24
   6   2   2  885.89   53.02
  -7  -2  -2    8.90    9.54
  -7  -2  -2   -0.58    9.06
  -7  -2  -2   23.78    9.30
   7   2   2   -0.71    5.64
   7   2   2   -3.42    5.09
   7   2   2   -2.24    9.59
  -8  -2  -2  376.78   27.93
  -8  -2  -2  450.91   30.67
  -8  -2  -2  410.44   30.46
   8   2   2  417.79   27.79
   8   2   2  451.06   32.98
   8   2   2  410.36   26.06
   8   2   2  439.30   27.43
  -9  -2  -2   -3.30    9.42
  -9  -2  -2    1.35    8.91
  -9  -2  -2    1.65   11.07
   9   2   2    4.26   10.30
   9   2   2    1.18   12.48
   9   2   2    5.19    9.79
 -10  -2  -2  143.06   21.40
 -10  -2  -2  167.79   23.15
  10   2   2  146.45   19.90
  10   2   2  178.50   25.47
 -11  -2  -2   -0.26   17.00
 -11  -2  -2  -12.21   14.81
  11   2   2  -12.22   13.55
  10  -3  -2   18.10   16.19
  10  -3  -2  -12.66   15.86
  10  -3  -2   14.50   13.58
 -10   3   2   15.64   16.87
 -10   3   2   28.49   15.92
 -10   3   2   16.09   14.61
   9  -3  -2  243.79   22.82
   9  -3  -2  170.00   22.86
   9  -3  -2  195.00   24.04
  -9   3   2  208.63   24.05
  -9   3   2  229.34   26.21
  -9   3   2  207.57   24.70
   8  -3  -2    8.53    8.54
  -8   3   2   11.40    8.58
  -8   3   2    9.71    9.83
  -8   3   2    6.80   10.61
  -8   3   2   10.80   10.57
   7  -3  -2  603.68   33.77
   7  -3  -2  584.06   35.78
  -7   3   2  566.08   39.46
  -7   3   2  588.82   36.92
  -7   3   2  593.24   38.84
   6  -3  -2   -7.70    6.02
   6  -3  -2    1.27    3.86
   6  -3  -2    2.47    4.84
  -6   3   2    5.46    7.88
  -6   3   2    1.40    8.76
  -6   3   2   -5.71    5.25
   5  -3  -2 1356.62   67.87
   5  -3  -2 1416.12   69.63
   5  -3  -2 1359.14   71.70
   5  -3  -2 1265.95   70.43
  -5   3   2 1313.88   70.89
  -5   3   2 1361.34   72.96
  -5   3   2 1429.12   73.39
  -5   3   2 1349.71   71.47
   4  -3  -2   -1.94    2.37
   4  -3  -2    0.97    5.14
   4  -3  -2    0.48    3.95
   4  -3  -2   -0.01    5.60
  -4   3   2    4.02    5.04
  -4   3   2    2.78    4.40
  -4   3   2    1.00    1.42
  -4   3   2   -2.19    4.56
  -4   3   2    1.36    3.88
   3  -3  -2 2040.04  105.61
   3  -3  -2 2167.47  103.23
   3  -3  -2 2213.14  106.98
   3  -3  -2 2137.39  105.50
   3  -3  -2 2208.61  107.83
  -3   3   2 2037.12  103.46
  -3   3   2 2071.60  107.34
  -3   3   2 2134.26  105.39
  -3   3   2 2071.98  105.89
  -3   3   2 2011.49  106.61
   2  -3  -2   17.07    5.15
   2  -3  -2   14.85    3.31
   2  -3  -2   19.10    4.74
   2  -3  -2   13.64    3.71
   2  -3  -2   19.92    5.51
  -2   3   2   17.02    5.11
  -2   3   2   23.09    4.83
  -2   3   2   22.55    3.62
  -2   3   2   16.06    3.71
  -2   3   2   18.93    4.53
   1  -3  -2 3851.21  199.06
   1  -3  -2 4079.30  199.25
   1  -3  -2 3889.61  201.24
   1  -3  -2 4036.21  199.15
   1  -3  -2 3894.79  197.77
   1  -3  -2 4339.96  200.76
  -1   3   2 4173.62  200.55
  -1   3   2 4394.42  200.67
  -1   3   2 4125.92  201.17
   0  -3  -2   13.37    5.27
   0  -3  -2   12.57    4.00
   0  -3  -2   12.87    4.34
   0  -3  -2   18.61    5.70
   0   3   2   17.84    5.36
   0   3   2   14.96    3.97
   0   3   2   12.53    1.26
  -1  -3  -2 6003.62  289.41
  -1  -3  -2 5626.84  288.77
  -1  -3  -2 5729.37  288.62
   1   3   2 5877.27  288.01
   1   3   2 5890.80  288.57
   1   3   2 6277.52  289.28
  -2  -3  -2   16.59    2.64
  -2  -3  -2   14.39    4.90
  -2  -3  -2    5.67    4.88
  -2  -3  -2   10.28    4.82
   2   3   2    8.33    4.11
   2   3   2    7.79    3.03
   2   3   2   10.30    6.32
   2   3   2    4.05    3.20
  -3  -3  -2 1808.77   95.22
  -3  -3  -2 1969.53   95.31
  -3  -3  -2 2003.75   95.23
  -3  -3  -2 1866.13   96.01
  -3  -3  -2 1900.77   96.71
   3   3   2 1817.88   94.82
   3   3   2 1922.46   95.05
   3   3   2 1935.47   97.03
   3   3   2 1804.48   92.88
  -4  -3  -2    6.62    5.57
  -4  -3  -2    5.10    6.56
  -4  -3  -2   -2.67    5.61
  -4  -3  -2   13.97    5.35
  -4  -3  -2    9.24    4.18
   4   3   2    5.92    2.53
   4   3   2    6.29    5.59
   4   3   2    5.34    3.10
   4   3   2   22.37    8.21
   4   3   2   -0.72    3.25
   4   3   2    4.63    0.91
  -5  -3  -2 1299.68   63.90
  -5  -3  -2 1176.31   62.57
  -5  -3  -2  957.80   62.95
   5   3   2 1097.25   59.48
   5   3   2 1297.43   60.81
   5   3   2 1284.11   65.57
   5   3   2 1282.06   62.95
  -6  -3  -2   11.74    8.62
  -6  -3  -2   -2.79    7.14
  -6  -3  -2   17.55    6.42
   6   3   2   -2.71    6.49
   6   3   2    0.13    4.39
   6   3   2    1.12    4.90
  -7  -3  -2  685.60   43.96
  -7  -3  -2  794.08   44.39
  -7  -3  -2  687.33   41.75
   7   3   2  714.41   41.18
   7   3   2  747.23   39.65
   7   3   2  600.50   42.97
  -8  -3  -2   -1.64    9.00
  -8  -3  -2   12.29   11.65
  -8  -3  -2   15.38    9.66
   8   3   2   11.01   12.21
   8   3   2    9.01    7.36
   8   3   2    1.48    8.44
  -9  -3  -2  238.42   25.28
  -9  -3  -2  204.85   26.10
  -9  -3  -2  281.48   29.19
   9   3   2  226.80   27.28
   9   3   2  248.43   23.51
 -10  -3  -2   14.99   16.23
 -10  -3  -2    4.56    9.67
  10   3   2    4.00   10.87
  10  -4  -2  121.73   21.76
  10  -4  -2   54.71   19.62
  10  -4  -2  127.74   25.77
 -10   4   2  120.47   22.31
 -10   4   2  127.47   23.87
 -10   4   2   91.78   22.01
   9  -4  -2  -12.05   11.25
   9  -4  -2   -4.14   10.76
  -9   4   2    2.27   14.16
  -9   4   2    4.32   13.34
  -9   4   2   -0.73    8.72
   8  -4  -2  465.92   30.62
  -8   4   2  454.65   36.96
  -8   4   2  372.45   33.23
  -8   4   2  392.80   32.71
  -8   4   2  405.36   35.74
   7  -4  -2   34.46   10.39
   7  -4  -2   10.64    6.48
  -7   4   2   38.69   12.11
  -7   4   2   25.13   10.07
  -7   4   2   21.44    9.68
   6  -4  -2  746.87   43.36
   6  -4  -2  729.03   41.87
   6  -4  -2  726.56   40.15
  -6   4   2  774.72   45.44
  -6   4   2  699.88   42.32
  -6   4   2  715.85   45.01
   5  -4  -2    0.02    2.67
   5  -4  -2    7.46    7.24
   5  -4  -2    6.68    6.66
   5  -4  -2    2.20    6.00
  -5   4   2   -3.92    6.68
  -5   4   2    4.18    5.37
  -5   4   2   -4.76    5.43
  -5   4   2    5.27    9.07
   4  -4  -2 1416.14   66.63
   4  -4  -2 1334.62   69.65
   4  -4  -2 1224.81   69.34
  -4   4   2 1347.22   65.70
  -4   4   2 1240.04   69.13
  -4   4   2 1438.56   72.23
  -4   4   2 1363.68   70.98
  -4   4   2 1316.81   70.08
   3  -4  -2   24.99    6.87
   3  -4  -2   33.49    4.28
   3  -4  -2   44.65    7.83
   3  -4  -2   26.59    5.44
   3  -4  -2   37.21    7.53
  -3   4   2   33.03    7.44
  -3   4   2   41.06    7.29
  -3   4   2   39.51    6.08
  -3   4   2   39.28    4.83
  -3   4   2   39.10    7.83
   2  -4  -2 2948.83  144.34
   2  -4  -2 3014.24  142.87
   2  -4  -2 2746.39  141.38
   2  -4  -2 2967.81  140.13
  -2   4   2 2831.29  141.47
  -2   4   2 2853.74  142.59
  -2   4   2 2661.14  142.28
  -2   4   2 2883.53  143.80
   1  -4  -2   49.03    6.15
   1  -4  -2   56.06    5.42
   1  -4  -2   43.10    8.67
   1  -4  -2   39.63    5.58
   1  -4  -2   61.18    7.67
  -1   4   2   43.83    6.19
  -1   4   2   47.47    6.90
  -1   4   2   55.00    7.45
   0  -4  -2 3187.80  156.12
   0  -4  -2 3333.22  155.69
   0  -4  -2 3019.80  155.50
   0   4   2 2939.89  154.78
   0   4   2 3156.67  154.92
  -1  -4  -2    2.12    3.67
  -1  -4  -2   -1.42    3.64
  -1  -4  -2   -4.06    5.37
   1   4   2   -0.32    2.78
   1   4   2    0.30    5.01
   1   4   2   -2.57    2.83
  -2  -4  -2 2383.27  125.18
  -2  -4  -2 2445.42  125.81
  -2  -4  -2 2415.18  123.23
  -2  -4  -2 2499.03  126.33
   2   4   2 2386.07  125.19
   2   4   2 2578.85  124.46
   2   4   2 2642.69  123.73
   2   4   2 2710.69  127.00
  -3  -4  -2   21.42    6.70
  -3  -4  -2   20.96    3.76
  -3  -4  -2   26.18    6.42
  -3  -4  -2    5.96    5.93
   3   4   2   13.92    7.05
   3   4   2   12.02    5.72
   3   4   2   16.94    4.96
   3   4   2   17.15    2.96
  -4  -4  -2 1626.72   87.80
  -4  -4  -2 1716.16   86.66
  -4  -4  -2 1824.43   87.82
  -4  -4  -2 1685.60   86.67
   4   4   2 1698.33   86.41
   4   4   2 1580.95   83.11
   4   4   2 1697.58   84.11
   4   4   2 1732.95   82.75
   4   4   2 1701.61   86.46
   4   4   2 1640.63   82.59
   4   4   2 1718.03   88.97
  -5  -4  -2   13.42    7.84
  -5  -4  -2    8.25    6.99
  -5  -4  -2   -0.67    6.06
  -5  -4  -2    9.06    5.15
   5   4   2    0.01    5.67
   5   4   2    0.42    1.48
   5   4   2   20.35    7.03
   5   4   2    4.29    1.26
   5   4   2    8.02    4.05
  -6  -4  -2  724.98   43.18
  -6  -4  -2  706.12   44.30
  -6  -4  -2  687.85   42.03
  -6  -4  -2  724.69   43.28
   6   4   2  755.03   39.42
   6   4   2  741.63   41.97
   6   4   2  776.70   46.13
  -7  -4  -2   32.43   12.16
  -7  -4  -2   -1.94    6.12
  -7  -4  -2    1.32    6.00
  -7  -4  -2    8.50    9.27
   7   4   2    8.36    8.40
   7   4   2   -6.32   10.98
   7   4   2    9.66    6.52
  -8  -4  -2  385.73   33.53
  -8  -4  -2  341.41   31.63
  -8  -4  -2  388.25   30.31
   8   4   2  366.61   28.25
   8   4   2  304.03   31.91
   8   4   2  344.23   24.12
  -9  -4  -2    7.65   10.48
  -9  -4  -2   22.03   14.45
  -9  -4  -2    6.36    8.47
  -9  -4  -2   -0.24    8.28
   9   4   2   -5.10    9.91
   9   4   2    4.98    9.54
 -10  -4  -2  208.38   28.05
 -10  -4  -2  108.97   21.28
 -10  -4  -2  160.98   23.35
  10   4   2  111.93   18.81
  10   4   2  151.09   22.80
   9  -5  -2  183.63   22.93
  -9   5   2  188.14   25.10
  -9   5   2  181.51   24.25
  -9   5   2  243.45   28.59
   8  -5  -2   -5.71    9.87
  -8   5   2   12.36   12.84
  -8   5   2    7.13   14.15
  -8   5   2   -9.42    6.95
   7  -5  -2  557.62   31.99
   7  -5  -2  549.97   35.50
  -7   5   2  524.26   38.59
  -7   5   2  508.44   34.73
  -7   5   2  548.16   38.10
   6  -5  -2    7.89    7.41
   6  -5  -2    2.33    7.48
   6  -5  -2    4.80    8.30
  -6   5   2   14.45    7.57
  -6   5   2   11.77    8.00
  -6   5   2   12.51    8.40
   5  -5  -2  860.30   47.86
   5  -5  -2  939.57   47.03
   5  -5  -2  923.12   48.78
   5  -5  -2  864.52   43.71
  -5   5   2  791.92   49.67
  -5   5   2  839.09   48.66
  -5   5   2  792.48   49.02
  -5   5   2  823.07   47.44
   4  -5  -2    4.31    8.97
   4  -5  -2   16.37    7.87
   4  -5  -2   15.61    3.92
   4  -5  -2   13.38    6.83
  -4   5   2   15.12    6.54
  -4   5   2    1.53    8.92
  -4   5   2   14.99    6.39
  -4   5   2    9.76    5.47
   3  -5  -2 1943.92   94.37
   3  -5  -2 1811.64   91.72
   3  -5  -2 1627.25   90.06
   3  -5  -2 1792.06   88.84
  -3   5   2 1731.11   91.06
  -3   5   2 1763.50   93.05
  -3   5   2 1774.78   90.37
  -3   5   2 1835.58   91.78
   2  -5  -2    5.23    7.10
   2  -5  -2    3.48    4.27
   2  -5  -2    7.85    4.93
   2  -5  -2    5.06    2.28
  -2   5   2    2.07    4.37
  -2   5   2   12.64    4.92
  -2   5   2    9.61    6.74
   1  -5  -2 1606.02   79.08
   1  -5  -2 1509.19   76.77
   1  -5  -2 1522.27   79.97
   1  -5  -2 1499.02   80.89
  -1   5   2 1580.35   79.96
  -1   5   2 1590.12   78.31
  -1   5   2 1497.02   79.22
   0  -5  -2    0.43    5.70
   0  -5  -2   -2.76    4.41
   0  -5  -2   13.12    5.40
   0   5   2    4.27    4.09
   0   5   2    5.00    5.08
  -1  -5  -2 1847.55   95.82
  -1  -5  -2 1797.03   95.68
  -1  -5  -2 1806.86   95.30
   1   5   2 2020.60   95.14
   1   5   2 1840.07   92.43
   1   5   2 1893.65   93.81
  -2  -5  -2    0.51    5.92
  -2  -5  -2    3.21    5.90
  -2  -5  -2    4.10    5.63
   2   5   2    2.07    3.17
   2   5   2    7.12    3.98
   2   5   2    9.31    6.04
   2   5   2    7.61    3.84
  -3  -5  -2 1752.65   93.24
  -3  -5  -2 2006.12   99.18
  -3  -5  -2 2021.93   97.92
  -3  -5  -2 1832.01   98.17
   3   5   2 2009.51   94.12
   3   5   2 1907.79   96.09
   3   5   2 1895.29   97.24
  -4  -5  -2    3.14    6.39
  -4  -5  -2   -1.27    3.65
  -4  -5  -2    8.27    5.70
  -4  -5  -2    1.88    6.36
   4   5   2   -1.30    4.53
   4   5   2   -1.30    2.87
   4   5   2    1.48    6.21
   4   5   2   17.64    7.21
  -5  -5  -2 1070.50   55.64
  -5  -5  -2 1078.36   55.72
  -5  -5  -2 1004.92   56.36
  -5  -5  -2  988.05   57.62
   5   5   2  968.36   55.00
   5   5   2  965.34   57.87
  -6  -5  -2   22.93   10.99
  -6  -5  -2    4.17    8.02
  -6  -5  -2   -3.28    8.09
  -6  -5  -2   -5.03    5.20
   6   5   2    4.29    8.17
   6   5   2    6.57    5.45
   6   5   2    3.39    7.63
  -7  -5  -2  520.19   32.98
  -7  -5  -2  484.26   33.18
  -7  -5  -2  514.56   34.66
  -7  -5  -2  440.25   33.30
   7   5   2  491.71   31.80
   7   5   2  467.22   28.53
  -8  -5  -2   -1.50   10.86
  -8  -5  -2   11.13   12.13
  -8  -5  -2    9.53    8.55
  -8  -5  -2    2.96    9.15
   8   5   2   -3.35    9.39
  -9  -5  -2  125.24   23.53
  -9  -5  -2  110.96   21.86
  -9  -5  -2  138.25   21.46
  -9  -5  -2  191.63   22.81
   9   5   2  153.59   19.73
   9   5   2  198.32   21.68
   9   5   2  112.52   22.23
 -10  -5  -2    0.35   15.93
 -10  -5  -2    5.63   16.45
 -10  -5  -2   17.25   15.54
  10   5   2  -16.24   16.92
  10   5   2   -2.61   14.46
   9  -6  -2    4.26   13.52
  -9   6   2    1.86   10.52
  -9   6   2   21.72   13.66
   8  -6  -2  222.73   23.64
  -8   6   2  224.52   26.38
  -8   6   2  209.33   24.18
   7  -6  -2    8.55    7.64
   7  -6  -2  -13.29    9.40
  -7   6   2   -0.54    8.31
  -7   6   2   15.54   11.99
  -7   6   2   -4.88    8.64
   6  -6  -2  544.35   36.84
   6  -6  -2  612.60   38.53
   6  -6  -2  638.79   35.93
  -6   6   2  667.57   41.11
  -6   6   2  608.30   39.63
  -6   6   2  586.24   37.85
   5  -6  -2    6.05    9.15
   5  -6  -2    0.32    7.40
  -5   6   2   12.42    7.35
  -5   6   2    9.05    9.56
  -5   6   2    1.81    8.25
   4  -6  -2 1014.77   59.65
   4  -6  -2 1097.58   62.39
   4  -6  -2 1032.33   55.91
   4  -6  -2 1153.30   58.85
  -4   6   2 1163.46   60.48
  -4   6   2 1183.97   62.59
  -4   6   2 1100.77   58.88
  -4   6   2 1037.48   59.12
   3  -6  -2   14.19    6.55
   3  -6  -2   -0.12    4.99
   3  -6  -2   11.05    7.38
  -3   6   2   12.04    6.65
  -3   6   2   19.22    6.96
  -3   6   2   10.17    7.33
   2  -6  -2 2227.61  109.26
   2  -6  -2 2098.05  107.41
   2  -6  -2 1986.40  103.41
   2  -6  -2 2200.34  110.85
  -2   6   2 2092.03  108.43
  -2   6   2 2230.82  109.84
  -2   6   2 2117.21  106.95
   1  -6  -2   -0.32    2.81
   1  -6  -2   -1.05    7.82
   1  -6  -2   -7.82    6.07
   1  -6  -2    0.35    5.38
  -1   6   2   -2.25    6.00
  -1   6   2   -0.76    6.00
  -1   6   2    7.17    4.26
   0  -6  -2 1680.82   87.91
   0  -6  -2 1633.27   86.67
   0  -6  -2 1717.86   86.87
   0   6   2 1666.24   85.64
   0   6   2 1599.98   85.36
   0   6   2 1682.59   83.44
  -1  -6  -2    1.12    5.04
  -1  -6  -2   -7.28    6.07
  -1  -6  -2   -6.66    6.37
   1   6   2    2.09    3.64
   1   6   2    7.71    4.42
   1   6   2   -0.17    4.01
   1   6   2   -7.14    2.75
  -2  -6  -2 2261.93  118.45
  -2  -6  -2 2376.88  117.82
  -2  -6  -2 2318.21  118.38
   2   6   2 2284.13  114.69
   2   6   2 2272.44  114.53
   2   6   2 2329.52  115.13
   2   6   2 2307.17  116.90
  -3  -6  -2   18.94    8.32
  -3  -6  -2   23.84    6.51
  -3  -6  -2    5.25    7.30
   3   6   2    7.82    5.39
   3   6   2   16.51    5.36
   3   6   2   23.41    6.88
   3   6   2   11.40    3.14
  -4  -6  -2 1293.84   65.69
  -4  -6  -2 1209.02   66.86
  -4  -6  -2 1188.89   66.78
   4   6   2 1195.09   62.08
   4   6   2 1252.23   63.79
   4   6   2 1188.33   64.46
   4   6   2 1178.07   64.84
  -5  -6  -2    6.12    9.42
  -5  -6  -2   12.05    7.25
  -5  -6  -2   24.70    9.58
   5   6   2    6.43    3.54
   5   6   2   21.42    7.52
   5   6   2   14.95    8.64
  -6  -6  -2  570.88   36.62
  -6  -6  -2  553.88   37.37
  -6  -6  -2  508.46   34.14
   6   6   2  515.09   34.08
   6   6   2  501.55   33.25
  -7  -6  -2   15.52   11.56
  -7  -6  -2   15.14   10.01
  -7  -6  -2   19.78   11.88
   7   6   2    0.53    8.58
   7   6   2    5.65    9.24
  -8  -6  -2  176.68   24.09
  -8  -6  -2  244.11   27.78
  -8  -6  -2  279.88   28.40
  -8  -6  -2  255.55   24.94
   8   6   2  261.73   23.96
   8   6   2  267.75   28.97
  -9  -6  -2   -6.03   13.11
  -9  -6  -2   14.43   13.78
  -9  -6  -2    9.10   19.40
  -9  -6  -2    9.60   12.64
   9   6   2   11.05   12.47
   9   6   2    7.21   14.87
   9   6   2    9.59   12.25
 -10  -6  -2   75.88   20.06
  10   6   2   54.54   21.16
  10   6   2  107.76   19.24
   9  -7  -2  167.33   24.66
  -9   7   2  202.32   30.16
  -9   7   2  172.52   26.77
   8  -7  -2  -11.97   12.39
  -8   7   2    9.25   14.77
  -8   7   2    1.18   15.32
   7  -7  -2  315.51   28.85
  -7   7   2  305.56   29.28
  -7   7   2  254.67   30.05
  -7   7   2  260.71   26.98
   6  -7  -2   -1.77    8.27
   6  -7  -2   -8.29    6.39
  -6   7   2   -2.73    7.19
  -6   7   2   -4.07    7.91
  -6   7   2  -12.69    9.54
   5  -7  -2  601.59   43.16
   5  -7  -2  641.02   38.70
   5  -7  -2  641.07   39.50
  -5   7   2  583.94   42.10
  -5   7   2  638.09   40.49
  -5   7   2  702.28   40.34
   4  -7  -2    5.13    6.79
   4  -7  -2    2.99    8.80
   4  -7  -2   19.27   11.15
   4  -7  -2   -0.88    4.64
  -4   7   2    5.24    7.87
  -4   7   2   -0.05    6.95
  -4   7   2    2.59    8.86
   3  -7  -2 1221.60   66.12
   3  -7  -2 1225.83   64.42
   3  -7  -2 1195.76   68.05
  -3   7   2 1182.46   63.90
  -3   7   2 1151.28   65.26
  -3   7   2 1255.90   67.20
   2  -7  -2   -2.42    5.64
   2  -7  -2    1.04    5.60
   2  -7  -2   -0.06    9.34
  -2   7   2    2.18    4.43
  -2   7   2   -6.30    7.19
  -2   7   2    8.34    8.09
   1  -7  -2 1692.01   88.52
   1  -7  -2 1656.47   84.22
   1  -7  -2 1760.21   91.17
   1  -7  -2 1719.13   89.29
  -1   7   2 1698.69   85.60
  -1   7   2 1668.30   88.49
  -1   7   2 1700.66   88.53
   0  -7  -2   -4.59    5.73
   0  -7  -2    6.54    8.78
   0  -7  -2   -3.99    7.09
   0  -7  -2    5.86    7.16
   0   7   2  -15.15    4.74
   0   7   2   -0.47    3.41
   0   7   2    0.79    4.66
  -1  -7  -2 1711.21   96.82
  -1  -7  -2 1740.20   95.82
  -1  -7  -2 1818.28   96.21
   1   7   2 1901.09   93.81
   1   7   2 1915.53   91.60
   1   7   2 1715.41   94.69
   1   7   2 1945.33   91.95
  -2  -7  -2   10.25    6.85
  -2  -7  -2    1.20    8.31
  -2  -7  -2   12.42    6.36
   2   7   2   11.58    5.35
   2   7   2    7.91    4.54
   2   7   2    8.07    4.30
   2   7   2   10.46    7.11
  -3  -7  -2  917.88   54.75
  -3  -7  -2  961.55   55.71
  -3  -7  -2  953.52   53.81
   3   7   2  976.39   53.52
   3   7   2  901.87   50.36
   3   7   2 1116.08   52.65
  -4  -7  -2    7.62    8.72
  -4  -7  -2    6.41    6.72
  -4  -7  -2    1.90    6.79
   4   7   2   14.20    5.86
   4   7   2   13.53    8.26
   4   7   2   11.72    4.79
   4   7   2    3.01    7.54
  -5  -7  -2  667.68   41.26
  -5  -7  -2  703.64   43.18
  -5  -7  -2  657.65   44.08
   5   7   2  699.98   37.12
   5   7   2  771.45   42.24
   5   7   2  628.37   40.51
  -6  -7  -2   23.08   13.15
  -6  -7  -2   14.16   12.19
  -6  -7  -2   31.89    9.58
   6   7   2    7.36    9.52
   6   7   2   -7.40    9.15
  -7  -7  -2  324.26   31.40
  -7  -7  -2  375.03   32.01
  -7  -7  -2  351.00   33.22
   7   7   2  359.71   32.32
   7   7   2  315.60   27.51
  -8  -7  -2   10.64   14.72
  -8  -7  -2   -8.55    8.82
  -8  -7  -2   -9.77   12.43
   8   7   2   -3.93    8.75
   8   7   2   -1.44   11.03
   8   7   2   14.88   10.87
  -9  -7  -2  174.15   25.93
  -9  -7  -2  125.88   23.54
  -9  -7  -2  149.70   23.16
   9   7   2  158.20   23.55
   9   7   2  112.07   22.97
   9   7   2  119.21   20.54
   8  -8  -2  238.78   28.51
  -8   8   2  193.40   27.08
  -8   8   2  180.18   28.74
   7  -8  -2   -7.97   11.68
  -7   8   2   15.39   15.35
  -7   8   2    5.79   14.36
  -7   8   2   16.80   14.47
   6  -8  -2  385.31   30.56
   6  -8  -2  444.67   34.72
  -6   8   2  423.14   34.05
  -6   8   2  366.17   33.97
  -6   8   2  435.84   37.71
   5  -8  -2    6.08    8.54
   5  -8  -2    0.43   12.98
  -5   8   2   -5.98    9.70
  -5   8   2   14.31    8.88
  -5   8   2    3.66   12.30
   4  -8  -2  580.70   39.80
   4  -8  -2  631.43   38.95
   4  -8  -2  712.87   44.04
  -4   8   2  709.48   38.88
  -4   8   2  599.92   42.34
  -4   8   2  626.35   40.49
   3  -8  -2   11.20    9.95
   3  -8  -2   -5.69    7.04
   3  -8  -2    2.08    6.09
  -3   8   2    1.34    9.72
  -3   8   2   -4.85    8.13
  -3   8   2   -5.69    5.47
   2  -8  -2  952.74   53.36
   2  -8  -2  929.39   54.40
   2  -8  -2  994.75   57.89
  -2   8   2 1033.46   54.71
  -2   8   2  952.06   50.69
  -2   8   2  879.38   54.41
   1  -8  -2   -1.92    3.20
   1  -8  -2   -1.31    8.04
   1  -8  -2    6.31   11.02
   1  -8  -2   -6.92    8.33
  -1   8   2   -5.41    6.69
  -1   8   2   -1.90    5.99
  -1   8   2    0.22    3.53
   0  -8  -2  923.02   52.60
   0  -8  -2  948.26   52.47
   0  -8  -2  861.41   52.47
   0  -8  -2  884.05   54.41
   0   8   2  928.52   46.84
   0   8   2  961.88   50.98
   0   8   2  851.28   50.51
  -1  -8  -2   -0.58    8.90
  -1  -8  -2   -8.07    5.62
  -1  -8  -2   -8.47    8.58
   1   8   2    0.25    5.99
   1   8   2   -0.71    3.01
   1   8   2   -2.28    2.77
   1   8   2   -8.80    6.64
   1   8   2   -5.39    3.94
  -2  -8  -2  861.64   53.37
  -2  -8  -2  919.78   54.64
  -2  -8  -2  988.20   55.29
   2   8   2  933.97   49.51
   2   8   2 1010.93   52.52
   2   8   2  905.40   49.63
  -3  -8  -2    4.00    7.36
  -3  -8  -2   12.12   10.74
  -3  -8  -2    2.54    9.56
   3   8   2   10.37    6.62
   3   8   2   -4.95    7.65
  -4  -8  -2  684.68   46.06
  -4  -8  -2  723.89   46.89
  -4  -8  -2  750.95   45.11
   4   8   2  723.86   40.76
   4   8   2  779.80   43.05
   4   8   2  729.44   43.38
  -5  -8  -2   17.82   12.47
  -5  -8  -2   -3.16    6.92
  -5  -8  -2   10.17   11.49
   5   8   2    0.83    8.68
   5   8   2    7.36    9.79
  -6  -8  -2  494.63   34.66
  -6  -8  -2  489.09   32.64
  -6  -8  -2  462.33   40.23
   6   8   2  421.14   30.95
   6   8   2  434.85   35.28
  -7  -8  -2   -7.59   12.46
  -7  -8  -2   -4.18   11.41
  -7  -8  -2   21.19   12.24
   7   8   2   -2.42   10.38
   7   8   2   -9.52   11.53
  -8  -8  -2  227.57   27.94
  -8  -8  -2  221.63   27.16
  -8  -8  -2  149.94   27.45
   8   8   2  154.05   24.73
   8   8   2  209.27   22.01
   8   8   2  189.46   25.97
  -9  -8  -2  -17.02   15.89
   9   8   2   12.13   17.63
   7  -9  -2  229.39   28.26
  -7   9   2  165.47   26.02
  -7   9   2  258.67   31.13
   6  -9  -2    6.94   10.68
  -6   9   2   -3.16   13.38
  -6   9   2   -4.73   12.47
   5  -9  -2  554.38   37.74
   5  -9  -2  445.61   41.88
  -5   9   2  529.56   37.88
  -5   9   2  479.24   38.59
   4  -9  -2  -14.81   11.51
   4  -9  -2    5.95   11.61
  -4   9   2   15.04    9.70
  -4   9   2   10.84    8.66
   3  -9  -2  731.27   45.22
   3  -9  -2  857.49   48.89
   3  -9  -2  707.75   48.82
  -3   9   2  760.38   46.73
  -3   9   2  807.21   48.10
   2  -9  -2  -12.06   10.74
   2  -9  -2   -5.38    6.73
   2  -9  -2   -3.78    9.98
  -2   9   2   -1.75    9.37
  -2   9   2   -0.86    9.67
   1  -9  -2  703.80   42.71
   1  -9  -2  715.45   45.48
   1  -9  -2  691.72   42.96
  -1   9   2  731.28   42.96
  -1   9   2  636.10   41.80
   0  -9  -2    8.32    8.33
   0  -9  -2    3.77    8.77
   0  -9  -2   -1.61   11.40
   0  -9  -2    8.49   10.11
   0   9   2  -18.36    7.45
   0   9   2   -2.39    6.97
  -1  -9  -2  885.11   50.26
  -1  -9  -2  762.76   47.36
  -1  -9  -2  766.85   47.07
   1   9   2  866.99   46.26
   1   9   2  711.47   43.94
  -2  -9  -2   -9.96    6.98
  -2  -9  -2   12.69   12.12
  -2  -9  -2  -12.24    9.83
   2   9   2    1.70    8.71
   2   9   2    4.17    6.76
   2   9   2   -1.07    5.26
  -3  -9  -2  822.79   51.49
  -3  -9  -2  794.26   53.53
  -3  -9  -2  935.18   54.26
   3   9   2  905.06   48.95
   3   9   2  902.37   50.86
  -4  -9  -2   11.07   13.63
  -4  -9  -2    6.28   11.93
  -4  -9  -2   -1.43    8.08
   4   9   2    2.90    8.15
   4   9   2    7.55    9.40
   4   9   2    0.93    6.60
  -5  -9  -2  520.57   38.36
  -5  -9  -2  402.44   36.48
  -5  -9  -2  418.25   38.90
   5   9   2  440.76   31.04
   5   9   2  469.13   32.49
  -6  -9  -2   18.87   14.56
  -6  -9  -2  -12.70   12.96
  -6  -9  -2    1.99    8.93
   6   9   2   16.15   10.91
   6   9   2   -3.01   11.36
  -7  -9  -2  214.82   26.74
  -7  -9  -2  187.82   28.76
  -7  -9  -2  237.80   30.60
   7   9   2  252.15   27.32
   7   9   2  239.63   24.82
  -8  -9  -2   17.02   17.16
  -8  -9  -2    4.58   18.09
  -8  -9  -2    1.59   16.70
   8   9   2    7.78   15.07
   8   9   2    8.03   17.13
   8   9   2   17.51   16.27
   7 -10  -2   -7.50   15.44
  -7  10   2   15.42   16.65
   6 -10  -2  178.92   25.81
  -6  10   2  207.72   25.44
  -6  10   2  203.10   29.36
   5 -10  -2   -3.26   15.87
   5 -10  -2   14.60   11.24
  -5  10   2    0.75   14.02
  -5  10   2    5.81   13.03
   4 -10  -2  422.33   36.19
   4 -10  -2  425.54   38.86
  -4  10   2  383.09   36.08
  -4  10   2  405.68   34.00
   3 -10  -2    6.12   11.43
   3 -10  -2    5.10   12.72
  -3  10   2    3.41    8.55
  -3  10   2    2.54   10.48
   2 -10  -2  838.92   49.26
   2 -10  -2  771.33   52.60
  -2  10   2  741.68   48.73
  -2  10   2  789.19   48.24
   1 -10  -2   -8.51   12.50
   1 -10  -2    0.70    8.46
   1 -10  -2   -0.48    9.50
  -1  10   2   -4.31    6.71
  -1  10   2   -7.59    8.49
   0 -10  -2  734.52   45.71
   0 -10  -2  687.23   47.11
   0 -10  -2  760.72   46.45
   0 -10  -2  668.82   45.44
   0  10   2  706.18   43.86
   0  10   2  716.62   42.83
  -1 -10  -2   -8.36   10.07
  -1 -10  -2   -7.51   10.44
  -1 -10  -2  -13.56   10.55
  -1 -10  -2   -3.55    9.16
   1  10   2   -5.35    6.53
   1  10   2    0.74    6.68
  -2 -10  -2  589.71   43.81
  -2 -10  -2  705.70   47.91
  -2 -10  -2  673.80   45.80
   2  10   2  789.72   42.75
  -3 -10  -2   -7.65   12.32
  -3 -10  -2    3.89    9.26
  -3 -10  -2   -3.95   11.01
   3  10   2   13.11    9.55
  -4 -10  -2  357.46   34.61
  -4 -10  -2  479.89   39.65
  -4 -10  -2  428.39   37.56
   4  10   2  366.72   27.55
   4  10   2  429.30   32.57
  -5 -10  -2    3.14   10.47
  -5 -10  -2    8.97   15.30
  -5 -10  -2   -9.82   13.83
   5  10   2    8.16   10.97
   5  10   2    4.60   10.25
  -6 -10  -2  197.44   29.96
  -6 -10  -2  232.59   27.95
  -6 -10  -2  186.85   27.45
   6  10   2  256.92   26.36
   6  10   2  216.31   23.30
  -7 -10  -2  -14.52   14.93
  -7 -10  -2    9.68   17.29
  -7 -10  -2   -4.33   17.67
   7  10   2   22.14   18.59
   7  10   2    2.26   13.83
   7  10   2   -0.93   14.67
   5 -11  -2  257.47   34.38
   5 -11  -2  196.12   25.85
  -5  11   2  226.67   28.44
  -5  11   2  254.19   29.10
   4 -11  -2  -17.51   13.96
   4 -11  -2    9.87   14.64
  -4  11   2    8.28   13.41
  -4  11   2   24.36   15.19
   3 -11  -2  302.25   34.55
   3 -11  -2  359.15   33.19
  -3  11   2  348.60   31.62
  -3  11   2  335.76   33.23
   2 -11  -2   -5.73   12.32
   2 -11  -2   -5.92    9.96
  -2  11   2   -4.82   10.81
  -2  11   2  -15.06   10.67
  -2  11   2   -9.25    8.73
   1 -11  -2  462.91   42.02
   1 -11  -2  450.57   37.50
  -1  11   2  439.55   35.80
  -1  11   2  454.42   33.27
   0 -11  -2   -0.74   11.45
   0 -11  -2   10.58   11.63
   0 -11  -2   -1.91   12.67
   0  11   2    2.40    9.86
   0  11   2    1.14    8.34
  -1 -11  -2  427.83   38.44
  -1 -11  -2  401.18   36.41
  -1 -11  -2  428.65   36.66
  -1 -11  -2  332.14   37.26
   1  11   2  420.18   32.81
  -2 -11  -2    2.69   13.78
  -2 -11  -2   -7.92    9.81
  -2 -11  -2   -0.91   10.04
  -2 -11  -2  -10.05   12.16
   2  11   2    8.87   10.32
  -3 -11  -2  337.74   33.14
  -3 -11  -2  431.66   40.02
  -3 -11  -2  324.32   33.99
   3  11   2  332.13   29.23
  -4 -11  -2    2.53   15.46
  -4 -11  -2   -6.56   13.01
  -4 -11  -2  -19.15   13.49
   4  11   2    6.18   11.39
  -5 -11  -2  294.18   32.39
  -5 -11  -2  233.27   27.96
  -5 -11  -2  285.73   33.42
   5  11   2  242.55   24.83
  -6 -11  -2   -4.87   16.78
  -6 -11  -2   -6.79   15.62
  -6 -11  -2   -8.60   17.61
   6  11   2   -8.02   16.63
   6  11   2   -2.21   12.66
   4 -12  -2  251.70   34.99
   4 -12  -2  229.50   29.09
  -4  12   2  233.20   28.33
  -4  12   2  255.76   30.30
   3 -12  -2   -1.78   13.88
   3 -12  -2   20.72   19.02
  -3  12   2   -7.80   12.77
  -3  12   2  -14.18   13.14
   2 -12  -2  221.74   28.85
   2 -12  -2  291.02   35.42
  -2  12   2  313.25   30.86
  -2  12   2  275.32   29.48
   1 -12  -2   -6.33   12.04
   1 -12  -2   -4.55   10.31
  -1  12   2   -6.47   10.52
  -1  12   2   -6.87    8.46
  -1  12   2   -2.10   11.39
   0 -12  -2  227.78   32.26
   0 -12  -2  321.73   31.11
   0  12   2  303.58   28.40
   0  12   2  249.32   26.96
  -1 -12  -2    0.77   10.26
  -1 -12  -2   -4.94   11.00
  -1 -12  -2    0.17   10.44
   1  12   2   17.15   12.35
  -2 -12  -2  275.40   32.34
  -2 -12  -2  351.34   34.10
  -2 -12  -2  282.49   36.14
   2  12   2  327.31   28.96
  -3 -12  -2    5.95   16.82
  -3 -12  -2    7.65   17.77
  -3 -12  -2    1.07   14.67
   3  12   2   -9.77   11.37
   3  12   2   -8.66   11.87
  -4 -12  -2  165.89   29.05
  -4 -12  -2  303.96   35.87
  -4 -12  -2  282.87   32.20
   4  12   2  292.80   27.35
   4  12   2  220.70   28.31
  -5 -12  -2    5.68   13.62
  -5 -12  -2  -15.85   19.09
  -5 -12  -2   -3.12   18.06
   5  12   2   -0.26   16.75
   5  12   2   -5.95   12.81
   2 -13  -2    8.13   16.59
   2 -13  -2   -8.75   18.45
  -2  13   2   -8.84   14.46
  -2  13   2   26.87   17.02
   1 -13  -2  283.43   35.60
   1 -13  -2  327.76   34.70
  -1  13   2  257.53   29.86
  -1  13   2  286.60   30.03
   0 -13  -2  -15.39   17.84
   0 -13  -2    3.32   16.22
   0  13   2  -26.31   12.94
   0  13   2    8.81   13.03
  -1 -13  -2  303.56   34.17
  -1 -13  -2  242.81   31.44
  -1 -13  -2  300.18   37.09
   1  13   2  338.68   31.09
   1  13   2  266.26   32.19
  -2 -13  -2   15.32   12.69
  -2 -13  -2    2.01   17.86
  -2 -13  -2    9.02   15.66
   2  13   2  -17.20   12.15
   2  13   2    6.41   11.89
   1  13  -3   -3.01   15.55
   1  13  -3   -5.83   15.19
  -1 -13   3   -6.24   11.48
  -1 -13   3    0.95   14.67
   0  13  -3  300.89   32.86
   0  13  -3  355.36   34.89
   0 -13   3  262.85   38.33
   0 -13   3  328.19   33.81
  -1  13  -3   -3.95   14.75
  -1  13  -3   13.47   16.96
   1 -13   3    6.46   15.97
   1 -13   3    2.25   15.51
  -2  13  -3  227.13   28.40
  -2  13  -3  197.78   26.62
   2 -13   3  223.45   31.90
   2 -13   3  277.81   32.21
   4  12  -3   -3.39   11.14
  -4 -12   3   25.90   20.26
  -4 -12   3   -0.20   17.28
   3  12  -3  250.46   28.54
   3  12  -3  262.52   27.86
  -3 -12   3  156.91   26.53
  -3 -12   3  276.26   30.64
   2  12  -3    6.08   10.76
   2  12  -3  -13.79   12.88
  -2 -12   3   12.67   15.26
  -2 -12   3   18.31   14.18
   1  12  -3  282.36   28.95
   1  12  -3  327.70   32.40
  -1 -12   3  336.32   31.67
  -1 -12   3  257.66   34.04
   0  12  -3  -14.84   10.52
   0  12  -3   -6.15    8.75
   0 -12   3  -13.67   12.61
   0 -12   3    6.78   12.53
  -1  12  -3  340.25   30.62
  -1  12  -3  277.34   31.25
  -1  12  -3  307.10   25.84
   1 -12   3  251.35   34.78
   1 -12   3  373.10   33.78
  -2  12  -3    3.55    9.90
  -2  12  -3    7.89   12.78
  -2  12  -3    3.36    9.90
   2 -12   3  -20.92   16.37
   2 -12   3    0.94   14.13
  -3  12  -3  276.69   25.69
   3 -12   3  245.43   31.75
   3 -12   3  266.62   31.46
  -4  12  -3    7.53   12.62
   4 -12   3   -3.81   10.88
   4 -12   3   11.00   17.27
   4 -12   3   16.09   15.23
  -5  12  -3  181.90   23.84
   5 -12   3  179.44   24.95
   5  11  -3   10.08   16.48
   5  11  -3   -5.60   10.66
  -5 -11   3    1.59   12.77
  -5 -11   3   10.58   16.24
   4  11  -3  322.59   31.35
   4  11  -3  228.50   29.37
   4  11  -3  268.80   27.23
  -4 -11   3  256.57   33.14
  -4 -11   3  252.57   29.64
   3  11  -3   -9.94   10.47
   3  11  -3    1.72   12.64
   3  11  -3   -5.73    9.27
  -3 -11   3    4.19   11.59
  -3 -11   3  -15.84   12.75
  -3 -11   3   -2.38   12.61
   2  11  -3  407.17   35.44
   2  11  -3  500.99   39.26
  -2 -11   3  488.00   37.72
  -2 -11   3  477.04   34.96
  -2 -11   3  370.49   38.57
   1  11  -3    2.32    8.81
   1  11  -3   -8.14   10.97
  -1 -11   3    3.13   13.53
  -1 -11   3   -0.35   12.06
  -1 -11   3  -13.89   13.32
  -1 -11   3   -3.36   11.38
   0  11  -3  400.58   34.23
   0  11  -3  425.61   27.12
   0  11  -3  362.86   33.11
   0 -11   3  436.42   34.61
   0 -11   3  404.81   39.99
   0 -11   3  442.35   40.47
  -1  11  -3  -13.62    8.45
  -1  11  -3   -1.78   10.65
  -1  11  -3   -8.85   11.40
   1 -11   3   -7.34   10.95
   1 -11   3    4.22   15.75
   1 -11   3    2.47   15.88
  -2  11  -3  393.32   26.33
  -2  11  -3  374.66   30.59
   2 -11   3  315.50   31.04
   2 -11   3  320.03   36.26
   2 -11   3  342.87   37.52
  -3  11  -3    2.82    9.36
   3 -11   3   -3.71   11.35
   3 -11   3   -2.10   11.37
   3 -11   3  -21.33   12.54
  -4  11  -3  306.08   27.16
   4 -11   3  216.49   32.75
   4 -11   3  320.08   32.85
   4 -11   3  284.13   31.80
   4 -11   3  282.78   33.44
  -5  11  -3   -1.06   10.70
  -5  11  -3   11.94   12.61
   5 -11   3   -2.72   12.04
   5 -11   3   -6.60   14.09
  -6  11  -3  144.12   20.99
   6 -11   3  170.16   24.52
   6 -11   3  167.25   29.03
   6  10  -3   -6.91    9.08
   6  10  -3   12.96   16.59
  -6 -10   3  -11.67   10.56
  -6 -10   3    0.30   17.68
   5  10  -3  308.26   32.39
   5  10  -3  243.94   29.55
  -5 -10   3  278.03   30.77
  -5 -10   3  312.64   34.93
   4  10  -3   -0.20   12.04
   4  10  -3   -2.97    8.63
   4  10  -3   -1.42    9.27
  -4 -10   3   -0.59   11.80
  -4 -10   3   -3.15   10.80
  -4 -10   3   -1.30   10.35
   3  10  -3  644.01   41.40
   3  10  -3  573.82   41.80
   3  10  -3  621.39   39.97
  -3 -10   3  639.37   41.57
  -3 -10   3  603.34   39.94
  -3 -10   3  587.96   43.02
   2  10  -3   -3.67    9.86
   2  10  -3   17.15    9.34
   2  10  -3   14.61   10.23
  -2 -10   3  -10.06    9.17
  -2 -10   3    1.74    8.85
  -2 -10   3   -9.51    9.51
  -2 -10   3   -8.46   13.43
   1  10  -3  832.56   44.34
   1  10  -3  792.79   49.66
   1  10  -3  868.53   50.96
  -1 -10   3  799.44   55.47
  -1 -10   3  832.86   52.74
  -1 -10   3  786.93   48.76
  -1 -10   3  786.92   49.01
   0  10  -3    0.19    9.64
   0  10  -3    3.49    6.47
   0  10  -3   16.01   10.91
   0 -10   3   -3.82   13.85
   0 -10   3   -6.38    8.94
   0 -10   3   -4.99    8.95
   0 -10   3   -1.84   10.09
  -1  10  -3  647.11   37.35
  -1  10  -3  606.13   39.67
   1 -10   3  648.57   45.80
   1 -10   3  593.27   40.34
   1 -10   3  643.53   43.69
  -2  10  -3   -2.38    8.48
  -2  10  -3    6.40    8.04
  -2  10  -3   -6.98    6.46
   2 -10   3    4.66   10.16
   2 -10   3   -8.21   12.75
   2 -10   3   25.18   15.49
  -3  10  -3  508.92   32.99
  -3  10  -3  489.47   35.84
  -3  10  -3  538.70   32.72
  -3  10  -3  455.53   31.72
   3 -10   3  462.07   37.70
   3 -10   3  508.05   43.96
   3 -10   3  541.10   44.69
  -4  10  -3   -2.67    8.96
  -4  10  -3  -13.47   10.56
   4 -10   3   -1.46   12.99
   4 -10   3   -1.82   14.47
   4 -10   3   -0.44   12.23
   4 -10   3   -7.13   11.43
  -5  10  -3  282.40   25.63
  -5  10  -3  248.72   27.48
   5 -10   3  227.28   31.78
   5 -10   3  203.14   26.81
   5 -10   3  303.25   30.13
   5 -10   3  210.04   25.85
  -6  10  -3    2.25   11.65
  -6  10  -3   12.72   15.61
   6 -10   3  -13.54   14.31
   6 -10   3    1.49   10.44
  -7  10  -3  160.13   24.81
  -7  10  -3  127.88   20.85
   7 -10   3  115.20   23.14
   7   9  -3  -10.32   11.55
   7   9  -3   15.62   12.00
  -7  -9   3   17.84   16.22
  -7  -9   3    1.32   17.42
   6   9  -3  262.33   30.46
   6   9  -3  299.50   30.34
  -6  -9   3  288.84   32.18
  -6  -9   3  240.93   29.93
   5   9  -3    2.12   12.14
   5   9  -3   -4.39    8.87
   5   9  -3   -8.39    8.30
  -5  -9   3    7.58    9.45
  -5  -9   3  -12.35   10.59
  -5  -9   3   15.96   10.13
   4   9  -3  564.53   40.96
   4   9  -3  634.87   38.62
   4   9  -3  657.07   41.57
  -4  -9   3  601.21   40.48
  -4  -9   3  585.22   44.03
  -4  -9   3  655.70   40.22
   3   9  -3   11.68   10.48
   3   9  -3    0.36    9.76
   3   9  -3   -4.07    7.92
  -3  -9   3   12.26    9.37
  -3  -9   3  -15.17   10.69
  -3  -9   3    1.55    9.69
   2   9  -3  838.93   47.39
   2   9  -3  825.09   46.13
   2   9  -3  756.54   47.71
   2   9  -3  734.27   40.88
  -2  -9   3  765.70   48.96
  -2  -9   3  793.53   46.45
  -2  -9   3  740.99   45.73
   1   9  -3   -3.72    6.36
   1   9  -3    3.97    6.86
   1   9  -3    1.17    4.99
   1   9  -3   -1.21    8.56
   1   9  -3   -5.30    5.48
  -1  -9   3   -6.13    8.24
  -1  -9   3   -4.75    5.93
  -1  -9   3    3.85    8.66
  -1  -9   3   -5.76    6.80
   0   9  -3  782.52   46.01
   0   9  -3  767.86   42.43
   0   9  -3  731.18   41.62
   0   9  -3  739.82   45.34
   0  -9   3  746.34   50.75
   0  -9   3  778.55   45.72
   0  -9   3  829.18   44.26
   0  -9   3  726.94   47.78
  -1   9  -3    0.64    6.80
  -1   9  -3   -6.79    5.06
  -1   9  -3    3.86    8.11
   1  -9   3  -20.78    6.77
   1  -9   3   -5.78    6.82
   1  -9   3   -4.21   11.62
   1  -9   3   -9.26    8.76
  -2   9  -3  820.55   42.86
  -2   9  -3  678.89   42.91
  -2   9  -3  736.06   42.67
  -2   9  -3  701.00   44.19
   2  -9   3  774.94   50.01
   2  -9   3  712.22   47.38
   2  -9   3  805.84   45.99
  -3   9  -3   -6.68    7.18
  -3   9  -3    0.99    7.44
  -3   9  -3    4.50    6.92
   3  -9   3   10.01    9.82
   3  -9   3   -0.45    9.20
   3  -9   3    2.31    9.94
  -4   9  -3  503.41   38.15
  -4   9  -3  597.10   35.62
   4  -9   3  512.13   37.27
   4  -9   3  536.49   41.12
   4  -9   3  572.65   39.29
   4  -9   3  588.27   39.74
  -5   9  -3   -0.04   12.15
  -5   9  -3   -9.09    9.02
   5  -9   3    9.08    8.68
   5  -9   3   14.79   15.42
   5  -9   3   19.81   12.38
   5  -9   3   -0.25    9.62
  -6   9  -3  237.13   28.40
  -6   9  -3  282.67   25.85
   6  -9   3  208.32   26.26
   6  -9   3  188.94   25.19
   6  -9   3  322.91   29.25
   6  -9   3  222.06   29.89
  -7   9  -3    1.46   10.06
  -7   9  -3   -6.71   11.84
   7  -9   3    2.41   13.09
  -8   9  -3  134.37   22.89
  -8   9  -3   71.68   17.82
   8  -9   3  104.02   19.68
   8   8  -3   10.64   15.01
   8   8  -3   10.27   18.07
  -8  -8   3    7.07   13.79
  -8  -8   3  -14.65   17.32
   7   8  -3  265.22   29.80
   7   8  -3  332.66   30.60
  -7  -8   3  315.68   33.40
  -7  -8   3  255.52   30.32
   6   8  -3   -3.09   12.50
   6   8  -3    3.22   11.53
  -6  -8   3   12.77   10.95
  -6  -8   3   -0.80   13.74
   5   8  -3  646.51   41.90
   5   8  -3  657.69   42.54
   5   8  -3  580.33   36.49
  -5  -8   3  589.23   41.44
  -5  -8   3  621.43   38.20
  -5  -8   3  610.70   43.90
   4   8  -3   19.03   11.89
   4   8  -3   15.01    8.13
   4   8  -3   12.32   10.73
  -4  -8   3   11.21    8.92
  -4  -8   3    6.01    8.14
  -4  -8   3    8.59    8.78
   3   8  -3  634.99   38.65
   3   8  -3  638.28   41.25
   3   8  -3  665.21   41.05
  -3  -8   3  668.02   41.14
  -3  -8   3  679.22   39.75
  -3  -8   3  666.77   42.93
   2   8  -3    5.00    4.08
   2   8  -3   -2.22    8.13
   2   8  -3   -2.40    5.85
   2   8  -3    2.97    8.01
  -2  -8   3   -8.11    6.91
  -2  -8   3   -3.71    6.64
  -2  -8   3    3.08    9.89
   1   8  -3 1097.41   55.81
   1   8  -3 1058.13   59.30
   1   8  -3 1060.71   60.33
   1   8  -3 1126.25   59.95
   1   8  -3 1103.76   57.05
  -1  -8   3 1106.21   59.09
  -1  -8   3  994.74   58.54
  -1  -8   3 1165.07   65.55
  -1  -8   3 1002.15   61.38
   0   8  -3    9.48    8.22
   0   8  -3   -0.45    5.27
   0   8  -3  -16.04    7.03
   0   8  -3  -10.22    3.90
   0  -8   3  -12.80   10.34
   0  -8   3   -2.08    5.51
   0  -8   3    7.75    6.45
   0  -8   3   21.89   11.14
  -1   8  -3  775.60   42.62
  -1   8  -3  822.91   44.09
  -1   8  -3  821.52   45.15
   1  -8   3  800.93   48.63
   1  -8   3  747.97   49.54
   1  -8   3  733.17   45.05
   1  -8   3  768.83   42.97
  -2   8  -3   10.82    8.56
  -2   8  -3    9.26    6.74
  -2   8  -3   12.57    6.97
  -2   8  -3    7.37    6.94
   2  -8   3   -6.53    7.44
   2  -8   3    4.30    8.69
   2  -8   3    4.54   10.67
  -3   8  -3  769.93   41.60
  -3   8  -3  778.30   44.98
  -3   8  -3  711.56   41.97
   3  -8   3  781.45   47.85
   3  -8   3  654.05   43.04
   3  -8   3  742.54   47.22
  -4   8  -3    9.40    6.67
  -4   8  -3    9.11   10.18
  -4   8  -3    8.21    8.62
  -4   8  -3    3.65    5.74
   4  -8   3   11.37    8.80
   4  -8   3   -8.95    9.68
   4  -8   3    1.98   11.97
   4  -8   3    2.76    6.61
  -5   8  -3  599.62   39.81
  -5   8  -3  591.56   36.14
  -5   8  -3  512.01   34.20
   5  -8   3  533.56   36.36
   5  -8   3  627.07   38.72
   5  -8   3  582.34   40.32
   5  -8   3  517.72   40.28
  -6   8  -3   -4.99    8.70
  -6   8  -3    0.04    9.39
   6  -8   3   -2.37   13.67
   6  -8   3    8.30   11.93
   6  -8   3    4.78   12.42
   6  -8   3    3.63    9.28
  -7   8  -3  267.02   30.19
  -7   8  -3  215.90   23.82
   7  -8   3  210.98   25.14
   7  -8   3  176.98   27.38
  -8   8  -3    5.22   15.74
  -8   8  -3    8.16   12.37
   8  -8   3    8.74   13.50
  -9   8  -3   77.89   19.48
   8   7  -3  202.96   26.98
   8   7  -3  194.98   24.81
  -8  -7   3  225.33   28.55
  -8  -7   3  186.28   26.67
   7   7  -3   -3.81    7.84
   7   7  -3   -1.36    9.06
  -7  -7   3   -5.29   13.54
  -7  -7   3    2.72    9.66
   6   7  -3  534.24   36.35
   6   7  -3  488.75   39.95
  -6  -7   3  515.84   37.74
  -6  -7   3  495.62   36.84
  -6  -7   3  463.98   32.12
   5   7  -3   19.29   11.01
   5   7  -3   -0.55   10.75
   5   7  -3    7.37    6.48
  -5  -7   3   11.41   10.33
  -5  -7   3   -2.26    6.94
  -5  -7   3    2.18    7.72
  -5  -7   3   -4.16   11.16
   4   7  -3  732.62   41.15
   4   7  -3  624.08   37.14
   4   7  -3  694.87   43.48
   4   7  -3  765.41   44.47
  -4  -7   3  764.50   39.10
  -4  -7   3  767.15   44.04
  -4  -7   3  759.00   41.38
  -4  -7   3  693.07   44.97
   3   7  -3   12.25    7.38
   3   7  -3   13.23    3.63
   3   7  -3   19.64    7.72
   3   7  -3   -0.38    8.78
  -3  -7   3    9.20    7.51
  -3  -7   3    3.37    3.82
  -3  -7   3   10.02    7.12
  -3  -7   3   -2.17    7.44
   2   7  -3 1778.76   93.27
   2   7  -3 1945.89   95.79
   2   7  -3 1838.10   98.23
   2   7  -3 1748.67   96.88
   2   7  -3 1926.80   98.41
  -2  -7   3 1881.26   96.64
  -2  -7   3 2020.95   98.08
  -2  -7   3 1935.29  100.34
   1   7  -3   17.67    8.39
   1   7  -3    8.37    4.58
   1   7  -3    1.99    5.48
   1   7  -3    0.45    4.91
   1   7  -3    2.36    5.69
  -1  -7   3   14.95    9.50
  -1  -7   3    9.24    5.98
  -1  -7   3   12.85    6.72
   0   7  -3 1623.03   83.63
   0   7  -3 1581.25   86.70
   0   7  -3 1773.19   85.53
   0   7  -3 1558.47   86.23
   0  -7   3 1655.65   86.35
   0  -7   3 1688.25   85.16
   0  -7   3 1773.17   91.83
   0  -7   3 1641.86   88.91
  -1   7  -3   -3.36    6.53
  -1   7  -3   -1.35    4.56
  -1   7  -3   -5.48    3.91
   1  -7   3   -2.39    8.26
   1  -7   3   -6.52    4.61
   1  -7   3    6.06    7.21
   1  -7   3   16.80    8.05
  -2   7  -3 1243.59   65.08
  -2   7  -3 1168.29   62.78
  -2   7  -3 1272.59   62.58
   2  -7   3 1136.11   67.73
   2  -7   3 1177.94   66.82
   2  -7   3 1163.16   59.34
   2  -7   3 1180.42   64.25
  -3   7  -3    1.91    4.50
  -3   7  -3   -0.78    4.14
  -3   7  -3   -4.71    7.09
   3  -7   3   -0.80    9.00
   3  -7   3    1.73    9.03
   3  -7   3    0.61    4.62
   3  -7   3    3.18    7.69
  -4   7  -3  597.40   35.70
  -4   7  -3  623.99   38.52
  -4   7  -3  627.33   34.00
  -4   7  -3  647.70   35.23
   4  -7   3  649.31   40.44
   4  -7   3  521.32   36.35
   4  -7   3  613.55   34.98
   4  -7   3  654.27   39.52
   4  -7   3  574.53   40.68
  -5   7  -3    0.24    6.61
  -5   7  -3   -2.07    7.84
  -5   7  -3   -0.48    6.87
   5  -7   3   -2.32    8.07
   5  -7   3  -13.56    9.40
   5  -7   3   -5.53    8.87
   5  -7   3    7.04    7.54
  -6   7  -3  502.95   33.14
  -6   7  -3  505.51   36.71
  -6   7  -3  581.34   34.23
   6  -7   3  423.80   39.53
   6  -7   3  448.73   33.47
   6  -7   3  531.89   35.29
   6  -7   3  556.43   35.95
  -7   7  -3   -7.62   10.25
  -7   7  -3  -10.32    9.23
  -7   7  -3   -4.33   12.13
   7  -7   3    9.80   10.93
   7  -7   3    4.63   10.02
   7  -7   3    2.26   10.74
  -8   7  -3  194.73   27.24
  -8   7  -3  189.38   24.98
  -8   7  -3  180.89   22.60
   8  -7   3  175.77   22.42
   8  -7   3  176.56   26.86
  -9   7  -3   -7.84   12.38
   9  -7   3    6.93   14.22
   9   6  -3   99.66   24.44
   9   6  -3  145.33   23.68
   9   6  -3  137.89   25.93
  -9  -6   3  117.80   25.47
  -9  -6   3  156.63   28.30
   8   6  -3   10.77   12.55
   8   6  -3   -3.41   13.24
   8   6  -3   -4.52   11.80
  -8  -6   3   11.97   15.64
  -8  -6   3    9.18   15.99
   7   6  -3  339.22   31.88
   7   6  -3  318.11   27.16
   7   6  -3  312.57   28.50
  -7  -6   3  319.86   31.53
  -7  -6   3  291.41   26.22
  -7  -6   3  342.43   28.39
  -7  -6   3  339.42   33.81
   6   6  -3    1.21    9.18
   6   6  -3   12.02   10.18
   6   6  -3   13.94   11.33
   6   6  -3    1.68    6.27
  -6  -6   3    6.15    8.15
  -6  -6   3   15.49   12.45
  -6  -6   3   13.22    7.89
  -6  -6   3    5.17    8.64
   5   6  -3  916.14   53.78
   5   6  -3  959.52   52.80
   5   6  -3  855.34   48.81
   5   6  -3  923.79   50.79
  -5  -6   3  880.64   49.23
  -5  -6   3 1007.83   54.59
  -5  -6   3  851.46   49.15
  -5  -6   3  826.26   53.88
   4   6  -3   -6.93    8.04
   4   6  -3    2.55    5.81
   4   6  -3    5.55    5.41
   4   6  -3    1.01    2.51
   4   6  -3   -0.09    6.40
  -4  -6   3   11.02    6.95
  -4  -6   3   -3.80    5.58
  -4  -6   3   -6.22    5.33
  -4  -6   3    3.73    5.49
   3   6  -3 1756.80   86.07
   3   6  -3 1524.55   79.33
   3   6  -3 1742.76   83.59
   3   6  -3 1482.50   84.32
  -3  -6   3 1404.95   79.02
  -3  -6   3 1853.95   85.63
  -3  -6   3 1569.72   80.78
  -3  -6   3 1608.79   82.49
  -3  -6   3 1854.16   87.59
   2   6  -3    0.26    2.86
   2   6  -3    2.12    2.68
   2   6  -3   -2.43    4.71
   2   6  -3   10.58    5.59
   2   6  -3   13.83    5.34
   2   6  -3    2.82    5.92
  -2  -6   3    1.40    5.44
  -2  -6   3   -1.91    4.75
  -2  -6   3   -0.31    2.37
  -2  -6   3   -0.58    4.14
   1   6  -3 2135.26  107.80
   1   6  -3 2146.20  107.00
   1   6  -3 2156.98  104.71
   1   6  -3 2160.36  108.42
   1   6  -3 1980.25  104.56
   1   6  -3 2207.02  108.86
  -1  -6   3 2034.39  109.52
  -1  -6   3 2144.33  107.17
  -1  -6   3 2112.77  107.21
   0   6  -3    2.43    6.21
   0   6  -3    5.90    3.88
   0   6  -3    3.32    5.70
   0   6  -3   -1.40    4.30
   0   6  -3    6.99    5.88
   0  -6   3    6.58    8.32
   0  -6   3    0.44    6.81
   0  -6   3   -1.19    3.42
   0  -6   3    8.66    6.03
  -1   6  -3 1843.45   92.15
  -1   6  -3 1754.01   90.32
  -1   6  -3 1775.32   91.75
   1  -6   3 1918.06   94.56
   1  -6   3 1637.34   90.00
   1  -6   3 1926.71   92.54
   1  -6   3 1827.83   96.16
  -2   6  -3    8.66    3.02
  -2   6  -3   16.90    5.79
  -2   6  -3   10.27    6.72
  -2   6  -3   19.17    5.71
   2  -6   3   15.90    9.84
   2  -6   3   21.93    7.41
   2  -6   3    8.42    3.70
   2  -6   3   21.38    6.98
  -3   6  -3 1343.23   70.81
  -3   6  -3 1409.94   71.91
  -3   6  -3 1347.24   74.09
  -3   6  -3 1439.11   70.99
  -3   6  -3 1367.31   68.41
   3  -6   3 1429.75   74.99
   3  -6   3 1305.12   75.62
   3  -6   3 1331.94   70.51
   3  -6   3 1536.28   73.75
  -4   6  -3    5.56    4.26
  -4   6  -3   -0.64    4.73
  -4   6  -3    3.09    6.23
  -4   6  -3    3.10    6.01
   4  -6   3    2.60    5.85
   4  -6   3    0.54    7.94
   4  -6   3    3.17    5.52
   4  -6   3    6.70    6.96
   4  -6   3    5.54    7.94
  -5   6  -3  760.06   38.23
  -5   6  -3  654.20   37.76
   5  -6   3  615.49   39.84
   5  -6   3  576.66   38.01
   5  -6   3  631.95   38.15
   5  -6   3  588.63   40.36
  -6   6  -3   14.65   10.65
  -6   6  -3  -10.07    7.49
  -6   6  -3   -1.24    5.89
   6  -6   3  -16.53   10.58
   6  -6   3    4.73    8.78
   6  -6   3   17.71    8.01
  -7   6  -3  390.23   26.85
  -7   6  -3  380.90   32.89
  -7   6  -3  334.06   30.51
   7  -6   3  404.71   28.38
   7  -6   3  333.75   33.88
   7  -6   3  378.21   30.65
  -8   6  -3    6.56    9.40
  -8   6  -3   11.53   13.07
  -8   6  -3    8.36    8.40
   8  -6   3   12.76   16.12
   8  -6   3    0.52   11.10
  -9   6  -3  127.94   19.13
   9  -6   3  154.58   22.07
 -10   6  -3   -8.15   12.98
  10  -6   3   10.20   12.70
   9   5  -3   -3.50   11.76
   9   5  -3    9.50   14.02
  -9  -5   3  -22.50   14.07
   8   5  -3  281.22   26.14
   8   5  -3  274.31   31.04
   8   5  -3  315.14   27.87
  -8  -5   3  293.91   32.46
  -8  -5   3  282.13   28.56
   7   5  -3   12.59    7.74
   7   5  -3    0.31   10.10
   7   5  -3   16.98   12.72
  -7  -5   3    2.92    8.30
  -7  -5   3   -1.76   11.90
  -7  -5   3   12.20    9.95
   6   5  -3  719.85   42.80
   6   5  -3  734.16   45.27
   6   5  -3  801.89   44.37
  -6  -5   3  720.90   41.41
  -6  -5   3  698.69   45.18
  -6  -5   3  685.49   42.61
   5   5  -3    5.03    5.99
   5   5  -3    2.17    5.50
   5   5  -3   14.76    6.29
   5   5  -3    9.21    2.80
   5   5  -3    3.22    9.16
  -5  -5   3   18.13   10.37
  -5  -5   3   10.03    6.54
  -5  -5   3   13.27    6.61
   4   5  -3 1421.30   74.19
   4   5  -3 1407.68   76.97
   4   5  -3 1455.33   74.69
   4   5  -3 1470.77   76.33
   4   5  -3 1428.00   75.44
  -4  -5   3 1472.13   74.27
  -4  -5   3 1406.79   77.14
  -4  -5   3 1467.04   78.44
  -4  -5   3 1389.04   73.60
   3   5  -3   61.35    4.84
   3   5  -3   66.02    8.84
   3   5  -3   60.69   10.52
   3   5  -3   69.64   11.51
   3   5  -3   53.98    9.51
  -3  -5   3   60.68    5.07
  -3  -5   3   63.78    5.46
  -3  -5   3   75.61    8.06
  -3  -5   3   58.77   10.25
  -3  -5   3   60.70    7.66
  -3  -5   3   63.12   10.55
   2   5  -3 1490.93   88.09
   2   5  -3 1722.50   87.60
   2   5  -3 1707.34   84.15
   2   5  -3 1775.98   88.67
   2   5  -3 1853.54   87.73
  -2  -5   3 1696.82   89.55
  -2  -5   3 1669.10   85.06
  -2  -5   3 1902.08   86.66
  -2  -5   3 1602.24   87.66
   1   5  -3    1.94    3.71
   1   5  -3    3.44    4.35
   1   5  -3   -1.94    5.57
   1   5  -3    2.84    2.53
   1   5  -3    4.27    4.05
   1   5  -3   -2.55    2.28
  -1  -5   3   -0.54    4.17
  -1  -5   3    4.70    3.26
  -1  -5   3   -3.38    3.75
  -1  -5   3    1.93    1.69
   0   5  -3 1369.37   69.50
   0   5  -3 1458.40   71.73
   0   5  -3 1420.07   72.10
   0   5  -3 1417.47   72.04
   0   5  -3 1382.79   69.80
   0   5  -3 1310.80   72.21
   0  -5   3 1360.32   74.98
   0  -5   3 1376.09   70.54
   0  -5   3 1427.67   71.40
   0  -5   3 1411.80   73.41
  -1   5  -3   -2.42    2.49
  -1   5  -3    7.00    4.54
  -1   5  -3    1.97    4.19
  -1   5  -3    3.85    3.57
   1  -5   3    0.77    3.36
   1  -5   3   -0.10    1.95
   1  -5   3    1.75    4.68
   1  -5   3   -3.50    2.63
   1  -5   3   -5.07    3.93
   1  -5   3    4.27    5.17
  -2   5  -3 1835.14   94.18
  -2   5  -3 1936.30   91.84
  -2   5  -3 1836.20   93.92
  -2   5  -3 1769.87   97.33
  -2   5  -3 1926.13   96.21
   2  -5   3 1926.11   93.12
   2  -5   3 1893.26   96.79
   2  -5   3 1856.16   95.08
   2  -5   3 1821.87   98.02
  -3   5  -3    4.02    7.14
  -3   5  -3    6.03    4.97
  -3   5  -3   -0.95    4.04
  -3   5  -3    6.80    2.03
  -3   5  -3   11.84    4.31
  -3   5  -3    9.16    1.94
   3  -5   3   14.24    6.72
   3  -5   3    0.54    4.50
   3  -5   3   17.89    6.60
   3  -5   3   -1.08    5.67
   3  -5   3    4.45    6.78
  -4   5  -3 1379.84   68.64
  -4   5  -3 1336.45   65.94
  -4   5  -3 1236.35   64.62
  -4   5  -3 1295.58   70.31
  -4   5  -3 1330.64   68.48
  -4   5  -3 1301.72   64.70
   4  -5   3 1292.51   68.05
   4  -5   3 1355.89   70.36
   4  -5   3 1438.57   70.82
   4  -5   3 1278.62   71.98
   4  -5   3 1194.94   68.51
  -5   5  -3   21.30    6.76
  -5   5  -3   16.57    7.44
  -5   5  -3   14.13    3.42
  -5   5  -3    8.45    7.42
   5  -5   3   10.43    6.03
   5  -5   3   13.33    8.11
   5  -5   3   22.75    8.73
   5  -5   3   14.22    9.70
  -6   5  -3  431.46   27.36
  -6   5  -3  375.39   28.44
  -6   5  -3  397.60   23.74
  -6   5  -3  422.74   30.55
   6  -5   3  462.05   29.31
   6  -5   3  435.05   29.21
   6  -5   3  476.53   32.95
  -7   5  -3    8.53    7.37
  -7   5  -3    0.91    7.19
  -7   5  -3   11.21   10.34
   7  -5   3   -3.41    6.63
   7  -5   3   16.07    8.83
   7  -5   3    3.28   12.42
  -8   5  -3  297.58   27.80
  -8   5  -3  276.67   25.41
  -8   5  -3  384.92   32.34
   8  -5   3  241.34   28.27
   8  -5   3  304.36   27.26
   8  -5   3  259.64   25.57
  -9   5  -3    8.92   11.61
   9  -5   3  -10.71    7.54
 -10   5  -3  117.96   21.31
  10  -5   3  122.20   21.70
   9   4  -3  211.68   25.27
   9   4  -3  195.43   27.60
  -9  -4   3  306.85   33.13
   8   4  -3   -4.16    8.09
   8   4  -3    1.84   10.45
   8   4  -3   -9.84    8.05
  -8  -4   3    3.11    9.12
  -8  -4   3  -15.35   12.60
  -8  -4   3   12.14   12.31
   7   4  -3  550.33   35.65
   7   4  -3  478.48   35.94
   7   4  -3  514.06   34.02
  -7  -4   3  554.66   36.42
  -7  -4   3  532.60   38.63
  -7  -4   3  592.39   34.00
   6   4  -3   -7.58    6.71
   6   4  -3   -0.59    7.80
   6   4  -3    1.31    3.38
   6   4  -3    2.22    6.71
  -6  -4   3   -1.98   10.02
  -6  -4   3   -7.72    6.25
  -6  -4   3    2.65    7.80
   5   4  -3  868.35   45.41
   5   4  -3  843.32   47.23
   5   4  -3  895.85   49.41
   5   4  -3  792.72   42.51
   5   4  -3  827.76   47.10
  -5  -4   3  910.15   47.72
  -5  -4   3  835.13   49.53
  -5  -4   3  880.86   45.65
  -5  -4   3  826.19   42.04
   4   4  -3   24.88    6.77
   4   4  -3   21.25    5.77
   4   4  -3   21.55    6.69
   4   4  -3   18.67    2.81
   4   4  -3   16.77    2.16
   4   4  -3   12.01    6.95
   4   4  -3   12.20    6.85
  -4  -4   3   17.24    6.19
  -4  -4   3   24.66    5.46
  -4  -4   3   15.56    7.99
  -4  -4   3   16.65    2.94
   3   4  -3 2069.41   99.61
   3   4  -3 1972.52   95.91
   3   4  -3 1979.96  100.79
   3   4  -3 2065.05  100.50
   3   4  -3 2005.88  101.65
   3   4  -3 1771.48   95.80
   3   4  -3 2022.24   99.50
  -3  -4   3 2086.09  101.45
  -3  -4   3 1980.71   98.25
  -3  -4   3 1921.29   97.24
  -3  -4   3 1957.66   99.18
   2   4  -3   12.26    3.92
   2   4  -3   12.57    4.71
   2   4  -3   16.33    5.30
   2   4  -3   12.61    4.69
   2   4  -3    5.22    4.80
   2   4  -3   10.58    0.90
   2   4  -3   11.08    0.99
  -2  -4   3    2.57    4.29
  -2  -4   3   21.44    3.92
  -2  -4   3   17.58    3.80
  -2  -4   3   12.08    3.07
  -2  -4   3    3.07    5.00
   1   4  -3 5599.82  267.86
   1   4  -3 5484.79  268.68
   1   4  -3 5517.79  264.72
   1   4  -3 5874.34  268.00
   1   4  -3 5516.73  268.21
  -1  -4   3 5521.73  267.38
  -1  -4   3 5267.53  266.24
  -1  -4   3 5074.24  268.57
  -1  -4   3 5228.01  265.51
   0   4  -3    2.08    2.43
   0   4  -3    2.49    3.40
   0   4  -3   -0.67    5.27
   0   4  -3    9.80    2.78
   0   4  -3    2.28    3.88
   0   4  -3    5.55    4.68
   0  -4   3    0.59    4.65
   0  -4   3    3.13    6.80
   0  -4   3   -3.37    3.85
   0  -4   3    3.22    3.18
  -1   4  -3 1715.49   96.91
  -1   4  -3 1847.30   97.57
  -1   4  -3 2088.28   99.05
  -1   4  -3 2059.58   97.17
  -1   4  -3 2030.91   98.56
   1  -4   3 1982.75   97.49
   1  -4   3 1912.42   96.58
   1  -4   3 1947.27   99.59
   1  -4   3 2054.36   98.28
   1  -4   3 1984.68   96.61
   1  -4   3 2030.76  101.80
  -2   4  -3   18.89    6.94
  -2   4  -3   12.34    5.71
  -2   4  -3   22.17    4.79
  -2   4  -3   21.45    4.67
  -2   4  -3   33.62    3.91
   2  -4   3   13.80    7.21
   2  -4   3   23.48    4.57
   2  -4   3   29.86    6.06
   2  -4   3   33.47    6.96
  -3   4  -3 1399.04   70.15
  -3   4  -3 1236.65   69.62
  -3   4  -3 1324.92   72.72
  -3   4  -3 1365.61   66.85
  -3   4  -3 1371.49   68.07
  -3   4  -3 1419.17   68.94
  -3   4  -3 1323.51   66.78
  -3   4  -3 1324.44   71.52
   3  -4   3 1510.30   70.22
   3  -4   3 1384.14   72.03
   3  -4   3 1403.94   73.25
   3  -4   3 1396.89   71.52
   3  -4   3 1348.77   70.46
  -4   4  -3    5.32    2.50
  -4   4  -3   -1.62    3.64
  -4   4  -3    6.77    5.08
  -4   4  -3    5.01    4.20
   4  -4   3   -1.75    3.50
   4  -4   3    7.92    5.89
   4  -4   3   10.58    6.14
   4  -4   3    2.73    5.87
   4  -4   3   10.18    8.14
  -5   4  -3 1232.57   66.04
  -5   4  -3 1304.69   68.32
  -5   4  -3 1229.74   66.84
  -5   4  -3 1240.56   63.36
   5  -4   3 1277.25   66.97
   5  -4   3 1246.62   67.51
   5  -4   3 1268.56   69.78
  -6   4  -3    0.28    8.04
  -6   4  -3    5.21    7.16
  -6   4  -3   -2.30    3.58
  -6   4  -3  -11.90    7.73
   6  -4   3   12.23   10.27
   6  -4   3    0.70    6.16
   6  -4   3    7.60    6.02
  -7   4  -3  507.40   30.18
  -7   4  -3  484.25   33.26
  -7   4  -3  611.63   37.07
  -7   4  -3  514.43   34.26
   7  -4   3  537.80   34.37
   7  -4   3  498.34   37.57
   7  -4   3  519.07   33.12
  -8   4  -3   11.14   12.64
  -8   4  -3    7.36    7.54
  -8   4  -3   24.24   12.13
   8  -4   3   -6.11   13.06
   8  -4   3   -4.64    8.46
   8  -4   3    7.55    7.45
  -9   4  -3  141.46   18.05
  -9   4  -3   89.60   23.61
   9  -4   3   74.88   21.94
   9  -4   3  159.96   20.46
 -10   4  -3   11.03   13.50
  10  -4   3   18.08   14.65
  10   3  -3  152.55   26.48
  10   3  -3  107.71   21.20
 -10  -3   3  106.63   25.30
   9   3  -3   21.60   14.99
   9   3  -3    3.88   12.84
  -9  -3   3   -3.88   11.52
  -9  -3   3    1.23   10.98
   8   3  -3  367.06   25.66
   8   3  -3  396.39   32.20
   8   3  -3  409.51   35.18
  -8  -3   3  348.15   33.05
  -8  -3   3  381.34   29.82
  -8  -3   3  425.14   37.29
   7   3  -3    5.22    7.34
   7   3  -3   15.48    9.95
   7   3  -3   27.93   12.66
   7   3  -3   13.11    6.49
  -7  -3   3   13.82   11.26
  -7  -3   3   27.59    9.19
  -7  -3   3   18.22    9.97
   6   3  -3  729.17   41.12
   6   3  -3  889.07   48.86
   6   3  -3  766.69   44.37
   6   3  -3  769.33   45.94
  -6  -3   3  798.57   44.09
  -6  -3   3  865.72   47.50
  -6  -3   3  774.47   47.58
  -6  -3   3  844.23   41.76
   5   3  -3   26.39    8.87
   5   3  -3    7.40    3.53
   5   3  -3   16.82    6.77
   5   3  -3   11.76    3.31
   5   3  -3   13.23    6.94
  -5  -3   3    8.55    5.75
  -5  -3   3   12.65    8.67
  -5  -3   3    8.36    7.35
  -5  -3   3    5.74    3.52
   4   3  -3 1602.65   86.45
   4   3  -3 1721.68   85.82
   4   3  -3 1606.09   81.51
   4   3  -3 1639.50   85.47
   4   3  -3 1814.15   85.79
   4   3  -3 1696.45   84.16
  -4  -3   3 1630.07   82.53
  -4  -3   3 1674.85   86.80
  -4  -3   3 1618.12   85.39
  -4  -3   3 1621.54   83.32
   3   3  -3   58.60    7.28
   3   3  -3   58.69    9.72
   3   3  -3   50.51    7.48
   3   3  -3   57.59    8.23
   3   3  -3   48.36    7.00
  -3  -3   3   42.46    5.30
  -3  -3   3   49.10    5.66
  -3  -3   3   49.55    7.90
  -3  -3   3   60.20    7.60
   2   3  -3 4474.96  225.40
   2   3  -3 4204.09  225.02
   2   3  -3 4478.41  225.36
   2   3  -3 4413.22  225.91
   2   3  -3 4930.60  224.99
  -2  -3   3 4613.65  223.09
  -2  -3   3 4814.58  224.48
  -2  -3   3 4627.88  225.56
   1   3  -3  408.15   25.96
   1   3  -3  476.43   25.46
   1   3  -3  445.02   25.16
   1   3  -3  463.16   25.34
   1   3  -3  466.33   25.65
  -1  -3   3  437.46   25.92
  -1  -3   3  445.04   23.20
  -1  -3   3  456.10   23.30
  -1  -3   3  445.53   23.94
  -1  -3   3  441.34   24.60
   0   3  -3 4439.85  204.51
   0   3  -3 3912.10  204.93
   0   3  -3 4019.92  205.62
   0   3  -3 3978.21  204.86
   0   3  -3 4355.43  202.65
   0   3  -3 4070.85  204.97
   0  -3   3 4236.71  205.45
   0  -3   3 4072.17  203.74
   0  -3   3 4455.32  203.93
   0  -3   3 4309.21  207.42
   0  -3   3 3992.42  203.66
  -1   3  -3   10.52    3.42
  -1   3  -3    9.39    2.81
  -1   3  -3    8.77    3.43
  -1   3  -3   10.13    4.97
  -1   3  -3   14.98    4.08
  -1   3  -3    7.76    3.02
  -1   3  -3   12.87    3.99
   1  -3   3   11.34    3.50
   1  -3   3    8.10    2.82
   1  -3   3   -0.50    1.56
   1  -3   3   15.00    5.66
   1  -3   3    8.52    3.43
   1  -3   3    7.44    4.38
  -2   3  -3 3437.93  165.16
  -2   3  -3 3298.85  164.72
  -2   3  -3 3331.16  167.44
  -2   3  -3 3332.25  164.68
  -2   3  -3 3381.74  164.24
   2  -3   3 3303.97  166.68
   2  -3   3 3333.18  165.88
   2  -3   3 3410.51  164.93
   2  -3   3 3351.24  167.68
   2  -3   3 3331.81  165.11
  -3   3  -3    3.44    4.00
  -3   3  -3    3.47    4.04
  -3   3  -3    2.52    1.31
  -3   3  -3    4.27    4.07
  -3   3  -3    6.61    4.32
   3  -3   3    4.46    4.10
   3  -3   3    8.02    4.06
   3  -3   3    3.33    2.86
   3  -3   3    2.83    4.46
   3  -3   3    8.61    4.26
   3  -3   3    5.79    6.39
  -4   3  -3 1319.00   70.02
  -4   3  -3 1281.39   66.29
  -4   3  -3 1404.52   69.72
  -4   3  -3 1501.22   69.14
  -4   3  -3 1234.34   70.76
   4  -3   3 1297.68   68.83
   4  -3   3 1387.72   71.82
   4  -3   3 1306.94   66.09
   4  -3   3 1226.09   68.81
   4  -3   3 1262.67   69.57
   4  -3   3 1506.18   69.39
  -5   3  -3   -7.67    4.28
  -5   3  -3    4.55    6.67
  -5   3  -3   -0.38    3.52
  -5   3  -3    3.07    4.21
   5  -3   3    0.46    6.13
   5  -3   3    3.04    2.13
   5  -3   3    5.80    6.42
   5  -3   3    3.85    6.03
  -6   3  -3  836.03   49.26
  -6   3  -3  846.76   49.38
  -6   3  -3  884.45   45.72
  -6   3  -3  825.56   47.69
   6  -3   3  890.92   51.02
   6  -3   3  905.38   48.13
   6  -3   3  795.74   48.00
  -7   3  -3   15.41    9.79
  -7   3  -3    0.74    6.45
  -7   3  -3    5.55    6.33
  -7   3  -3   24.09   11.19
   7  -3   3   16.29    9.54
   7  -3   3    3.27    8.26
   7  -3   3    8.86   10.92
  -8   3  -3  365.64   25.79
  -8   3  -3  396.98   33.93
  -8   3  -3  407.51   31.53
   8  -3   3  430.16   29.91
   8  -3   3  383.20   31.16
   8  -3   3  447.95   38.17
  -9   3  -3  -18.57    9.68
  -9   3  -3   14.62   11.14
   9  -3   3   -2.88   12.60
   9  -3   3    8.60    8.67
   9  -3   3   -3.85   11.77
 -10   3  -3  102.03   17.41
  10  -3   3  104.45   19.76
  10   2  -3   11.12   15.80
  10   2  -3   -4.09   14.91
 -10  -2   3   -8.22   11.50
   9   2  -3  199.73   26.19
   9   2  -3  197.63   24.18
  -9  -2   3  191.66   24.93
  -9  -2   3  210.27   23.13
   8   2  -3   14.49   10.08
   8   2  -3    9.76   11.61
  -8  -2   3   -6.13    8.56
  -8  -2   3  -13.73   10.67
  -8  -2   3    9.19   12.80
   7   2  -3  690.63   38.11
   7   2  -3  680.86   41.56
   7   2  -3  653.25   42.77
   7   2  -3  651.78   36.14
  -7  -2   3  624.31   43.24
  -7  -2   3  651.03   41.61
  -7  -2   3  668.83   39.16
  -7  -2   3  697.00   37.39
   6   2  -3   -7.91    5.76
   6   2  -3   -3.22    3.87
   6   2  -3    2.09    8.17
   6   2  -3    2.89    5.57
  -6  -2   3    0.72    6.60
  -6  -2   3   -3.69    5.62
  -6  -2   3   16.40    5.56
  -6  -2   3   -2.40    6.23
   5   2  -3 1890.34   95.07
   5   2  -3 1970.62   96.47
   5   2  -3 1758.55   90.76
   5   2  -3 1864.32   91.19
   5   2  -3 1792.18   93.33
  -5  -2   3 1902.51   95.86
  -5  -2   3 1833.94   96.37
  -5  -2   3 1723.14   92.16
  -5  -2   3 1860.42   92.80
   4   2  -3   -1.75    3.72
   4   2  -3    8.21    2.55
   4   2  -3   13.23    6.19
   4   2  -3    5.36    3.88
   4   2  -3    7.10    2.94
   4   2  -3    1.62    6.11
   4   2  -3    4.47    3.69
  -4  -2   3   12.59    5.85
  -4  -2   3    3.04    3.87
  -4  -2   3   -2.54    3.36
  -4  -2   3    9.73    5.92
   3   2  -3 1523.83   76.88
   3   2  -3 1439.98   75.96
   3   2  -3 1580.72   75.78
   3   2  -3 1490.85   75.92
   3   2  -3 1434.71   75.04
   3   2  -3 1474.30   75.01
  -3  -2   3 1387.42   74.39
  -3  -2   3 1504.06   75.99
  -3  -2   3 1544.92   76.85
  -3  -2   3 1477.78   73.73
   2   2  -3   -1.34    3.37
   2   2  -3   -2.94    4.32
   2   2  -3    1.47    3.69
   2   2  -3    5.86    3.35
   2   2  -3    3.85    4.01
   2   2  -3   -0.11    2.81
  -2  -2   3   -0.62    2.05
  -2  -2   3    7.64    3.21
  -2  -2   3   -1.85    2.10
  -2  -2   3   -0.93    2.92
  -2  -2   3   -1.25    1.78
   1   2  -3 3263.63  161.12
   1   2  -3 3635.89  161.73
   1   2  -3 3279.37  160.79
   1   2  -3 3036.71  160.32
   1   2  -3 3102.57  160.55
   1   2  -3 3221.15  160.71
   1   2  -3 3233.98  160.20
  -1  -2   3 3353.76  160.35
  -1  -2   3 3288.72  158.35
  -1  -2   3 3218.60  158.28
   0   2  -3   38.67    5.66
   0   2  -3   36.57    4.36
   0   2  -3   52.16    7.41
   0   2  -3   42.07    5.13
   0   2  -3   27.54    4.86
   0   2  -3   37.06    5.52
   0  -2   3   27.02    4.88
   0  -2   3   39.36    5.94
   0  -2   3   42.82    3.25
   0  -2   3   56.66    7.50
   0  -2   3   38.63    3.64
  -1   2  -3 4050.19  199.12
  -1   2  -3 3873.41  200.16
  -1   2  -3 4147.70  199.97
  -1   2  -3 4034.72  201.88
  -1   2  -3 3930.78  200.67
  -1   2  -3 4071.09  199.32
  -1   2  -3 4135.90  200.42
  -1   2  -3 4392.60  200.17
   1  -2   3 4026.81  199.39
   1  -2   3 4487.84  199.51
   1  -2   3 3692.92  199.80
   1  -2   3 4223.28  200.19
   1  -2   3 3765.42  201.66
   1  -2   3 4372.73  199.60
  -2   2  -3  120.11    8.58
  -2   2  -3  125.16   11.55
  -2   2  -3  118.31    9.22
  -2   2  -3  119.12   10.11
  -2   2  -3  116.89    8.42
  -2   2  -3  128.00    9.19
  -2   2  -3  140.82    8.80
   2  -2   3  144.55    9.14
   2  -2   3  111.92    8.58
   2  -2   3  114.10    7.15
   2  -2   3  129.75    8.42
   2  -2   3  124.87    9.59
   2  -2   3  133.00   12.97
   2  -2   3  108.36   10.58
  -3   2  -3 2660.54  126.00
  -3   2  -3 2358.14  124.17
  -3   2  -3 2365.78  121.83
  -3   2  -3 2389.08  123.38
   3  -2   3 2419.84  121.02
   3  -2   3 2658.20  126.29
   3  -2   3 2563.98  123.41
   3  -2   3 2384.93  123.63
   3  -2   3 2764.34  124.56
   3  -2   3 2420.18  124.87
   3  -2   3 2494.66  122.44
  -4   2  -3   10.29    6.08
  -4   2  -3   12.44    5.42
  -4   2  -3    8.51    3.61
  -4   2  -3    8.98    5.02
  -4   2  -3    7.21    4.76
   4  -2   3   16.15    5.41
   4  -2   3    5.32    5.15
   4  -2   3   19.53    6.04
   4  -2   3   13.75    3.20
   4  -2   3    8.47    6.91
  -5   2  -3 1182.03   68.95
  -5   2  -3 1207.58   68.00
  -5   2  -3 1339.54   67.00
  -5   2  -3 1334.99   69.54
   5  -2   3 1373.80   68.87
   5  -2   3 1255.36   64.98
   5  -2   3 1469.91   71.84
   5  -2   3 1378.93   69.64
  -6   2  -3   24.02    6.77
  -6   2  -3   28.45    9.50
  -6   2  -3   19.49    6.23
  -6   2  -3   28.46    8.92
   6  -2   3   26.00    8.71
   6  -2   3   39.22   11.89
   6  -2   3   17.92    6.35
  -7   2  -3  658.58   38.43
  -7   2  -3  688.60   41.63
  -7   2  -3  694.52   39.68
   7  -2   3  689.21   44.31
   7  -2   3  635.20   40.18
   7  -2   3  671.76   40.22
  -8   2  -3   14.02   10.25
  -8   2  -3   -7.57   10.37
  -8   2  -3    3.42    6.82
   8  -2   3  -13.23    9.25
   8  -2   3    6.91    7.42
   8  -2   3   10.87   13.54
  -9   2  -3  212.80   21.70
  -9   2  -3  245.84   24.06
  -9   2  -3  240.98   27.69
   9  -2   3  245.25   27.13
   9  -2   3  247.22   29.00
   9  -2   3  279.26   26.50
 -10   2  -3   23.84   14.07
  10  -2   3   19.68   13.69
 -11   2  -3   50.17   19.09
  11  -2   3   64.91   18.49
  11  -2   3   39.47   17.85
  10   1  -3  171.30   26.67
  10   1  -3  156.33   24.31
 -10  -1   3  162.52   22.75
 -10  -1   3  169.25   27.09
   9   1  -3    3.87   13.38
   9   1  -3   -1.91   12.36
  -9  -1   3    5.06   11.39
  -9  -1   3    5.67   13.99
   8   1  -3  454.85   35.25
   8   1  -3  430.27   35.78
   8   1  -3  410.32   26.38
  -8  -1   3  432.66   32.67
  -8  -1   3  511.09   39.79
  -8  -1   3  465.40   30.70
   7   1  -3    6.52    7.85
   7   1  -3   -3.24    4.22
   7   1  -3    1.61    9.47
   7   1  -3    8.24    5.58
  -7  -1   3   -4.95   10.21
  -7  -1   3    2.86    6.06
  -7  -1   3   -1.70    6.94
  -7  -1   3    1.32    7.68
   6   1  -3  931.46   46.95
   6   1  -3  940.92   51.04
   6   1  -3  787.25   50.26
   6   1  -3  889.91   47.50
   6   1  -3  848.01   48.08
  -6  -1   3  963.77   52.81
  -6  -1   3  821.56   48.14
  -6  -1   3  908.00   52.18
  -6  -1   3  948.44   48.62
   5   1  -3   -0.68    6.66
   5   1  -3   11.91    5.71
   5   1  -3   -1.21    3.99
   5   1  -3    3.34    4.11
   5   1  -3   16.23    6.62
   5   1  -3    2.48    4.32
  -5  -1   3   21.40    5.83
  -5  -1   3   16.40    5.50
  -5  -1   3    7.49    7.96
  -5  -1   3    0.30    4.94
   4   1  -3 2084.16  100.75
   4   1  -3 2021.21  102.13
   4   1  -3 1956.30  102.32
   4   1  -3 1985.77  100.69
   4   1  -3 2050.90   99.06
   4   1  -3 1914.96  102.38
   4   1  -3 1978.17   98.87
  -4  -1   3 2018.99  102.93
  -4  -1   3 2019.77  100.08
  -4  -1   3 1984.49  100.95
  -4  -1   3 2034.41  102.82
   3   1  -3    5.83    2.06
   3   1  -3    5.67    3.41
   3   1  -3   22.17    5.99
   3   1  -3    4.88    3.68
   3   1  -3    2.19    1.32
   3   1  -3   12.36    4.45
   3   1  -3   15.15    4.84
  -3  -1   3    7.76    5.16
  -3  -1   3    7.35    3.09
  -3  -1   3    0.68    3.45
   2   1  -3 4784.67  230.78
   2   1  -3 4524.92  231.40
   2   1  -3 4720.54  230.65
   2   1  -3 4798.57  231.62
   2   1  -3 5024.41  230.89
   2   1  -3 4504.05  231.04
  -2  -1   3 4515.63  229.05
  -2  -1   3 4877.76  229.11
  -2  -1   3 4451.19  230.73
  -2  -1   3 4902.25  231.65
   1   1  -3  116.48    9.12
   1   1  -3   97.79    7.96
   1   1  -3  106.01    8.67
   1   1  -3  106.16    9.33
   1   1  -3  104.19    8.50
   1   1  -3   94.81    8.87
   1   1  -3  105.92    8.78
  -1  -1   3  103.45    9.12
   0   1  -3 2121.16  112.08
   0   1  -3 2370.72  112.38
   0   1  -3 2266.84  112.06
   0   1  -3 2308.32  112.73
   0   1  -3 2143.02  111.96
   0   1  -3 2362.49  112.67
   0   1  -3 2246.17  111.63
   0  -1   3 2295.06  112.19
   0  -1   3 2245.81  112.45
   0  -1   3 2198.20  111.92
   0  -1   3 2351.01  112.33
   0  -1   3 2287.24  112.99
   0  -1   3 2203.11  112.55
   0  -1   3 2306.36  112.08
   0  -1   3 2385.81  111.67
  -1   1  -3  560.08   29.97
  -1   1  -3  611.04   28.95
  -1   1  -3  577.29   28.90
  -1   1  -3  590.75   29.86
  -1   1  -3  546.34   30.32
  -1   1  -3  508.04   28.84
  -1   1  -3  581.24   29.88
  -1   1  -3  573.23   31.00
   1  -1   3  535.94   28.85
   1  -1   3  579.24   29.82
   1  -1   3  571.21   30.84
   1  -1   3  541.23   28.93
   1  -1   3  592.28   29.02
   1  -1   3  601.77   29.14
   1  -1   3  583.57   29.80
   1  -1   3  590.11   30.69
   1  -1   3  621.20   29.08
  -2   1  -3 3529.26  168.27
  -2   1  -3 3398.73  165.06
  -2   1  -3 3333.64  165.68
  -2   1  -3 3234.02  166.28
  -2   1  -3 3629.28  165.83
  -2   1  -3 3432.05  166.36
  -2   1  -3 3365.86  166.27
   2  -1   3 3366.95  167.73
   2  -1   3 3327.40  166.47
   2  -1   3 3303.99  165.52
   2  -1   3 3359.53  167.22
   2  -1   3 3470.20  165.66
   2  -1   3 3415.55  166.36
   2  -1   3 3358.02  168.22
   2  -1   3 3405.57  165.09
  -3   1  -3    7.95    3.12
  -3   1  -3    5.52    2.58
  -3   1  -3    4.42    5.02
  -3   1  -3    7.01    3.73
  -3   1  -3    8.25    3.09
  -3   1  -3    6.79    3.48
   3  -1   3    9.88    3.65
   3  -1   3   14.98    4.58
   3  -1   3    5.25    4.27
   3  -1   3    7.17    4.65
   3  -1   3    7.97    2.94
  -4   1  -3 2963.87  134.61
  -4   1  -3 2605.24  135.05
  -4   1  -3 2814.26  137.52
  -4   1  -3 2547.13  136.08
   4  -1   3 2852.50  137.86
   4  -1   3 2559.91  136.17
   4  -1   3 2716.33  136.18
   4  -1   3 2652.83  135.32
  -5   1  -3   16.91    5.01
  -5   1  -3    0.90    6.20
  -5   1  -3   15.68    5.43
   5  -1   3    4.94    4.54
   5  -1   3   25.30    8.57
   5  -1   3   24.68    6.54
  -6   1  -3  955.05   49.31
  -6   1  -3  877.82   48.02
  -6   1  -3  915.09   50.39
   6  -1   3  858.84   50.13
   6  -1   3  875.76   48.58
   6  -1   3  830.47   51.63
  -7   1  -3    5.26    9.69
  -7   1  -3    7.52    7.36
  -7   1  -3    4.43    7.98
   7  -1   3    0.81    7.65
   7  -1   3    4.86    8.83
   7  -1   3    5.08    6.22
  -8   1  -3  291.17   25.89
  -8   1  -3  387.28   28.89
  -8   1  -3  343.44   29.58
   8  -1   3  297.22   25.26
   8  -1   3  354.95   33.10
   8  -1   3  288.00   26.91
  -9   1  -3   24.01    9.54
  -9   1  -3   15.48   13.46
  -9   1  -3   13.65   10.81
   9  -1   3  -15.54   10.52
   9  -1   3   -8.14    9.09
 -10   1  -3  158.09   21.34
 -10   1  -3  197.01   23.36
  10  -1   3  124.71   23.42
  10  -1   3  166.37   21.35
  10  -1   3  123.64   19.76
 -11   1  -3   -4.26   10.15
  10   0  -3   -2.62   11.57
  10   0  -3   12.73   15.57
 -10   0   3   -9.26   10.81
 -10   0   3   -4.91   13.40
   9   0  -3  193.12   22.95
   9   0  -3  212.96   24.72
  -9   0   3  253.44   25.03
  -9   0   3  236.45   28.30
   8   0  -3    9.18    6.97
   8   0  -3   -2.37    8.44
   8   0  -3   18.54   11.79
  -8   0   3   19.27   13.60
  -8   0   3   13.67    9.97
  -8   0   3   -3.40    8.80
  -8   0   3   -7.66   10.85
   7   0  -3  764.43   42.50
   7   0  -3  740.92   41.69
   7   0  -3  637.53   37.47
  -7   0   3  588.70   41.82
  -7   0   3  630.16   41.72
  -7   0   3  654.86   38.93
  -7   0   3  651.47   39.13
   6   0  -3    2.37    7.85
   6   0  -3   -5.88    3.45
   6   0  -3   -1.32    5.64
   6   0  -3   -2.00    7.85
  -6   0   3   -3.15    5.88
  -6   0   3   -5.20    5.44
  -6   0   3   -4.60    5.63
  -6   0   3  -11.08    8.24
   5   0  -3 1599.84   82.02
   5   0  -3 1695.31   80.02
   5   0  -3 1489.08   78.60
   5   0  -3 1613.03   81.93
   5   0  -3 1600.69   78.71
  -5   0   3 1645.26   83.22
  -5   0   3 1544.42   80.89
  -5   0   3 1459.15   81.66
  -5   0   3 1449.54   79.45
   4   0  -3    1.77    4.17
   4   0  -3   -7.48    5.10
   4   0  -3    1.49    3.13
   4   0  -3   -1.39    3.13
   4   0  -3   -6.33    3.25
   4   0  -3   -0.02    5.49
   4   0  -3    2.46    3.42
  -4   0   3    3.87    4.53
  -4   0   3   10.05    5.08
  -4   0   3    0.94    3.59
  -4   0   3   -4.90    4.60
   3   0  -3 2892.90  147.46
   3   0  -3 3044.94  148.66
   3   0  -3 3024.79  149.20
   3   0  -3 3034.48  147.19
   3   0  -3 3191.33  148.67
   3   0  -3 2958.29  146.11
   3   0  -3 2933.19  146.10
  -3   0   3 2894.88  148.25
  -3   0   3 2806.05  148.19
  -3   0   3 2976.21  149.27
  -3   0   3 3201.37  146.93
  -3   0   3 2900.28  146.85
   2   0  -3   -0.02    1.42
   2   0  -3   -0.17    1.59
   2   0  -3   -4.91    4.37
   2   0  -3    3.11    3.31
   2   0  -3    0.68    2.70
   2   0  -3   -0.91    2.80
   2   0  -3    6.32    4.74
   2   0  -3    4.11    3.25
  -2   0   3    0.54    2.78
  -2   0   3    1.81    2.16
  -2   0   3    1.49    3.60
  -2   0   3    5.59    2.55
   1   0  -3 7952.62  383.18
   1   0  -3 7337.70  383.51
   1   0  -3 7631.71  383.24
   1   0  -3 8160.12  383.11
   1   0  -3 8059.14  382.98
   1   0  -3 8156.88  383.57
  -1   0   3 7741.47  383.61
  -1   0   3 7639.95  382.96
  -1   0   3 7969.44  384.55
  -1   0   3 7936.86  383.28
  -1   0   3 7749.96  384.02
  -1   0   3 8061.54  382.68
   0   0  -3    4.71    2.67
   0   0  -3    4.56    3.01
   0   0  -3    1.08    0.55
   0   0  -3    1.87    0.82
   0   0  -3    4.21    3.39
   0   0  -3   -0.25    2.59
   0   0  -3    0.66    2.22
   0   0  -3    3.19    2.61
   0   0  -3    0.05    2.32
   0   0   3    4.34    2.57
   0   0   3    5.19    2.65
   0   0   3    6.28    1.63
   0   0   3   -3.12    2.05
   0   0   3    3.58    2.22
   0   0   3    4.51    2.74
   0   0   3    0.65    2.15
   0   0   3    3.79    2.58
   0   0   3    0.32    1.73
   0   0   3    2.41    1.87
   0   0   3    1.37    2.25
  -1   0  -3 4619.22  218.60
  -1   0  -3 4702.83  219.72
  -1   0  -3 4426.57  218.44
  -1   0  -3 4485.98  218.49
  -1   0  -3 4378.61  218.83
  -1   0  -3 4424.57  219.14
  -1   0  -3 4216.85  219.27
  -1   0  -3 4386.53  219.60
   1   0   3 4828.86  218.70
   1   0   3 4651.64  218.67
   1   0   3 4320.21  218.78
   1   0   3 4409.36  219.55
   1   0   3 4459.99  219.11
   1   0   3 4376.55  218.44
   1   0   3 4628.54  219.79
  -2   0  -3    3.73    2.58
  -2   0  -3    2.46    2.40
  -2   0  -3    2.06    2.80
  -2   0  -3   -3.26    4.18
  -2   0  -3    3.07    3.35
  -2   0  -3   -1.42    1.50
   2   0   3    3.79    3.61
   2   0   3   -0.08    2.98
   2   0   3    3.75    2.18
   2   0   3    0.41    2.56
   2   0   3    3.78    3.45
   2   0   3   -0.76    3.40
  -3   0  -3 3538.44  178.22
  -3   0  -3 3688.35  176.86
  -3   0  -3 3721.18  180.28
  -3   0  -3 3234.81  179.13
  -3   0  -3 3611.29  178.47
   3   0   3 3604.16  178.54
   3   0   3 3715.26  180.27
   3   0   3 3591.23  179.76
   3   0   3 3961.98  179.76
  -4   0  -3   -0.86    3.67
  -4   0  -3    7.31    3.81
  -4   0  -3    1.93    1.81
  -4   0  -3    5.03    4.07
  -4   0  -3    3.56    1.27
  -4   0  -3    7.46    4.86
   4   0   3    9.39    4.31
   4   0   3    0.75    3.40
   4   0   3    5.91    5.10
   4   0   3    6.51    5.04
  -5   0  -3 1449.42   73.05
  -5   0  -3 1387.55   74.45
  -5   0  -3 1369.87   69.39
  -5   0  -3 1438.84   69.05
  -5   0  -3 1394.60   73.10
   5   0   3 1545.26   73.68
   5   0   3 1397.21   75.47
   5   0   3 1328.95   74.18
  -6   0  -3   -3.34    6.50
  -6   0  -3    1.31    1.59
  -6   0  -3    0.06    5.51
  -6   0  -3    7.72    6.24
   6   0   3    4.57    9.94
   6   0   3   -1.10    4.50
   6   0   3    4.33    5.91
  -7   0  -3  635.85   37.70
  -7   0  -3  583.54   36.79
  -7   0  -3  626.90   39.08
   7   0   3  653.53   37.96
   7   0   3  644.09   39.92
   7   0   3  616.73   41.75
  -8   0  -3   -5.31    6.28
  -8   0  -3   -4.34    8.18
  -8   0  -3   11.62   11.67
   8   0   3  -22.77    9.49
   8   0   3    2.30    9.01
  -9   0  -3  182.74   21.31
  -9   0  -3  162.64   19.80
  -9   0  -3  215.24   24.35
   9   0   3  214.30   21.10
   9   0   3  225.83   24.34
 -10   0  -3    1.51   11.81
 -10   0  -3   11.86   12.81
  10   0   3  -14.10   12.51
  10   0   3   -2.96   14.02
 -11   0  -3   77.33   19.66
 -11   0  -3  102.59   21.70
  11   0   3   40.70   16.54
  10  -1  -3  140.40   23.91
  10  -1  -3  154.50   24.36
 -10   1   3  168.55   26.74
 -10   1   3  137.42   22.47
   9  -1  -3   12.59   13.51
   9  -1  -3    7.85   13.91
  -9   1   3   -1.92   12.95
  -9   1   3   13.83   11.03
  -9   1   3    0.08   10.42
   8  -1  -3  455.06   32.58
   8  -1  -3  507.02   34.43
   8  -1  -3  449.62   28.56
  -8   1   3  422.97   31.12
  -8   1   3  480.18   33.96
  -8   1   3  409.63   36.65
  -8   1   3  513.49   32.76
   7  -1  -3   17.13   10.40
   7  -1  -3    4.93    6.29
   7  -1  -3    2.63    7.02
   7  -1  -3   35.70   12.30
  -7   1   3   -5.95    7.57
  -7   1   3    3.54    6.01
  -7   1   3    5.39   10.50
  -7   1   3    3.11   10.16
   6  -1  -3  862.22   47.24
   6  -1  -3  945.48   47.90
   6  -1  -3  899.70   50.31
   6  -1  -3  840.16   49.53
  -6   1   3  907.65   51.71
  -6   1   3  865.61   49.88
  -6   1   3  874.90   48.59
   5  -1  -3    0.42    4.79
   5  -1  -3   13.29    7.30
   5  -1  -3    1.20    5.35
   5  -1  -3    9.67    4.61
  -5   1   3   12.52    6.06
  -5   1   3   10.33    6.51
  -5   1   3    9.04    6.95
  -5   1   3   10.33    6.31
   4  -1  -3 1977.31  102.14
   4  -1  -3 1997.28  100.06
   4  -1  -3 2083.48  101.96
   4  -1  -3 2046.06  100.79
  -4   1   3 1959.28   99.08
  -4   1   3 2140.62  102.80
  -4   1   3 2085.10  101.83
  -4   1   3 1895.18  100.52
  -4   1   3 1898.28  102.94
   3  -1  -3   14.38    4.42
   3  -1  -3   12.93    4.86
   3  -1  -3   14.10    4.95
   3  -1  -3    6.86    3.17
   3  -1  -3   10.84    3.31
  -3   1   3   16.20    3.90
  -3   1   3   18.06    5.38
  -3   1   3   14.07    4.72
  -3   1   3   12.53    2.43
  -3   1   3   16.80    4.85
  -3   1   3    7.24    3.33
   2  -1  -3 4796.62  226.78
   2  -1  -3 4385.30  226.92
   2  -1  -3 4623.29  225.88
   2  -1  -3 4388.55  226.64
   2  -1  -3 4553.02  225.73
  -2   1   3 4577.33  228.22
  -2   1   3 4851.96  226.37
  -2   1   3 4516.32  226.19
  -2   1   3 4590.82  225.65
  -2   1   3 4831.12  228.17
  -2   1   3 4810.57  226.18
   1  -1  -3  102.15    6.90
   1  -1  -3  109.94    8.45
   1  -1  -3  113.72    9.36
   1  -1  -3  112.88    8.66
   1  -1  -3  115.42    9.07
   1  -1  -3   91.39    6.73
  -1   1   3  116.87    9.92
  -1   1   3  100.29    7.38
  -1   1   3  103.32    8.08
  -1   1   3  114.19    7.30
  -1   1   3  122.33    9.86
  -1   1   3  117.05   10.55
  -1   1   3  120.41    8.09
  -1   1   3  110.21    6.38
   0  -1  -3 2263.99  114.01
   0  -1  -3 2568.72  115.09
   0  -1  -3 2405.69  114.04
   0  -1  -3 2311.90  113.89
   0  -1  -3 2317.05  113.69
   0  -1  -3 2454.30  114.30
   0  -1  -3 2178.50  114.39
   0  -1  -3 2400.45  113.43
   0   1   3 2148.55  113.83
   0   1   3 2414.35  114.15
   0   1   3 2321.05  113.31
   0   1   3 2366.16  114.56
   0   1   3 2276.33  115.16
   0   1   3 2320.86  114.08
   0   1   3 2064.94  114.04
   0   1   3 2360.56  114.22
  -1  -1  -3  573.29   29.43
  -1  -1  -3  572.88   30.40
  -1  -1  -3  523.32   29.58
  -1  -1  -3  565.11   30.08
  -1  -1  -3  588.65   29.55
  -1  -1  -3  603.65   28.33
  -1  -1  -3  608.93   29.34
  -1  -1  -3  527.65   28.70
   1   1   3  589.19   28.78
   1   1   3  551.75   30.23
   1   1   3  545.13   28.20
   1   1   3  570.79   29.40
   1   1   3  531.60   29.49
   1   1   3  588.25   30.27
   1   1   3  614.67   29.55
  -2  -1  -3 3312.73  162.07
  -2  -1  -3 3299.27  161.56
  -2  -1  -3 3363.16  160.52
  -2  -1  -3 3085.69  162.24
   2   1   3 3366.25  160.38
   2   1   3 3497.16  162.62
   2   1   3 3108.23  162.15
   2   1   3 3260.40  162.57
  -3  -1  -3   11.83    3.74
  -3  -1  -3    7.47    3.43
  -3  -1  -3    7.61    5.37
  -3  -1  -3   16.59    6.10
   3   1   3   14.02    4.39
   3   1   3    4.49    5.68
   3   1   3   10.93    3.90
   3   1   3   12.53    5.27
  -4  -1  -3 2462.47  136.52
  -4  -1  -3 2848.48  139.14
  -4  -1  -3 2571.12  136.98
  -4  -1  -3 2656.29  137.77
   4   1   3 2876.72  137.98
   4   1   3 3057.20  137.37
   4   1   3 2728.18  138.35
   4   1   3 2827.14  139.09
  -5  -1  -3    7.05    5.99
  -5  -1  -3   10.80    3.04
  -5  -1  -3   20.40    7.21
  -5  -1  -3   15.55    5.20
   5   1   3   12.18    6.20
   5   1   3    6.44    6.17
   5   1   3   14.58    6.03
  -6  -1  -3  880.76   50.88
  -6  -1  -3  913.47   50.21
  -6  -1  -3  980.50   52.24
   6   1   3  934.05   52.85
   6   1   3  896.66   50.35
  -7  -1  -3    5.07    7.18
  -7  -1  -3   -2.15    7.13
  -7  -1  -3   -4.08    5.64
   7   1   3   -5.15   10.15
   7   1   3   -0.02    6.74
  -8  -1  -3  336.78   30.40
  -8  -1  -3  330.04   27.57
  -8  -1  -3  335.83   25.09
   8   1   3  328.41   22.98
   8   1   3  334.49   30.57
  -9  -1  -3    6.07   10.45
  -9  -1  -3   12.86   11.85
  -9  -1  -3   -6.78    8.97
   9   1   3   -1.59    8.48
   9   1   3   -3.49   11.51
   9   1   3   -7.86    9.37
 -10  -1  -3  176.33   23.32
 -10  -1  -3  150.31   21.97
  10   1   3  153.05   19.13
  10   1   3  161.70   24.98
 -11  -1  -3    7.07   15.23
 -11  -1  -3   -4.93   15.81
  11   1   3    3.89   13.71
  10  -2  -3   17.95   17.60
  10  -2  -3   22.51   16.70
 -10   2   3   -7.86   13.35
 -10   2   3   16.11   18.81
   9  -2  -3  210.16   26.67
   9  -2  -3  203.67   23.43
   9  -2  -3  191.31   20.56
  -9   2   3  191.25   23.79
  -9   2   3  213.88   23.70
  -9   2   3  194.26   25.89
   8  -2  -3   -4.74    7.52
   8  -2  -3   -1.72   10.65
   8  -2  -3    8.74    9.27
   8  -2  -3   19.31   13.79
  -8   2   3    5.35   13.54
  -8   2   3   -2.01   10.28
  -8   2   3   -7.61    9.29
  -8   2   3    9.93   10.08
   7  -2  -3  731.47   42.30
   7  -2  -3  690.78   39.28
   7  -2  -3  672.72   38.54
   7  -2  -3  641.26   41.87
  -7   2   3  757.98   43.36
  -7   2   3  620.42   42.88
  -7   2   3  672.42   40.89
   6  -2  -3    3.62    5.67
   6  -2  -3   -0.41    5.67
   6  -2  -3   -0.87    6.97
  -6   2   3  -11.79    7.32
  -6   2   3   -7.52    6.34
  -6   2   3    7.99    9.38
   5  -2  -3 1850.51   93.59
   5  -2  -3 1924.29   93.72
  -5   2   3 1743.87   94.66
  -5   2   3 2019.33   97.13
  -5   2   3 1827.82   94.37
  -5   2   3 1886.04   97.31
  -5   2   3 1755.44   90.92
   4  -2  -3    3.32    4.82
   4  -2  -3    2.05    3.91
   4  -2  -3    4.37    4.67
  -4   2   3   10.15    5.09
  -4   2   3    0.78    4.26
  -4   2   3    3.81    2.78
  -4   2   3    6.23    5.23
  -4   2   3    7.75    5.09
   3  -2  -3 1593.92   75.05
   3  -2  -3 1434.30   75.13
   3  -2  -3 1536.16   75.17
   3  -2  -3 1381.05   76.75
  -3   2   3 1604.17   75.66
  -3   2   3 1514.73   73.99
  -3   2   3 1393.98   76.81
  -3   2   3 1456.10   77.13
  -3   2   3 1445.67   74.76
   2  -2  -3    5.29    3.14
   2  -2  -3   -4.31    2.83
   2  -2  -3    8.76    4.21
   2  -2  -3   -1.68    3.18
   2  -2  -3    3.63    2.82
  -2   2   3    4.97    3.97
  -2   2   3    2.72    2.40
  -2   2   3    0.87    2.33
  -2   2   3   -1.46    3.82
  -2   2   3    9.46    4.22
   1  -2  -3 3360.78  163.35
   1  -2  -3 3449.68  162.31
   1  -2  -3 3467.78  161.42
   1  -2  -3 3378.39  162.25
   1  -2  -3 3263.83  162.50
   1  -2  -3 3447.08  160.89
  -1   2   3 3096.37  163.50
  -1   2   3 3155.45  162.24
  -1   2   3 3366.26  163.85
  -1   2   3 3138.59  160.86
  -1   2   3 3212.65  162.45
   0  -2  -3   33.10    4.44
   0  -2  -3   56.72    6.48
   0  -2  -3   44.19    4.93
   0  -2  -3   42.12    3.48
   0  -2  -3   29.42    4.73
   0   2   3   38.19    3.89
   0   2   3   47.93    6.31
   0   2   3   43.92    4.96
   0   2   3   45.76    5.88
   0   2   3   44.41    4.98
   0   2   3   42.49    7.01
  -1  -2  -3 4180.49  200.75
  -1  -2  -3 3918.71  200.73
  -1  -2  -3 4532.45  200.21
  -1  -2  -3 4146.74  201.14
  -1  -2  -3 4152.14  202.07
   1   2   3 3993.40  200.92
   1   2   3 4042.33  200.78
   1   2   3 3831.72  201.29
  -2  -2  -3  124.47   10.93
  -2  -2  -3  118.32    8.85
  -2  -2  -3  134.23   10.61
  -2  -2  -3  120.22   10.99
   2   2   3  113.74   10.64
   2   2   3  142.04   10.42
   2   2   3  137.93   12.26
  -3  -2  -3 2574.76  130.45
  -3  -2  -3 2653.21  129.21
  -3  -2  -3 2544.71  128.42
  -3  -2  -3 2554.83  129.79
   3   2   3 2587.81  126.53
   3   2   3 2574.97  130.63
   3   2   3 2801.11  126.55
   3   2   3 2520.26  129.00
   3   2   3 2506.24  129.58
  -4  -2  -3    4.16    6.09
  -4  -2  -3   24.20    5.77
  -4  -2  -3   14.31    6.02
  -4  -2  -3    7.17    4.15
   4   2   3   20.97    5.67
   4   2   3    8.62    3.04
   4   2   3   17.12    8.19
   4   2   3    8.09    4.33
  -5  -2  -3 1256.43   69.06
  -5  -2  -3 1216.56   68.64
  -5  -2  -3 1354.61   68.13
   5   2   3 1263.28   69.97
   5   2   3 1356.29   65.72
   5   2   3 1342.60   68.25
  -6  -2  -3   26.63    9.38
  -6  -2  -3    7.88    8.73
  -6  -2  -3   45.70    9.15
   6   2   3   21.88   10.40
   6   2   3   24.34    6.08
   6   2   3   10.13    5.55
  -7  -2  -3  660.18   42.41
  -7  -2  -3  666.54   39.93
  -7  -2  -3  702.85   42.19
   7   2   3  714.79   44.27
   7   2   3  647.17   40.07
   7   2   3  695.99   38.05
  -8  -2  -3   -0.74   10.93
  -8  -2  -3   -0.73   10.54
  -8  -2  -3   17.26   10.04
   8   2   3    4.10    9.67
   8   2   3    4.70    8.79
   8   2   3   -5.69    7.44
  -9  -2  -3  195.35   24.12
  -9  -2  -3  219.41   23.29
  -9  -2  -3  225.03   23.96
   9   2   3  215.24   25.73
   9   2   3  209.19   22.49
 -10  -2  -3    9.68   10.69
 -10  -2  -3  -14.01   11.97
  10   2   3    8.05   11.90
  10   2   3   -1.35   15.01
 -11  -2  -3   51.75   18.81
 -11  -2  -3   69.13   21.40
  11   2   3   54.57   17.40
  11   2   3   57.31   21.75
  10  -3  -3  158.95   24.84
  10  -3  -3  146.06   26.37
 -10   3   3  144.18   23.35
 -10   3   3  139.99   25.87
 -10   3   3  152.44   24.44
   9  -3  -3    7.58   10.59
   9  -3  -3   14.88   16.08
   9  -3  -3    3.08   12.83
  -9   3   3  -12.85   13.97
  -9   3   3    6.00   12.54
  -9   3   3    0.88   11.97
   8  -3  -3  432.97   34.52
   8  -3  -3  371.10   33.34
   8  -3  -3  382.89   26.97
   8  -3  -3  373.26   31.40
  -8   3   3  449.63   33.38
  -8   3   3  415.88   36.47
  -8   3   3  330.66   32.31
  -8   3   3  371.17   33.84
   7  -3  -3    9.83    8.26
   7  -3  -3   30.25   10.62
   7  -3  -3   20.61    7.91
  -7   3   3   16.83   11.33
  -7   3   3   10.87    9.29
  -7   3   3    8.63    8.83
   6  -3  -3  775.92   44.57
   6  -3  -3  866.03   44.29
  -6   3   3  831.60   49.13
  -6   3   3  793.06   45.89
  -6   3   3  748.27   47.00
   5  -3  -3    3.33    5.50
   5  -3  -3   16.65    5.57
  -5   3   3   14.16    7.00
  -5   3   3   17.79    7.30
  -5   3   3   17.13    8.95
  -5   3   3   10.25    6.40
   4  -3  -3 1576.84   82.02
   4  -3  -3 1609.26   81.90
  -4   3   3 1713.78   82.89
  -4   3   3 1575.77   79.59
  -4   3   3 1591.38   84.28
  -4   3   3 1587.18   84.55
  -4   3   3 1622.63   81.94
   3  -3  -3   65.28    6.99
   3  -3  -3   46.20    7.82
   3  -3  -3   44.36    6.63
   3  -3  -3   52.65    7.30
   3  -3  -3   46.63    5.87
  -3   3   3   66.95    8.59
  -3   3   3   64.55    9.08
  -3   3   3   57.88    6.53
  -3   3   3   45.68    5.31
  -3   3   3   36.98    7.61
   2  -3  -3 4743.10  230.97
   2  -3  -3 4786.63  234.44
   2  -3  -3 4711.69  230.93
   2  -3  -3 4555.18  232.51
   2  -3  -3 4685.11  231.92
  -2   3   3 4920.72  234.62
  -2   3   3 4887.72  233.12
  -2   3   3 4898.01  234.07
  -2   3   3 4499.42  230.91
   1  -3  -3  490.79   24.46
   1  -3  -3  490.50   27.53
   1  -3  -3  422.45   25.19
   1  -3  -3  479.23   23.78
   1  -3  -3  507.60   26.47
  -1   3   3  435.18   25.94
  -1   3   3  482.41   27.12
  -1   3   3  444.76   26.89
   0  -3  -3 4093.01  204.39
   0  -3  -3 3943.91  206.08
   0  -3  -3 4407.86  205.96
   0  -3  -3 4346.40  205.50
   0   3   3 4307.33  203.83
   0   3   3 4310.83  204.66
   0   3   3 3969.43  203.42
   0   3   3 4172.75  205.70
   0   3   3 4003.86  205.06
  -1  -3  -3   13.42    4.46
  -1  -3  -3   18.60    4.99
  -1  -3  -3    9.63    2.27
  -1  -3  -3    4.11    4.44
   1   3   3   11.59    4.04
   1   3   3    9.36    4.24
   1   3   3    9.85    5.00
  -2  -3  -3 3775.79  173.90
  -2  -3  -3 3665.62  171.74
  -2  -3  -3 3370.53  170.95
  -2  -3  -3 3111.56  173.55
  -2  -3  -3 3493.59  174.20
  -2  -3  -3 3497.24  174.82
   2   3   3 3696.69  173.22
   2   3   3 3649.20  173.99
   2   3   3 3348.64  174.80
   2   3   3 3576.32  173.94
  -3  -3  -3   -2.34    3.03
  -3  -3  -3    8.21    4.42
  -3  -3  -3   10.63    5.64
  -3  -3  -3    3.41    5.61
   3   3   3    1.73    3.38
   3   3   3    3.89    3.41
   3   3   3   -4.45    5.94
  -4  -3  -3 1311.39   70.40
  -4  -3  -3 1334.00   69.29
  -4  -3  -3 1229.82   68.39
  -4  -3  -3 1486.94   70.52
  -4  -3  -3 1333.80   68.45
   4   3   3 1248.02   66.73
   4   3   3 1281.54   68.35
   4   3   3 1418.58   69.37
   4   3   3 1308.05   70.66
   4   3   3 1318.08   65.53
  -5  -3  -3    3.09    4.32
  -5  -3  -3    9.00    7.10
  -5  -3  -3    5.44    6.92
  -5  -3  -3    2.59    5.18
   5   3   3   25.48    9.88
   5   3   3    5.46    6.08
   5   3   3    1.64    3.18
  -6  -3  -3  826.70   47.45
  -6  -3  -3  831.67   45.81
  -6  -3  -3  819.02   47.68
   6   3   3  797.30   42.72
   6   3   3  818.89   49.24
   6   3   3  807.46   45.83
  -7  -3  -3   15.09    8.34
  -7  -3  -3   -1.67    5.99
  -7  -3  -3   -4.73    5.97
   7   3   3   24.88    6.54
   7   3   3   13.03    8.39
   7   3   3   -2.46    7.67
  -8  -3  -3  423.10   28.37
  -8  -3  -3  399.60   29.78
  -8  -3  -3  376.19   32.81
   8   3   3  385.30   35.22
   8   3   3  379.54   27.15
   8   3   3  421.45   25.86
  -9  -3  -3   -8.08   13.20
  -9  -3  -3   10.16   14.21
  -9  -3  -3    1.51   11.36
   9   3   3   22.55   13.85
   9   3   3    8.81    8.58
 -10  -3  -3   89.46   16.47
 -10  -3  -3  124.98   22.81
  10   3   3  120.17   21.05
  10   3   3  110.81   18.22
   9  -4  -3  221.36   23.44
   9  -4  -3  230.82   27.27
   9  -4  -3  247.20   27.05
  -9   4   3  224.49   26.68
  -9   4   3  192.30   23.27
  -9   4   3  223.03   27.50
   8  -4  -3    4.63    9.73
   8  -4  -3    3.54   10.72
  -8   4   3   -2.28    9.94
  -8   4   3   23.82   13.24
  -8   4   3   -6.01   13.33
   7  -4  -3  622.57   35.28
   7  -4  -3  556.22   32.77
   7  -4  -3  561.23   34.34
  -7   4   3  521.36   36.78
  -7   4   3  502.07   34.50
  -7   4   3  508.68   36.92
   6  -4  -3    5.60    6.68
   6  -4  -3   -0.68    7.37
  -6   4   3   -8.41    8.68
  -6   4   3   19.64   10.99
  -6   4   3   10.11    8.54
   5  -4  -3  896.89   48.65
   5  -4  -3  903.50   47.64
  -5   4   3  965.71   51.91
  -5   4   3  790.86   48.42
  -5   4   3  906.94   51.40
  -5   4   3  853.74   48.26
   4  -4  -3   23.21    7.14
   4  -4  -3   17.26    6.16
   4  -4  -3   16.99    6.54
  -4   4   3   10.89    6.89
  -4   4   3   13.79    7.47
  -4   4   3    8.13    8.47
  -4   4   3   27.08    3.96
  -4   4   3   24.27    5.89
   3  -4  -3 1973.70   99.85
   3  -4  -3 1913.34  101.86
   3  -4  -3 2073.89  100.68
   3  -4  -3 1937.61  104.30
  -3   4   3 2113.99  104.44
  -3   4   3 1880.30  102.21
  -3   4   3 2071.02  103.61
  -3   4   3 2125.89  100.79
   2  -4  -3   11.82    5.52
   2  -4  -3    9.79    3.06
   2  -4  -3    9.24    5.58
   2  -4  -3   10.60    2.41
   2  -4  -3    9.03    3.67
   2  -4  -3   11.78    3.51
  -2   4   3    4.62    5.69
  -2   4   3    8.20    4.96
  -2   4   3   10.22    5.47
   1  -4  -3 5597.92  272.03
   1  -4  -3 5372.41  270.11
   1  -4  -3 5527.44  270.36
   1  -4  -3 5625.58  269.78
   1  -4  -3 5449.07  272.97
  -1   4   3 5939.22  272.16
  -1   4   3 5629.15  271.99
  -1   4   3 5100.73  272.34
   0  -4  -3    5.05    4.42
   0  -4  -3    3.26    4.50
   0  -4  -3    4.13    5.31
   0   4   3    4.29    2.67
   0   4   3   -2.48    4.49
   0   4   3   -1.90    4.49
  -1  -4  -3 2199.04  107.38
  -1  -4  -3 1988.04  107.02
  -1  -4  -3 2141.44  107.95
   1   4   3 2121.73  107.22
   1   4   3 2148.31  106.94
   1   4   3 2156.33  106.42
  -2  -4  -3   26.43    6.03
  -2  -4  -3   30.23    7.74
  -2  -4  -3   25.34    6.31
  -2  -4  -3   27.53    2.04
  -2  -4  -3   40.17    3.99
   2   4   3   33.33    7.37
   2   4   3   22.91    5.72
   2   4   3   29.91    5.67
   2   4   3   32.12    5.15
  -3  -4  -3 1335.10   72.31
  -3  -4  -3 1369.97   72.54
  -3  -4  -3 1400.27   68.06
  -3  -4  -3 1348.47   71.51
  -3  -4  -3 1452.43   71.73
   3   4   3 1323.37   69.34
   3   4   3 1443.89   71.25
   3   4   3 1444.29   73.35
   3   4   3 1321.70   71.31
  -4  -4  -3    7.46    5.80
  -4  -4  -3   -6.82    4.17
  -4  -4  -3    8.33    6.07
   4   4   3   10.23    3.30
   4   4   3   16.60    5.12
   4   4   3    8.15    8.32
   4   4   3    8.90    4.74
  -5  -4  -3 1236.07   67.86
  -5  -4  -3 1306.66   66.93
  -5  -4  -3 1151.87   65.91
  -5  -4  -3 1304.25   67.18
   5   4   3 1259.22   66.37
   5   4   3 1260.67   62.79
   5   4   3 1428.07   70.08
   5   4   3 1149.85   62.30
  -6  -4  -3    3.82    7.98
  -6  -4  -3   12.64    6.73
  -6  -4  -3    1.28    6.66
  -6  -4  -3    1.13    6.84
   6   4   3   -0.06    4.47
   6   4   3    5.44   10.42
   6   4   3    2.98    7.25
  -7  -4  -3  587.19   35.34
  -7  -4  -3  550.90   34.80
  -7  -4  -3  537.10   37.10
  -7  -4  -3  568.48   36.41
   7   4   3  512.19   30.17
   7   4   3  495.55   33.66
   7   4   3  520.10   38.01
  -8  -4  -3   15.85   12.20
  -8  -4  -3   22.49    9.32
  -8  -4  -3   16.15   12.93
  -8  -4  -3   -7.52    9.31
   8   4   3   28.46   11.10
   8   4   3   19.25   14.08
  -9  -4  -3  117.34   21.48
  -9  -4  -3  140.88   21.26
  -9  -4  -3  173.74   21.83
  -9  -4  -3  182.89   20.39
   9   4   3  143.78   19.21
   9   4   3  140.14   22.85
 -10  -4  -3   37.92   15.92
 -10  -4  -3    3.43   15.39
 -10  -4  -3    2.70   14.13
  10   4   3   -1.86   12.27
   9  -5  -3   11.58   12.23
  -9   5   3   42.05   17.42
  -9   5   3    0.01   10.43
  -9   5   3   -5.73   14.57
   8  -5  -3  285.41   26.42
  -8   5   3  287.28   27.16
  -8   5   3  283.04   29.63
   7  -5  -3   -9.55    7.02
   7  -5  -3    4.76    7.28
   7  -5  -3    0.64    8.28
  -7   5   3   -9.91   11.32
  -7   5   3    0.44   11.99
  -7   5   3    6.45    7.94
   6  -5  -3  718.53   40.65
   6  -5  -3  619.52   38.96
  -6   5   3  690.78   44.40
  -6   5   3  708.16   42.35
  -6   5   3  703.54   43.10
   5  -5  -3    4.21    6.41
   5  -5  -3   10.35    5.83
   5  -5  -3    3.70    7.56
  -5   5   3    8.32    7.63
  -5   5   3    4.90    6.33
  -5   5   3    7.30    9.19
  -5   5   3    7.39    6.64
   4  -5  -3 1442.21   76.67
   4  -5  -3 1568.17   78.51
   4  -5  -3 1423.60   80.73
  -4   5   3 1589.22   81.30
  -4   5   3 1550.02   78.95
  -4   5   3 1450.93   76.80
  -4   5   3 1483.46   79.46
   3  -5  -3   45.89    9.93
   3  -5  -3   74.62    6.12
   3  -5  -3   70.07    8.17
   3  -5  -3   60.86    5.90
   3  -5  -3   67.64    6.09
   3  -5  -3   56.63    9.90
  -3   5   3   72.63   10.36
  -3   5   3   51.29    8.97
  -3   5   3   54.43    9.86
   2  -5  -3 1781.19   88.14
   2  -5  -3 1711.05   90.78
   2  -5  -3 1764.27   87.94
   2  -5  -3 1690.59   92.19
   2  -5  -3 1783.18   88.57
  -2   5   3 1794.17   92.24
  -2   5   3 1755.76   90.55
  -2   5   3 1841.14   91.06
   1  -5  -3    4.25    4.08
   1  -5  -3    1.11    3.28
   1  -5  -3   -1.14    4.32
   1  -5  -3    8.77    5.43
  -1   5   3   -5.34    3.32
  -1   5   3    2.10    4.34
  -1   5   3   -5.96    5.52
   0  -5  -3 1538.42   75.06
   0  -5  -3 1427.49   75.40
   0  -5  -3 1496.20   75.89
   0   5   3 1425.61   74.37
   0   5   3 1343.73   73.99
   0   5   3 1409.35   71.08
  -1  -5  -3    3.93    6.59
  -1  -5  -3    5.12    5.83
  -1  -5  -3    0.53    6.11
   1   5   3   -3.33    2.29
   1   5   3    3.08    4.05
   1   5   3   -1.43    4.36
  -2  -5  -3 1898.48   93.78
  -2  -5  -3 1789.11   97.72
  -2  -5  -3 1856.59   97.02
  -2  -5  -3 1905.02   96.97
   2   5   3 1875.37   96.49
   2   5   3 1947.39   97.91
   2   5   3 2048.38   95.60
   2   5   3 1809.49   94.83
  -3  -5  -3    6.69    1.06
  -3  -5  -3    9.77    3.22
  -3  -5  -3   10.11    5.72
  -3  -5  -3   19.13    6.92
  -3  -5  -3    9.43    1.14
  -3  -5  -3    6.00    4.83
   3   5   3    1.47    6.19
   3   5   3    5.24    7.47
   3   5   3   10.72    3.75
   3   5   3    3.97    4.42
  -4  -5  -3 1454.44   71.58
  -4  -5  -3 1328.60   72.08
  -4  -5  -3 1267.67   70.48
   4   5   3 1344.66   66.76
   4   5   3 1316.55   69.92
   4   5   3 1329.22   70.65
   4   5   3 1313.41   72.82
  -5  -5  -3   21.81    7.74
  -5  -5  -3   41.59    9.84
  -5  -5  -3   22.72    8.86
   5   5   3    7.18    2.32
   5   5   3   14.69    2.27
   5   5   3    7.67    7.80
   5   5   3    8.66    7.85
  -6  -5  -3  452.65   31.01
  -6  -5  -3  415.16   29.27
  -6  -5  -3  402.84   29.49
   6   5   3  482.96   29.77
   6   5   3  459.03   33.31
  -7  -5  -3   15.01    7.87
  -7  -5  -3   16.11   11.02
  -7  -5  -3    3.60    9.63
  -7  -5  -3    3.41   11.74
   7   5   3   24.61   11.20
   7   5   3    4.11    9.02
  -8  -5  -3  356.40   29.48
  -8  -5  -3  330.69   30.60
  -8  -5  -3  315.00   30.23
  -8  -5  -3  307.53   28.82
   8   5   3  259.37   28.85
   8   5   3  338.95   28.13
  -9  -5  -3    6.85   15.57
  -9  -5  -3   -3.12   14.46
  -9  -5  -3   12.89   13.50
  -9  -5  -3   11.22   12.76
   9   5   3    5.25   11.16
 -10  -5  -3  108.87   19.51
 -10  -5  -3  160.28   24.17
 -10  -5  -3  136.27   23.71
  10   5   3  104.90   19.60
  10   5   3  103.59   24.25
   9  -6  -3  130.79   20.83
  -9   6   3  109.20   19.35
  -9   6   3  163.99   26.37
   8  -6  -3    2.10   12.16
  -8   6   3    5.25   12.91
  -8   6   3   -1.27   14.71
   7  -6  -3  391.07   31.36
   7  -6  -3  310.64   25.99
  -7   6   3  291.13   32.48
  -7   6   3  355.42   31.28
  -7   6   3  336.97   32.49
   6  -6  -3    0.17    6.39
   6  -6  -3   16.72    8.48
  -6   6   3   -0.50   10.86
  -6   6   3  -10.00    6.83
  -6   6   3   10.98   10.94
   5  -6  -3  926.83   49.75
   5  -6  -3  916.57   50.38
   5  -6  -3  840.11   51.20
   5  -6  -3  903.67   47.45
  -5   6   3  884.35   52.67
  -5   6   3  954.77   55.07
  -5   6   3  863.83   52.03
   4  -6  -3    1.84    5.85
   4  -6  -3    3.49    5.37
   4  -6  -3   -1.91    3.15
   4  -6  -3   -3.13    9.23
  -4   6   3   -5.17    8.36
  -4   6   3   14.08    7.04
  -4   6   3    0.91    7.39
   3  -6  -3 1626.70   89.98
   3  -6  -3 1693.01   87.59
   3  -6  -3 1714.79   85.15
   3  -6  -3 1644.39   81.91
  -3   6   3 1736.59   87.87
  -3   6   3 1657.83   87.05
  -3   6   3 1630.40   89.30
   2  -6  -3   -5.36    6.42
   2  -6  -3    1.81    7.92
   2  -6  -3    8.17    3.49
   2  -6  -3    4.46    4.71
  -2   6   3   -3.25    4.91
  -2   6   3    0.40    4.88
  -2   6   3   -0.39    5.29
   1  -6  -3 2140.92  111.48
   1  -6  -3 2076.45  108.09
   1  -6  -3 2354.07  109.93
   1  -6  -3 2208.43  113.10
  -1   6   3 2074.44  109.59
  -1   6   3 2231.98  111.40
  -1   6   3 2158.08  111.74
   0  -6  -3    4.13    5.39
   0  -6  -3   11.38    6.29
   0  -6  -3    7.82    6.23
   0   6   3    2.18    2.53
   0   6   3   -3.56    6.11
   0   6   3    6.64    4.55
  -1  -6  -3 1778.69   93.70
  -1  -6  -3 1733.06   93.78
  -1  -6  -3 1731.78   93.12
   1   6   3 1753.56   92.37
   1   6   3 1952.00   91.94
   1   6   3 1790.54   88.78
  -2  -6  -3   19.36    6.82
  -2  -6  -3   29.17    8.78
  -2  -6  -3   14.54    6.66
   2   6   3   16.03    4.98
   2   6   3   14.04    4.78
   2   6   3   14.36    5.73
   2   6   3   34.57    8.17
  -3  -6  -3 1702.38   81.98
  -3  -6  -3 1420.78   78.98
  -3  -6  -3 1572.14   80.37
   3   6   3 1485.25   77.27
   3   6   3 1492.21   75.84
   3   6   3 1528.77   77.39
   3   6   3 1376.87   78.69
  -4  -6  -3    6.95    7.77
  -4  -6  -3   -3.24    4.64
  -4  -6  -3    1.97    6.27
   4   6   3   12.15    6.98
   4   6   3   -2.88    6.86
   4   6   3    4.89    2.79
  -5  -6  -3  629.75   39.37
  -5  -6  -3  680.40   40.40
  -5  -6  -3  600.61   38.53
   5   6   3  616.94   38.05
  -6  -6  -3    0.25    9.15
  -6  -6  -3   -3.31    8.68
  -6  -6  -3   25.87   12.08
   6   6   3   -0.33    8.71
  -7  -6  -3  407.05   32.89
  -7  -6  -3  401.64   29.58
  -7  -6  -3  412.36   36.17
   7   6   3  394.01   31.14
  -8  -6  -3   19.70   12.57
  -8  -6  -3   20.32   11.99
  -8  -6  -3   15.96   11.38
   8   6   3   19.46   11.66
   8   6   3   -3.46    9.29
  -9  -6  -3  132.00   20.81
  -9  -6  -3  133.11   22.15
  -9  -6  -3  131.19   21.59
   9   6   3  126.16   19.60
   9   6   3  135.85   21.57
 -10  -6  -3   -9.93   16.45
 -10  -6  -3   31.60   20.54
 -10  -6  -3  -13.61   14.83
  10   6   3    6.40   13.69
  10   6   3    2.86   15.38
   8  -7  -3  243.79   26.39
  -8   7   3  186.02   25.81
  -8   7   3  176.78   25.87
   7  -7  -3    4.55   12.05
  -7   7   3   -0.26   12.91
  -7   7   3  -13.85   11.24
  -7   7   3    6.83   10.66
   6  -7  -3  497.61   32.39
   6  -7  -3  505.65   34.54
  -6   7   3  497.74   35.50
  -6   7   3  489.56   41.18
  -6   7   3  454.71   37.99
   5  -7  -3    3.26    9.72
  -5   7   3   11.73   11.42
  -5   7   3    7.51    9.95
  -5   7   3   -2.60   10.08
   4  -7  -3  717.16   47.70
   4  -7  -3  751.21   43.00
   4  -7  -3  922.10   46.72
  -4   7   3  826.59   47.93
  -4   7   3  712.35   44.66
  -4   7   3  738.51   45.28
   3  -7  -3   18.89   11.77
   3  -7  -3    8.27    5.69
   3  -7  -3    4.20    8.70
  -3   7   3   11.25    6.98
  -3   7   3   14.28    9.48
  -3   7   3    2.24    9.62
   2  -7  -3 1812.16   94.40
   2  -7  -3 1723.55   88.24
   2  -7  -3 1849.55   96.62
   2  -7  -3 1826.20   91.59
  -2   7   3 1711.99   94.40
  -2   7   3 1767.90   92.03
  -2   7   3 1891.59   94.06
   1  -7  -3    4.83    8.02
   1  -7  -3   -3.82    9.63
   1  -7  -3   -4.01    3.90
   1  -7  -3    5.44    6.11
  -1   7   3    5.36    5.53
  -1   7   3   11.30    6.56
  -1   7   3    3.51    5.57
   0  -7  -3 1678.20   87.25
   0  -7  -3 1508.68   87.46
   0  -7  -3 1823.87   86.89
   0  -7  -3 1739.85   88.89
   0   7   3 1703.84   84.08
   0   7   3 1586.34   85.92
   0   7   3 1596.00   81.11
   0   7   3 1596.80   86.35
  -1  -7  -3    0.24    5.43
  -1  -7  -3    1.88    6.11
  -1  -7  -3   -4.88    8.25
   1   7   3   -4.55    5.31
   1   7   3   -3.19    4.99
   1   7   3   -1.20    2.96
  -2  -7  -3 1098.15   63.75
  -2  -7  -3 1174.34   65.23
  -2  -7  -3 1124.71   64.24
   2   7   3 1262.44   63.71
   2   7   3 1200.41   61.04
   2   7   3 1182.85   59.90
   2   7   3 1117.09   60.13
  -3  -7  -3    1.26    6.30
  -3  -7  -3    2.27    8.94
  -3  -7  -3    4.47    8.78
   3   7   3    5.68    4.30
   3   7   3    2.89    5.85
   3   7   3   -3.15    5.32
   3   7   3  -11.16    5.30
  -4  -7  -3  633.68   41.40
  -4  -7  -3  609.51   39.97
  -4  -7  -3  605.05   39.04
   4   7   3  675.10   37.44
   4   7   3  658.26   38.77
  -5  -7  -3    4.88    8.17
  -5  -7  -3   -7.30    6.44
  -5  -7  -3    2.32    9.57
   5   7   3   13.75    8.94
   5   7   3    5.88    8.84
  -6  -7  -3  516.01   33.27
  -6  -7  -3  481.43   33.69
  -6  -7  -3  497.83   36.61
   6   7   3  461.67   31.56
   6   7   3  475.93   32.12
  -7  -7  -3   -7.11   10.88
  -7  -7  -3   -5.77   11.00
  -7  -7  -3    2.14   12.72
   7   7   3   -5.75    9.77
   7   7   3   -7.43    8.14
  -8  -7  -3  161.17   22.66
  -8  -7  -3  199.40   27.34
  -8  -7  -3  188.61   23.54
   8   7   3  184.96   23.83
   8   7   3  153.54   20.41
  -9  -7  -3   31.08   18.48
  -9  -7  -3   -4.27   13.42
  -9  -7  -3   20.98   17.82
   9   7   3   25.93   16.54
   9   7   3    5.18   13.25
   9   7   3   -7.43   15.14
   8  -8  -3   -4.07   14.21
  -8   8   3   25.59   14.27
  -8   8   3    9.02   16.32
   7  -8  -3  283.97   27.81
  -7   8   3  153.58   28.10
  -7   8   3  240.75   27.82
  -7   8   3  252.63   28.98
   6  -8  -3   15.90   12.07
   6  -8  -3    1.27   10.47
  -6   8   3    2.07   12.19
  -6   8   3   10.32   12.56
  -6   8   3   17.36   15.58
   5  -8  -3  668.31   45.81
   5  -8  -3  604.30   40.96
  -5   8   3  647.64   41.42
  -5   8   3  652.57   42.97
  -5   8   3  565.38   40.70
   4  -8  -3   -1.84    9.73
   4  -8  -3   11.50   10.47
  -4   8   3   10.25   10.18
  -4   8   3   22.22   12.09
  -4   8   3   18.34    8.79
   3  -8  -3  649.46   41.98
   3  -8  -3  685.86   44.77
   3  -8  -3  651.63   39.38
  -3   8   3  711.16   40.12
  -3   8   3  866.14   43.80
  -3   8   3  642.77   43.58
   2  -8  -3   -3.64    7.07
   2  -8  -3   12.55   10.13
   2  -8  -3   12.05    6.34
  -2   8   3    1.11    6.73
  -2   8   3    5.83    4.84
  -2   8   3    1.92    9.09
   1  -8  -3  962.57   58.47
   1  -8  -3 1092.60   53.78
   1  -8  -3 1016.27   57.06
   1  -8  -3 1147.09   62.43
  -1   8   3 1024.90   55.17
  -1   8   3 1061.71   58.84
  -1   8   3 1028.64   58.85
   0  -8  -3    6.30    7.54
   0  -8  -3   -0.63    6.47
   0  -8  -3    6.15    9.07
   0  -8  -3   -7.83    9.98
   0   8   3   -0.49    5.04
   0   8   3    9.18    8.23
   0   8   3    4.99    4.52
  -1  -8  -3  871.42   48.30
  -1  -8  -3  779.82   47.42
  -1  -8  -3  796.65   46.22
   1   8   3  724.28   41.38
   1   8   3  769.27   44.01
   1   8   3  810.19   45.70
  -2  -8  -3    0.16    7.35
  -2  -8  -3   -0.20    9.69
  -2  -8  -3   15.02    8.40
   2   8   3   11.82    5.73
   2   8   3    5.72    4.92
   2   8   3   -4.80    7.79
  -3  -8  -3  701.98   44.74
  -3  -8  -3  708.02   46.94
  -3  -8  -3  745.20   46.82
   3   8   3  836.76   44.73
   3   8   3  767.96   41.95
  -4  -8  -3    0.32    7.31
  -4  -8  -3    7.67   11.63
  -4  -8  -3   -0.11    9.97
   4   8   3    2.87    7.04
   4   8   3   -4.02    7.06
  -5  -8  -3  565.40   40.47
  -5  -8  -3  623.74   40.03
  -5  -8  -3  604.94   42.33
   5   8   3  616.10   38.35
   5   8   3  599.68   38.45
  -6  -8  -3   14.17   12.43
  -6  -8  -3   24.78   14.51
  -6  -8  -3   -1.56   10.71
   6   8   3    0.59   10.14
   6   8   3    0.28   10.40
  -7  -8  -3  231.83   27.43
  -7  -8  -3  227.02   29.16
  -7  -8  -3  212.20   25.57
   7   8   3  226.62   23.78
   7   8   3  232.12   25.40
  -8  -8  -3   11.71   14.89
  -8  -8  -3   25.60   16.40
  -8  -8  -3    2.14   12.33
   8   8   3    4.09   10.57
   8   8   3   -9.89   11.70
  -9  -8  -3  125.85   23.14
   9   8   3   81.42   22.01
   9   8   3   74.91   19.89
   7  -9  -3   18.10   15.18
  -7   9   3    9.64   16.17
  -7   9   3   11.20   16.71
   6  -9  -3  234.55   27.58
   6  -9  -3  296.83   26.61
  -6   9   3  279.65   32.08
  -6   9   3  233.97   27.86
   5  -9  -3   -6.85   10.69
   5  -9  -3   -7.26   11.70
  -5   9   3   -6.52   12.66
  -5   9   3    1.11    9.18
   4  -9  -3  613.32   40.60
   4  -9  -3  633.31   45.68
  -4   9   3  630.44   42.35
  -4   9   3  619.83   40.30
   3  -9  -3   -8.86   11.74
   3  -9  -3   -9.98    9.05
  -3   9   3    4.18    7.73
  -3   9   3    7.39    8.61
   2  -9  -3  765.45   47.00
   2  -9  -3  697.64   43.94
   2  -9  -3  748.93   48.34
  -2   9   3  793.51   47.28
  -2   9   3  772.30   45.44
   1  -9  -3    7.79    7.64
   1  -9  -3   12.66   12.46
   1  -9  -3  -11.82    8.99
  -1   9   3   -0.89    7.19
  -1   9   3   -0.63    8.60
   0  -9  -3  823.27   48.87
   0  -9  -3  868.65   50.73
   0  -9  -3  870.41   49.49
   0  -9  -3  762.08   46.84
   0   9   3  737.42   46.13
   0   9   3  773.40   46.45
  -1  -9  -3    6.37    9.14
  -1  -9  -3   -7.18    9.86
  -1  -9  -3    5.61    8.76
   1   9   3    0.42    5.74
   1   9   3   11.98   10.05
  -2  -9  -3  721.89   47.24
  -2  -9  -3  736.42   46.77
  -2  -9  -3  721.42   45.20
   2   9   3  736.82   41.35
   2   9   3  771.90   44.18
  -3  -9  -3   -2.65   10.68
  -3  -9  -3  -26.08    9.84
  -3  -9  -3   -8.45    8.01
   3   9   3   -7.48    8.42
   3   9   3    3.39    7.56
  -4  -9  -3  524.91   38.09
  -4  -9  -3  523.17   37.49
  -4  -9  -3  547.75   39.36
   4   9   3  563.02   34.10
   4   9   3  547.91   35.70
  -5  -9  -3   26.68   16.25
  -5  -9  -3   -3.43   12.61
  -5  -9  -3  -13.24   10.67
   5   9   3   -1.14    9.87
   5   9   3   -4.51    8.68
  -6  -9  -3  247.62   28.49
  -6  -9  -3  237.22   25.70
  -6  -9  -3  209.25   25.54
   6   9   3  228.86   23.79
   6   9   3  236.11   24.32
  -7  -9  -3    0.84   14.24
  -7  -9  -3   11.05   16.42
  -7  -9  -3   13.39   10.87
   7   9   3   -5.68   11.24
   7   9   3    2.89   13.32
  -8  -9  -3  127.95   22.19
  -8  -9  -3   79.31   21.25
  -8  -9  -3  117.47   19.81
   8   9   3   91.97   20.33
   8   9   3  131.38   23.56
   6 -10  -3    2.42   11.00
  -6  10   3    2.04   12.23
  -6  10   3   -5.94   10.59
   5 -10  -3  243.01   32.07
   5 -10  -3  199.28   26.83
  -5  10   3  308.30   31.33
  -5  10   3  245.37   28.16
   4 -10  -3   14.93   15.93
   4 -10  -3  -11.53   10.83
  -4  10   3   -8.99   12.25
  -4  10   3   17.15   12.75
   3 -10  -3  548.13   37.91
   3 -10  -3  600.55   43.72
  -3  10   3  548.16   38.66
  -3  10   3  522.98   36.73
   2 -10  -3   -0.28    8.59
   2 -10  -3   -8.15    9.54
  -2  10   3   22.18   12.19
  -2  10   3   -8.60    9.79
   1 -10  -3  862.31   50.93
   1 -10  -3  720.98   50.89
  -1  10   3  823.36   49.09
  -1  10   3  792.69   48.75
   0 -10  -3    1.57    8.13
   0 -10  -3   -2.45    9.76
   0 -10  -3   -1.49    8.63
   0 -10  -3    2.31   11.78
   0  10   3  -10.55    6.13
   0  10   3   -2.17    8.13
  -1 -10  -3  612.87   44.48
  -1 -10  -3  699.94   45.45
  -1 -10  -3  648.57   43.56
  -1 -10  -3  704.74   43.36
   1  10   3  633.89   39.71
   1  10   3  763.67   43.25
  -2 -10  -3   -0.32    9.04
  -2 -10  -3    1.70    9.78
  -2 -10  -3    4.00    8.95
   2  10   3    3.69   10.81
  -3 -10  -3  499.41   42.77
  -3 -10  -3  528.30   41.44
  -3 -10  -3  493.10   37.51
   3  10   3  571.78   36.33
  -4 -10  -3    7.17   13.56
  -4 -10  -3   -6.77    8.36
  -4 -10  -3  -11.69    8.98
   4  10   3    1.96   10.35
  -5 -10  -3  251.12   26.67
  -5 -10  -3  249.55   29.22
  -5 -10  -3  237.03   28.68
   5  10   3  257.17   25.45
  -6 -10  -3   -5.01    9.65
  -6 -10  -3   11.37   15.88
  -6 -10  -3   12.82   13.13
   6  10   3    5.53   12.19
  -7 -10  -3  152.45   24.72
  -7 -10  -3  131.05   22.60
  -7 -10  -3  148.47   25.28
   7  10   3  132.56   20.43
   5 -11  -3   10.14   18.94
   5 -11  -3  -13.14   14.73
  -5  11   3    0.66   10.70
  -5  11   3    4.17   16.42
   4 -11  -3  209.48   25.75
   4 -11  -3  224.59   31.11
  -4  11   3  176.93   24.39
  -4  11   3  219.10   27.89
   3 -11  -3   -6.63   12.58
   3 -11  -3    6.39   16.86
  -3  11   3  -14.68    7.16
  -3  11   3    8.48   11.11
   2 -11  -3  416.90   37.27
   2 -11  -3  464.68   42.18
  -2  11   3  405.87   35.59
  -2  11   3  429.73   36.27
   1 -11  -3    3.71   15.00
   1 -11  -3  -11.35   11.79
  -1  11   3   -2.97   10.74
  -1  11   3    6.15   11.02
   0 -11  -3  422.53   39.50
   0 -11  -3  445.67   37.38
   0  11   3  411.59   31.48
   0  11   3  457.03   36.12
  -1 -11  -3  -26.88   11.95
  -1 -11  -3   12.72   12.70
  -1 -11  -3    1.62   11.59
   1  11   3    5.90   11.03
  -2 -11  -3  324.23   35.77
  -2 -11  -3  385.48   35.50
  -2 -11  -3  321.12   33.71
   2  11   3  413.04   32.00
  -3 -11  -3   -1.51   13.97
  -3 -11  -3   -6.52    9.69
  -3 -11  -3   10.85   15.34
   3  11   3   -3.72   10.12
  -4 -11  -3  273.32   32.71
  -4 -11  -3  224.41   28.97
  -4 -11  -3  282.27   33.57
   4  11   3  269.19   26.43
  -5 -11  -3   -2.18   12.50
  -5 -11  -3    3.54   16.36
  -5 -11  -3   19.24   17.05
   5  11   3    6.87   13.36
  -6 -11  -3  152.87   26.91
  -6 -11  -3  133.88   28.46
  -6 -11  -3  213.62   29.40
   6  11   3  179.12   23.84
   4 -12  -3   13.85   19.66
   4 -12  -3  -22.90   14.12
  -4  12   3    8.30   15.52
  -4  12   3    4.75   16.46
   3 -12  -3  250.36   31.83
   3 -12  -3  269.59   29.71
  -3  12   3  229.19   29.57
  -3  12   3  270.25   30.17
   2 -12  -3  -15.68   12.64
   2 -12  -3   -3.93   11.44
  -2  12   3    0.17   13.29
  -2  12   3  -11.75    8.48
   1 -12  -3  290.81   32.75
   1 -12  -3  309.17   35.84
  -1  12   3  358.87   32.15
  -1  12   3  290.41   30.08
   0 -12  -3  -11.84   12.45
   0 -12  -3  -20.90   15.52
   0  12   3   -2.52   12.18
  -1 -12  -3  331.71   33.57
  -1 -12  -3  302.84   33.67
  -1 -12  -3  289.78   35.26
   1  12   3  317.91   30.29
  -2 -12  -3   -4.64   12.02
  -2 -12  -3  -13.12   14.08
  -2 -12  -3   -3.81   14.54
   2  12   3    6.15   11.41
  -3 -12  -3  240.42   32.28
  -3 -12  -3  214.22   29.16
  -3 -12  -3  300.32   31.75
   3  12   3  300.83   28.21
  -4 -12  -3   -3.04   17.78
  -4 -12  -3  -20.86   15.04
  -4 -12  -3  -11.96   11.71
   4  12   3    3.28   13.24
  -5 -12  -3  189.99   29.26
   1 -13  -3    9.16   16.01
   1 -13  -3   16.69   16.31
  -1  13   3    4.22   14.64
   0 -13  -3  259.48   31.98
   0 -13  -3  238.04   35.25
   0  13   3  308.68   30.34
   0  13   3  254.17   30.20
  -1 -13  -3  -15.87   19.70
  -1 -13  -3   -1.10   14.69
   1  13   3   -6.67   13.35
  -2 -13  -3  197.04   31.38
  -2 -13  -3  286.47   37.96
  -2 -13  -3  234.76   31.18
   2  13   3  267.85   28.35
   0  13  -4    0.13   16.16
   0  13  -4   -5.95   13.95
   0 -13   4   -7.94   14.41
   0 -13   4    8.41   17.34
  -1  13  -4  256.23   29.49
  -1  13  -4  322.29   34.36
   1 -13   4  263.59   37.79
   1 -13   4  217.49   29.48
   3  12  -4    2.15   10.64
   3  12  -4   -5.74    9.97
  -3 -12   4   -3.31   16.95
   2  12  -4  293.82   30.89
   2  12  -4  240.13   27.64
  -2 -12   4  258.41   35.10
   1  12  -4    4.70   10.55
   1  12  -4   27.84   14.54
  -1 -12   4   -8.16   15.01
  -1 -12   4    6.72   14.23
   0  12  -4  321.77   31.74
   0  12  -4  365.28   33.98
   0 -12   4  355.70   32.50
   0 -12   4  276.68   35.95
  -1  12  -4   -5.29   11.83
  -1  12  -4    1.69   14.26
   1 -12   4  -13.00   10.89
   1 -12   4   -0.98   13.20
  -2  12  -4  234.45   30.01
  -2  12  -4  316.89   30.91
  -2  12  -4  293.48   28.35
   2 -12   4  250.40   32.08
   2 -12   4  287.92   30.87
  -3  12  -4    0.74   11.13
  -3  12  -4    6.25   11.79
   3 -12   4   -2.37   14.77
   3 -12   4   -9.11   18.01
  -4  12  -4  141.33   26.01
  -4  12  -4  256.51   25.51
   4 -12   4  250.44   32.62
   4 -12   4  211.66   32.17
   4 -12   4  184.83   27.30
   5  11  -4  198.10   28.65
   5  11  -4  205.89   26.37
  -5 -11   4  191.04   27.74
  -5 -11   4  179.98   30.14
   4  11  -4    5.28   14.37
   4  11  -4    6.62   15.96
   4  11  -4   -7.05   11.07
  -4 -11   4   -0.06   12.79
  -4 -11   4    2.90   13.81
   3  11  -4  311.95   30.05
   3  11  -4  262.09   28.77
   3  11  -4  291.41   28.08
  -3 -11   4  260.10   33.22
  -3 -11   4  261.16   28.26
   2  11  -4   -3.09   11.45
   2  11  -4   -0.27    9.35
  -2 -11   4   -7.07   12.38
  -2 -11   4   -8.95   11.97
  -2 -11   4    4.97   14.87
   1  11  -4  485.02   39.76
   1  11  -4  493.54   39.53
  -1 -11   4  479.09   43.03
  -1 -11   4  501.26   39.45
   0  11  -4    6.57   12.31
   0  11  -4   -7.13    8.04
   0 -11   4    1.41   15.31
   0 -11   4    2.41   11.65
   0 -11   4    9.76   18.61
  -1  11  -4  383.58   26.53
  -1  11  -4  444.46   34.98
  -1  11  -4  463.39   37.37
   1 -11   4  392.32   34.22
   1 -11   4  437.44   42.79
   1 -11   4  393.78   39.41
  -2  11  -4    7.20   11.28
  -2  11  -4    2.42    9.08
  -2  11  -4   -6.20    7.88
   2 -11   4    1.55   12.55
   2 -11   4   -6.82   12.46
   2 -11   4   -9.08   10.66
  -3  11  -4  328.95   31.55
  -3  11  -4  291.89   24.12
  -3  11  -4  194.07   32.29
   3 -11   4  274.82   28.05
   3 -11   4  255.34   38.28
   3 -11   4  273.89   33.97
  -4  11  -4   -6.45   10.88
   4 -11   4  -10.94   14.07
   4 -11   4   -5.61   13.37
   4 -11   4  -17.42   10.37
  -5  11  -4  165.51   23.23
  -5  11  -4  252.14   24.30
   5 -11   4  201.34   30.40
   5 -11   4  177.58   27.25
   5 -11   4  244.45   28.63
  -6  11  -4    5.79   12.47
   6 -11   4   -7.85   15.65
   6 -11   4  -12.19   17.16
   6  10  -4  171.79   24.94
   6  10  -4  137.89   24.83
  -6 -10   4  194.23   26.13
  -6 -10   4  179.11   26.66
   5  10  -4    7.56   15.59
   5  10  -4   33.89   15.24
  -5 -10   4   -4.43   14.69
  -5 -10   4    1.26   12.11
   4  10  -4  366.77   31.72
   4  10  -4  369.98   33.82
   4  10  -4  419.54   36.19
  -4 -10   4  448.12   41.74
  -4 -10   4  348.43   33.81
   3  10  -4   11.47   10.87
   3  10  -4   -4.06   11.79
   3  10  -4    6.11   12.41
  -3 -10   4   -6.81   10.20
  -3 -10   4   -2.52    8.88
   2  10  -4  589.84   41.12
   2  10  -4  550.53   39.13
   2  10  -4  617.13   39.80
  -2 -10   4  538.85   49.49
  -2 -10   4  589.33   38.99
  -2 -10   4  618.58   39.91
  -2 -10   4  612.89   44.06
   1  10  -4    3.43    8.26
   1  10  -4    1.95    7.96
  -1 -10   4    0.60    8.56
  -1 -10   4  -20.56    8.72
  -1 -10   4   -1.82    8.75
  -1 -10   4    6.99   14.38
   0  10  -4  698.83   40.97
   0  10  -4  787.86   47.54
   0  10  -4  769.61   48.16
   0 -10   4  827.27   54.61
   0 -10   4  756.45   46.57
   0 -10   4  819.79   50.73
  -1  10  -4   -3.57    6.40
  -1  10  -4   11.22    9.98
  -1  10  -4   -2.01    7.53
  -1  10  -4   -0.43    7.96
   1 -10   4   -5.99   12.27
   1 -10   4    4.43   15.09
   1 -10   4   -2.35   10.25
  -2  10  -4  477.18   34.09
  -2  10  -4  578.97   35.70
  -2  10  -4  548.41   33.06
  -2  10  -4  582.26   38.43
   2 -10   4  561.65   42.86
   2 -10   4  513.34   38.86
   2 -10   4  499.93   35.05
  -3  10  -4   -9.37    7.39
  -3  10  -4   11.86    8.47
  -3  10  -4    5.94    8.91
   3 -10   4   -1.27   11.53
   3 -10   4    5.92   14.45
   3 -10   4   -2.70   14.57
  -4  10  -4  287.58   24.81
  -4  10  -4  320.85   27.33
   4 -10   4  248.50   26.53
   4 -10   4  299.68   31.94
   4 -10   4  276.25   29.63
   4 -10   4  294.98   33.04
  -5  10  -4    3.61   10.26
   5 -10   4    7.76   13.96
   5 -10   4   -2.32   15.35
   5 -10   4   -6.13   13.07
   5 -10   4  -21.93   11.90
  -6  10  -4  239.33   24.55
   6 -10   4  207.22   29.22
   6 -10   4  218.76   27.26
   6 -10   4  186.17   26.00
  -7  10  -4   -7.17   13.03
   7 -10   4   -1.03   15.36
   7   9  -4  194.42   26.52
   7   9  -4  161.69   27.81
  -7  -9   4  142.65   25.13
  -7  -9   4  180.63   28.15
   6   9  -4    8.36   10.82
   6   9  -4    8.47   11.70
  -6  -9   4   -6.26   14.67
  -6  -9   4   -7.23   14.35
   5   9  -4  392.76   34.15
   5   9  -4  380.47   30.81
   5   9  -4  474.24   38.35
  -5  -9   4  378.06   35.24
  -5  -9   4  303.92   34.17
   4   9  -4   -2.07    8.70
   4   9  -4    6.55   12.36
   4   9  -4    7.27    9.47
  -4  -9   4    6.81   11.63
  -4  -9   4    0.28    9.55
   3   9  -4  466.32   38.25
   3   9  -4  489.93   34.89
   3   9  -4  476.37   33.30
  -3  -9   4  571.49   35.71
  -3  -9   4  447.82   39.82
  -3  -9   4  546.43   33.66
   2   9  -4   -5.26    9.00
   2   9  -4  -10.96    9.31
   2   9  -4   -9.61    6.47
  -2  -9   4   11.03   10.55
  -2  -9   4    9.84    8.91
  -2  -9   4    8.18    8.29
  -2  -9   4    3.18    8.46
   1   9  -4  778.11   45.35
   1   9  -4  701.67   45.00
   1   9  -4  708.71   41.26
  -1  -9   4  762.17   43.77
  -1  -9   4  747.41   43.01
  -1  -9   4  678.74   46.15
  -1  -9   4  728.30   49.23
   0   9  -4   -6.03    9.05
   0   9  -4  -10.70    8.05
   0   9  -4   -2.45    4.91
   0   9  -4   -6.17    6.04
   0  -9   4   -2.65    7.53
   0  -9   4   -3.93    7.49
   0  -9   4    3.63   10.01
   0  -9   4   -6.47    7.66
  -1   9  -4  766.84   48.43
  -1   9  -4  803.95   47.49
  -1   9  -4  799.95   43.75
  -1   9  -4  807.48   46.07
   1  -9   4  820.68   50.55
   1  -9   4  779.25   47.30
   1  -9   4  860.43   53.05
  -2   9  -4   -3.23    5.22
  -2   9  -4    5.05    6.80
  -2   9  -4   -0.93    6.48
  -2   9  -4   18.14    8.03
   2  -9   4   -8.46    9.15
   2  -9   4   -8.15   12.55
   2  -9   4    1.01    9.00
  -3   9  -4  679.34   43.20
  -3   9  -4  743.16   42.40
  -3   9  -4  807.43   42.44
   3  -9   4  699.47   48.32
   3  -9   4  666.24   46.41
   3  -9   4  738.85   45.22
  -4   9  -4   -3.35    7.89
  -4   9  -4    0.40    7.00
   4  -9   4   -2.08   12.58
   4  -9   4   -2.15   10.82
   4  -9   4    2.27   11.55
   4  -9   4   -8.16    9.58
  -5   9  -4  326.43   26.11
   5  -9   4  291.66   32.38
   5  -9   4  333.51   30.04
   5  -9   4  287.48   30.72
   5  -9   4  289.30   30.71
  -6   9  -4   -9.75    9.46
   6  -9   4   -4.56   11.80
   6  -9   4  -17.15   12.27
   6  -9   4   -4.32    8.89
   6  -9   4   -5.66   11.87
  -7   9  -4  169.72   22.56
   7  -9   4  174.35   24.61
  -8   9  -4    7.70   14.24
   8  -9   4    4.43   15.54
   7   8  -4   -7.19   15.75
   7   8  -4    4.68   10.21
  -7  -8   4   28.36   17.62
  -7  -8   4  -13.86   14.95
   6   8  -4  308.00   31.57
   6   8  -4  318.37   29.33
  -6  -8   4  315.17   32.33
  -6  -8   4  258.62   30.04
   5   8  -4    5.18   12.29
   5   8  -4    2.79    8.15
   5   8  -4   -1.07    9.08
  -5  -8   4   -1.67    8.52
  -5  -8   4  -11.76    7.84
   4   8  -4  525.64   36.28
   4   8  -4  509.45   33.74
   4   8  -4  567.23   36.34
  -4  -8   4  575.28   37.30
  -4  -8   4  549.83   39.74
  -4  -8   4  492.44   33.49
   3   8  -4   -4.21    9.62
   3   8  -4    3.08    8.14
   3   8  -4  -16.32    5.59
  -3  -8   4    5.08    6.18
  -3  -8   4    3.33    7.74
  -3  -8   4  -16.21    5.90
   2   8  -4  783.48   44.06
   2   8  -4  668.75   39.44
   2   8  -4  642.66   40.69
   2   8  -4  680.41   42.18
  -2  -8   4  696.79   41.40
  -2  -8   4  751.76   45.71
  -2  -8   4  678.63   40.75
   1   8  -4    0.98    3.61
   1   8  -4    2.50    6.04
   1   8  -4    1.63    6.54
   1   8  -4   11.07    5.77
   1   8  -4    3.66    8.77
  -1  -8   4    8.48    6.35
  -1  -8   4   -3.12    6.65
  -1  -8   4   -7.86   11.12
  -1  -8   4   -3.95    6.32
   0   8  -4  986.15   51.17
   0   8  -4  875.86   54.59
   0   8  -4  992.49   55.61
   0  -8   4  994.75   58.34
   0  -8   4 1029.96   60.68
   0  -8   4 1044.31   55.15
   0  -8   4 1010.60   53.34
  -1   8  -4   11.93    6.33
  -1   8  -4    4.45    7.81
  -1   8  -4    3.70    6.54
  -1   8  -4    7.33    7.74
   1  -8   4    7.63    5.77
   1  -8   4    5.41    8.21
   1  -8   4    6.46    9.03
   1  -8   4    8.50   10.23
  -2   8  -4  740.38   41.29
  -2   8  -4  739.63   38.95
  -2   8  -4  646.84   40.10
   2  -8   4  678.79   46.43
   2  -8   4  660.57   41.25
   2  -8   4  700.31   43.97
  -3   8  -4   24.67    7.98
  -3   8  -4   12.81    8.17
   3  -8   4   16.34   11.62
   3  -8   4   21.46    8.45
   3  -8   4   30.15   11.20
  -4   8  -4  687.01   40.09
  -4   8  -4  720.51   38.81
   4  -8   4  714.62   45.22
   4  -8   4  600.95   43.99
   4  -8   4  674.65   42.32
   4  -8   4  675.07   45.59
  -5   8  -4   -6.47    7.43
  -5   8  -4    1.90    8.43
   5  -8   4  -14.22    7.15
   5  -8   4  -22.67   12.93
   5  -8   4   -7.54    9.95
   5  -8   4    4.73   10.75
  -6   8  -4  378.60   26.87
   6  -8   4  347.26   31.36
   6  -8   4  430.39   39.84
   6  -8   4  412.66   35.66
   6  -8   4  365.26   33.16
  -7   8  -4   18.98   11.81
   7  -8   4  -13.32   15.69
   7  -8   4   12.07    9.84
   7  -8   4    4.84   12.93
  -8   8  -4  114.45   19.95
   8  -8   4  128.94   20.77
   8   7  -4   -5.29   16.06
   8   7  -4    5.23   10.25
  -8  -7   4   -9.85   15.79
  -8  -7   4  -13.00   10.99
   7   7  -4  295.67   28.93
   7   7  -4  273.75   31.38
  -7  -7   4  251.70   30.22
  -7  -7   4  255.79   29.73
   6   7  -4   -0.49    8.26
   6   7  -4   31.38   14.78
  -6  -7   4   33.11   14.29
  -6  -7   4   34.60   11.69
   5   7  -4  597.02   35.65
   5   7  -4  579.90   38.01
   5   7  -4  625.43   41.37
  -5  -7   4  608.16   39.20
  -5  -7   4  532.12   39.64
  -5  -7   4  593.70   36.39
   4   7  -4    5.25    7.58
   4   7  -4    0.11    7.00
   4   7  -4    7.41    7.49
  -4  -7   4    8.21    5.95
  -4  -7   4   13.06    7.92
  -4  -7   4   -8.41    8.83
  -4  -7   4    0.00   10.20
   3   7  -4  811.66   49.69
   3   7  -4  850.36   48.69
   3   7  -4  836.41   50.98
  -3  -7   4  881.27   50.10
  -3  -7   4  911.44   53.18
  -3  -7   4  830.38   44.47
  -3  -7   4  947.92   48.05
   2   7  -4   -2.87    5.55
   2   7  -4   -6.65    8.71
   2   7  -4    3.94    6.83
   2   7  -4    0.83    6.86
  -2  -7   4    3.64    6.93
  -2  -7   4   -0.59    7.09
  -2  -7   4    2.89    6.38
   1   7  -4 1700.74   92.80
   1   7  -4 1712.50   93.31
   1   7  -4 1806.07   88.13
   1   7  -4 1895.04   94.54
   1   7  -4 1787.31   92.19
  -1  -7   4 1715.23   91.75
  -1  -7   4 1795.77   92.10
  -1  -7   4 1785.09   98.14
  -1  -7   4 1882.62   95.99
   0   7  -4   11.06    7.81
   0   7  -4    7.85    4.20
   0   7  -4   -1.31    6.40
   0   7  -4    5.83    6.04
   0  -7   4   22.57    7.63
   0  -7   4    1.01    7.66
   0  -7   4   15.78   11.53
   0  -7   4   12.04    5.27
  -1   7  -4 1297.03   67.78
  -1   7  -4 1312.70   67.88
  -1   7  -4 1280.12   68.57
  -1   7  -4 1290.00   65.15
   1  -7   4 1250.07   72.88
   1  -7   4 1281.23   67.65
   1  -7   4 1241.65   65.17
   1  -7   4 1234.71   69.86
  -2   7  -4   -1.88    6.28
  -2   7  -4    5.89    6.07
  -2   7  -4    7.18    5.77
   2  -7   4   11.45   10.18
   2  -7   4   -4.92    5.91
   2  -7   4   -0.38    2.91
   2  -7   4   -7.17    5.96
  -3   7  -4  761.95   42.76
  -3   7  -4  772.67   42.85
   3  -7   4  837.49   48.05
   3  -7   4  766.76   41.17
   3  -7   4  834.74   49.30
   3  -7   4  724.86   44.55
  -4   7  -4    9.87    5.69
  -4   7  -4    4.63    7.19
  -4   7  -4   -8.77    5.70
   4  -7   4    1.46    8.89
   4  -7   4   -8.62    9.24
   4  -7   4   -5.57    9.59
   4  -7   4    2.09   10.97
  -5   7  -4  724.34   42.52
  -5   7  -4  616.80   38.54
  -5   7  -4  655.97   38.54
   5  -7   4  672.71   42.20
   5  -7   4  579.40   42.63
   5  -7   4  667.37   40.84
   5  -7   4  637.02   41.83
  -6   7  -4   -6.42    7.22
  -6   7  -4    1.84    8.85
  -6   7  -4    0.96    7.94
   6  -7   4    6.60    8.46
   6  -7   4   -2.06   10.10
   6  -7   4   12.81   10.65
   6  -7   4    1.14    9.81
  -7   7  -4  216.92   24.45
  -7   7  -4  262.57   24.58
   7  -7   4  270.45   26.77
   7  -7   4  266.91   29.66
   7  -7   4  240.55   24.48
  -8   7  -4   -2.33    7.81
  -8   7  -4   16.05   14.29
   8  -7   4   -6.02    8.62
  -9   7  -4   89.20   18.92
   9  -7   4  124.20   19.83
   9   6  -4   -4.17   11.93
   8   6  -4  198.40   26.58
   8   6  -4  225.53   25.00
   8   6  -4  190.49   24.28
  -8  -6   4  218.65   29.75
  -8  -6   4  220.35   28.55
   7   6  -4    2.37   10.54
   7   6  -4   15.27    9.08
   7   6  -4   10.86   11.78
  -7  -6   4   -4.25    9.59
  -7  -6   4    2.91   16.98
  -7  -6   4   -4.16    8.65
   6   6  -4  634.69   39.15
   6   6  -4  559.74   38.71
   6   6  -4  592.14   41.49
  -6  -6   4  629.05   37.29
  -6  -6   4  558.38   41.72
  -6  -6   4  575.82   41.25
   5   6  -4   -5.01    5.18
   5   6  -4   10.78    9.83
   5   6  -4   -3.44    8.45
   5   6  -4    0.88   10.74
  -5  -6   4   -5.87    6.66
  -5  -6   4    6.84    7.88
  -5  -6   4    3.08    6.30
  -5  -6   4   -8.03    6.05
   4   6  -4 1101.30   62.10
   4   6  -4 1038.92   61.09
   4   6  -4 1011.69   58.74
  -4  -6   4 1095.63   57.83
  -4  -6   4 1137.38   63.81
  -4  -6   4 1106.47   61.97
  -4  -6   4 1181.84   58.48
   3   6  -4   10.67    6.80
   3   6  -4   -1.67    8.78
   3   6  -4   14.00    6.70
  -3  -6   4   18.68    6.07
  -3  -6   4    8.69    4.63
  -3  -6   4    6.46    8.67
  -3  -6   4    6.14    5.97
   2   6  -4 1269.56   70.86
   2   6  -4 1219.18   69.59
   2   6  -4 1235.51   69.92
   2   6  -4 1305.55   71.90
  -2  -6   4 1455.68   66.72
  -2  -6   4 1260.20   72.13
  -2  -6   4 1400.91   70.61
  -2  -6   4 1396.88   68.87
   1   6  -4   -3.85    4.80
   1   6  -4   -5.26    6.26
   1   6  -4    0.24    1.89
   1   6  -4    3.72    5.31
   1   6  -4    0.69    1.36
   1   6  -4    2.17    4.30
  -1  -6   4   -1.50    4.69
  -1  -6   4    4.99    1.75
  -1  -6   4   -7.75    6.57
  -1  -6   4   -1.57    4.49
   0   6  -4 1968.32  106.27
   0   6  -4 2066.67  102.90
   0   6  -4 2280.61  106.97
   0   6  -4 2233.08  107.55
   0   6  -4 2101.99  102.81
   0   6  -4 1857.13  105.57
   0  -6   4 2041.67  104.48
   0  -6   4 2097.52  105.41
   0  -6   4 2079.34  110.80
   0  -6   4 2144.90  108.11
  -1   6  -4   11.75    7.05
  -1   6  -4    3.08    5.53
  -1   6  -4    1.63    3.79
  -1   6  -4   -5.47    4.94
   1  -6   4   14.40    7.94
   1  -6   4   -3.35    3.46
   1  -6   4    9.07    5.69
   1  -6   4   -1.36    9.24
   1  -6   4    1.92    1.93
  -2   6  -4 1842.77   90.95
  -2   6  -4 1809.73   92.09
  -2   6  -4 1885.35   93.25
   2  -6   4 1697.20   89.50
   2  -6   4 1762.58   94.68
   2  -6   4 1843.25   97.26
   2  -6   4 1823.50   92.57
  -3   6  -4    5.09    5.48
  -3   6  -4   -1.23    4.64
   3  -6   4    3.54    6.90
   3  -6   4    3.16    9.60
   3  -6   4   -0.76    4.06
   3  -6   4    8.10    8.31
   3  -6   4    4.24    5.95
  -4   6  -4  873.47   44.27
  -4   6  -4  803.48   42.45
  -4   6  -4  898.06   47.52
  -4   6  -4  738.48   39.66
  -4   6  -4  778.30   44.10
   4  -6   4  836.56   47.23
   4  -6   4  767.24   43.33
   4  -6   4  707.06   44.38
   4  -6   4  834.01   47.97
   4  -6   4  886.49   50.52
  -5   6  -4  -13.20    7.81
  -5   6  -4    3.77    7.83
  -5   6  -4  -10.28    6.54
   5  -6   4   13.74    9.34
   5  -6   4    2.85    6.16
   5  -6   4   11.70    8.44
   5  -6   4   11.92    8.68
  -6   6  -4  507.16   32.34
  -6   6  -4  452.82   33.57
  -6   6  -4  485.67   32.79
   6  -6   4  509.98   32.93
   6  -6   4  520.25   34.65
   6  -6   4  511.71   37.72
   6  -6   4  500.91   33.54
  -7   6  -4   -7.77    6.81
  -7   6  -4   -0.47    7.18
   7  -6   4    1.59    9.73
   7  -6   4    1.15   10.36
   7  -6   4    0.16    9.77
  -8   6  -4  263.10   25.38
  -8   6  -4  196.53   24.74
   8  -6   4  229.17   24.96
   8  -6   4  231.86   30.43
   8  -6   4  272.13   27.36
  -9   6  -4   -7.71   11.35
   9  -6   4   23.97   14.68
   9   5  -4  185.11   25.14
   9   5  -4  178.13   26.06
  -9  -5   4  151.39   27.91
   8   5  -4    7.30   10.82
   8   5  -4    6.01   12.98
   8   5  -4   12.99   15.01
  -8  -5   4    0.35   13.73
  -8  -5   4   15.74   13.73
   7   5  -4  340.32   34.41
   7   5  -4  371.91   31.12
   7   5  -4  439.31   33.36
  -7  -5   4  404.69   29.48
  -7  -5   4  366.10   35.30
   6   5  -4    3.56    7.85
   6   5  -4    3.49    8.88
   6   5  -4    7.28    8.38
  -6  -5   4    2.98   11.13
  -6  -5   4   -0.93    6.64
  -6  -5   4   -0.69    7.50
   5   5  -4  845.89   52.67
   5   5  -4 1003.73   50.25
   5   5  -4  891.71   51.32
   5   5  -4  876.51   51.13
  -5  -5   4  865.59   52.63
  -5  -5   4  872.45   50.18
  -5  -5   4  956.31   49.23
   4   5  -4    8.88    6.04
   4   5  -4   11.25    7.15
   4   5  -4   16.47    8.57
   4   5  -4    4.73    5.97
  -4  -5   4    7.84    6.38
  -4  -5   4    5.59    6.81
  -4  -5   4   11.24    5.37
  -4  -5   4    2.46    6.06
  -4  -5   4    6.72    2.97
   3   5  -4 1394.26   73.29
   3   5  -4 1431.78   72.47
   3   5  -4 1386.66   74.89
   3   5  -4 1364.43   73.56
  -3  -5   4 1352.72   70.51
  -3  -5   4 1519.09   75.74
  -3  -5   4 1366.51   71.08
  -3  -5   4 1325.16   73.39
   2   5  -4   14.49    6.03
   2   5  -4   -1.57    5.75
   2   5  -4    6.42    5.86
   2   5  -4    5.93    5.25
  -2  -5   4   17.12    4.72
  -2  -5   4   19.06    6.37
  -2  -5   4   16.13    4.15
  -2  -5   4   11.70    7.58
   1   5  -4 1697.16   83.63
   1   5  -4 1645.91   84.38
   1   5  -4 1647.79   83.08
   1   5  -4 1624.04   82.86
  -1  -5   4 1531.36   84.08
  -1  -5   4 1631.87   79.76
  -1  -5   4 1608.97   81.18
  -1  -5   4 1489.85   81.69
   0   5  -4   -2.52    2.00
   0   5  -4    0.88    3.49
   0   5  -4    2.04    4.20
   0   5  -4    8.40    4.86
   0   5  -4    1.12    2.02
   0   5  -4   -5.52    3.85
   0  -5   4   -2.14    5.08
   0  -5   4   -5.30    3.49
   0  -5   4   -0.95    2.30
   0  -5   4    2.00    3.01
   0  -5   4   -7.20    5.54
   0  -5   4    3.79    2.16
  -1   5  -4 1414.96   76.32
  -1   5  -4 1501.87   76.40
  -1   5  -4 1632.65   79.04
  -1   5  -4 1540.46   78.71
  -1   5  -4 1528.27   75.96
  -1   5  -4 1593.75   78.37
   1  -5   4 1531.92   82.29
   1  -5   4 1571.87   79.63
   1  -5   4 1403.91   75.34
   1  -5   4 1587.25   75.78
   1  -5   4 1512.91   77.46
  -2   5  -4   -3.51    4.06
  -2   5  -4    9.02    5.07
  -2   5  -4    4.81    3.92
  -2   5  -4    7.90    3.15
   2  -5   4   -0.90    3.73
   2  -5   4   10.56    3.58
   2  -5   4   10.81    6.18
   2  -5   4   10.62    6.64
  -3   5  -4 1892.65   88.58
  -3   5  -4 1882.28   88.79
  -3   5  -4 1672.64   86.59
   3  -5   4 1667.75   90.69
   3  -5   4 1656.72   89.29
   3  -5   4 1747.41   91.91
   3  -5   4 1687.94   88.22
   3  -5   4 1785.15   93.62
  -4   5  -4    7.21    3.16
  -4   5  -4    0.71    5.07
  -4   5  -4    8.85    5.93
  -4   5  -4   -3.39    5.30
   4  -5   4    5.49    5.66
   4  -5   4    2.62    6.58
   4  -5   4    2.54    4.81
   4  -5   4   -3.95    7.21
   4  -5   4    8.66    7.20
  -5   5  -4  828.54   44.01
  -5   5  -4  824.35   47.82
  -5   5  -4  829.52   49.41
  -5   5  -4  899.69   47.22
   5  -5   4  831.58   51.81
   5  -5   4  948.69   49.11
   5  -5   4  826.15   47.61
   5  -5   4  837.62   49.59
  -6   5  -4   10.22    8.91
  -6   5  -4   -2.78    6.32
  -6   5  -4   -4.04    7.80
   6  -5   4    1.05   10.58
   6  -5   4    0.36    8.73
   6  -5   4   -2.70    8.09
  -7   5  -4  395.10   27.24
  -7   5  -4  457.00   30.85
   7  -5   4  413.42   36.89
   7  -5   4  381.48   28.37
   7  -5   4  362.26   30.98
  -8   5  -4    1.99   12.62
  -8   5  -4   23.27   11.69
   8  -5   4    1.23   10.88
   8  -5   4    0.89   10.48
   8  -5   4    0.11   14.96
  -9   5  -4  182.21   22.87
   9  -5   4  196.97   22.90
 -10   5  -4   -2.66    9.73
  10  -5   4  -14.48   13.04
   9   4  -4   14.85   16.78
   9   4  -4    7.13   13.75
  -9  -4   4    6.47   15.98
   8   4  -4  289.24   25.71
   8   4  -4  295.06   30.45
   8   4  -4  285.37   28.15
  -8  -4   4  251.93   30.51
  -8  -4   4  248.47   27.88
   7   4  -4   16.22    9.05
   7   4  -4   22.10   11.38
   7   4  -4   -2.09    8.30
  -7  -4   4    6.86    9.14
  -7  -4   4    7.12   10.18
  -7  -4   4   -5.39    7.85
   6   4  -4  540.25   33.83
   6   4  -4  511.34   34.59
   6   4  -4  527.54   36.63
  -6  -4   4  549.99   31.71
  -6  -4   4  550.03   34.68
  -6  -4   4  498.28   35.32
   5   4  -4   -5.61    6.85
   5   4  -4   -1.46    7.93
   5   4  -4   19.94    8.05
  -5  -4   4   -3.97    5.27
  -5  -4   4    3.18    6.80
  -5  -4   4   -0.03    3.15
  -5  -4   4    3.86    6.98
   4   4  -4 1669.69   86.77
   4   4  -4 1630.84   86.79
   4   4  -4 1639.28   88.17
   4   4  -4 1717.10   85.46
   4   4  -4 1667.77   86.26
  -4  -4   4 1640.85   83.73
  -4  -4   4 1656.50   85.89
  -4  -4   4 1659.27   87.98
  -4  -4   4 1660.87   83.00
   3   4  -4   35.02    7.13
   3   4  -4   46.42    8.78
   3   4  -4   32.41    6.01
   3   4  -4   41.73    7.89
  -3  -4   4   37.68    5.31
  -3  -4   4   30.61    5.39
  -3  -4   4   16.73    6.09
  -3  -4   4   41.30    8.07
   2   4  -4 2112.87  111.93
   2   4  -4 2175.76  111.39
   2   4  -4 2089.91  111.95
   2   4  -4 2166.36  112.88
   2   4  -4 2316.15  112.20
  -2  -4   4 2242.96  113.33
  -2  -4   4 2207.48  110.23
  -2  -4   4 2308.13  109.24
  -2  -4   4 2254.55  111.98
   1   4  -4   97.73   11.14
   1   4  -4   94.85   10.08
   1   4  -4   78.82    9.19
   1   4  -4   76.10    8.75
  -1  -4   4   93.36    7.55
  -1  -4   4   88.84    7.67
  -1  -4   4   69.94    8.29
  -1  -4   4   79.98   10.58
   0   4  -4 3609.91  170.64
   0   4  -4 3629.20  171.67
   0   4  -4 3281.12  172.08
   0   4  -4 3446.55  167.66
   0   4  -4 3185.00  167.63
   0   4  -4 3361.90  171.59
   0   4  -4 3438.02  171.48
   0  -4   4 3603.87  169.85
   0  -4   4 3529.21  169.85
   0  -4   4 3592.33  174.61
   0  -4   4 3368.94  171.94
  -1   4  -4   87.50    8.09
  -1   4  -4  111.56    8.13
  -1   4  -4   99.53    7.10
  -1   4  -4  105.63   10.81
  -1   4  -4  102.90    9.66
  -1   4  -4   74.72    8.92
   1  -4   4   91.19   10.20
   1  -4   4   72.73    6.92
   1  -4   4   98.61    8.53
   1  -4   4   71.15    5.68
   1  -4   4   78.73   11.00
  -2   4  -4 1986.45  101.76
  -2   4  -4 1929.30   97.50
  -2   4  -4 1916.08   97.39
  -2   4  -4 2004.72   98.62
  -2   4  -4 1952.67   99.25
   2  -4   4 2004.28   97.84
   2  -4   4 1906.97   98.32
   2  -4   4 1966.07  102.22
   2  -4   4 1992.20   99.79
  -3   4  -4   26.56    4.29
  -3   4  -4   14.13    4.30
  -3   4  -4   17.91    5.15
  -3   4  -4   30.01    8.99
   3  -4   4   17.78    6.22
   3  -4   4   20.45    6.53
   3  -4   4   28.08    5.73
   3  -4   4   13.46    4.64
   3  -4   4   20.08    8.71
  -4   4  -4 1683.35   79.12
  -4   4  -4 1560.59   79.59
   4  -4   4 1449.18   80.57
   4  -4   4 1578.12   79.59
   4  -4   4 1520.77   79.31
   4  -4   4 1478.59   82.56
   4  -4   4 1459.12   79.03
  -5   4  -4    6.15    6.79
  -5   4  -4    0.60    6.13
  -5   4  -4    8.66    2.70
   5  -4   4    6.60    9.36
   5  -4   4   21.96    7.70
   5  -4   4   -2.57    4.88
   5  -4   4    4.83    1.44
  -6   4  -4  696.80   38.36
  -6   4  -4  597.94   34.38
  -6   4  -4  692.67   39.69
   6  -4   4  697.05   40.99
   6  -4   4  610.39   38.82
   6  -4   4  698.65   43.60
  -7   4  -4   10.47   10.09
  -7   4  -4   17.32    9.31
   7  -4   4    5.83    9.33
   7  -4   4    5.30    9.25
   7  -4   4   15.57    9.76
  -8   4  -4  315.49   28.91
  -8   4  -4  335.39   27.84
   8  -4   4  307.80   27.53
   8  -4   4  249.24   30.57
   8  -4   4  348.08   30.14
  -9   4  -4   -3.39   11.03
   9  -4   4   14.68    9.53
   9  -4   4   -2.45   12.34
   9  -4   4  -12.41   18.79
 -10   4  -4  119.46   20.75
  10  -4   4   94.89   20.10
   9   3  -4  238.20   26.32
   9   3  -4  247.91   30.56
  -9  -3   4  227.97   28.32
   8   3  -4    6.57    8.81
   8   3  -4   16.76   12.51
   8   3  -4   -8.59    7.99
  -8  -3   4   16.57   13.11
  -8  -3   4   -4.15   10.02
  -8  -3   4   -5.19   13.15
   7   3  -4  507.86   34.83
   7   3  -4  516.74   33.34
   7   3  -4  492.79   31.47
  -7  -3   4  496.94   33.72
  -7  -3   4  460.65   34.64
   6   3  -4   15.38    7.74
   6   3  -4   11.32    7.45
   6   3  -4    4.18    7.19
  -6  -3   4   -6.65    8.45
  -6  -3   4    5.22    6.39
  -6  -3   4    8.64    9.25
  -6  -3   4    1.03    4.85
   5   3  -4  979.30   55.46
   5   3  -4  966.26   56.21
   5   3  -4  995.14   54.20
  -5  -3   4 1107.93   57.42
  -5  -3   4  999.22   52.51
  -5  -3   4  940.99   51.70
  -5  -3   4 1047.47   55.51
   4   3  -4   14.97    6.54
   4   3  -4    2.47    5.31
   4   3  -4  -10.33    4.39
   4   3  -4    5.11    4.32
   4   3  -4   -2.34    6.08
  -4  -3   4   13.84    5.77
  -4  -3   4   -3.62    4.38
  -4  -3   4    1.04    3.71
  -4  -3   4    5.14    4.32
   3   3  -4 2014.35   97.35
   3   3  -4 1866.08   96.35
   3   3  -4 1892.04   98.16
   3   3  -4 1885.64   97.37
  -3  -3   4 1910.09   95.57
  -3  -3   4 1854.86   96.55
  -3  -3   4 1839.87   97.62
  -3  -3   4 1957.48   94.28
   2   3  -4   27.96    7.19
   2   3  -4   14.13    4.28
   2   3  -4   23.79    5.65
   2   3  -4   24.44    5.59
   2   3  -4   18.97    5.68
  -2  -3   4   18.39    2.94
  -2  -3   4   27.52    5.42
  -2  -3   4   14.64    4.47
   1   3  -4 7376.82  347.79
   1   3  -4 7656.82  347.88
   1   3  -4 6629.48  347.67
   1   3  -4 7452.56  347.50
   1   3  -4 7074.78  347.29
   1   3  -4 7331.90  348.66
  -1  -3   4 6753.21  346.70
  -1  -3   4 6170.67  347.40
  -1  -3   4 7042.12  344.69
  -1  -3   4 7055.48  346.53
  -1  -3   4 7530.15  344.75
   0   3  -4   17.14    5.13
   0   3  -4    2.25    3.80
   0   3  -4    6.24    4.86
   0   3  -4    5.39    3.85
   0   3  -4    8.96    3.72
   0  -3   4    1.72    2.63
   0  -3   4    6.39    4.08
   0  -3   4    1.11    4.74
   0  -3   4    1.86    2.63
   0  -3   4    6.33    2.31
  -1   3  -4 2813.29  147.64
  -1   3  -4 3036.96  146.42
  -1   3  -4 2911.75  143.55
  -1   3  -4 2837.35  145.51
  -1   3  -4 2931.92  143.91
  -1   3  -4 2999.02  145.92
  -1   3  -4 2949.39  145.09
   1  -3   4 3018.40  143.39
   1  -3   4 2930.98  145.66
   1  -3   4 2962.75  148.17
   1  -3   4 2923.72  144.38
  -2   3  -4   12.46    3.49
  -2   3  -4   13.43    6.76
  -2   3  -4   10.97    3.58
  -2   3  -4    4.75    3.35
  -2   3  -4    6.86    3.69
  -2   3  -4    3.67    2.84
   2  -3   4   17.77    7.19
   2  -3   4    9.37    3.80
   2  -3   4   10.00    4.22
   2  -3   4   13.63    6.39
   2  -3   4   13.43    4.91
  -3   3  -4 1722.43   85.18
  -3   3  -4 1674.08   84.59
  -3   3  -4 1737.27   85.76
  -3   3  -4 1638.34   87.63
   3  -3   4 1732.18   85.42
   3  -3   4 1641.98   84.92
   3  -3   4 1657.85   87.91
   3  -3   4 1686.42   85.00
   3  -3   4 1632.26   86.73
  -4   3  -4    0.07    5.45
  -4   3  -4    9.99    4.25
  -4   3  -4    6.71    2.34
   4  -3   4    3.69    1.39
   4  -3   4    8.71    4.86
   4  -3   4    1.95    3.85
   4  -3   4    3.26    5.31
   4  -3   4   -2.71    4.68
   4  -3   4    1.89    4.41
  -5   3  -4 1561.39   81.92
  -5   3  -4 1619.30   83.61
  -5   3  -4 1580.17   79.49
   5  -3   4 1592.05   82.65
   5  -3   4 1549.68   83.74
   5  -3   4 1654.53   86.08
  -6   3  -4    9.76    5.89
  -6   3  -4    2.62    4.07
  -6   3  -4    4.97    7.91
   6  -3   4    0.55    9.88
   6  -3   4    4.31    8.23
   6  -3   4   11.06    7.49
  -7   3  -4  458.58   29.62
  -7   3  -4  476.55   32.77
  -7   3  -4  446.36   27.44
   7  -3   4  465.56   33.83
   7  -3   4  459.66   30.10
   7  -3   4  500.53   32.74
  -8   3  -4   11.30    9.52
  -8   3  -4    9.45    7.44
  -8   3  -4   -0.22    9.53
   8  -3   4    4.44   10.01
   8  -3   4   20.59   11.88
   8  -3   4    4.06    9.94
  -9   3  -4  172.23   19.67
  -9   3  -4  131.75   22.18
   9  -3   4  131.14   22.11
   9  -3   4  130.84   17.71
   9  -3   4  176.87   22.49
 -10   3  -4  -12.32   11.85
  10  -3   4   26.62   14.30
  10   2  -4   96.75   21.71
  10   2  -4  171.74   27.43
 -10  -2   4  184.24   26.95
   9   2  -4    6.61   14.50
   9   2  -4   17.75   13.71
  -9  -2   4    6.06   10.92
   8   2  -4  330.14   31.06
   8   2  -4  312.68   30.14
  -8  -2   4  373.57   34.77
  -8  -2   4  336.76   27.46
  -8  -2   4  375.05   33.66
   7   2  -4    7.99    6.59
   7   2  -4   13.80   11.03
   7   2  -4   -1.43   10.51
  -7  -2   4    9.66   11.17
  -7  -2   4    2.81    7.58
  -7  -2   4  -12.09   10.91
   6   2  -4  970.36   49.19
   6   2  -4  865.78   51.40
   6   2  -4  879.66   51.02
   6   2  -4  794.17   44.02
  -6  -2   4  989.50   53.11
  -6  -2   4  917.39   48.15
  -6  -2   4  904.94   47.80
  -6  -2   4  867.69   51.20
   5   2  -4   -0.56    7.38
   5   2  -4   14.25    6.18
   5   2  -4   -2.79    5.91
   5   2  -4    7.02    8.04
  -5  -2   4    9.57    5.46
  -5  -2   4    5.41    6.12
  -5  -2   4    4.76    5.84
  -5  -2   4   -1.39    4.20
   4   2  -4 1868.03   93.03
   4   2  -4 1784.85   90.64
   4   2  -4 1787.32   92.01
   4   2  -4 1710.28   90.63
  -4  -2   4 1786.33   92.71
  -4  -2   4 1849.62   89.10
  -4  -2   4 1703.42   91.90
  -4  -2   4 1760.40   90.22
   3   2  -4    9.50    4.22
   3   2  -4    0.81    3.97
   3   2  -4   14.39    5.17
   3   2  -4    0.62    4.35
   3   2  -4    2.98    4.50
  -3  -2   4    5.37    4.21
  -3  -2   4    3.24    2.68
  -3  -2   4    6.32    4.86
   2   2  -4 2170.94  106.17
   2   2  -4 2057.82  105.45
   2   2  -4 2119.71  106.91
   2   2  -4 2082.05  106.94
   2   2  -4 2196.27  105.97
   2   2  -4 2146.20  106.32
  -2  -2   4 2158.65  103.20
  -2  -2   4 2107.04  106.12
  -2  -2   4 1987.81  103.05
   1   2  -4   90.38    8.50
   1   2  -4  100.93    9.08
   1   2  -4   55.74    7.94
   1   2  -4   85.18    7.95
   1   2  -4   85.38    9.23
   1   2  -4   91.12    8.87
   1   2  -4   99.47    9.74
  -1  -2   4   82.28    8.59
   0   2  -4 3344.96  175.77
   0   2  -4 3820.69  177.03
   0   2  -4 3763.25  177.42
   0   2  -4 3574.66  176.67
   0   2  -4 3843.09  176.91
   0   2  -4 3342.69  176.46
   0   2  -4 3593.76  177.56
   0  -2   4 3595.69  176.37
   0  -2   4 3457.67  174.20
   0  -2   4 3704.77  174.41
   0  -2   4 3422.08  178.03
  -1   2  -4   26.14    4.62
  -1   2  -4   26.33    3.30
  -1   2  -4   34.81    5.80
  -1   2  -4   25.33    3.05
  -1   2  -4   32.12    6.15
  -1   2  -4   28.91    4.77
  -1   2  -4   26.67    4.17
  -1   2  -4   33.70    4.83
   1  -2   4   31.36    4.54
   1  -2   4   34.19    6.26
   1  -2   4   29.66    3.90
  -2   2  -4 4417.73  211.75
  -2   2  -4 4300.50  209.67
  -2   2  -4 3942.30  208.54
  -2   2  -4 4279.06  209.63
  -2   2  -4 4192.17  208.76
  -2   2  -4 4189.56  208.70
   2  -2   4 4004.01  208.94
   2  -2   4 4286.33  208.05
   2  -2   4 4089.97  211.54
   2  -2   4 4091.92  207.80
   2  -2   4 4507.20  210.07
   2  -2   4 4452.76  209.03
   2  -2   4 4844.77  211.79
  -3   2  -4   69.16    8.51
  -3   2  -4   70.70    7.01
  -3   2  -4   68.42    7.21
  -3   2  -4   68.32    5.00
  -3   2  -4   65.07    9.12
  -3   2  -4   74.37    7.60
   3  -2   4   64.55    4.32
   3  -2   4   72.64    7.65
   3  -2   4   54.82    8.83
   3  -2   4   56.77    6.31
   3  -2   4   81.07    8.89
   3  -2   4   67.53    8.63
  -4   2  -4 1536.46   86.49
  -4   2  -4 1668.53   82.55
  -4   2  -4 1669.66   84.35
  -4   2  -4 1644.75   83.40
  -4   2  -4 1773.98   85.96
   4  -2   4 1713.61   85.50
   4  -2   4 1603.82   84.52
   4  -2   4 1631.59   87.02
   4  -2   4 1702.20   86.27
  -5   2  -4   -3.80    6.42
  -5   2  -4    1.89    5.50
  -5   2  -4   -4.33    3.43
  -5   2  -4    2.58    3.40
   5  -2   4   16.72    9.06
   5  -2   4    0.98    4.07
   5  -2   4    6.12    6.81
  -6   2  -4  850.46   49.91
  -6   2  -4  904.43   45.97
  -6   2  -4  863.76   46.91
  -6   2  -4  934.89   49.11
   6  -2   4  860.12   50.43
   6  -2   4  831.61   51.48
   6  -2   4  901.59   49.34
  -7   2  -4    8.93   10.03
  -7   2  -4    7.25    6.35
  -7   2  -4   14.76    6.33
  -7   2  -4   19.52    5.68
   7  -2   4    4.39    9.22
   7  -2   4    7.02    8.46
   7  -2   4   16.95    6.91
  -8   2  -4  373.96   25.61
  -8   2  -4  380.66   30.50
  -8   2  -4  355.93   31.32
   8  -2   4  396.14   32.57
   8  -2   4  376.11   34.33
   8  -2   4  346.61   29.21
  -9   2  -4   -1.68   14.06
  -9   2  -4   10.37    9.33
  -9   2  -4  -12.92   10.03
   9  -2   4    4.89   10.68
   9  -2   4    7.37    9.32
   9  -2   4    1.61   16.69
 -10   2  -4  128.20   18.34
  10  -2   4  129.68   20.70
  10  -2   4   99.05   21.72
 -11   2  -4    9.17   15.30
  11  -2   4    3.80   11.28
  10   1  -4   14.15   17.03
  10   1  -4   14.39   16.33
 -10  -1   4   -6.04   17.04
   9   1  -4  193.84   25.02
   9   1  -4  206.99   25.51
  -9  -1   4  198.32   23.31
  -9  -1   4  260.87   30.42
   8   1  -4    2.54    8.73
   8   1  -4   26.18   12.93
  -8  -1   4   13.58   14.21
  -8  -1   4   -4.06    9.09
  -8  -1   4   -2.37   12.64
   7   1  -4  685.72   43.09
   7   1  -4  695.55   44.11
   7   1  -4  650.71   38.52
  -7  -1   4  715.10   45.11
  -7  -1   4  716.78   40.63
  -7  -1   4  755.80   40.69
  -7  -1   4  618.07   44.45
   6   1  -4    2.74    6.62
   6   1  -4    4.22    3.65
   6   1  -4   -9.26    7.87
   6   1  -4    7.77    6.65
   6   1  -4   -1.93    4.40
  -6  -1   4    1.91    5.90
  -6  -1   4   12.59    7.35
  -6  -1   4   12.37    7.83
  -6  -1   4   12.56    9.35
   5   1  -4 1432.55   75.86
   5   1  -4 1341.65   70.45
   5   1  -4 1494.00   73.55
   5   1  -4 1280.60   73.15
   5   1  -4 1531.43   75.72
  -5  -1   4 1495.20   76.87
  -5  -1   4 1438.33   74.20
  -5  -1   4 1492.32   73.01
  -5  -1   4 1351.28   76.00
   4   1  -4   23.82    5.68
   4   1  -4   15.51    1.97
   4   1  -4    8.70    7.13
   4   1  -4   15.63    4.98
   4   1  -4   10.71    5.14
   4   1  -4   18.33    2.28
  -4  -1   4   24.14    6.60
  -4  -1   4   12.58    5.28
  -4  -1   4   12.17    4.02
   3   1  -4 1654.76   86.07
   3   1  -4 1712.33   84.79
   3   1  -4 1642.31   85.97
   3   1  -4 1814.91   86.04
   3   1  -4 1731.41   84.84
  -3  -1   4 1648.33   85.22
  -3  -1   4 1537.95   85.94
  -3  -1   4 1660.55   82.96
   2   1  -4   12.40    5.09
   2   1  -4   -1.54    2.79
   2   1  -4    5.12    3.37
   2   1  -4   -1.82    5.52
   2   1  -4    4.30    3.47
   2   1  -4    2.91    4.30
  -2  -1   4    5.84    2.02
  -2  -1   4    7.25    1.90
  -2  -1   4    2.44    3.83
  -2  -1   4    3.45    5.10
   1   1  -4 4986.30  242.49
   1   1  -4 4697.42  242.35
   1   1  -4 4560.23  242.27
   1   1  -4 4707.00  242.97
   1   1  -4 5195.11  243.01
   1   1  -4 5065.33  243.31
   1   1  -4 5414.05  242.29
   0   1  -4    2.29    4.02
   0   1  -4    6.03    2.91
   0   1  -4    6.63    3.26
   0   1  -4   14.28    5.51
   0   1  -4    4.28    3.99
   0   1  -4    5.66    4.72
   0   1  -4    6.18    3.55
   0  -1   4    8.98    1.38
   0  -1   4   10.61    1.31
   0  -1   4    2.33    4.01
  -1   1  -4 5224.44  266.54
  -1   1  -4 5634.12  265.39
  -1   1  -4 5493.11  267.42
  -1   1  -4 5444.68  266.85
  -1   1  -4 5643.48  266.25
  -1   1  -4 5736.67  266.99
  -1   1  -4 5277.77  264.63
   1  -1   4 5402.22  267.27
   1  -1   4 5328.35  265.58
   1  -1   4 5960.23  265.17
   1  -1   4 5323.64  264.95
   1  -1   4 5374.56  265.03
   1  -1   4 5028.85  266.85
   1  -1   4 5385.60  265.30
  -2   1  -4   34.94    4.70
  -2   1  -4   30.62    5.99
  -2   1  -4   30.68    4.71
  -2   1  -4   36.71    4.37
  -2   1  -4   41.32    3.39
  -2   1  -4   48.18    4.01
  -2   1  -4   32.68    4.82
   2  -1   4   28.92    3.03
   2  -1   4   36.54    5.68
   2  -1   4   41.02    7.13
   2  -1   4   36.05    6.41
   2  -1   4   30.51    3.85
   2  -1   4   38.30    5.23
  -3   1  -4 3042.65  146.04
  -3   1  -4 3053.02  147.25
  -3   1  -4 3009.44  149.43
  -3   1  -4 3118.89  146.52
  -3   1  -4 2826.85  146.44
   3  -1   4 2945.88  149.53
   3  -1   4 3225.92  148.72
   3  -1   4 2890.36  147.30
   3  -1   4 2940.70  146.16
   3  -1   4 2747.24  148.67
  -4   1  -4   18.16    4.22
  -4   1  -4   15.80    5.17
  -4   1  -4   19.58    5.08
  -4   1  -4   22.16    4.16
  -4   1  -4   13.58    6.58
  -4   1  -4   24.78    5.00
   4  -1   4   26.69    6.96
   4  -1   4   19.97    5.96
   4  -1   4   13.79    6.04
   4  -1   4    9.37    6.24
  -5   1  -4 1105.22   61.55
  -5   1  -4 1296.58   63.42
  -5   1  -4 1238.40   64.44
  -5   1  -4 1271.82   65.87
   5  -1   4 1217.75   64.58
   5  -1   4 1351.22   68.11
   5  -1   4 1186.13   65.72
  -6   1  -4   37.71    5.15
  -6   1  -4   39.80    7.89
  -6   1  -4   52.44   10.94
  -6   1  -4   13.87    6.05
   6  -1   4   18.69    8.25
   6  -1   4   26.69    9.90
   6  -1   4   30.62    9.39
  -7   1  -4  541.14   30.35
  -7   1  -4  583.12   36.67
  -7   1  -4  619.33   35.85
  -7   1  -4  541.72   33.88
   7  -1   4  622.74   37.03
   7  -1   4  598.85   39.89
   7  -1   4  549.77   34.53
  -8   1  -4   -2.59    9.15
  -8   1  -4   12.24    7.79
  -8   1  -4    1.14   11.30
   8  -1   4   10.74    7.61
   8  -1   4    5.73   10.09
   8  -1   4    6.37    8.68
  -9   1  -4  187.38   24.75
  -9   1  -4  214.73   21.73
  -9   1  -4  279.36   25.32
   9  -1   4  211.26   24.48
   9  -1   4  198.42   21.37
 -10   1  -4   25.17   12.93
 -10   1  -4    0.87   12.68
  10  -1   4   -7.67   13.84
  10  -1   4   10.10   13.98
  10  -1   4   -2.55   11.93
 -11   1  -4   75.35   17.08
  10   0  -4  214.31   29.09
  10   0  -4  207.59   28.13
 -10   0   4  204.04   27.70
   9   0  -4   -7.92   13.10
   9   0  -4    1.79   10.05
  -9   0   4   17.31   11.60
  -9   0   4    6.26   14.99
   8   0  -4  410.45   32.51
   8   0  -4  353.05   32.63
  -8   0   4  366.93   27.34
  -8   0   4  356.31   29.25
  -8   0   4  382.95   34.99
  -8   0   4  382.03   35.34
   7   0  -4   12.29    8.45
   7   0  -4  -10.84    6.67
   7   0  -4   -7.32    7.10
   7   0  -4   -3.18    5.19
  -7   0   4    4.89    7.41
  -7   0   4    1.83    7.58
  -7   0   4    5.77   10.98
  -7   0   4   11.14    7.79
   6   0  -4  589.11   36.51
   6   0  -4  598.88   32.96
   6   0  -4  534.30   35.87
   6   0  -4  638.87   34.88
  -6   0   4  582.24   37.33
  -6   0   4  626.72   36.27
  -6   0   4  554.87   38.12
  -6   0   4  613.69   34.56
   5   0  -4    1.70    3.48
   5   0  -4    6.90    4.67
   5   0  -4   -1.48    4.76
   5   0  -4   15.25    8.09
   5   0  -4   -4.05    4.40
  -5   0   4   -6.45    6.97
  -5   0   4   -9.05    5.08
  -5   0   4    7.55    5.28
  -5   0   4    4.10    6.49
   4   0  -4 2691.67  125.14
   4   0  -4 2334.52  125.25
   4   0  -4 2416.69  126.72
   4   0  -4 2485.37  123.23
   4   0  -4 2543.09  126.95
  -4   0   4 2490.03  127.82
  -4   0   4 2380.28  124.43
  -4   0   4 2542.96  126.57
  -4   0   4 2693.57  127.17
   3   0  -4    6.59    3.66
   3   0  -4   -2.56    3.22
   3   0  -4   -2.43    4.57
   3   0  -4   -0.11    1.01
   3   0  -4   -0.18    4.25
   3   0  -4   -3.42    3.58
  -3   0   4   -0.10    4.16
  -3   0   4    6.71    3.18
  -3   0   4   -0.09    5.49
  -3   0   4   -0.99    3.11
   2   0  -4 4374.26  210.79
   2   0  -4 4425.20  211.04
   2   0  -4 4137.29  210.58
   2   0  -4 4325.11  210.17
   2   0  -4 4112.18  209.95
  -2   0   4 4678.19  212.20
  -2   0   4 4356.24  211.29
  -2   0   4 3892.74  208.55
   1   0  -4    2.87    4.99
   1   0  -4    1.30    3.22
   1   0  -4    4.95    3.17
   1   0  -4   -2.90    2.64
   1   0  -4    5.55    4.09
   1   0  -4    2.06    3.01
  -1   0   4    6.24    2.14
  -1   0   4    2.96    1.82
   0   0  -4 9292.56  439.32
   0   0  -4 8558.81  438.25
   0   0  -4 9468.04  439.42
   0   0  -4 9227.98  438.39
   0   0  -4 8508.90  438.63
   0   0   4 8952.24  438.74
   0   0   4 8194.85  438.42
   0   0   4 9999.00  443.44
  -1   0  -4    2.25    2.95
  -1   0  -4    4.02    3.44
  -1   0  -4    3.22    2.48
  -1   0  -4    7.67    3.86
  -1   0  -4    2.43    2.66
  -1   0  -4    0.08    3.08
   1   0   4    3.94    2.57
   1   0   4    5.86    1.50
   1   0   4    1.21    2.48
   1   0   4    4.78    4.07
   1   0   4    0.85    2.39
   1   0   4    6.70    3.69
   1   0   4   -4.90    2.84
  -2   0  -4 3659.26  183.89
  -2   0  -4 3598.50  183.98
  -2   0  -4 3704.16  185.60
  -2   0  -4 3474.77  184.28
  -2   0  -4 3892.87  183.89
  -2   0  -4 3754.37  183.23
   2   0   4 3914.59  184.34
   2   0   4 3810.99  185.51
   2   0   4 3778.75  185.77
   2   0   4 3676.81  184.12
   2   0   4 4000.43  185.82
   2   0   4 3825.31  183.84
  -3   0  -4    5.03    3.92
  -3   0  -4    4.16    2.27
  -3   0  -4    5.66    3.25
  -3   0  -4   -1.45    3.62
  -3   0  -4    5.18    2.46
   3   0   4   -2.16    4.94
   3   0   4    3.38    4.38
   3   0   4   -2.75    2.70
   3   0   4    3.51    4.77
  -4   0  -4 3287.41  146.58
  -4   0  -4 2808.53  144.50
  -4   0  -4 2888.25  143.75
  -4   0  -4 2903.77  148.26
  -4   0  -4 3013.47  147.64
  -4   0  -4 2884.19  145.81
   4   0   4 3072.56  148.77
   4   0   4 2839.47  146.15
   4   0   4 2765.29  147.56
   4   0   4 2994.08  147.40
  -5   0  -4    4.51    4.25
  -5   0  -4    1.73    4.59
  -5   0  -4    0.35    1.85
  -5   0  -4    0.56    4.55
   5   0   4    1.39    4.32
   5   0   4   -4.21    7.49
   5   0   4    4.99    5.24
  -6   0  -4  653.81   33.80
  -6   0  -4  690.32   40.59
  -6   0  -4  671.45   38.71
  -6   0  -4  736.88   39.34
   6   0   4  752.76   39.58
   6   0   4  687.06   40.84
   6   0   4  663.40   41.78
  -7   0  -4    0.72    6.78
  -7   0  -4   -7.32    5.19
  -7   0  -4    0.07    6.78
   7   0   4    5.09    9.70
   7   0   4   -4.16    7.58
   7   0   4    6.78    8.86
  -8   0  -4  352.46   25.65
  -8   0  -4  314.01   29.53
  -8   0  -4  320.24   27.31
   8   0   4  357.72   31.28
   8   0   4  319.58   27.25
  -9   0  -4   25.95   13.89
  -9   0  -4   12.80   10.60
  -9   0  -4    6.86   11.55
   9   0   4    2.76    9.11
   9   0   4    1.46    8.03
   9   0   4    7.19   10.19
 -10   0  -4  147.49   21.57
 -10   0  -4  224.23   25.41
  10   0   4  164.35   26.09
 -11   0  -4    9.69   15.38
  11   0   4    1.09   14.16
  11   0   4    5.82   18.50
  10  -1  -4  -26.11   14.55
  10  -1  -4   21.93   17.98
 -10   1   4    9.09   18.14
 -10   1   4   -9.91   14.35
   9  -1  -4  220.14   25.37
   9  -1  -4  226.44   26.54
  -9   1   4  278.74   30.68
  -9   1   4  178.62   22.83
  -9   1   4  204.30   23.50
   8  -1  -4    8.61    8.97
   8  -1  -4    7.66   12.90
   8  -1  -4    5.48    8.38
  -8   1   4    9.52   12.55
  -8   1   4   16.36   10.51
  -8   1   4   -0.98    8.62
  -8   1   4   -8.57   12.78
   7  -1  -4  598.23   41.39
   7  -1  -4  694.79   42.59
   7  -1  -4  673.54   37.53
   7  -1  -4  670.78   39.09
  -7   1   4  649.02   43.44
  -7   1   4  771.73   40.92
  -7   1   4  639.39   41.49
  -7   1   4  747.51   43.82
   6  -1  -4   12.19    7.67
   6  -1  -4   11.53    6.54
   6  -1  -4    1.63    5.54
   6  -1  -4    1.03    4.60
  -6   1   4   10.17    8.28
  -6   1   4    2.81    7.17
  -6   1   4   15.62    7.73
   5  -1  -4 1372.90   73.62
   5  -1  -4 1500.05   72.66
   5  -1  -4 1374.60   70.71
   5  -1  -4 1453.17   74.51
  -5   1   4 1457.50   74.48
  -5   1   4 1448.98   73.63
  -5   1   4 1384.45   75.34
  -5   1   4 1302.42   69.87
  -5   1   4 1326.09   71.95
   4  -1  -4   32.02    5.37
   4  -1  -4   17.41    7.27
   4  -1  -4   17.65    6.48
   4  -1  -4   23.35    6.68
   4  -1  -4   18.60    4.41
  -4   1   4   20.59    7.58
  -4   1   4   23.64    7.15
  -4   1   4   14.80    4.91
  -4   1   4   24.06    6.40
  -4   1   4   21.97    3.47
   3  -1  -4 1677.48   86.50
   3  -1  -4 1721.52   89.13
   3  -1  -4 1779.25   88.82
   3  -1  -4 1790.74   88.53
   3  -1  -4 1695.77   86.39
   3  -1  -4 1791.92   88.23
  -3   1   4 1753.83   87.45
  -3   1   4 1713.58   89.63
  -3   1   4 1792.94   87.74
  -3   1   4 1753.97   90.45
   2  -1  -4    6.39    2.78
   2  -1  -4    9.54    4.41
   2  -1  -4    0.18    3.98
   2  -1  -4   13.99    4.75
   2  -1  -4   -1.10    3.23
   2  -1  -4    4.19    2.40
  -2   1   4    0.36    5.08
  -2   1   4    7.85    1.93
  -2   1   4   -1.63    2.90
  -2   1   4    8.28    3.32
  -2   1   4    5.56    4.49
   1  -1  -4 4788.11  240.89
   1  -1  -4 5492.79  241.06
   1  -1  -4 5114.33  243.15
   1  -1  -4 5048.23  242.54
   1  -1  -4 5108.60  242.57
   1  -1  -4 4673.02  242.18
  -1   1   4 4718.42  243.58
  -1   1   4 5002.71  241.07
  -1   1   4 4805.04  242.12
  -1   1   4 5080.62  241.22
  -1   1   4 4604.53  241.59
   0  -1  -4   10.46    3.39
   0  -1  -4    3.42    2.96
   0  -1  -4   13.59    3.94
   0  -1  -4   12.54    3.37
   0  -1  -4   10.92    3.10
   0  -1  -4   11.14    3.63
   0  -1  -4    9.69    3.52
   0   1   4    2.03    2.20
   0   1   4   11.62    3.82
   0   1   4    4.14    2.86
   0   1   4    9.90    2.99
   0   1   4   13.56    3.20
  -1  -1  -4 5709.50  272.33
  -1  -1  -4 5515.96  274.35
  -1  -1  -4 5353.73  273.34
  -1  -1  -4 5810.81  273.23
  -1  -1  -4 5353.82  272.76
  -1  -1  -4 5741.88  273.65
  -1  -1  -4 5705.85  272.33
   1   1   4 5221.62  272.35
   1   1   4 5710.25  274.10
   1   1   4 5785.67  273.14
   1   1   4 5454.40  273.29
   1   1   4 5703.73  274.36
   1   1   4 5734.49  272.26
  -2  -1  -4   52.31    5.81
  -2  -1  -4   39.77    3.68
  -2  -1  -4   33.92    6.13
  -2  -1  -4   29.59    5.94
   2   1   4   42.20    3.38
   2   1   4   49.82    7.96
   2   1   4   40.98    6.70
   2   1   4   31.93    4.20
  -3  -1  -4 3050.74  150.38
  -3  -1  -4 3047.27  151.98
  -3  -1  -4 2912.00  153.32
  -3  -1  -4 3207.89  152.60
   3   1   4 3209.26  153.79
   3   1   4 2824.32  151.80
   3   1   4 3435.93  154.06
   3   1   4 3048.03  150.11
   3   1   4 2954.04  152.93
  -4  -1  -4   25.37    7.80
  -4  -1  -4   16.08    6.54
  -4  -1  -4   19.65    5.74
  -4  -1  -4   19.15    5.97
   4   1   4   13.18    6.01
   4   1   4   25.25    6.82
   4   1   4   23.88    6.11
   4   1   4   19.51    5.50
  -5  -1  -4 1283.57   67.21
  -5  -1  -4 1208.89   65.62
  -5  -1  -4 1297.41   65.54
   5   1   4 1278.08   65.56
   5   1   4 1141.44   67.40
   5   1   4 1295.95   67.59
  -6  -1  -4   26.94    7.57
  -6  -1  -4   19.55    6.65
  -6  -1  -4   33.44    8.57
   6   1   4   40.59    9.95
   6   1   4   37.41    8.89
   6   1   4   31.77   11.18
  -7  -1  -4  573.60   35.82
  -7  -1  -4  582.19   38.62
  -7  -1  -4  608.99   36.46
   7   1   4  577.89   39.38
   7   1   4  635.90   34.28
  -8  -1  -4   10.98   11.56
  -8  -1  -4    5.21    7.41
  -8  -1  -4   13.09    7.71
   8   1   4    3.87    9.10
   8   1   4    8.81    7.56
  -9  -1  -4  225.22   23.92
  -9  -1  -4  244.13   25.28
  -9  -1  -4  219.89   25.60
   9   1   4  237.72   22.84
   9   1   4  205.62   26.22
   9   1   4  255.23   31.63
 -10  -1  -4  -16.09   12.00
 -10  -1  -4   12.21   13.21
  10   1   4   -1.87   12.45
  10   1   4  -11.75   14.95
 -11  -1  -4   68.98   19.08
 -11  -1  -4   74.16   20.97
  11   1   4   46.28   20.78
  11   1   4   61.89   18.00
  10  -2  -4  150.27   26.61
  10  -2  -4  102.38   23.01
 -10   2   4  155.27   27.73
 -10   2   4  117.61   21.74
   9  -2  -4   18.97   12.93
   9  -2  -4    8.47   13.99
  -9   2   4   -6.92    9.59
  -9   2   4    3.92   12.95
  -9   2   4   -4.94   12.00
   8  -2  -4  329.30   25.99
   8  -2  -4  325.44   29.77
   8  -2  -4  395.74   33.67
   8  -2  -4  338.34   24.09
  -8   2   4  378.21   30.31
  -8   2   4  355.94   32.18
  -8   2   4  385.57   34.72
  -8   2   4  347.35   31.02
   7  -2  -4   17.18    7.90
   7  -2  -4    4.37    6.55
   7  -2  -4    6.16    8.63
   7  -2  -4    5.23    7.28
  -7   2   4   10.26   10.52
  -7   2   4    2.92    8.55
  -7   2   4   24.09   12.89
   6  -2  -4  848.42   46.13
   6  -2  -4  876.83   48.70
   6  -2  -4  848.94   50.15
   6  -2  -4  914.37   47.25
  -6   2   4  827.69   47.23
  -6   2   4  840.23   51.45
  -6   2   4  803.08   49.87
   5  -2  -4    7.12    4.84
   5  -2  -4    5.80    5.54
   5  -2  -4    2.54    6.26
   5  -2  -4    3.55    5.57
  -5   2   4    2.80    6.03
  -5   2   4   13.80    6.24
  -5   2   4    9.00    8.71
  -5   2   4    2.87    5.74
   4  -2  -4 1893.61   91.61
   4  -2  -4 1788.63   90.38
   4  -2  -4 1741.85   91.45
  -4   2   4 1837.01   94.32
  -4   2   4 1738.29   93.53
  -4   2   4 1760.00   90.98
  -4   2   4 1847.97   91.51
   3  -2  -4    6.13    3.99
   3  -2  -4    3.05    3.76
   3  -2  -4    8.02    4.51
   3  -2  -4    1.22    3.80
  -3   2   4   -2.12    4.06
  -3   2   4    7.53    3.44
  -3   2   4    1.69    5.93
  -3   2   4   -4.99    5.69
   2  -2  -4 2076.14  107.68
   2  -2  -4 2177.28  108.93
   2  -2  -4 1986.41  108.50
   2  -2  -4 2199.05  107.93
   2  -2  -4 2287.44  107.78
  -2   2   4 2088.63  108.30
  -2   2   4 2296.67  106.64
  -2   2   4 2144.79  110.32
  -2   2   4 2287.47  110.80
   1  -2  -4   71.70    8.19
   1  -2  -4   94.61    7.42
   1  -2  -4   78.28    5.47
   1  -2  -4   93.09    7.61
   1  -2  -4   72.44    6.99
   1  -2  -4   87.25    8.31
  -1   2   4   83.51    5.71
  -1   2   4   61.69    7.51
  -1   2   4   97.40    7.20
  -1   2   4   57.53    8.22
   0  -2  -4 3844.07  177.25
   0  -2  -4 3659.22  176.39
   0  -2  -4 3361.27  176.64
   0  -2  -4 3622.54  177.57
   0  -2  -4 3656.79  175.07
   0  -2  -4 3684.03  176.19
   0  -2  -4 3583.97  176.72
   0  -2  -4 3575.68  176.39
   0   2   4 3577.55  176.45
   0   2   4 3340.48  175.89
   0   2   4 3722.79  176.94
   0   2   4 3549.96  178.09
  -1  -2  -4   33.68    3.37
  -1  -2  -4   23.74    5.22
  -1  -2  -4   34.09    4.94
  -1  -2  -4   26.29    5.60
  -1  -2  -4   26.09    4.28
  -1  -2  -4   27.00    4.33
   1   2   4   37.18    4.94
   1   2   4   38.41    5.16
   1   2   4   41.89    5.73
   1   2   4   20.39    4.16
   1   2   4   28.73    4.75
  -2  -2  -4 4113.21  213.20
  -2  -2  -4 4112.16  214.10
  -2  -2  -4 4311.61  214.58
  -2  -2  -4 4325.72  215.26
  -2  -2  -4 4684.44  213.36
   2   2   4 4244.72  214.09
   2   2   4 4729.73  213.27
   2   2   4 4421.06  214.67
   2   2   4 4246.93  215.16
  -3  -2  -4   53.25    8.41
  -3  -2  -4   59.84    8.99
  -3  -2  -4   68.96    8.34
  -3  -2  -4   81.19    7.11
   3   2   4   65.92    5.40
   3   2   4   48.25    8.06
   3   2   4   66.94    8.37
   3   2   4   67.51    8.71
   3   2   4   62.29    8.55
  -4  -2  -4 1575.93   86.31
  -4  -2  -4 1624.19   85.21
  -4  -2  -4 1790.01   87.64
  -4  -2  -4 1795.43   88.89
   4   2   4 1669.95   86.50
   4   2   4 1719.95   83.33
   4   2   4 1640.98   88.20
   4   2   4 1641.56   87.38
   4   2   4 1840.84   88.90
  -5  -2  -4   11.40    6.68
  -5  -2  -4    2.82    5.99
  -5  -2  -4    1.49    5.09
   5   2   4   -4.59    5.39
   5   2   4    1.07    5.61
   5   2   4    6.58    3.20
  -6  -2  -4  811.89   48.78
  -6  -2  -4  954.24   50.49
  -6  -2  -4  903.08   51.34
   6   2   4  890.37   46.25
   6   2   4  943.55   53.03
   6   2   4  846.57   49.36
  -7  -2  -4    7.05    7.88
  -7  -2  -4   11.06    8.74
  -7  -2  -4   14.70    8.60
   7   2   4   44.54   14.58
   7   2   4    7.62    6.23
   7   2   4   11.74    6.53
  -8  -2  -4  326.42   30.66
  -8  -2  -4  375.30   31.86
  -8  -2  -4  330.56   29.35
   8   2   4  404.24   24.63
   8   2   4  455.63   37.00
   8   2   4  392.09   26.87
  -9  -2  -4   10.77   10.78
  -9  -2  -4   15.46    9.15
  -9  -2  -4    9.98   12.79
   9   2   4   11.55   10.86
   9   2   4   -5.26   13.30
 -10  -2  -4  118.37   19.82
 -10  -2  -4  104.07   20.05
  10   2   4   95.13   17.79
  10   2   4   90.34   21.61
 -11  -2  -4    9.61   15.95
 -11  -2  -4   24.01   18.07
  11   2   4   -0.71   18.66
  11   2   4  -24.82   12.00
   9  -3  -4  169.49   23.80
   9  -3  -4  193.15   20.81
   9  -3  -4  218.62   24.55
  -9   3   4  179.43   26.72
  -9   3   4  194.28   23.89
  -9   3   4  223.16   26.80
   8  -3  -4  -15.89   12.76
   8  -3  -4    1.39    9.58
   8  -3  -4   11.21   11.60
   8  -3  -4   -0.53    9.28
  -8   3   4   -2.73   10.78
  -8   3   4    2.58   11.61
  -8   3   4    8.08   10.26
   7  -3  -4  528.07   36.64
   7  -3  -4  599.45   33.69
   7  -3  -4  545.07   35.10
   7  -3  -4  543.25   33.60
  -7   3   4  582.42   38.56
  -7   3   4  525.89   35.43
  -7   3   4  524.40   38.97
   6  -3  -4   -2.03    6.41
   6  -3  -4   -7.83    5.83
   6  -3  -4   16.97    8.24
  -6   3   4    5.64    7.30
  -6   3   4  -14.28    8.64
  -6   3   4   -0.80    5.93
   5  -3  -4 1000.56   55.77
   5  -3  -4 1123.10   55.87
   5  -3  -4 1002.61   55.73
  -5   3   4 1019.31   58.89
  -5   3   4 1021.62   56.33
  -5   3   4 1118.80   60.04
  -5   3   4 1048.88   55.91
   4  -3  -4    7.00    4.49
   4  -3  -4   -9.06    4.01
   4  -3  -4   -3.03    4.88
  -4   3   4    8.30    7.53
  -4   3   4  -11.06    4.72
  -4   3   4   -6.68    4.53
  -4   3   4   -6.77    3.64
   3  -3  -4 1748.40   93.65
   3  -3  -4 1849.75   94.75
   3  -3  -4 1884.62   94.48
   3  -3  -4 1912.74   95.21
  -3   3   4 2083.25   98.00
  -3   3   4 1733.58   95.05
  -3   3   4 1860.97   93.11
  -3   3   4 2025.46   98.04
   2  -3  -4   25.65    3.99
   2  -3  -4   23.49    5.41
   2  -3  -4   19.14    5.64
   2  -3  -4   13.10    4.63
  -2   3   4   29.07    6.99
  -2   3   4   22.29    7.66
  -2   3   4   10.98    4.34
   1  -3  -4 6909.34  346.05
   1  -3  -4 6964.29  347.19
   1  -3  -4 6965.20  344.34
   1  -3  -4 7078.60  346.03
  -1   3   4 7209.12  347.85
  -1   3   4 7366.02  346.57
   0  -3  -4    3.65    4.88
   0  -3  -4    0.33    2.94
   0  -3  -4    8.37    2.24
   0  -3  -4    2.76    3.49
   0   3   4    4.02    5.18
   0   3   4    3.40    3.99
   0   3   4    4.96    2.36
   0   3   4   -3.56    4.34
   0   3   4    2.73    3.47
  -1  -3  -4 3083.49  146.98
  -1  -3  -4 2811.39  145.44
  -1  -3  -4 3093.16  145.59
  -1  -3  -4 3072.42  144.50
  -1  -3  -4 3047.30  143.75
   1   3   4 2629.73  143.57
   1   3   4 2817.84  145.54
   1   3   4 2937.41  145.75
   1   3   4 2902.54  145.33
  -2  -3  -4    4.05    2.68
  -2  -3  -4    8.73    6.04
  -2  -3  -4   12.10    4.34
  -2  -3  -4    6.86    4.64
  -2  -3  -4    9.22    4.11
   2   3   4    4.38    4.69
   2   3   4    8.60    3.79
  -3  -3  -4 1817.87   89.31
  -3  -3  -4 1735.36   88.22
  -3  -3  -4 1652.67   89.92
  -3  -3  -4 1770.00   89.90
   3   3   4 1750.47   90.59
   3   3   4 1862.70   89.74
   3   3   4 1668.22   88.82
  -4  -3  -4    9.71    5.21
  -4  -3  -4    3.22    4.04
  -4  -3  -4    9.40    7.02
  -4  -3  -4    3.51    5.48
   4   3   4    4.34    1.78
   4   3   4    5.66    5.91
   4   3   4    7.43    4.59
   4   3   4   -3.63    7.65
  -5  -3  -4 1581.39   82.22
  -5  -3  -4 1487.68   83.02
  -5  -3  -4 1586.92   81.50
   5   3   4 1632.83   82.55
   5   3   4 1694.73   85.75
   5   3   4 1553.17   78.19
  -6  -3  -4   11.14    7.01
  -6  -3  -4    8.37    7.93
  -6  -3  -4    1.81    6.06
  -6  -3  -4   -9.14    7.00
   6   3   4    1.54    3.91
   6   3   4    2.70    5.10
   6   3   4    8.10   10.20
  -7  -3  -4  472.23   33.73
  -7  -3  -4  499.96   32.41
  -7  -3  -4  479.65   34.04
  -7  -3  -4  505.14   31.47
   7   3   4  489.25   31.28
   7   3   4  518.57   35.05
  -8  -3  -4    3.89    9.62
  -8  -3  -4    1.62    8.56
  -8  -3  -4   10.21   11.00
   8   3   4   -5.62    8.76
   8   3   4  -12.08   12.25
  -9  -3  -4  144.34   23.23
  -9  -3  -4  124.88   19.12
  -9  -3  -4  122.97   21.24
   9   3   4  189.41   21.50
   9   3   4  189.03   26.88
 -10  -3  -4   -2.19   15.08
 -10  -3  -4   -6.04    9.05
  10   3   4    6.36   16.85
  10   3   4    4.28   13.11
   9  -4  -4   14.10   17.89
   9  -4  -4   15.29   13.17
  -9   4   4    1.17   13.30
  -9   4   4    8.21   16.00
  -9   4   4   25.96   16.23
   8  -4  -4  310.57   27.29
   8  -4  -4  303.10   29.82
   8  -4  -4  307.92   25.31
   8  -4  -4  254.08   25.55
  -8   4   4  331.11   29.63
  -8   4   4  285.89   29.33
   7  -4  -4   -6.60    7.10
   7  -4  -4    5.87    8.07
   7  -4  -4   13.55    9.22
  -7   4   4   -8.64   10.47
  -7   4   4    8.86   12.50
  -7   4   4   -1.30    7.40
   6  -4  -4  475.22   33.37
   6  -4  -4  632.66   34.67
   6  -4  -4  582.14   34.56
  -6   4   4  600.73   36.39
  -6   4   4  602.62   39.30
  -6   4   4  543.80   37.50
   5  -4  -4   -4.28    6.11
   5  -4  -4   10.88    5.68
   5  -4  -4   -1.96    4.89
  -5   4   4    0.37    6.04
  -5   4   4  -14.99    6.83
  -5   4   4   13.04    7.10
  -5   4   4   -7.38    5.68
   4  -4  -4 1658.98   84.97
   4  -4  -4 1708.84   86.55
   4  -4  -4 1753.92   86.99
  -4   4   4 1630.46   89.36
  -4   4   4 1646.60   87.34
  -4   4   4 1709.29   89.34
  -4   4   4 1669.64   84.87
   3  -4  -4   33.03    5.26
   3  -4  -4   31.12    5.83
   3  -4  -4   47.72    7.77
  -3   4   4   43.75    9.38
  -3   4   4   45.11    8.74
  -3   4   4   32.04    4.61
  -3   4   4   35.78    9.76
   2  -4  -4 2252.53  112.64
   2  -4  -4 2205.50  110.39
   2  -4  -4 2220.86  107.05
   2  -4  -4 2212.86  107.13
   2  -4  -4 2153.96  107.41
   2  -4  -4 1973.55  109.21
  -2   4   4 2554.27  112.77
  -2   4   4 2154.47  110.88
  -2   4   4 2043.96  112.15
   1  -4  -4   88.12    9.01
   1  -4  -4   97.98    5.74
   1  -4  -4   82.30    7.87
   1  -4  -4  103.72   11.10
   1  -4  -4   83.27   10.50
  -1   4   4  105.06   11.23
  -1   4   4  106.61   11.85
  -1   4   4   85.30   10.38
   0  -4  -4 3346.51  180.15
   0  -4  -4 3577.55  180.02
   0  -4  -4 3724.26  181.58
   0   4   4 3212.95  179.91
   0   4   4 3674.65  177.93
   0   4   4 3939.40  179.32
   0   4   4 3910.53  180.29
  -1  -4  -4  106.48    9.23
  -1  -4  -4   87.12   10.29
  -1  -4  -4   76.41    9.49
  -1  -4  -4   85.30   11.49
   1   4   4   90.09    9.86
   1   4   4   96.75   10.44
   1   4   4   97.16   10.57
  -2  -4  -4 2043.62  102.57
  -2  -4  -4 2005.61   99.41
  -2  -4  -4 2004.33  103.99
  -2  -4  -4 2093.13  103.08
  -2  -4  -4 2119.79  102.80
   2   4   4 2022.92  103.65
   2   4   4 1969.10  101.99
   2   4   4 1979.11  102.59
  -3  -4  -4   23.37    7.06
  -3  -4  -4   18.66    7.63
  -3  -4  -4   17.21    3.37
  -3  -4  -4   25.26    6.26
  -3  -4  -4   17.56    5.52
   3   4   4   23.02    8.74
   3   4   4   27.17    7.26
   3   4   4   20.11    4.74
   3   4   4   22.52    6.28
  -4  -4  -4 1423.20   76.74
  -4  -4  -4 1440.97   78.70
  -4  -4  -4 1688.37   78.10
   4   4   4 1355.21   77.06
   4   4   4 1520.68   80.04
   4   4   4 1525.31   77.36
  -5  -4  -4   15.70    8.09
  -5  -4  -4    8.46    6.30
  -5  -4  -4    6.39    6.14
   5   4   4   14.49    7.75
   5   4   4   12.86    8.10
  -6  -4  -4  642.17   39.58
  -6  -4  -4  678.18   39.79
  -6  -4  -4  690.57   41.67
   6   4   4  700.73   39.80
   6   4   4  679.64   43.78
  -7  -4  -4    4.96    7.85
  -7  -4  -4    3.89    8.12
  -7  -4  -4   14.16    9.89
   7   4   4    7.82    9.13
   7   4   4    6.37    9.17
  -8  -4  -4  388.60   30.82
  -8  -4  -4  330.99   31.13
  -8  -4  -4  386.05   26.84
  -8  -4  -4  330.80   30.77
   8   4   4  302.09   27.17
   8   4   4  303.15   31.13
  -9  -4  -4    8.48   10.07
  -9  -4  -4   -0.52    8.73
  -9  -4  -4   -1.85   14.86
  -9  -4  -4   12.59   11.28
   9   4   4    9.31   11.81
   9   4   4    5.04   14.36
 -10  -4  -4  104.72   22.43
 -10  -4  -4  111.55   21.16
  10   4   4   79.96   19.15
  10   4   4  122.45   24.31
   9  -5  -4  182.24   28.13
   9  -5  -4  159.75   20.62
  -9   5   4  163.79   24.47
  -9   5   4  195.61   27.69
  -9   5   4  173.06   26.51
   8  -5  -4   10.55   11.58
  -8   5   4   17.06   13.68
  -8   5   4   19.57   14.99
   7  -5  -4  412.16   31.91
   7  -5  -4  344.70   28.19
  -7   5   4  387.09   32.33
  -7   5   4  456.00   32.56
  -7   5   4  417.87   35.71
   6  -5  -4   23.18    8.70
   6  -5  -4    1.56    6.65
   6  -5  -4    7.28    8.86
  -6   5   4   11.96   10.91
  -6   5   4   -4.47   10.26
  -6   5   4   19.54   12.51
   5  -5  -4  873.09   49.22
   5  -5  -4  861.50   49.44
   5  -5  -4  895.89   47.12
  -5   5   4  841.47   49.97
  -5   5   4  879.73   52.28
  -5   5   4  944.44   53.45
   4  -5  -4   -2.16    6.87
   4  -5  -4    9.55    4.24
   4  -5  -4    7.46    5.87
  -4   5   4    5.31    4.81
  -4   5   4    4.77    6.41
  -4   5   4   13.78    8.37
  -4   5   4    5.83    7.13
   3  -5  -4 1371.38   75.19
   3  -5  -4 1337.54   70.35
   3  -5  -4 1421.61   68.88
   3  -5  -4 1409.43   72.87
   3  -5  -4 1449.47   69.67
  -3   5   4 1341.67   73.88
  -3   5   4 1253.95   74.59
  -3   5   4 1442.17   73.72
   2  -5  -4   12.42    4.82
   2  -5  -4    7.81    3.55
   2  -5  -4   24.98    7.64
   2  -5  -4    3.92    6.21
   2  -5  -4    6.82    3.18
  -2   5   4    8.00    5.63
  -2   5   4   17.63    7.48
  -2   5   4   10.02    6.06
   1  -5  -4 1546.90   85.06
   1  -5  -4 1661.21   83.58
   1  -5  -4 1649.39   82.21
   1  -5  -4 1694.76   86.98
  -1   5   4 1786.31   86.95
  -1   5   4 1541.29   85.21
  -1   5   4 1695.51   85.52
   0  -5  -4   -6.91    6.04
   0  -5  -4    2.26    4.48
   0  -5  -4    2.85    5.15
   0   5   4   -5.57    5.68
   0   5   4    2.08    5.78
   0   5   4    3.66    3.32
  -1  -5  -4 1622.34   82.53
  -1  -5  -4 1392.83   80.67
  -1  -5  -4 1516.96   81.03
   1   5   4 1605.11   80.78
   1   5   4 1667.42   80.66
  -2  -5  -4    2.93    6.24
  -2  -5  -4    5.17    5.99
  -2  -5  -4    6.07    5.39
  -2  -5  -4   15.24    6.02
   2   5   4   14.97    5.37
   2   5   4    1.99    4.91
   2   5   4   12.38    6.99
   2   5   4   18.66    6.32
  -3  -5  -4 1631.87   89.88
  -3  -5  -4 1734.97   85.50
  -3  -5  -4 1700.67   85.12
  -3  -5  -4 1894.15   90.74
  -3  -5  -4 1767.47   90.73
  -3  -5  -4 1725.13   91.66
   3   5   4 1827.76   92.39
   3   5   4 1761.33   89.54
   3   5   4 1791.01   90.42
   3   5   4 1703.58   88.12
  -4  -5  -4   -3.70    5.95
  -4  -5  -4    9.81    6.24
  -4  -5  -4    6.37    7.30
   4   5   4   -3.83    5.92
   4   5   4   16.99    7.47
   4   5   4   -0.34    6.18
   4   5   4    0.26    3.59
  -5  -5  -4  866.17   46.85
  -5  -5  -4  829.03   46.57
  -5  -5  -4  848.68   48.31
   5   5   4  753.10   40.60
   5   5   4  888.17   49.76
   5   5   4  829.53   46.32
  -6  -5  -4    9.91    8.35
  -6  -5  -4   13.39   10.16
  -6  -5  -4    1.83    6.65
   6   5   4    3.82    6.00
   6   5   4    3.19   10.40
  -7  -5  -4  441.03   30.13
  -7  -5  -4  409.72   35.35
  -7  -5  -4  451.23   34.11
   7   5   4  464.39   30.51
   7   5   4  338.55   34.55
  -8  -5  -4   -1.49    8.08
  -8  -5  -4    7.37    9.93
  -8  -5  -4   17.69   10.92
   8   5   4    2.56   12.78
   8   5   4   -5.34   10.13
  -9  -5  -4  154.06   21.97
  -9  -5  -4  122.25   19.82
  -9  -5  -4  180.10   26.16
   9   5   4  208.78   28.20
   9   5   4  168.16   20.75
 -10  -5  -4   26.17   18.97
 -10  -5  -4   -2.72   10.68
  10   5   4  -13.06   12.62
  -9   6   4   -9.27   16.01
   8  -6  -4  203.55   23.07
  -8   6   4  173.83   24.85
  -8   6   4  184.94   25.71
   7  -6  -4   13.75   11.40
   7  -6  -4    1.40    9.43
  -7   6   4    8.02   10.34
  -7   6   4   -4.75   13.45
  -7   6   4  -17.34   10.92
   6  -6  -4  567.33   36.43
   6  -6  -4  529.41   35.04
  -6   6   4  584.31   38.40
  -6   6   4  588.70   40.98
  -6   6   4  563.10   36.76
   5  -6  -4   -5.03    7.91
   5  -6  -4   -3.61    8.77
  -5   6   4    2.10   11.13
  -5   6   4  -12.17    8.60
  -5   6   4   -2.84    8.79
   4  -6  -4 1187.96   59.79
   4  -6  -4 1030.37   55.38
   4  -6  -4  956.29   61.00
  -4   6   4 1001.39   59.49
  -4   6   4 1198.10   63.25
  -4   6   4 1090.32   60.16
   3  -6  -4   10.67    2.86
   3  -6  -4    2.58    4.08
   3  -6  -4    1.73    9.63
   3  -6  -4   19.61    8.56
  -3   6   4    4.68    8.49
  -3   6   4   -1.40    9.12
  -3   6   4    2.33    7.02
   2  -6  -4 1343.35   75.11
   2  -6  -4 1285.47   69.55
   2  -6  -4 1426.92   69.42
   2  -6  -4 1397.13   73.25
  -2   6   4 1395.43   73.49
  -2   6   4 1369.73   72.65
  -2   6   4 1404.62   74.76
   1  -6  -4    3.21    4.44
   1  -6  -4   -0.85    7.92
   1  -6  -4    3.45    4.53
   1  -6  -4    3.80    7.12
  -1   6   4   -0.82    6.80
  -1   6   4   -4.73    4.60
  -1   6   4    2.29    5.65
   0  -6  -4 2010.79  111.92
   0  -6  -4 2147.41  114.13
   0  -6  -4 2229.89  115.62
   0  -6  -4 2365.37  115.80
   0   6   4 2520.88  114.97
   0   6   4 2172.44  113.84
  -1  -6  -4   12.10    7.56
  -1  -6  -4   12.67    6.77
  -1  -6  -4   -2.48    4.94
   1   6   4    8.94    5.78
   1   6   4   -0.38    4.80
   1   6   4    5.60    2.48
  -2  -6  -4 1823.18   94.71
  -2  -6  -4 1746.57   95.45
  -2  -6  -4 1752.75   94.28
   2   6   4 1975.98   92.76
   2   6   4 1753.39   90.41
   2   6   4 1807.52   92.35
   2   6   4 1795.33   93.92
  -3  -6  -4   11.34    7.98
  -3  -6  -4    9.26    6.62
  -3  -6  -4    0.78    3.35
  -3  -6  -4   -1.60    5.06
   3   6   4    4.11    6.06
   3   6   4   -4.70    6.16
   3   6   4    7.63    5.78
   3   6   4    3.49    4.82
  -4  -6  -4  894.25   49.95
  -4  -6  -4  868.14   47.68
  -4  -6  -4  775.22   47.12
   4   6   4  781.11   46.40
   4   6   4  829.49   42.94
   4   6   4  777.78   48.62
  -5  -6  -4    8.96    7.40
  -5  -6  -4   18.93    8.75
  -5  -6  -4   -2.96    9.90
   5   6   4   17.02    9.14
   5   6   4    0.31    7.19
  -6  -6  -4  461.65   33.22
  -6  -6  -4  520.95   32.91
  -6  -6  -4  451.61   31.12
   6   6   4  459.88   34.03
   6   6   4  439.87   31.53
  -7  -6  -4    4.62    8.97
  -7  -6  -4   -1.18    9.38
  -7  -6  -4   18.33   11.32
   7   6   4   23.15   10.79
   7   6   4    4.16    8.11
  -8  -6  -4  276.68   27.46
  -8  -6  -4  275.97   30.40
  -8  -6  -4  260.97   26.87
   8   6   4  224.65   23.64
  -9  -6  -4    4.84   15.64
  -9  -6  -4   17.49   14.55
  -9  -6  -4   -2.08   13.57
   9   6   4    0.81   12.11
 -10  -6  -4   73.03   20.11
  10   6   4   46.59   18.33
  10   6   4   59.45   22.06
   8  -7  -4   13.86   13.84
  -8   7   4    8.60   17.38
  -8   7   4  -14.05    9.90
   7  -7  -4  259.34   24.17
   7  -7  -4  258.26   26.32
  -7   7   4  301.30   33.12
  -7   7   4  239.68   27.95
   6  -7  -4   12.20    9.83
   6  -7  -4   30.62   11.77
  -6   7   4   -7.58   11.76
  -6   7   4   11.24   12.14
  -6   7   4   13.47   10.39
   5  -7  -4  530.47   35.45
   5  -7  -4  569.99   36.13
  -5   7   4  593.19   38.16
  -5   7   4  626.85   38.53
  -5   7   4  504.68   37.94
   4  -7  -4  -11.23    8.65
   4  -7  -4   -9.29   10.87
  -4   7   4    0.98    7.68
  -4   7   4    2.21    6.87
  -4   7   4    7.58    9.15
   3  -7  -4  940.36   48.41
   3  -7  -4  882.46   52.05
   3  -7  -4  878.67   54.63
  -3   7   4  856.38   51.50
  -3   7   4  935.35   53.32
  -3   7   4 1032.79   56.00
   2  -7  -4   11.20    5.06
   2  -7  -4   -2.50    5.61
   2  -7  -4   -0.98    4.16
   2  -7  -4   -7.47    9.13
  -2   7   4   -3.53    8.22
  -2   7   4   -6.34    5.71
  -2   7   4    1.72    6.71
   1  -7  -4 1882.19   96.10
   1  -7  -4 1647.09   89.56
   1  -7  -4 1784.14   90.51
   1  -7  -4 1932.92   94.15
  -1   7   4 1844.82   93.70
  -1   7   4 1815.52   94.23
  -1   7   4 1665.90   91.35
   0  -7  -4    7.25    6.77
   0  -7  -4    2.41    6.62
   0  -7  -4   17.24    6.76
   0  -7  -4    5.82    9.07
   0   7   4    6.67    6.61
   0   7   4   -0.99    5.20
   0   7   4    6.03    5.52
  -1  -7  -4 1345.03   72.93
  -1  -7  -4 1280.80   72.78
  -1  -7  -4 1318.69   71.48
   1   7   4 1365.59   70.21
   1   7   4 1336.40   71.27
   1   7   4 1301.75   65.01
  -2  -7  -4   -9.96    8.66
  -2  -7  -4   -3.05    8.24
  -2  -7  -4    8.33    8.88
   2   7   4   -4.36    5.20
   2   7   4    0.88    5.80
   2   7   4    6.36    7.85
   2   7   4   -2.52    3.95
  -3  -7  -4  741.97   46.36
  -3  -7  -4  756.99   48.47
  -3  -7  -4  798.97   47.24
   3   7   4  852.01   43.51
   3   7   4  907.20   47.35
   3   7   4  767.10   43.84
   3   7   4  792.75   42.92
  -4  -7  -4    3.52    7.52
  -4  -7  -4    1.72    6.22
  -4  -7  -4    6.30    9.43
   4   7   4   -1.21    6.15
   4   7   4   -4.55    5.59
   4   7   4   23.34    9.52
  -5  -7  -4  635.99   39.99
  -5  -7  -4  616.59   40.94
  -5  -7  -4  596.14   39.35
   5   7   4  636.62   38.40
   5   7   4  610.22   37.75
  -6  -7  -4    0.75   10.00
  -6  -7  -4   -7.83   12.10
  -6  -7  -4   14.47    8.93
   6   7   4    2.29    9.75
   6   7   4    0.18    7.14
  -7  -7  -4  311.79   33.25
  -7  -7  -4  319.77   29.80
  -7  -7  -4  275.45   28.78
   7   7   4  350.78   29.10
   7   7   4  273.50   27.69
  -8  -7  -4  -17.00   10.78
  -8  -7  -4    4.35   10.85
  -8  -7  -4  -12.26   12.88
   8   7   4    5.31   12.12
   8   7   4   12.98   11.12
  -9  -7  -4  138.65   20.89
  -9  -7  -4  100.02   21.14
  -9  -7  -4  118.78   22.55
   9   7   4  122.79   20.20
   9   7   4   87.22   21.37
   7  -8  -4   -6.03   12.43
  -7   8   4   -0.35   11.61
  -7   8   4   13.02   15.45
   6  -8  -4  319.53   28.09
   6  -8  -4  359.63   31.29
  -6   8   4  383.58   35.67
  -6   8   4  278.21   30.32
  -6   8   4  305.44   30.85
   5  -8  -4   -6.63    7.35
  -5   8   4   -4.37   12.65
  -5   8   4    2.39   12.18
  -5   8   4    0.85   10.69
   4  -8  -4  582.51   36.91
   4  -8  -4  492.58   37.59
  -4   8   4  545.63   36.60
  -4   8   4  562.83   35.10
  -4   8   4  476.40   36.30
   3  -8  -4   12.20   12.32
   3  -8  -4    1.65   10.05
  -3   8   4   -2.38    7.93
  -3   8   4   -3.07    6.30
  -3   8   4   -0.22   10.39
   2  -8  -4  658.69   42.78
   2  -8  -4  788.28   46.39
  -2   8   4  705.41   43.84
  -2   8   4  775.95   41.62
  -2   8   4  660.39   43.67
   1  -8  -4  -10.16    8.22
   1  -8  -4    4.95    5.35
   1  -8  -4    2.49   10.53
   1  -8  -4    1.14    5.71
  -1   8   4   -0.33    5.26
  -1   8   4   -2.36    8.17
  -1   8   4   -5.21    5.82
   0  -8  -4  948.15   54.86
   0  -8  -4 1057.04   53.77
   0  -8  -4  992.78   57.09
   0  -8  -4  973.39   56.72
   0   8   4  966.25   54.21
   0   8   4  938.49   54.29
   0   8   4  876.17   51.26
  -1  -8  -4    7.74   10.15
  -1  -8  -4    9.45    8.11
  -1  -8  -4   -1.36    9.46
   1   8   4    7.76    7.11
   1   8   4    3.03    6.80
  -2  -8  -4  703.92   42.98
  -2  -8  -4  680.37   43.51
  -2  -8  -4  714.67   43.45
   2   8   4  643.63   38.72
   2   8   4  700.09   41.60
  -3  -8  -4   25.42   11.09
  -3  -8  -4   23.38   10.06
  -3  -8  -4   15.27    8.92
   3   8   4   19.47    6.18
   3   8   4    9.99    9.38
   3   8   4   21.69    7.10
  -4  -8  -4  664.33   41.49
  -4  -8  -4  612.73   42.40
  -4  -8  -4  676.86   44.64
   4   8   4  707.78   39.15
   4   8   4  640.60   40.33
  -5  -8  -4    1.44   10.89
  -5  -8  -4  -11.85   11.23
  -5  -8  -4   17.62   12.18
   5   8   4   14.00   10.57
   5   8   4  -11.90    7.62
  -6  -8  -4  325.43   31.50
  -6  -8  -4  334.29   31.99
  -6  -8  -4  374.25   35.34
   6   8   4  421.62   32.80
   6   8   4  425.00   32.09
  -7  -8  -4   -8.80    8.84
  -7  -8  -4   -4.05   12.31
  -7  -8  -4   -8.55   13.89
   7   8   4    1.80   11.93
   7   8   4   -1.62   11.49
  -8  -8  -4   84.79   17.30
  -8  -8  -4   75.47   19.31
  -8  -8  -4  122.88   25.34
   8   8   4  132.16   21.73
   8   8   4  132.31   20.18
   7  -9  -4  170.56   24.71
  -7   9   4  196.25   25.82
  -7   9   4  193.05   27.83
   6  -9  -4  -10.91   10.97
   6  -9  -4   17.98   14.55
  -6   9   4    2.76   10.79
  -6   9   4  -18.69   13.88
   5  -9  -4  364.17   36.95
   5  -9  -4  403.97   35.03
  -5   9   4  403.63   37.07
  -5   9   4  394.63   34.77
   4  -9  -4   -8.91    9.08
   4  -9  -4   -0.61   12.13
  -4   9   4   -3.58    7.50
  -4   9   4  -13.63   11.13
   3  -9  -4  483.04   36.85
   3  -9  -4  446.21   37.39
  -3   9   4  519.55   37.04
  -3   9   4  473.98   31.53
  -3   9   4  564.36   35.02
   2  -9  -4    0.59   11.88
   2  -9  -4   -1.46    7.05
  -2   9   4    7.94   10.64
  -2   9   4    1.57    6.90
  -2   9   4   -8.34    6.75
   1  -9  -4  793.29   50.10
   1  -9  -4  738.63   45.99
  -1   9   4  792.61   47.00
  -1   9   4  758.16   45.60
  -1   9   4  701.68   47.30
   0  -9  -4    2.36    7.59
   0  -9  -4   -8.61    7.63
   0  -9  -4   -4.27    6.75
   0   9   4    9.51    7.36
   0   9   4    9.58    8.54
  -1  -9  -4  807.40   49.60
  -1  -9  -4  732.04   47.11
  -1  -9  -4  797.06   50.10
   1   9   4  778.01   47.12
   1   9   4  809.41   45.61
  -2  -9  -4    5.08    9.49
  -2  -9  -4    3.41    9.73
  -2  -9  -4   -6.62   10.24
   2   9   4    1.32    9.32
   2   9   4    7.08    6.69
  -3  -9  -4  688.85   48.61
  -3  -9  -4  799.03   47.98
  -3  -9  -4  821.92   48.26
   3   9   4  685.61   45.23
  -4  -9  -4   -9.66    9.83
  -4  -9  -4   -6.59   11.04
  -4  -9  -4  -11.43    8.67
   4   9   4    1.46    7.92
  -5  -9  -4  336.73   29.78
  -5  -9  -4  291.67   30.91
  -5  -9  -4  237.26   27.73
   5   9   4  322.92   28.90
  -6  -9  -4   -6.98   12.09
  -6  -9  -4    0.16   11.22
  -6  -9  -4    1.04   12.22
   6   9   4   13.56   12.36
   6   9   4   -5.45   10.03
  -7  -9  -4  131.75   22.47
  -7  -9  -4  148.17   23.87
  -7  -9  -4  188.90   26.27
   7   9   4  158.30   21.89
   7   9   4  132.26   20.71
  -8  -9  -4  -26.11   14.06
  -8  -9  -4   -1.07   18.21
  -8  -9  -4    6.27   17.27
   8   9   4   11.35   14.70
   8   9   4   24.90   17.11
   6 -10  -4  207.89   26.44
   6 -10  -4  143.94   22.13
  -6  10   4  140.51   24.39
  -6  10   4  158.69   27.33
   5 -10  -4  -16.40    8.74
   5 -10  -4    0.83   17.45
  -5  10   4  -11.00   13.19
  -5  10   4   17.27   16.15
   4 -10  -4  331.50   35.85
   4 -10  -4  411.83   35.34
  -4  10   4  404.79   35.23
  -4  10   4  322.78   33.93
   3 -10  -4   -5.90    9.77
   3 -10  -4   -3.87   11.69
  -3  10   4    4.97    9.05
  -3  10   4   15.53   13.23
   2 -10  -4  594.81   41.64
   2 -10  -4  595.35   43.17
  -2  10   4  641.93   40.55
  -2  10   4  625.96   42.20
   1 -10  -4   -5.94   13.69
   1 -10  -4   -2.82    8.44
  -1  10   4  -13.21    9.97
  -1  10   4    5.36    7.82
   0 -10  -4  859.86   47.95
   0 -10  -4  776.35   51.06
   0  10   4  719.12   45.32
   0  10   4  658.39   44.58
  -1 -10  -4   16.15   13.98
  -1 -10  -4  -21.98    7.46
  -1 -10  -4   10.53   12.80
  -1 -10  -4   -1.52    8.45
   1  10   4    0.59    7.46
   1  10   4   -7.39   10.20
  -2 -10  -4  664.29   42.63
  -2 -10  -4  605.56   41.10
  -2 -10  -4  550.30   42.09
   2  10   4  562.08   38.61
  -3 -10  -4  -10.76   13.10
  -3 -10  -4  -13.88   11.76
  -3 -10  -4   -7.31   12.53
   3  10   4   16.62   11.92
  -4 -10  -4  344.03   33.60
  -4 -10  -4  329.99   31.96
  -4 -10  -4  305.14   32.44
   4  10   4  260.36   27.24
  -5 -10  -4    3.12   12.39
  -5 -10  -4  -16.55   12.65
  -5 -10  -4  -20.04   12.17
   5  10   4    3.01   11.60
  -6 -10  -4  173.42   28.71
  -6 -10  -4  219.12   26.17
  -6 -10  -4  169.78   25.91
   6  10   4  186.53   23.67
  -7 -10  -4   17.47   16.58
  -7 -10  -4   -3.67   15.97
  -7 -10  -4    2.18   19.18
   7  10   4    5.47   13.71
   5 -11  -4  207.72   28.58
   5 -11  -4  147.96   28.09
  -5  11   4  230.40   29.59
  -5  11   4  181.70   27.24
   4 -11  -4    0.72   13.92
   4 -11  -4   12.16   17.45
  -4  11   4    7.21   14.92
  -4  11   4   -0.43   11.55
   3 -11  -4  259.77   32.02
   3 -11  -4  316.51   32.29
  -3  11   4  330.56   33.72
  -3  11   4  324.97   31.08
   2 -11  -4    5.52   12.93
   2 -11  -4   -3.66   10.29
  -2  11   4   -1.23   12.37
  -2  11   4  -14.19   11.05
   1 -11  -4  483.86   40.81
   1 -11  -4  466.49   41.88
  -1  11   4  477.70   39.27
  -1  11   4  484.05   38.60
   0 -11  -4    9.05   13.55
   0 -11  -4  -23.18   13.90
   0  11   4   -3.27    9.71
   0  11   4    9.22   12.05
  -1 -11  -4  358.77   33.72
  -1 -11  -4  376.73   35.16
  -1 -11  -4  377.91   38.39
   1  11   4  405.54   34.11
  -2 -11  -4   -2.63    9.44
  -2 -11  -4   -2.04   10.01
  -2 -11  -4  -21.60   14.57
   2  11   4   -5.91   11.43
  -3 -11  -4  323.68   33.33
  -3 -11  -4  250.29   29.98
  -3 -11  -4  262.87   32.10
   3  11   4  311.93   29.11
  -4 -11  -4  -15.04   10.08
  -4 -11  -4    4.77   16.58
  -4 -11  -4    7.69   11.87
   4  11   4    1.03   12.47
  -5 -11  -4  209.63   31.53
  -5 -11  -4  149.47   27.31
  -5 -11  -4  214.04   26.66
   5  11   4  237.94   26.44
  -6 -11  -4    2.82   16.84
  -6 -11  -4  -12.97   16.02
  -6 -11  -4   17.18   15.94
   6  11   4    3.72   14.15
   3 -12  -4   -1.38   15.55
   3 -12  -4    3.66   13.14
  -3  12   4   10.68   15.11
  -3  12   4   -1.51   15.47
   2 -12  -4  232.36   33.49
   2 -12  -4  202.73   26.12
  -2  12   4  264.55   27.73
  -2  12   4  240.31   29.26
   1 -12  -4   -1.80   14.50
   1 -12  -4    9.67   14.20
  -1  12   4    1.65   13.07
  -1  12   4   -7.65   12.40
   0 -12  -4  368.83   36.44
   0 -12  -4  330.07   38.56
   0  12   4  444.00   36.15
  -1 -12  -4    2.46   14.63
  -1 -12  -4    0.02   13.24
   1  12   4   14.75   14.68
  -2 -12  -4  315.10   36.60
  -2 -12  -4  356.52   37.27
  -2 -12  -4  327.27   33.15
   2  12   4  308.63   30.39
  -3 -12  -4   10.30   15.59
  -3 -12  -4  -34.43   16.21
  -3 -12  -4    7.20   13.92
   3  12   4   -7.24   13.07
  -4 -12  -4  186.54   30.77
  -4 -12  -4  192.61   28.82
  -4 -12  -4  226.80   28.42
   4  12   4  194.64   24.55
   0 -13  -4   -6.53   14.16
   0 -13  -4   -0.93   11.74
   0  13   4  -15.39   14.12
  -1 -13  -4  227.58   32.65
  -1 -13  -4  285.12   33.05
   1  13   4  304.64   31.07
   3  12  -5  186.75   27.71
   3  12  -5  223.82   27.16
  -3 -12   5  154.45   26.58
   2  12  -5   -8.73   10.47
   2  12  -5   12.02   14.31
  -2 -12   5   11.43   14.15
   1  12  -5  304.67   31.96
   1  12  -5  278.91   31.16
  -1 -12   5  220.57   30.99
   0  12  -5   18.13   11.61
   0  12  -5   -4.06   13.47
   0 -12   5  -10.40   16.52
  -1  12  -5  279.72   29.48
  -1  12  -5  346.29   34.67
   1 -12   5  309.78   31.28
   1 -12   5  244.82   34.59
  -2  12  -5    0.30   10.10
  -2  12  -5   -3.67   12.75
   2 -12   5   -8.64   17.70
   2 -12   5   -3.95   13.65
  -3  12  -5  223.89   27.30
   3 -12   5  271.26   29.26
   3 -12   5  218.22   32.94
  -4  12  -5  -10.47   15.47
   4 -12   5   -4.76   15.58
   4 -12   5    1.45   13.16
   4 -12   5    8.84   15.06
   4  11  -5  217.96   28.66
   4  11  -5  234.61   26.06
   4  11  -5  241.34   29.59
  -4 -11   5  198.29   30.30
  -4 -11   5  176.84   25.13
   3  11  -5    5.00   14.12
   3  11  -5   -0.31   10.51
   3  11  -5    6.81   12.56
  -3 -11   5   13.23   12.76
  -3 -11   5   -9.29   12.76
   2  11  -5  313.43   32.71
   2  11  -5  352.18   32.29
  -2 -11   5  328.19   34.88
   1  11  -5   -3.02   12.35
   1  11  -5   -8.77   11.92
  -1 -11   5    8.56   15.62
   0  11  -5  368.76   33.25
   0  11  -5  390.07   35.10
   0 -11   5  391.84   32.97
   0 -11   5  389.44   37.78
  -1  11  -5   12.65   14.37
  -1  11  -5    7.97    8.59
   1 -11   5   -3.13   11.38
   1 -11   5    2.96   11.62
  -2  11  -5  298.93   31.69
  -2  11  -5  361.15   30.88
   2 -11   5  330.12   36.43
   2 -11   5  329.37   31.21
  -3  11  -5    2.14    9.78
  -3  11  -5   -1.60   13.26
  -3  11  -5    1.56   10.81
   3 -11   5    6.99   12.30
   3 -11   5   -0.69   16.16
  -4  11  -5  256.03   23.78
  -4  11  -5  310.52   31.83
  -4  11  -5  237.16   26.33
   4 -11   5  258.45   27.90
   4 -11   5  262.61   32.57
   4 -11   5  208.18   30.82
  -5  11  -5   -3.22   12.43
  -5  11  -5    3.43   15.15
  -5  11  -5    1.36   14.08
   5 -11   5   -4.35   16.72
   5 -11   5    2.82   18.01
   5 -11   5   17.34   12.30
  -6  11  -5  173.79   25.62
  -6  11  -5  119.52   23.05
  -6  11  -5  131.07   19.98
   6 -11   5  132.70   21.76
   6 -11   5  128.73   24.27
   6  10  -5    4.29   18.52
   5  10  -5  243.67   30.70
   5  10  -5  243.48   31.32
  -5 -10   5  247.95   29.42
  -5 -10   5  278.45   34.87
   4  10  -5   -0.95   11.29
   4  10  -5    2.09   14.61
   4  10  -5   14.89   11.28
  -4 -10   5   -1.47   10.44
  -4 -10   5   17.14   14.20
   3  10  -5  545.83   42.05
   3  10  -5  440.14   36.61
   3  10  -5  474.92   39.76
  -3 -10   5  514.78   35.48
  -3 -10   5  449.46   41.51
   2  10  -5    9.14   10.91
   2  10  -5    3.57   11.59
   2  10  -5    7.90    9.33
  -2 -10   5   -5.10   12.29
  -2 -10   5    0.38    9.35
  -2 -10   5   -1.02   14.93
   1  10  -5  615.20   41.39
   1  10  -5  549.32   39.16
  -1 -10   5  594.69   44.26
  -1 -10   5  679.90   39.73
  -1 -10   5  620.63   45.88
   0  10  -5   -3.18    7.66
   0  10  -5   -3.44    7.78
   0 -10   5   24.73   13.51
   0 -10   5   -5.91    8.50
   0 -10   5    6.29   10.58
  -1  10  -5  561.00   35.16
  -1  10  -5  627.62   40.51
  -1  10  -5  554.66   39.79
   1 -10   5  724.68   40.97
   1 -10   5  657.86   45.25
   1 -10   5  644.39   45.67
  -2  10  -5    9.79    9.47
  -2  10  -5   -5.51    8.58
  -2  10  -5   -5.08    8.10
  -2  10  -5   -5.20    6.78
   2 -10   5   12.83    8.25
   2 -10   5    2.15   10.68
   2 -10   5    1.44   15.06
  -3  10  -5  402.64   29.41
  -3  10  -5  371.77   31.73
  -3  10  -5  392.34   34.93
  -3  10  -5  464.54   27.63
   3 -10   5  431.87   38.54
   3 -10   5  472.34   42.83
   3 -10   5  379.96   33.36
  -4  10  -5   -9.67    7.90
  -4  10  -5    6.53   10.92
  -4  10  -5    4.73    9.06
   4 -10   5   -0.90   13.18
   4 -10   5  -10.86    9.27
   4 -10   5   13.42    9.66
   4 -10   5   10.68   16.73
  -5  10  -5  244.17   23.63
  -5  10  -5  262.66   28.61
   5 -10   5  219.28   28.32
   5 -10   5  228.93   27.79
   5 -10   5  229.81   26.64
  -6  10  -5   10.76   11.55
  -6  10  -5   -3.44   13.25
   6 -10   5   -4.83   11.18
   6 -10   5   12.26   16.03
   6 -10   5    3.86   14.30
  -7  10  -5  179.02   22.68
  -7  10  -5  171.72   23.02
   7 -10   5  144.62   25.83
   7 -10   5  154.29   25.54
   6   9  -5  273.99   32.05
   6   9  -5  273.05   28.47
  -6  -9   5  183.91   27.63
  -6  -9   5  218.89   31.72
   5   9  -5    2.99   10.70
   5   9  -5  -10.87   13.69
   5   9  -5    7.96   14.15
  -5  -9   5  -16.14   12.21
  -5  -9   5    1.13   10.71
   4   9  -5  504.04   42.48
   4   9  -5  562.21   36.24
   4   9  -5  534.82   38.90
  -4  -9   5  541.97   45.51
  -4  -9   5  518.26   38.06
   3   9  -5   -1.67   10.84
   3   9  -5   -2.25    6.49
   3   9  -5   16.53   13.17
  -3  -9   5   11.19   10.30
  -3  -9   5   -0.02    8.87
   2   9  -5  469.16   37.31
   2   9  -5  470.03   32.09
   2   9  -5  523.53   35.43
  -2  -9   5  467.25   43.58
  -2  -9   5  496.70   40.77
  -2  -9   5  526.49   32.00
  -2  -9   5  425.23   31.42
   1   9  -5   -4.43    6.72
   1   9  -5    7.76    7.50
   1   9  -5   -2.40    7.26
  -1  -9   5    9.38    9.27
  -1  -9   5    9.29    8.39
  -1  -9   5   -5.80    9.14
   0   9  -5  834.58   45.07
   0   9  -5  783.52   46.07
   0   9  -5  781.87   46.40
   0  -9   5  775.73   43.35
   0  -9   5  707.23   50.48
   0  -9   5  709.02   44.42
   0  -9   5  705.85   48.65
  -1   9  -5    6.81    9.16
  -1   9  -5   -1.64    6.46
  -1   9  -5    0.02    5.19
  -1   9  -5   -5.80    6.98
   1  -9   5    2.31    8.82
   1  -9   5   -7.02    8.17
   1  -9   5    3.98   13.69
  -2   9  -5  696.18   43.88
  -2   9  -5  720.54   46.09
  -2   9  -5  843.01   45.29
  -2   9  -5  780.56   40.98
   2  -9   5  687.52   49.17
   2  -9   5  762.13   48.03
   2  -9   5  665.25   44.04
  -3   9  -5    1.04    8.90
  -3   9  -5   -7.22    7.69
  -3   9  -5    2.93   10.58
  -3   9  -5    2.12    6.95
   3  -9   5    1.14    9.92
   3  -9   5    3.13   10.70
   3  -9   5  -25.56   11.08
  -4   9  -5  598.60   37.20
  -4   9  -5  520.62   33.02
  -4   9  -5  509.82   32.91
  -4   9  -5  551.10   37.74
   4  -9   5  570.97   40.68
   4  -9   5  563.60   43.06
   4  -9   5  500.39   43.19
   4  -9   5  486.18   35.97
  -5   9  -5   12.97    9.74
  -5   9  -5    2.16    9.36
   5  -9   5  -12.81   14.88
   5  -9   5  -13.15    9.68
   5  -9   5   -1.69   12.37
   5  -9   5   -8.81    8.53
  -6   9  -5  281.08   24.95
  -6   9  -5  234.77   25.53
   6  -9   5  213.86   27.18
   6  -9   5  210.78   25.76
   6  -9   5  238.54   29.04
  -7   9  -5    8.92   14.23
  -7   9  -5    0.84   11.65
   7  -9   5  -19.48   13.24
   7  -9   5  -14.63   12.42
  -8   9  -5  114.83   19.21
  -8   9  -5   96.74   19.55
   8  -9   5  113.91   23.35
   7   8  -5  222.38   29.14
   7   8  -5  260.71   29.51
  -7  -8   5  225.75   30.17
  -7  -8   5  254.99   31.06
   6   8  -5   18.59   16.69
   6   8  -5   13.07   10.80
  -6  -8   5    9.07   14.54
  -6  -8   5  -11.30   13.59
   5   8  -5  373.17   30.20
   5   8  -5  465.38   38.77
   5   8  -5  504.31   38.13
  -5  -8   5  374.71   34.56
  -5  -8   5  350.60   35.53
   4   8  -5    2.06    8.97
   4   8  -5    2.43   11.03
   4   8  -5   10.87   12.76
  -4  -8   5   -1.98   10.54
  -4  -8   5    4.83    9.23
   3   8  -5  520.30   34.34
   3   8  -5  509.80   37.14
   3   8  -5  601.43   37.29
  -3  -8   5  497.41   34.15
  -3  -8   5  526.56   38.41
  -3  -8   5  509.31   34.73
   2   8  -5   -6.49    9.37
   2   8  -5  -10.18    8.83
   2   8  -5   -1.55    6.46
   2   8  -5   -8.42    7.84
  -2  -8   5    0.22    7.47
  -2  -8   5    6.14    7.50
  -2  -8   5    0.53    8.01
   1   8  -5  656.38   41.33
   1   8  -5  721.97   40.02
   1   8  -5  596.22   40.69
   1   8  -5  675.59   41.22
  -1  -8   5  644.44   46.34
  -1  -8   5  673.49   42.88
  -1  -8   5  677.57   39.26
  -1  -8   5  721.24   39.84
   0   8  -5    4.64    3.19
   0   8  -5    0.25    6.30
   0   8  -5   -2.40    7.36
   0   8  -5    4.39    6.51
   0  -8   5    6.88    8.79
   0  -8   5    3.30    7.41
   0  -8   5    7.96    6.65
   0  -8   5   -2.97    9.69
  -1   8  -5  834.30   49.03
  -1   8  -5  792.87   49.19
  -1   8  -5  851.96   49.88
  -1   8  -5  887.50   45.02
   1  -8   5  852.21   48.56
   1  -8   5  910.60   56.05
   1  -8   5  852.97   45.83
   1  -8   5  931.73   53.11
  -2   8  -5   -7.10    5.49
  -2   8  -5   -1.52    7.89
  -2   8  -5   13.80    8.22
  -2   8  -5    0.05    5.72
   2  -8   5   10.03   12.53
   2  -8   5    1.00    7.68
   2  -8   5    6.67    8.28
  -3   8  -5  900.49   51.05
  -3   8  -5  892.71   47.56
  -3   8  -5  837.74   49.11
  -3   8  -5  889.55   51.07
   3  -8   5  868.63   55.35
   3  -8   5  860.67   49.76
   3  -8   5  837.32   53.42
  -4   8  -5   12.23    7.83
  -4   8  -5   15.21    7.23
  -4   8  -5    0.40    7.09
   4  -8   5    9.00    9.22
   4  -8   5   -5.01   10.80
   4  -8   5   11.24   12.39
   4  -8   5  -13.07    8.10
  -5   8  -5  450.36   32.25
  -5   8  -5  459.41   30.07
   5  -8   5  473.31   35.45
   5  -8   5  528.37   34.46
   5  -8   5  495.16   43.12
   5  -8   5  506.79   36.66
  -6   8  -5    2.97    8.05
  -6   8  -5   -5.51    9.01
   6  -8   5   17.57   16.59
   6  -8   5    5.97   11.27
   6  -8   5    8.75   11.12
   6  -8   5   14.75   12.77
  -7   8  -5  160.33   21.34
  -7   8  -5  227.87   22.71
   7  -8   5  209.99   24.79
   7  -8   5  155.21   23.71
  -8   8  -5    0.98   12.38
  -8   8  -5   13.57   13.28
   8  -8   5    4.62   14.28
   8   7  -5  182.53   25.39
   8   7  -5  246.54   30.39
  -8  -7   5  152.02   28.75
  -8  -7   5  251.61   30.77
   7   7  -5   16.54   14.72
   7   7  -5    6.50   16.46
  -7  -7   5  -21.12   15.23
  -7  -7   5   22.77   17.50
   6   7  -5  353.03   31.50
   6   7  -5  284.50   27.52
   6   7  -5  323.18   31.64
  -6  -7   5  366.26   33.95
  -6  -7   5  287.73   29.83
   5   7  -5   13.49   11.55
   5   7  -5   12.04    9.79
   5   7  -5    4.95    8.75
  -5  -7   5   -3.50    8.12
  -5  -7   5    2.59    8.76
   4   7  -5  599.88   38.44
   4   7  -5  620.29   41.16
   4   7  -5  586.42   36.89
  -4  -7   5  605.47   38.44
  -4  -7   5  604.26   40.66
   3   7  -5   -2.55    6.75
   3   7  -5   -6.93    7.43
   3   7  -5    6.07    8.79
  -3  -7   5   -3.96    6.75
  -3  -7   5    4.42    7.61
  -3  -7   5   -3.38    5.55
   2   7  -5 1173.93   62.91
   2   7  -5 1096.71   63.89
   2   7  -5 1040.92   64.47
   2   7  -5 1183.42   62.81
  -2  -7   5 1255.54   66.71
  -2  -7   5 1161.85   62.71
  -2  -7   5 1183.47   61.23
  -2  -7   5 1124.88   57.46
   1   7  -5   10.57    6.44
   1   7  -5   13.61    6.50
   1   7  -5    6.27    6.87
   1   7  -5  -10.91    7.76
  -1  -7   5  -10.73    8.18
  -1  -7   5    0.04   10.48
  -1  -7   5   13.03    6.13
  -1  -7   5    9.35    7.20
   0   7  -5 1475.47   74.63
   0   7  -5 1238.15   73.40
   0   7  -5 1378.17   73.63
   0  -7   5 1345.70   72.30
   0  -7   5 1418.08   71.54
   0  -7   5 1423.73   76.19
   0  -7   5 1427.03   79.11
  -1   7  -5    2.26    4.76
  -1   7  -5   -3.97    6.94
  -1   7  -5   -1.88    3.71
  -1   7  -5    5.48    5.86
   1  -7   5    0.95   10.22
   1  -7   5    9.46    6.24
   1  -7   5   -1.30    5.50
   1  -7   5    2.35    4.36
  -2   7  -5  995.37   55.78
  -2   7  -5  976.67   52.10
  -2   7  -5 1032.03   55.62
  -2   7  -5 1035.72   54.94
   2  -7   5 1013.59   50.66
   2  -7   5  913.85   59.75
   2  -7   5 1012.42   54.77
   2  -7   5 1001.66   57.22
  -3   7  -5   -1.16    5.83
  -3   7  -5    4.15    5.66
  -3   7  -5   -4.91    5.26
  -3   7  -5    5.59    5.94
   3  -7   5    1.01    7.45
   3  -7   5    0.52    8.22
   3  -7   5   -0.10    9.41
   3  -7   5    6.90    8.11
  -4   7  -5  741.01   41.92
  -4   7  -5  770.36   44.20
  -4   7  -5  670.94   41.18
   4  -7   5  694.56   48.79
   4  -7   5  877.91   46.55
   4  -7   5  734.37   46.32
   4  -7   5  762.82   44.13
  -5   7  -5    7.38    7.83
   5  -7   5   19.24   14.12
   5  -7   5   -0.38   10.46
   5  -7   5    6.68    9.25
   5  -7   5   -5.69    8.38
  -6   7  -5  430.26   30.55
   6  -7   5  531.41   36.62
   6  -7   5  497.87   33.95
   6  -7   5  480.00   42.94
   6  -7   5  508.24   34.62
  -7   7  -5    5.71   10.14
  -7   7  -5   12.60   10.54
  -7   7  -5   24.66   12.36
   7  -7   5    9.75   12.92
   7  -7   5    4.13   11.23
   7  -7   5   -0.09   12.02
  -8   7  -5  183.91   21.83
  -8   7  -5  189.51   20.75
  -8   7  -5  133.53   21.81
   8  -7   5  148.39   23.31
   8  -7   5  140.30   22.24
  -9   7  -5   20.58   14.60
   9  -7   5   11.76   15.59
   8   6  -5    0.98   16.30
   8   6  -5   -0.98    9.87
   8   6  -5    2.69    9.62
  -8  -6   5    3.80   11.97
  -8  -6   5    5.38   12.48
   7   6  -5  375.21   35.17
   7   6  -5  328.60   29.97
   7   6  -5  320.45   29.72
  -7  -6   5  312.83   32.44
  -7  -6   5  316.75   33.01
   6   6  -5   14.41   12.35
   6   6  -5    8.46    8.03
   6   6  -5    8.86   13.68
  -6  -6   5    0.79   10.57
  -6  -6   5    9.51   12.80
  -6  -6   5    3.89    9.10
   5   6  -5  690.19   41.19
   5   6  -5  649.25   38.99
   5   6  -5  550.84   42.22
   5   6  -5  664.09   41.69
  -5  -6   5  727.36   39.43
  -5  -6   5  620.65   42.78
  -5  -6   5  646.94   41.88
   4   6  -5   11.62    9.72
   4   6  -5   19.31    8.30
   4   6  -5    3.26    8.68
   4   6  -5   19.28    8.22
  -4  -6   5   18.74    6.56
  -4  -6   5   19.77    8.91
  -4  -6   5   24.52   10.43
  -4  -6   5   18.37    7.68
   3   6  -5 1119.31   58.98
   3   6  -5 1096.04   60.01
   3   6  -5 1075.27   60.90
  -3  -6   5 1040.74   61.24
  -3  -6   5 1058.53   56.17
  -3  -6   5 1067.16   56.31
  -3  -6   5 1081.91   59.84
   2   6  -5    0.16    5.19
   2   6  -5   -3.98    6.22
   2   6  -5  -10.24    5.88
   2   6  -5    0.28    6.71
  -2  -6   5   -3.35    7.94
  -2  -6   5   10.40    6.55
  -2  -6   5    5.66    3.92
  -2  -6   5   -3.47    4.71
   1   6  -5 1095.26   61.25
   1   6  -5 1087.48   61.37
   1   6  -5 1199.71   62.22
   1   6  -5 1088.24   62.45
  -1  -6   5 1191.70   60.42
  -1  -6   5 1301.02   67.56
  -1  -6   5 1098.74   59.36
  -1  -6   5 1147.31   63.42
  -1  -6   5 1115.92   57.12
   0   6  -5   15.80    6.86
   0   6  -5   29.33    7.25
   0   6  -5   18.22    1.52
   0   6  -5   26.73    6.87
   0   6  -5   18.56    1.71
   0  -6   5   23.70    7.51
   0  -6   5   19.22    3.54
   0  -6   5    8.70   10.18
   0  -6   5   21.12    3.49
   0  -6   5   16.87    5.75
   0  -6   5   32.85    5.82
  -1   6  -5 1999.64   97.37
  -1   6  -5 1951.24  101.33
  -1   6  -5 2062.12  101.19
  -1   6  -5 1933.33   97.68
  -1   6  -5 1785.15  101.09
   1  -6   5 1935.64   97.06
   1  -6   5 2056.12  105.90
   1  -6   5 2063.32   99.98
   1  -6   5 1866.44   97.59
   1  -6   5 2093.87  103.01
  -2   6  -5   38.77    9.57
  -2   6  -5   20.59    5.35
  -2   6  -5   36.46    8.94
  -2   6  -5   37.45    7.86
  -2   6  -5   27.16    5.15
   2  -6   5   28.65    7.60
   2  -6   5   32.81    5.35
   2  -6   5   16.62    9.42
   2  -6   5   34.09   10.36
  -3   6  -5 1331.76   66.45
  -3   6  -5 1209.75   69.99
  -3   6  -5 1327.45   68.98
  -3   6  -5 1487.99   68.54
   3  -6   5 1219.46   69.11
   3  -6   5 1261.81   71.52
   3  -6   5 1363.81   67.95
   3  -6   5 1401.51   75.59
   3  -6   5 1246.17   72.33
  -4   6  -5    1.72    4.78
  -4   6  -5   -2.91    2.88
  -4   6  -5    3.22    7.47
  -4   6  -5    1.71    5.88
   4  -6   5    4.52    7.41
   4  -6   5    0.65    6.67
   4  -6   5   -9.61    5.86
   4  -6   5    1.37    7.31
   4  -6   5    2.39    7.78
  -5   6  -5  628.64   40.13
  -5   6  -5  650.92   39.75
   5  -6   5  752.54   42.68
   5  -6   5  758.30   44.65
   5  -6   5  616.92   40.18
   5  -6   5  827.55   48.43
  -6   6  -5    3.98    8.61
  -6   6  -5    5.93    9.19
   6  -6   5    2.87    6.77
   6  -6   5    3.20    8.49
   6  -6   5   -4.03    6.88
   6  -6   5    4.63   12.68
  -7   6  -5  398.93   28.07
  -7   6  -5  385.49   28.71
  -7   6  -5  410.49   31.53
   7  -6   5  382.53   33.84
   7  -6   5  370.73   30.62
   7  -6   5  426.58   37.94
  -8   6  -5   12.15   13.51
  -8   6  -5   15.96   10.36
  -8   6  -5   -5.45    9.79
   8  -6   5   12.66   12.92
   8  -6   5   18.29   18.34
   8  -6   5  -10.02    7.49
  -9   6  -5  107.67   18.69
   9  -6   5  113.78   20.78
   9   5  -5  -25.14   15.86
   9   5  -5    6.47   16.22
  -9  -5   5    1.88   13.74
   8   5  -5  256.86   31.08
   8   5  -5  220.45   24.41
   8   5  -5  228.27   25.41
  -8  -5   5  204.80   29.13
  -8  -5   5  265.34   28.27
   7   5  -5   12.08   10.19
   7   5  -5    3.68    9.99
   7   5  -5  -10.12   12.54
  -7  -5   5   -3.64   10.94
  -7  -5   5   -7.48   12.73
   6   5  -5  633.89   42.43
   6   5  -5  628.37   39.76
   6   5  -5  633.58   41.61
  -6  -5   5  661.87   44.02
  -6  -5   5  655.75   40.10
   5   5  -5    3.86    6.95
   5   5  -5   15.15    7.57
   5   5  -5   -1.45    7.11
   5   5  -5    0.63   10.15
  -5  -5   5    9.12    6.59
  -5  -5   5    6.24    7.88
  -5  -5   5    4.69    7.23
   4   5  -5 1155.17   58.32
   4   5  -5 1168.09   59.72
   4   5  -5  980.91   58.90
   4   5  -5 1011.27   60.72
  -4  -5   5 1039.78   55.34
  -4  -5   5 1021.21   54.66
  -4  -5   5 1108.01   57.66
  -4  -5   5 1056.42   60.17
   3   5  -5    2.85    6.30
   3   5  -5   -0.95    7.10
   3   5  -5   22.22    9.67
   3   5  -5   -0.31    5.28
  -3  -5   5    3.54    4.35
  -3  -5   5    0.60    5.13
  -3  -5   5    6.53    7.13
  -3  -5   5   11.06    8.44
   2   5  -5  565.67   30.59
   2   5  -5  505.91   29.90
   2   5  -5  461.77   29.72
   2   5  -5  482.28   31.63
  -2  -5   5  468.85   26.57
  -2  -5   5  442.38   30.29
  -2  -5   5  470.71   28.89
  -2  -5   5  517.22   27.47
   1   5  -5   68.40   10.26
   1   5  -5   74.16   10.25
   1   5  -5   60.14   10.65
   1   5  -5   92.81   11.73
  -1  -5   5   71.66   11.64
  -1  -5   5   66.95    8.79
  -1  -5   5   69.65    7.92
  -1  -5   5   83.18   13.22
  -1  -5   5   86.42    7.91
   0   5  -5 2180.24  102.82
   0   5  -5 1975.16  102.48
   0   5  -5 2051.59  102.35
   0   5  -5 1762.95  102.57
   0  -5   5 1899.78   99.92
   0  -5   5 2034.31  106.18
   0  -5   5 2009.67   99.98
   0  -5   5 2092.74  103.37
  -1   5  -5   -2.62    5.11
  -1   5  -5   -0.20    4.94
  -1   5  -5   -0.57    3.73
  -1   5  -5    0.28    2.46
  -1   5  -5    1.70    4.44
  -1   5  -5   -1.74    2.69
   1  -5   5    7.68    8.42
   1  -5   5   -2.42    3.08
   1  -5   5    4.21    5.91
   1  -5   5   -0.39    2.54
   1  -5   5    1.42    4.05
  -2   5  -5 1957.10   96.28
  -2   5  -5 1905.08   95.81
  -2   5  -5 1885.41   99.04
  -2   5  -5 1966.94   98.87
  -2   5  -5 1906.07   97.90
   2  -5   5 2145.77   99.86
   2  -5   5 1914.09   97.26
   2  -5   5 1842.43   96.12
   2  -5   5 1801.45  101.79
  -3   5  -5   14.74    5.31
  -3   5  -5    8.23    4.17
  -3   5  -5   -1.02    4.22
  -3   5  -5    7.57    4.69
   3  -5   5   12.32    4.89
   3  -5   5   -0.48    6.98
   3  -5   5    9.85    4.69
   3  -5   5    9.72    6.73
   3  -5   5   15.33    9.25
  -4   5  -5 1257.78   60.17
  -4   5  -5 1198.54   62.87
  -4   5  -5 1174.30   61.64
   4  -5   5 1105.56   64.60
   4  -5   5 1140.89   62.59
   4  -5   5 1092.99   61.77
   4  -5   5 1179.82   67.33
   4  -5   5 1220.19   63.43
  -5   5  -5   -0.78    6.87
  -5   5  -5    3.27    4.20
  -5   5  -5   10.76    5.51
  -5   5  -5    8.34    7.20
   5  -5   5   12.64    7.04
   5  -5   5    5.97   10.55
   5  -5   5   -1.05    8.18
   5  -5   5    3.92    5.63
  -6   5  -5  584.62   31.52
  -6   5  -5  545.90   33.70
  -6   5  -5  525.92   33.80
  -6   5  -5  522.80   35.52
   6  -5   5  612.02   40.84
   6  -5   5  550.14   34.70
   6  -5   5  594.23   38.07
  -7   5  -5   11.10    7.80
  -7   5  -5   -4.23   10.17
  -7   5  -5    3.50    9.20
   7  -5   5    2.26    7.57
   7  -5   5    2.64    7.36
   7  -5   5   21.28   15.06
  -8   5  -5  338.29   28.30
  -8   5  -5  305.33   24.19
  -8   5  -5  278.23   27.38
   8  -5   5  230.33   30.87
   8  -5   5  268.23   26.69
   8  -5   5  284.87   28.70
  -9   5  -5    9.40    9.44
   9  -5   5   -8.87   13.00
   9  -5   5   19.37   13.31
 -10   5  -5   58.44   17.54
  10  -5   5   93.57   17.95
   9   4  -5  148.72   26.05
   9   4  -5  214.44   27.09
  -9  -4   5  208.82   27.95
   8   4  -5    4.37   10.29
   8   4  -5   -5.38   10.42
   8   4  -5   12.09   10.77
  -8  -4   5    6.74   15.63
  -8  -4   5   10.83   14.68
   7   4  -5  417.55   33.26
   7   4  -5  405.58   28.75
   7   4  -5  363.74   34.24
  -7  -4   5  367.75   32.66
  -7  -4   5  441.23   37.50
   6   4  -5   23.48    9.16
   6   4  -5   12.18    9.01
   6   4  -5  -16.85    9.68
  -6  -4   5    0.30    8.15
  -6  -4   5   13.07   10.02
   5   4  -5  690.96   42.05
   5   4  -5  667.46   44.01
   5   4  -5  718.67   42.39
  -5  -4   5  749.05   38.97
  -5  -4   5  706.33   38.07
  -5  -4   5  704.91   41.93
  -5  -4   5  730.54   43.91
   4   4  -5    2.51    6.39
   4   4  -5   14.46    8.36
   4   4  -5    5.50    6.09
   4   4  -5   -1.30    6.92
  -4  -4   5   14.89    6.61
  -4  -4   5   19.16    6.12
  -4  -4   5    9.31    4.49
  -4  -4   5   13.64    6.98
   3   4  -5 1995.42  100.75
   3   4  -5 1987.40  101.83
   3   4  -5 1845.14  100.17
   3   4  -5 1866.54   99.36
  -3  -4   5 1903.27   99.04
  -3  -4   5 1934.30  100.86
  -3  -4   5 2085.47   96.77
  -3  -4   5 1929.56   98.30
   2   4  -5   16.23    5.25
   2   4  -5   16.53    6.83
   2   4  -5   24.20    7.51
   2   4  -5   13.35    5.89
   2   4  -5   21.01    7.95
  -2  -4   5   19.28    5.72
  -2  -4   5   18.96    6.48
  -2  -4   5   31.08    6.22
  -2  -4   5   27.32    3.94
   1   4  -5 2266.86  107.29
   1   4  -5 1939.27  105.70
   1   4  -5 2111.90  106.51
   1   4  -5 2155.35  107.70
  -1  -4   5 1996.67  103.07
  -1  -4   5 2071.82  104.52
  -1  -4   5 2091.61  106.86
  -1  -4   5 2140.41  105.26
   0   4  -5    1.90    5.55
   0   4  -5    5.53    5.95
   0   4  -5   -1.80    3.01
   0   4  -5    2.54    4.78
   0   4  -5    3.66    4.07
   0  -4   5   -5.97    7.06
   0  -4   5    8.13    3.50
   0  -4   5    3.07    3.76
   0  -4   5   10.95    3.68
  -1   4  -5 1717.24   85.01
  -1   4  -5 1596.47   87.99
  -1   4  -5 1677.46   89.00
  -1   4  -5 1757.55   88.75
  -1   4  -5 1706.62   87.36
   1  -4   5 1964.69   92.35
   1  -4   5 1799.75   85.52
   1  -4   5 1727.27   86.57
   1  -4   5 1819.23   88.78
   1  -4   5 1614.21   86.58
  -2   4  -5    3.10    4.28
  -2   4  -5    3.69    4.48
  -2   4  -5    8.79    3.58
  -2   4  -5   -2.28    3.69
  -2   4  -5   -2.29    4.07
  -2   4  -5    3.93    4.03
  -2   4  -5    2.83    4.07
   2  -4   5    8.01    4.23
   2  -4   5    9.84    8.05
   2  -4   5    4.72    4.71
   2  -4   5   -1.02    3.28
   2  -4   5    3.02    4.81
  -3   4  -5 2112.75   97.94
  -3   4  -5 1871.71   98.10
  -3   4  -5 2094.38   99.59
  -3   4  -5 1882.05   97.53
   3  -4   5 1915.77  102.36
   3  -4   5 1932.94  101.44
   3  -4   5 2018.62   98.65
   3  -4   5 1776.35   98.72
   3  -4   5 1948.36   98.50
  -4   4  -5   31.85    6.71
  -4   4  -5    0.76    4.20
  -4   4  -5    5.00    4.30
   4  -4   5   12.71    7.34
   4  -4   5    0.84    5.01
   4  -4   5   10.85    6.11
   4  -4   5    9.01    2.89
   4  -4   5   21.11    5.70
   4  -4   5   11.38    5.99
  -5   4  -5 1275.30   68.66
  -5   4  -5 1300.34   68.64
  -5   4  -5 1274.69   70.19
   5  -4   5 1319.43   69.62
   5  -4   5 1363.29   72.15
   5  -4   5 1327.40   73.83
  -6   4  -5    0.69    6.95
  -6   4  -5   -0.25    8.94
  -6   4  -5   -2.98    6.12
   6  -4   5   -1.16    7.61
   6  -4   5   -5.71   10.42
   6  -4   5    1.71    6.68
  -7   4  -5  356.60   23.68
  -7   4  -5  359.29   30.18
  -7   4  -5  319.34   26.97
   7  -4   5  305.64   30.87
   7  -4   5  348.97   26.55
   7  -4   5  366.76   25.28
  -8   4  -5   10.08    8.17
  -8   4  -5    1.59   11.68
   8  -4   5   25.62   12.57
   8  -4   5   18.82   10.77
   8  -4   5    2.10   10.93
  -9   4  -5  176.55   21.90
   9  -4   5  162.90   21.28
   9  -4   5  139.52   22.76
 -10   4  -5   10.55   13.25
  10  -4   5    7.54   14.84
   9   3  -5   11.25   15.53
   9   3  -5   -9.58   14.83
  -9  -3   5   11.72   12.84
   8   3  -5  311.04   30.59
   8   3  -5  233.64   25.38
  -8  -3   5  292.48   31.27
  -8  -3   5  247.15   28.60
   7   3  -5    7.42    7.73
   7   3  -5    9.64   11.01
   7   3  -5    5.31    8.63
  -7  -3   5    7.92   11.34
  -7  -3   5   -2.19    8.35
   6   3  -5  572.87   36.32
   6   3  -5  591.52   37.81
   6   3  -5  634.10   40.52
  -6  -3   5  583.76   38.60
  -6  -3   5  590.60   40.56
  -6  -3   5  642.57   35.13
  -6  -3   5  592.16   39.36
   5   3  -5   14.87    7.20
   5   3  -5    1.37    6.95
   5   3  -5    1.25    8.66
  -5  -3   5    8.55    7.79
  -5  -3   5   11.89    7.55
  -5  -3   5   10.10    5.64
  -5  -3   5  -10.80    5.41
   4   3  -5 1648.10   86.69
   4   3  -5 1931.54   88.55
   4   3  -5 1666.71   86.06
   4   3  -5 1652.52   88.55
  -4  -3   5 1549.94   86.61
  -4  -3   5 1624.48   85.10
  -4  -3   5 1624.98   83.48
  -4  -3   5 1719.29   88.61
   3   3  -5   10.74    6.28
   3   3  -5    5.26    4.53
   3   3  -5   -1.98    5.22
   3   3  -5    6.17    6.00
   3   3  -5   -0.67    4.64
  -3  -3   5   -2.48    4.68
  -3  -3   5    2.80    5.07
  -3  -3   5    9.69    2.99
  -3  -3   5    9.33    4.61
   2   3  -5 2219.09  105.80
   2   3  -5 1983.04  105.85
   2   3  -5 2017.96  104.79
   2   3  -5 2115.74  104.71
   2   3  -5 2049.98  105.24
   2   3  -5 2159.04  106.62
  -2  -3   5 2040.29  105.07
  -2  -3   5 2059.85  101.40
  -2  -3   5 2037.00  104.66
   1   3  -5   40.73    6.58
   1   3  -5   57.20    8.43
   1   3  -5   48.42    7.46
   1   3  -5   45.39    8.29
   1   3  -5   38.20    6.83
   1   3  -5   45.97    7.08
   1   3  -5   33.18    6.55
  -1  -3   5   53.08    3.80
  -1  -3   5   48.28    6.71
  -1  -3   5   53.19    3.83
  -1  -3   5   46.63    7.03
   0   3  -5 3126.67  159.19
   0   3  -5 3135.96  159.64
   0   3  -5 3246.88  158.36
   0   3  -5 3092.37  158.50
   0   3  -5 3339.84  158.90
   0  -3   5 3105.09  160.82
   0  -3   5 3119.96  158.33
   0  -3   5 3313.47  155.92
  -1   3  -5  226.89   15.71
  -1   3  -5  229.97   14.19
  -1   3  -5  211.74   14.13
  -1   3  -5  203.02   10.73
  -1   3  -5  201.97   13.91
   1  -3   5  192.79   12.22
   1  -3   5  181.50   13.40
   1  -3   5  211.43   11.70
   1  -3   5  231.59   16.46
  -2   3  -5 2811.82  141.92
  -2   3  -5 2696.97  140.10
  -2   3  -5 2933.96  143.02
  -2   3  -5 2745.94  141.25
  -2   3  -5 2691.77  141.46
  -2   3  -5 2906.50  140.03
  -2   3  -5 3007.06  144.87
   2  -3   5 2795.86  141.26
   2  -3   5 2991.31  141.67
   2  -3   5 2960.12  140.79
   2  -3   5 2945.30  143.93
   2  -3   5 2725.78  144.36
  -3   3  -5    1.44    3.55
  -3   3  -5   -1.35    3.75
  -3   3  -5   -0.43    4.21
  -3   3  -5    3.47    4.60
   3  -3   5   21.96    8.37
   3  -3   5    2.65    4.47
   3  -3   5   -0.02    3.75
   3  -3   5    4.52    2.56
   3  -3   5    5.03    6.14
   3  -3   5    2.62    3.26
  -4   3  -5 1494.14   75.10
  -4   3  -5 1434.86   74.85
   4  -3   5 1319.47   74.16
   4  -3   5 1471.91   71.70
   4  -3   5 1556.96   75.89
   4  -3   5 1502.77   79.37
   4  -3   5 1425.35   76.03
   4  -3   5 1571.54   78.18
  -5   3  -5    8.06    7.52
  -5   3  -5    5.40    4.84
  -5   3  -5    2.23    2.87
  -5   3  -5    1.15    4.83
   5  -3   5    1.87    7.85
   5  -3   5   -0.84    6.15
   5  -3   5   -1.39    8.70
  -6   3  -5  845.64   47.32
  -6   3  -5  834.56   45.22
  -6   3  -5  864.16   48.80
   6  -3   5  784.41   47.02
   6  -3   5  874.32   50.15
   6  -3   5  848.89   52.03
  -7   3  -5   -2.07    9.87
  -7   3  -5    2.97    4.94
  -7   3  -5    2.61    8.33
  -7   3  -5   -3.73    5.72
   7  -3   5    2.70    8.22
   7  -3   5   -4.85    9.58
   7  -3   5    1.65    8.67
  -8   3  -5  330.78   26.96
  -8   3  -5  298.64   28.45
   8  -3   5  268.23   28.66
   8  -3   5  238.30   23.55
   8  -3   5  266.55   26.40
  -9   3  -5   11.15   11.42
  -9   3  -5   17.10   15.00
   9  -3   5    6.81   11.40
   9  -3   5   -6.86   16.42
   9  -3   5   20.07   13.91
 -10   3  -5   75.19   15.04
  10  -3   5   81.40   20.95
  10  -3   5   88.82   18.53
   9   2  -5  215.07   25.26
   9   2  -5  201.27   28.44
  -9  -2   5  245.27   30.67
   8   2  -5   17.37   13.62
   8   2  -5    8.61   13.11
  -8  -2   5   -2.18   13.63
  -8  -2   5   12.66   14.88
   7   2  -5  560.64   40.46
   7   2  -5  664.38   37.69
   7   2  -5  633.00   41.69
  -7  -2   5  627.42   41.24
  -7  -2   5  618.46   37.41
  -7  -2   5  681.66   44.24
   6   2  -5   14.90   10.54
   6   2  -5   -2.37    7.25
   6   2  -5    9.11   10.68
  -6  -2   5   -9.50    8.51
  -6  -2   5   20.42   10.79
  -6  -2   5    7.18    7.06
  -6  -2   5    6.78    6.27
   5   2  -5  936.57   51.37
   5   2  -5  993.26   51.60
   5   2  -5  969.17   53.65
   5   2  -5  879.85   52.24
  -5  -2   5  905.34   50.79
  -5  -2   5  931.61   53.02
  -5  -2   5  996.84   49.50
  -5  -2   5  861.70   53.19
   4   2  -5    6.01    7.55
   4   2  -5   -5.01    6.55
   4   2  -5    4.46    5.53
   4   2  -5    1.90    4.35
  -4  -2   5    1.73    6.47
  -4  -2   5    0.67    3.51
  -4  -2   5   -2.37    4.99
  -4  -2   5   -3.12    4.60
   3   2  -5 1611.00   86.62
   3   2  -5 1698.02   86.02
   3   2  -5 1591.77   86.12
   3   2  -5 1781.56   86.38
   3   2  -5 1769.11   87.78
  -3  -2   5 1683.75   86.22
  -3  -2   5 1639.37   86.90
  -3  -2   5 1688.27   83.13
   2   2  -5   -0.15    5.96
   2   2  -5    7.33    4.22
   2   2  -5    7.05    5.31
   2   2  -5    3.66    3.78
   2   2  -5   -2.08    3.64
   2   2  -5    4.78    5.02
   2   2  -5    2.70    4.52
  -2  -2   5    4.10    1.44
  -2  -2   5    3.09    4.53
   1   2  -5 2298.32  108.25
   1   2  -5 2238.24  109.89
   1   2  -5 2039.77  109.62
   1   2  -5 2008.05  108.63
   1   2  -5 2264.12  109.20
   1   2  -5 2060.09  108.77
   1   2  -5 2229.56  108.86
   0   2  -5   14.63    4.70
   0   2  -5   12.79    4.58
   0   2  -5   16.66    5.59
   0   2  -5   11.94    5.11
   0   2  -5   21.63    5.92
   0   2  -5   15.78    4.73
   0   2  -5   21.68    5.66
   0  -2   5   17.98    2.04
   0  -2   5   13.87    1.96
   0  -2   5    9.39    5.15
  -1   2  -5 2859.96  149.29
  -1   2  -5 3226.41  149.84
  -1   2  -5 3076.78  149.69
  -1   2  -5 2953.57  151.16
  -1   2  -5 2949.95  148.22
  -1   2  -5 2997.09  150.24
  -1   2  -5 2844.74  146.43
  -1   2  -5 2967.06  146.42
   1  -2   5 2941.61  148.38
   1  -2   5 3069.36  147.59
   1  -2   5 3091.00  150.71
   1  -2   5 3291.68  151.63
  -2   2  -5   35.04    6.31
  -2   2  -5   28.04    5.84
  -2   2  -5   45.22    7.06
  -2   2  -5   41.26    4.70
  -2   2  -5   37.63    4.61
  -2   2  -5   23.20    6.29
  -2   2  -5   38.10    4.32
   2  -2   5   38.61    8.61
   2  -2   5   30.79    4.45
   2  -2   5   38.33    3.77
   2  -2   5   25.93    4.75
   2  -2   5   51.48    6.76
   2  -2   5   40.86    7.41
  -3   2  -5 2243.43  108.63
  -3   2  -5 2185.60  107.66
  -3   2  -5 2111.52  111.55
  -3   2  -5 2076.08  108.80
   3  -2   5 2277.16  110.19
   3  -2   5 2419.58  109.37
   3  -2   5 2225.55  106.85
   3  -2   5 2049.73  111.71
   3  -2   5 2039.84  110.91
   3  -2   5 2174.08  107.61
   3  -2   5 2166.29  106.78
  -4   2  -5    5.96    3.22
  -4   2  -5    2.64    4.71
  -4   2  -5    1.49    3.70
   4  -2   5   21.50    7.37
   4  -2   5    8.93    5.77
   4  -2   5    3.51    5.65
   4  -2   5    6.04    5.44
  -5   2  -5 1352.29   73.25
  -5   2  -5 1362.80   75.00
  -5   2  -5 1367.59   71.71
  -5   2  -5 1488.04   71.56
   5  -2   5 1483.26   77.57
   5  -2   5 1467.77   73.91
   5  -2   5 1354.59   75.75
  -6   2  -5   -1.60    5.81
  -6   2  -5    1.99    4.52
  -6   2  -5   -3.06    4.02
  -6   2  -5    0.20    4.91
   6  -2   5    5.35    7.30
   6  -2   5    1.60    6.05
   6  -2   5   10.80    7.83
  -7   2  -5  433.24   30.70
  -7   2  -5  487.79   28.74
  -7   2  -5  512.92   34.13
  -7   2  -5  477.36   26.94
   7  -2   5  448.97   33.95
   7  -2   5  473.70   33.62
   7  -2   5  536.40   32.28
  -8   2  -5   20.55   12.60
  -8   2  -5   -7.32    8.64
  -8   2  -5    9.30    6.74
   8  -2   5   -9.04    7.52
   8  -2   5    1.02    9.78
   8  -2   5   -1.30    9.27
  -9   2  -5  213.65   23.68
  -9   2  -5  175.96   25.48
   9  -2   5  201.87   29.22
   9  -2   5  241.93   26.82
   9  -2   5  210.39   23.72
 -10   2  -5  -27.70   10.47
  10  -2   5   -1.09   12.72
  10  -2   5   -8.25   15.49
 -11   2  -5   64.44   18.58
   9   1  -5    3.22   10.67
   9   1  -5   11.38   15.26
  -9  -1   5  -10.08   15.29
   8   1  -5  280.43   30.34
   8   1  -5  333.33   30.76
  -8  -1   5  329.20   32.77
  -8  -1   5  228.80   27.88
  -8  -1   5  347.19   34.27
   7   1  -5    7.46   11.50
   7   1  -5    6.84    8.60
   7   1  -5    3.87    8.06
   7   1  -5    9.87    6.01
  -7  -1   5    1.76    7.15
  -7  -1   5    7.67   11.68
  -7  -1   5   29.18    7.90
  -7  -1   5   -0.48    8.69
   6   1  -5  753.14   45.35
   6   1  -5  699.42   40.88
   6   1  -5  701.20   42.01
   6   1  -5  746.28   44.76
  -6  -1   5  784.91   43.07
  -6  -1   5  732.14   45.27
  -6  -1   5  730.40   45.19
  -6  -1   5  759.04   41.15
   5   1  -5    6.48    5.88
   5   1  -5    3.26    8.19
   5   1  -5    0.55    5.56
   5   1  -5    6.11    5.33
  -5  -1   5    5.34    6.28
  -5  -1   5    3.35    6.17
  -5  -1   5    6.55    4.88
   4   1  -5 1801.45   95.00
   4   1  -5 1883.40   93.71
   4   1  -5 1901.14   94.01
   4   1  -5 1739.89   95.25
  -4  -1   5 1848.26   95.98
  -4  -1   5 1786.50   91.83
  -4  -1   5 1906.71   94.84
   3   1  -5   -0.68    3.67
   3   1  -5    4.08    4.71
   3   1  -5    5.67    4.70
   3   1  -5    0.59    3.98
  -3  -1   5    6.41    3.01
  -3  -1   5    4.49    6.00
  -3  -1   5   -2.95    4.59
   2   1  -5 1738.19   88.44
   2   1  -5 1841.81   88.33
   2   1  -5 1691.66   87.57
   2   1  -5 1567.31   88.09
   2   1  -5 1626.92   87.55
   2   1  -5 1930.77   87.92
  -2  -1   5 1761.13   84.71
  -2  -1   5 1787.55   88.47
  -2  -1   5 1703.12   84.77
  -2  -1   5 1651.57   88.79
   1   1  -5    0.93    3.51
   1   1  -5    0.19    3.16
   1   1  -5   -0.89    4.90
   1   1  -5    0.06    3.02
   1   1  -5    5.97    4.62
   1   1  -5    6.59    3.45
   1   1  -5   11.17    5.36
   0   1  -5 3688.77  189.82
   0   1  -5 3887.10  189.63
   0   1  -5 3973.99  189.54
   0   1  -5 3735.54  188.65
   0   1  -5 4173.79  190.57
   0   1  -5 3992.36  190.35
   0   1  -5 3630.99  189.07
   0  -1   5 3620.84  189.79
   0  -1   5 4098.42  189.96
   0  -1   5 3853.07  186.77
   0  -1   5 3681.92  186.89
  -1   1  -5   37.49    6.60
  -1   1  -5   52.61    5.80
  -1   1  -5   43.54    6.74
  -1   1  -5   52.64    6.93
  -1   1  -5   65.26    4.41
  -1   1  -5   45.01    6.10
   1  -1   5   56.68    4.96
   1  -1   5   51.18    7.82
   1  -1   5   56.71    6.31
   1  -1   5   58.38    5.03
   1  -1   5   58.46    7.53
  -2   1  -5 2974.50  149.31
  -2   1  -5 3119.31  148.61
  -2   1  -5 2940.10  148.11
  -2   1  -5 3233.25  150.77
  -2   1  -5 3186.22  148.55
  -2   1  -5 3199.55  151.58
   2  -1   5 2768.04  150.22
   2  -1   5 2762.20  147.13
   2  -1   5 2810.73  148.74
   2  -1   5 3007.29  148.66
   2  -1   5 3175.28  151.34
   2  -1   5 3256.41  151.71
  -3   1  -5  103.57    6.46
  -3   1  -5   85.60    8.83
  -3   1  -5  122.49    9.32
  -3   1  -5   91.45   11.39
  -3   1  -5   98.28    8.55
  -3   1  -5  103.37    6.23
   3  -1   5  123.67   10.56
   3  -1   5  102.29   10.45
   3  -1   5   98.01    7.45
   3  -1   5  101.77   11.07
   3  -1   5  114.78   12.72
  -4   1  -5 1623.71   81.91
  -4   1  -5 1613.99   80.70
  -4   1  -5 1637.45   84.74
  -4   1  -5 1653.84   81.17
  -4   1  -5 1573.14   80.11
   4  -1   5 1504.06   83.94
   4  -1   5 1498.28   84.34
   4  -1   5 1636.76   83.62
   4  -1   5 1774.65   82.76
  -5   1  -5    6.20    4.33
  -5   1  -5    6.92    3.44
  -5   1  -5   -3.83    4.68
  -5   1  -5   -5.16    4.89
   5  -1   5   18.30    8.99
   5  -1   5    0.24    4.41
   5  -1   5   13.70    6.02
  -6   1  -5  779.04   43.20
  -6   1  -5  774.65   39.31
  -6   1  -5  834.19   45.80
  -6   1  -5  721.11   41.63
   6  -1   5  790.49   47.35
   6  -1   5  735.44   45.34
   6  -1   5  704.48   42.61
  -7   1  -5   18.70    8.94
  -7   1  -5    3.46    7.29
  -7   1  -5    3.40    6.72
   7  -1   5   -4.40    7.99
   7  -1   5   11.27   10.70
   7  -1   5   10.74   11.22
  -8   1  -5  360.31   25.54
  -8   1  -5  385.25   33.21
  -8   1  -5  375.65   29.59
   8  -1   5  402.74   33.34
   8  -1   5  341.15   33.16
   8  -1   5  389.87   30.55
  -9   1  -5    7.29   10.41
  -9   1  -5   13.67    8.97
  -9   1  -5    2.91    9.62
   9  -1   5   -1.22   16.35
   9  -1   5   -1.90   13.76
   9  -1   5   -7.50   10.05
 -10   1  -5  129.99   18.32
  10  -1   5  127.80   19.90
  10  -1   5   91.89   22.49
 -11   1  -5  -24.73   13.66
  11  -1   5  -10.88   18.92
   9   0  -5  216.70   27.56
   9   0  -5  253.32   28.75
  -9   0   5  213.59   27.25
   8   0  -5   15.29    9.89
   8   0  -5    5.89    9.69
   8   0  -5   10.43   10.01
  -8   0   5   -1.65   14.07
  -8   0   5   -4.14    8.72
  -8   0   5  -11.28    7.96
  -8   0   5   -3.57   12.71
   7   0  -5  533.19   36.96
   7   0  -5  614.27   38.33
   7   0  -5  503.30   33.26
  -7   0   5  566.84   38.93
  -7   0   5  550.00   37.71
  -7   0   5  530.42   33.16
  -7   0   5  526.39   35.03
   6   0  -5    1.40    8.40
   6   0  -5   -2.76    4.94
   6   0  -5   -4.52    3.95
   6   0  -5   -1.23    3.31
   6   0  -5   -2.44    9.44
  -6   0   5   11.13    6.64
  -6   0   5    6.84    8.38
  -6   0   5   -3.21    7.09
   5   0  -5  896.95   50.97
   5   0  -5 1042.25   50.39
   5   0  -5 1043.73   53.38
   5   0  -5  867.87   46.81
   5   0  -5  861.76   52.27
  -5   0   5  927.55   52.16
  -5   0   5  879.05   51.88
  -5   0   5  970.57   53.99
  -5   0   5 1045.02   50.28
   4   0  -5    5.30    5.00
   4   0  -5    1.49    0.65
   4   0  -5    1.69    4.36
   4   0  -5    2.91    4.53
   4   0  -5    0.63    1.12
   4   0  -5    1.26    4.33
  -4   0   5    2.98    5.56
  -4   0   5    4.12    5.46
  -4   0   5    4.10    4.49
  -4   0   5    3.48    3.82
   3   0  -5 2722.84  133.97
   3   0  -5 2799.93  132.92
   3   0  -5 2623.71  134.11
   3   0  -5 2506.15  133.63
   3   0  -5 2518.93  132.92
  -3   0   5 2575.40  135.09
  -3   0   5 2887.31  131.45
  -3   0   5 2598.57  134.37
  -3   0   5 2661.48  131.69
   2   0  -5    0.06    3.43
   2   0  -5   -1.93    3.52
   2   0  -5   -3.36    3.94
   2   0  -5   -2.62    4.91
   2   0  -5    5.41    5.14
  -2   0   5    3.51    2.61
  -2   0   5    9.60    5.43
  -2   0   5   -2.74    3.98
   1   0  -5 4279.07  204.45
   1   0  -5 4114.57  203.88
   1   0  -5 4290.27  204.96
   1   0  -5 4473.53  205.04
   1   0  -5 3939.15  203.54
  -1   0   5 3915.55  201.64
  -1   0   5 3823.82  201.69
  -1   0   5 3922.53  203.00
  -1   0   5 4612.82  203.81
   0   0  -5   -1.33    3.37
   0   0  -5    0.17    2.90
   0   0  -5   -1.08    4.54
   0   0  -5    3.29    3.77
   0   0  -5    7.47    3.79
   0   0   5    5.53    2.60
   0   0   5   -6.54    2.54
   0   0   5    7.81    3.21
  -1   0  -5 4828.43  232.77
  -1   0  -5 4805.02  233.42
  -1   0  -5 4550.46  234.44
  -1   0  -5 4783.27  235.06
  -1   0  -5 5019.59  234.17
  -1   0  -5 4575.23  233.32
  -1   0  -5 4796.46  232.42
  -1   0  -5 5276.50  235.10
   1   0   5 4634.43  234.36
   1   0   5 4981.23  234.99
   1   0   5 4645.24  232.92
   1   0   5 4471.99  232.21
  -2   0  -5    5.28    3.22
  -2   0  -5   -0.39    3.05
  -2   0  -5    3.93    3.18
  -2   0  -5   -0.55    4.33
  -2   0  -5    9.47    4.15
  -2   0  -5   -0.69    3.04
  -2   0  -5    1.36    3.37
   2   0   5    2.30    2.62
   2   0   5   -0.90    3.30
   2   0   5    7.16    4.81
   2   0   5   -2.94    4.96
  -3   0  -5 2188.46  109.96
  -3   0  -5 2204.70  109.71
  -3   0  -5 2196.59  108.03
  -3   0  -5 2196.02  108.90
  -3   0  -5 2065.78  111.51
   3   0   5 2125.81  111.70
   3   0   5 2378.30  112.21
   3   0   5 2166.96  111.27
   3   0   5 2299.27  110.14
  -4   0  -5    2.55    6.33
  -4   0  -5    1.51    1.72
  -4   0  -5    4.68    4.71
  -4   0  -5   -0.87    2.51
  -4   0  -5   -3.78    3.47
  -4   0  -5    4.01    2.83
   4   0   5    2.58    6.54
   4   0   5    0.94    4.96
   4   0   5    6.05    5.19
   4   0   5   -1.42    3.61
  -5   0  -5 1154.36   57.82
  -5   0  -5  995.75   54.59
  -5   0  -5 1014.99   51.82
  -5   0  -5 1018.45   54.94
   5   0   5  999.19   57.36
   5   0   5 1073.32   58.17
   5   0   5 1032.67   55.51
  -6   0  -5    1.51    2.07
  -6   0  -5   -1.64    5.43
  -6   0  -5  -12.64    5.82
  -6   0  -5   -0.41    5.53
   6   0   5    2.75    9.13
   6   0   5   -2.15    9.22
   6   0   5    7.03    7.78
  -7   0  -5  682.32   42.84
  -7   0  -5  637.41   39.30
  -7   0  -5  689.21   39.83
   7   0   5  702.88   40.12
   7   0   5  700.68   42.44
   7   0   5  634.47   43.05
  -8   0  -5   -3.43    7.88
  -8   0  -5   12.06   11.59
  -8   0  -5    0.80    9.57
   8   0   5    1.71    8.81
   8   0   5   -1.03   13.48
   8   0   5   -0.23    8.37
  -9   0  -5  196.05   21.72
  -9   0  -5  272.22   28.96
  -9   0  -5  254.47   23.96
   9   0   5  183.25   25.85
   9   0   5  173.90   18.89
   9   0   5  317.87   26.04
 -10   0  -5    0.63    9.32
 -10   0  -5   -1.90   12.01
  10   0   5   -6.57   15.72
 -11   0  -5   57.96   15.54
  11   0   5   46.21   23.02
  11   0   5   63.85   19.39
   9  -1  -5   11.85   14.10
   9  -1  -5   -8.95   14.59
  -9   1   5   -1.31   11.97
  -9   1   5    0.04   15.41
   8  -1  -5  258.03   27.01
   8  -1  -5  286.04   28.48
   8  -1  -5  285.25   24.40
  -8   1   5  333.68   31.14
  -8   1   5  302.50   26.29
  -8   1   5  300.49   27.63
   7  -1  -5   -9.69    7.28
   7  -1  -5   -5.31    9.28
   7  -1  -5    8.11    8.57
  -7   1   5    9.20    8.23
  -7   1   5   -5.02   11.91
  -7   1   5   -0.14    9.61
   6  -1  -5  706.14   42.13
   6  -1  -5  701.01   40.02
   6  -1  -5  722.91   41.97
  -6   1   5  625.94   39.06
  -6   1   5  718.50   44.59
  -6   1   5  678.72   42.30
   5  -1  -5    1.33    6.52
   5  -1  -5    6.01    5.74
   5  -1  -5    4.49    3.92
   5  -1  -5    3.48    6.59
  -5   1   5    2.77    6.10
  -5   1   5    8.73    5.57
  -5   1   5   -3.17    6.27
  -5   1   5   24.75    8.74
   4  -1  -5 1844.23   91.87
   4  -1  -5 1871.90   95.35
   4  -1  -5 1760.44   95.71
   4  -1  -5 1780.20   91.88
   4  -1  -5 1775.19   94.54
  -4   1   5 1814.43   93.55
  -4   1   5 1907.94   91.29
  -4   1   5 1767.03   96.50
  -4   1   5 2003.80   94.55
  -4   1   5 2031.29   98.42
   3  -1  -5   -0.51    3.72
   3  -1  -5   10.23    5.20
   3  -1  -5    1.67    2.36
   3  -1  -5   -1.18    5.20
   3  -1  -5    1.22    2.42
   3  -1  -5    0.41    4.16
  -3   1   5   -0.31    4.93
  -3   1   5    7.15    4.95
  -3   1   5   -0.96    3.33
  -3   1   5    9.26    3.99
  -3   1   5    1.91    2.49
   2  -1  -5 1855.87   88.85
   2  -1  -5 1642.93   87.74
   2  -1  -5 1694.96   85.18
   2  -1  -5 1859.30   88.54
   2  -1  -5 1799.57   87.98
  -2   1   5 1709.78   85.61
  -2   1   5 1757.68   86.76
  -2   1   5 1647.26   89.22
  -2   1   5 1696.24   90.04
   1  -1  -5   10.70    4.27
   1  -1  -5    5.00    4.93
   1  -1  -5    5.21    3.42
   1  -1  -5    6.97    4.26
   1  -1  -5    5.09    4.33
   1  -1  -5    6.46    2.06
  -1   1   5    5.63    2.68
  -1   1   5    7.24    2.84
  -1   1   5    4.40    3.02
  -1   1   5    3.03    3.94
   0  -1  -5 3803.32  187.95
   0  -1  -5 3689.03  185.31
   0  -1  -5 3921.24  187.07
   0  -1  -5 4163.21  187.87
   0  -1  -5 3426.24  186.25
   0  -1  -5 3702.71  185.54
   0   1   5 3861.97  186.54
   0   1   5 3580.82  185.74
   0   1   5 3689.80  186.67
   0   1   5 4239.32  186.25
  -1  -1  -5   64.10    7.07
  -1  -1  -5   61.60    5.91
  -1  -1  -5   62.29    5.73
  -1  -1  -5   64.11    6.73
  -1  -1  -5   61.24    6.82
   1   1   5   48.64    5.23
   1   1   5   63.82    5.55
   1   1   5   51.66    7.40
   1   1   5   53.82    6.32
   1   1   5   75.42    7.11
  -2  -1  -5 3395.17  149.78
  -2  -1  -5 2797.28  151.95
  -2  -1  -5 3079.93  152.99
  -2  -1  -5 2976.50  151.74
  -2  -1  -5 3270.06  153.12
   2   1   5 3056.14  150.17
   2   1   5 2880.57  153.12
   2   1   5 3093.05  152.84
  -3  -1  -5  126.46   10.64
  -3  -1  -5   96.78    6.20
  -3  -1  -5  101.98   10.70
  -3  -1  -5  118.39   11.62
   3   1   5  106.16    9.59
   3   1   5  100.38    8.09
   3   1   5  107.42   11.17
   3   1   5  118.91   11.83
   3   1   5   95.90    6.42
   3   1   5  105.01   11.89
  -4  -1  -5 1825.20   88.48
  -4  -1  -5 1645.12   90.08
  -4  -1  -5 1758.76   85.93
  -4  -1  -5 1694.31   88.55
   4   1   5 1653.01   89.32
   4   1   5 1823.52   90.61
   4   1   5 1730.30   88.27
   4   1   5 1736.15   90.45
  -5  -1  -5    6.52    6.02
  -5  -1  -5    7.23    5.53
   5   1   5   -0.41    7.26
   5   1   5   -3.54    4.53
   5   1   5    6.25    6.41
  -6  -1  -5  700.94   44.87
  -6  -1  -5  753.73   43.53
  -6  -1  -5  807.51   44.44
   6   1   5  846.85   47.49
   6   1   5  800.61   44.42
   6   1   5  757.75   46.74
  -7  -1  -5   17.59    8.29
  -7  -1  -5   -1.78    5.60
  -7  -1  -5   -0.50   10.12
   7   1   5    3.04    7.97
   7   1   5   13.80    9.36
  -8  -1  -5  338.67   31.29
  -8  -1  -5  409.69   26.90
  -8  -1  -5  365.14   26.35
   8   1   5  378.25   33.65
   8   1   5  351.23   23.86
  -9  -1  -5   10.36   11.48
  -9  -1  -5   -4.58   10.48
  -9  -1  -5   -9.04    9.00
   9   1   5    1.90   14.16
   9   1   5    3.63    8.54
 -10  -1  -5  156.97   20.48
 -10  -1  -5  169.62   23.88
  10   1   5  167.92   23.11
  10   1   5  154.78   24.02
 -11  -1  -5   31.87   16.68
  11   1   5  -14.56   13.01
  11   1   5   13.20   20.34
   9  -2  -5  225.36   29.02
   9  -2  -5  171.85   24.71
  -9   2   5  241.62   28.29
  -9   2   5  265.10   26.18
  -9   2   5  188.87   25.44
   8  -2  -5    4.60   11.05
   8  -2  -5   -7.68    9.94
   8  -2  -5    6.17    9.44
  -8   2   5   -5.28    6.63
  -8   2   5   -3.08   13.92
  -8   2   5    8.11   10.56
   7  -2  -5  608.44   35.38
   7  -2  -5  592.33   39.46
   7  -2  -5  615.07   42.08
   7  -2  -5  611.99   37.92
  -7   2   5  695.19   42.64
  -7   2   5  661.36   39.28
  -7   2   5  673.55   43.23
   6  -2  -5   12.65    7.75
   6  -2  -5    3.73   11.10
   6  -2  -5   -4.30    4.93
   6  -2  -5   14.48    8.53
  -6   2   5    1.83    7.94
  -6   2   5    0.78    6.97
  -6   2   5   -6.21    9.50
   5  -2  -5  821.62   52.20
   5  -2  -5  985.59   51.54
   5  -2  -5  925.06   50.42
   5  -2  -5  887.43   48.44
  -5   2   5  932.22   50.56
  -5   2   5  972.96   53.53
  -5   2   5 1040.37   54.81
  -5   2   5  905.16   50.20
   4  -2  -5   -1.20    3.90
   4  -2  -5   -4.49    6.45
   4  -2  -5    4.74    5.38
   4  -2  -5   -0.99    5.92
  -4   2   5   -6.06    4.68
  -4   2   5   -8.73    3.69
  -4   2   5   -3.76    4.61
  -4   2   5    1.73    5.73
   3  -2  -5 1640.89   80.26
   3  -2  -5 1541.54   82.72
   3  -2  -5 1544.37   81.91
   3  -2  -5 1567.53   82.27
   3  -2  -5 1654.25   80.11
   3  -2  -5 1494.92   81.17
  -3   2   5 1647.12   84.57
  -3   2   5 1595.05   81.40
  -3   2   5 1585.72   84.05
  -3   2   5 1682.77   80.00
   2  -2  -5    0.49    3.45
   2  -2  -5    8.73    3.50
   2  -2  -5    8.50    4.27
   2  -2  -5    4.28    4.28
   2  -2  -5    4.25    5.18
   2  -2  -5    8.95    3.62
  -2   2   5    5.83    2.02
  -2   2   5   -2.07    6.01
  -2   2   5   -2.99    4.03
  -2   2   5    0.62    3.90
   1  -2  -5 2128.88  108.14
   1  -2  -5 2132.93  109.28
   1  -2  -5 2117.45  108.86
   1  -2  -5 2334.73  107.91
   1  -2  -5 2224.58  109.97
   1  -2  -5 2164.41  107.84
  -1   2   5 2163.86  108.75
  -1   2   5 2164.66  107.36
  -1   2   5 2191.79  110.90
   0  -2  -5    8.97    3.95
   0  -2  -5    9.00    4.58
   0  -2  -5   18.75    4.21
   0  -2  -5   11.81    3.64
   0  -2  -5   13.25    4.01
   0  -2  -5   16.42    4.96
   0  -2  -5   18.38    4.89
   0  -2  -5   23.93    3.02
   0   2   5   20.10    4.65
   0   2   5   16.91    4.48
   0   2   5   12.94    4.36
   0   2   5    6.65    4.77
   0   2   5   18.24    2.53
  -1  -2  -5 3322.50  150.98
  -1  -2  -5 3142.82  152.48
  -1  -2  -5 3111.31  149.11
  -1  -2  -5 2855.64  149.87
  -1  -2  -5 3276.31  150.65
  -1  -2  -5 2939.09  149.85
   1   2   5 3005.66  150.08
   1   2   5 2927.19  151.09
   1   2   5 3115.54  150.60
   1   2   5 2848.47  149.78
  -2  -2  -5   37.12    6.32
  -2  -2  -5   42.31    5.05
  -2  -2  -5   39.60    7.02
  -2  -2  -5   24.59    6.08
  -2  -2  -5   29.32    5.19
   2   2   5   31.45    5.42
   2   2   5   38.17    4.68
   2   2   5   51.28    6.92
   2   2   5   53.76    8.57
  -3  -2  -5 2170.95  104.70
  -3  -2  -5 2042.97  106.37
  -3  -2  -5 2081.11  107.46
  -3  -2  -5 2149.83  107.70
   3   2   5 2182.64  104.57
   3   2   5 2055.20  106.33
   3   2   5 2302.51  108.01
   3   2   5 1915.90  107.59
   3   2   5 2120.26  107.71
  -4  -2  -5   -4.05    3.71
  -4  -2  -5    4.40    4.93
  -4  -2  -5    4.46    3.34
  -4  -2  -5    4.24    5.02
   4   2   5    3.75    1.20
   4   2   5    3.32    7.07
   4   2   5    0.86    2.32
   4   2   5    5.94    7.68
   4   2   5    8.61    5.98
  -5  -2  -5 1476.82   71.42
  -5  -2  -5 1445.83   73.24
  -5  -2  -5 1486.21   74.30
   5   2   5 1305.24   73.07
   5   2   5 1337.91   69.11
   5   2   5 1351.27   75.21
   5   2   5 1392.97   75.51
  -6  -2  -5    0.26    6.79
  -6  -2  -5   -2.81    4.04
  -6  -2  -5    5.75    7.63
   6   2   5    4.50    3.93
   6   2   5   12.71    7.84
   6   2   5    3.15    7.94
  -7  -2  -5  526.94   34.63
  -7  -2  -5  449.58   32.07
  -7  -2  -5  500.82   31.97
   7   2   5  503.31   27.42
   7   2   5  443.39   30.43
   7   2   5  477.69   33.87
  -8  -2  -5    5.48    9.53
  -8  -2  -5    8.51    8.88
  -8  -2  -5  -11.10    6.40
   8   2   5    6.85    7.29
   8   2   5    2.66   13.72
  -9  -2  -5  222.99   25.73
  -9  -2  -5  173.11   22.16
  -9  -2  -5  282.04   26.73
   9   2   5  232.78   29.02
   9   2   5  218.89   22.18
 -10  -2  -5    3.25    8.88
 -10  -2  -5   -0.34   14.09
  10   2   5   16.43   13.54
  10   2   5    4.45   13.10
 -11  -2  -5   71.18   20.43
  11   2   5   91.54   20.16
   9  -3  -5   -0.45   17.02
   9  -3  -5    3.34   13.88
  -9   3   5   16.33   15.24
  -9   3   5    8.54   13.72
  -9   3   5   -6.83   11.26
   8  -3  -5  317.47   25.18
   8  -3  -5  249.76   25.64
   8  -3  -5  277.56   28.63
   8  -3  -5  258.98   22.92
  -8   3   5  278.45   26.73
  -8   3   5  276.98   29.34
   7  -3  -5   11.97    8.27
   7  -3  -5    6.56    9.47
   7  -3  -5   -5.87   11.89
   7  -3  -5    1.14    7.35
  -7   3   5    4.66    8.97
  -7   3   5    0.45   10.81
  -7   3   5   -5.75    9.08
   6  -3  -5  617.44   37.32
   6  -3  -5  589.41   40.07
   6  -3  -5  645.88   37.60
   6  -3  -5  738.19   36.72
  -6   3   5  597.72   37.13
  -6   3   5  565.84   40.15
  -6   3   5  600.30   40.29
   5  -3  -5    9.71    7.24
   5  -3  -5   16.39    7.98
   5  -3  -5   11.16    6.10
   5  -3  -5   14.81    6.15
  -5   3   5    4.60    7.18
  -5   3   5   15.24    7.99
  -5   3   5   -1.55    6.30
  -5   3   5    8.95    6.18
   4  -3  -5 1677.63   84.85
   4  -3  -5 1693.53   85.47
   4  -3  -5 1669.53   86.39
  -4   3   5 1682.96   84.13
  -4   3   5 1656.78   89.50
  -4   3   5 1597.97   86.18
  -4   3   5 1715.59   89.30
   3  -3  -5    0.54    3.39
   3  -3  -5    2.52    4.31
   3  -3  -5    7.18    5.01
   3  -3  -5   -1.74    5.98
  -3   3   5    0.03    2.51
  -3   3   5    1.65    3.94
  -3   3   5    4.59    5.52
  -3   3   5    2.95    7.63
   2  -3  -5 2162.37  104.76
   2  -3  -5 2190.80  106.76
   2  -3  -5 2041.24  106.46
   2  -3  -5 2306.37  105.73
  -2   3   5 2241.06  106.69
  -2   3   5 1859.51  107.83
  -2   3   5 1916.38  108.02
   1  -3  -5   50.92    7.86
   1  -3  -5   58.30    7.26
   1  -3  -5   48.27    5.18
   1  -3  -5   54.31    8.57
  -1   3   5   48.16    5.21
  -1   3   5   84.77    9.23
  -1   3   5   47.81    5.31
  -1   3   5   43.97    7.87
   0  -3  -5 3493.49  162.37
   0  -3  -5 3365.16  161.81
   0  -3  -5 3213.27  158.78
   0  -3  -5 3223.15  162.20
   0   3   5 3176.88  161.04
   0   3   5 3037.82  161.58
   0   3   5 3123.71  162.98
   0   3   5 3460.88  160.01
  -1  -3  -5  231.46   13.26
  -1  -3  -5  208.08   14.05
  -1  -3  -5  194.28   11.85
  -1  -3  -5  201.48   12.84
  -1  -3  -5  215.23   18.34
  -1  -3  -5  218.85   16.52
   1   3   5  199.74   13.91
   1   3   5  223.91   15.58
   1   3   5  215.34   14.30
  -2  -3  -5 2784.84  141.31
  -2  -3  -5 2866.11  142.18
  -2  -3  -5 2807.61  142.73
  -2  -3  -5 2947.02  143.19
  -2  -3  -5 2903.90  144.67
   2   3   5 3034.58  144.31
   2   3   5 2761.22  142.84
  -3  -3  -5    3.82    4.06
  -3  -3  -5    8.06    4.03
  -3  -3  -5    7.66    6.35
  -3  -3  -5   11.97    5.66
  -3  -3  -5    6.98    3.46
   3   3   5   -0.59    4.76
   3   3   5    2.97    4.08
   3   3   5   -4.21    5.07
  -4  -3  -5 1390.39   71.53
  -4  -3  -5 1468.05   74.98
  -4  -3  -5 1326.51   72.71
  -4  -3  -5 1400.83   74.17
   4   3   5 1443.71   73.09
   4   3   5 1376.68   75.24
  -5  -3  -5    5.71    5.43
  -5  -3  -5    1.35    4.43
  -5  -3  -5    6.87    5.39
   5   3   5   -1.89    6.50
   5   3   5    7.79    5.16
  -6  -3  -5  826.94   49.71
  -6  -3  -5  871.06   47.03
  -6  -3  -5  880.93   48.84
   6   3   5  788.43   50.75
   6   3   5  866.53   43.10
   6   3   5  878.42   48.82
  -7  -3  -5   11.18   10.32
  -7  -3  -5   -3.18    8.32
  -7  -3  -5    6.05    5.68
   7   3   5    2.29    6.57
   7   3   5    0.92   12.50
  -8  -3  -5  279.73   23.96
  -8  -3  -5  336.65   28.26
  -8  -3  -5  289.49   25.71
   8   3   5  288.20   26.56
   8   3   5  332.74   32.01
  -9  -3  -5   -5.26    7.95
  -9  -3  -5    4.21    9.22
   9   3   5   12.84   11.38
   9   3   5   -0.44    8.12
 -10  -3  -5   76.28   19.66
 -10  -3  -5   92.87   18.80
  10   3   5  136.89   25.70
  10   3   5  108.53   19.07
   9  -4  -5  217.29   27.34
  -9   4   5  186.16   28.25
  -9   4   5  177.84   27.52
  -9   4   5  207.04   25.59
   8  -4  -5   -7.80    9.21
   8  -4  -5   -9.25   10.05
   8  -4  -5   -9.62   13.88
  -8   4   5   15.05   15.85
  -8   4   5  -16.80   10.39
   7  -4  -5  393.59   27.73
   7  -4  -5  465.35   36.31
   7  -4  -5  405.74   28.09
   7  -4  -5  354.41   28.34
  -7   4   5  415.78   37.60
  -7   4   5  427.84   33.76
  -7   4   5  435.31   37.45
   6  -4  -5   -5.27    7.97
   6  -4  -5    1.29    8.05
   6  -4  -5    1.66    7.55
  -6   4   5   12.02   12.42
  -6   4   5    7.37    8.87
  -6   4   5   -2.40    8.80
   5  -4  -5  663.31   40.96
   5  -4  -5  704.31   40.27
   5  -4  -5  744.28   40.94
  -5   4   5  819.62   46.44
  -5   4   5  742.23   46.03
  -5   4   5  720.59   42.60
   4  -4  -5   17.00    6.69
   4  -4  -5    5.29    4.61
   4  -4  -5   16.04    7.61
  -4   4   5   11.46    4.06
  -4   4   5    5.46    5.47
  -4   4   5    1.12    8.99
  -4   4   5   17.94    9.98
   3  -4  -5 2063.97   98.98
   3  -4  -5 1878.94   96.87
   3  -4  -5 1951.03   99.81
   3  -4  -5 1971.99   98.83
  -3   4   5 2010.83  102.11
  -3   4   5 1916.75  102.28
  -3   4   5 1838.75   99.53
   2  -4  -5   17.86    3.43
   2  -4  -5   28.57    6.18
   2  -4  -5    9.23    5.44
   2  -4  -5   25.15    7.42
  -2   4   5   24.04    8.42
  -2   4   5   14.46    7.60
  -2   4   5   14.88    6.60
   1  -4  -5 2020.55  104.54
   1  -4  -5 2080.55  104.55
   1  -4  -5 2008.11  105.82
   1  -4  -5 1976.38  102.49
  -1   4   5 2071.93  106.29
  -1   4   5 2198.89  107.04
  -1   4   5 2182.20  105.44
   0  -4  -5    0.70    3.89
   0  -4  -5   -2.19    3.52
   0  -4  -5   -2.59    1.96
   0  -4  -5    6.69    4.93
   0   4   5   14.30    5.19
   0   4   5    4.78    6.06
   0   4   5    3.86    1.99
   0   4   5   -1.16    4.35
  -1  -4  -5 1725.92   89.98
  -1  -4  -5 1756.78   91.71
  -1  -4  -5 1739.55   87.91
  -1  -4  -5 1742.31   89.84
   1   4   5 1670.47   89.63
   1   4   5 1805.52   90.00
   1   4   5 1824.02   87.50
   1   4   5 1766.76   90.31
  -2  -4  -5    4.72    6.96
  -2  -4  -5    1.09    1.30
  -2  -4  -5    5.96    4.57
  -2  -4  -5    0.76    4.24
  -2  -4  -5   -5.71    4.02
  -2  -4  -5   -0.94    2.55
   2   4   5    5.23    4.91
   2   4   5    1.95    4.29
   2   4   5    1.00    4.53
  -3  -4  -5 1960.28  103.97
  -3  -4  -5 2016.59  101.70
  -3  -4  -5 2117.80  102.87
  -3  -4  -5 1970.75  102.89
  -3  -4  -5 2097.96   99.71
   3   4   5 2045.66  103.02
   3   4   5 2002.41  102.50
   3   4   5 1961.70  101.59
   3   4   5 1891.36  104.04
  -4  -4  -5   11.25    5.65
  -4  -4  -5    8.07    5.43
  -4  -4  -5   11.02    6.89
   4   4   5   13.50    7.26
   4   4   5   19.45    9.52
  -5  -4  -5 1285.11   69.56
  -5  -4  -5 1272.09   66.54
  -5  -4  -5 1184.21   67.50
   5   4   5 1289.24   67.86
   5   4   5 1271.82   70.45
  -6  -4  -5   -1.55    8.69
  -6  -4  -5   -0.79    8.14
  -6  -4  -5    9.99    6.73
   6   4   5   -2.15    7.19
   6   4   5   12.43    8.61
  -7  -4  -5  341.15   24.32
  -7  -4  -5  341.47   27.80
  -7  -4  -5  370.57   31.44
   7   4   5  352.37   32.18
   7   4   5  362.22   29.07
  -8  -4  -5    7.27   10.85
  -8  -4  -5   -1.20    7.57
  -8  -4  -5   12.08    9.36
   8   4   5   -5.61   10.22
   8   4   5   -1.92   13.10
  -9  -4  -5  139.31   20.70
  -9  -4  -5  158.76   22.04
   9   4   5  160.52   23.57
   9   4   5  141.16   20.42
 -10  -4  -5    2.99   16.56
 -10  -4  -5    6.33   14.47
  10   4   5    4.87   13.36
  10   4   5   -5.57   15.98
   9  -5  -5    2.99   13.69
  -9   5   5   16.98   18.66
  -9   5   5   -1.31   15.63
  -9   5   5  -12.18   11.86
   8  -5  -5  203.45   26.20
   8  -5  -5  206.73   22.37
  -8   5   5  232.47   26.41
  -8   5   5  240.09   28.47
   7  -5  -5   16.44   10.19
   7  -5  -5    1.33    9.39
  -7   5   5    4.20   13.70
  -7   5   5   -8.77   13.73
  -7   5   5   19.35   13.17
   6  -5  -5  673.37   40.23
   6  -5  -5  657.59   40.05
  -6   5   5  713.42   44.24
  -6   5   5  642.28   43.72
  -6   5   5  640.55   41.68
   5  -5  -5   11.86    7.81
   5  -5  -5    0.16    8.21
   5  -5  -5    2.99    5.56
  -5   5   5    2.03    9.08
  -5   5   5    8.50    7.87
  -5   5   5    1.40   11.27
   4  -5  -5 1180.50   59.27
   4  -5  -5 1051.34   55.72
   4  -5  -5 1096.93   59.59
  -4   5   5 1020.25   61.39
  -4   5   5 1091.02   62.32
  -4   5   5 1107.23   60.47
   3  -5  -5   -4.20    5.79
   3  -5  -5   13.40    7.31
   3  -5  -5    3.33    5.51
   3  -5  -5    7.79    2.79
  -3   5   5   10.34    8.15
  -3   5   5    2.23    5.59
  -3   5   5   20.17    9.85
   2  -5  -5  529.43   28.17
   2  -5  -5  462.57   31.03
   2  -5  -5  485.86   24.68
   2  -5  -5  455.77   28.57
  -2   5   5  450.32   30.28
  -2   5   5  422.15   29.03
  -2   5   5  481.66   29.71
   1  -5  -5   66.72   11.90
   1  -5  -5   80.96   10.51
   1  -5  -5   86.99    9.97
  -1   5   5   86.29   11.78
  -1   5   5   97.34   12.41
  -1   5   5   98.37   13.72
   0  -5  -5 2119.95  104.96
   0  -5  -5 2105.83  105.52
   0   5   5 1971.66  104.55
   0   5   5 1989.22  105.11
  -1  -5  -5    6.80    4.37
  -1  -5  -5    2.34    5.13
  -1  -5  -5   -4.18    5.41
  -1  -5  -5    8.19    6.00
   1   5   5    2.87    5.74
   1   5   5   -2.31    5.62
   1   5   5    5.77    5.05
  -2  -5  -5 1986.07   99.03
  -2  -5  -5 1943.03  101.82
  -2  -5  -5 1924.38   99.86
  -2  -5  -5 1960.15  100.34
   2   5   5 1914.86   99.81
   2   5   5 1939.32   99.31
   2   5   5 1941.63  100.82
  -3  -5  -5    8.45    6.15
  -3  -5  -5   12.11    5.63
  -3  -5  -5    9.42    2.67
  -3  -5  -5    5.13    6.49
  -3  -5  -5   11.19    7.07
   3   5   5   12.17    6.58
   3   5   5   25.91    9.25
   3   5   5   17.49    5.45
   3   5   5    9.47    5.19
  -4  -5  -5 1147.26   56.22
  -4  -5  -5 1178.89   60.17
  -4  -5  -5 1055.50   61.86
  -4  -5  -5 1048.68   60.25
   4   5   5 1074.17   58.13
   4   5   5 1211.83   61.00
   4   5   5 1066.11   62.32
  -5  -5  -5    5.97    8.39
  -5  -5  -5    1.53    6.53
  -5  -5  -5   16.26   10.35
   5   5   5    7.17    4.73
   5   5   5   10.80   10.55
   5   5   5   12.87    8.65
  -6  -5  -5  548.73   33.99
  -6  -5  -5  549.16   36.46
  -6  -5  -5  566.67   35.64
   6   5   5  550.84   37.53
   6   5   5  514.49   34.77
  -7  -5  -5   -3.82    7.00
  -7  -5  -5    4.97    7.65
  -7  -5  -5    1.55    8.58
   7   5   5   10.47    7.67
   7   5   5   -4.25    8.97
  -8  -5  -5  309.22   31.62
  -8  -5  -5  303.10   27.06
  -8  -5  -5  327.66   29.09
   8   5   5  281.26   26.44
   8   5   5  242.64   28.81
  -9  -5  -5    8.51   14.57
  -9  -5  -5    6.58    9.87
   9   5   5   11.70   13.85
   9   5   5   40.27   15.77
 -10  -5  -5  103.52   23.67
 -10  -5  -5   61.75   16.03
  10   5   5   45.34   21.39
  10   5   5   76.77   18.22
   8  -6  -5   -5.61   13.25
   8  -6  -5   -2.15   12.30
  -8   6   5   -5.37   13.37
  -8   6   5  -14.50   15.08
   7  -6  -5  296.03   26.58
   7  -6  -5  376.64   29.75
  -7   6   5  306.88   31.28
  -7   6   5  310.47   33.56
   6  -6  -5   19.60   10.54
   6  -6  -5    1.99    9.70
  -6   6   5   -0.01    7.82
  -6   6   5    1.02    9.29
  -6   6   5   12.05   13.71
   5  -6  -5  645.84   39.65
   5  -6  -5  643.51   39.31
  -5   6   5  645.54   42.86
  -5   6   5  647.71   41.12
  -5   6   5  632.33   42.18
   4  -6  -5   11.03    8.95
  -4   6   5   19.45    9.97
  -4   6   5   28.78   10.93
  -4   6   5    8.86    9.77
   3  -6  -5 1160.27   64.43
   3  -6  -5 1180.01   61.21
   3  -6  -5 1058.59   57.82
  -3   6   5 1114.21   62.23
  -3   6   5 1093.08   61.70
  -3   6   5 1096.51   63.73
   2  -6  -5   -8.28    5.27
   2  -6  -5    1.19    1.36
   2  -6  -5   -0.25    5.10
   2  -6  -5  -10.15    6.05
  -2   6   5    5.35    9.02
  -2   6   5    0.15    6.99
  -2   6   5   -4.87    6.85
   1  -6  -5 1188.43   67.36
   1  -6  -5 1233.69   61.56
   1  -6  -5 1324.96   64.57
   1  -6  -5 1210.30   66.31
  -1   6   5 1264.30   67.89
  -1   6   5 1293.83   66.57
  -1   6   5 1089.39   65.57
   0  -6  -5   36.90    8.18
   0  -6  -5   16.15    9.04
   0  -6  -5   25.00    5.52
   0   6   5   24.17    9.19
   0   6   5   19.79    7.16
  -1  -6  -5 1843.13   99.39
  -1  -6  -5 2090.35  103.20
  -1  -6  -5 1945.53  102.28
  -1  -6  -5 2232.25  105.06
   1   6   5 1967.50  101.85
   1   6   5 1951.35  101.62
   1   6   5 1905.57   96.37
  -2  -6  -5   31.09    7.66
  -2  -6  -5   60.12   11.17
  -2  -6  -5   19.96    7.73
  -2  -6  -5   39.47   10.80
   2   6   5   27.72    9.00
   2   6   5   21.87    9.30
   2   6   5   39.73    8.06
  -3  -6  -5 1361.57   70.85
  -3  -6  -5 1300.64   70.20
  -3  -6  -5 1424.43   72.62
   3   6   5 1189.43   70.55
   3   6   5 1343.31   70.49
   3   6   5 1246.67   71.54
   3   6   5 1291.33   67.98
  -4  -6  -5    4.17    7.13
  -4  -6  -5   -2.31    6.23
  -4  -6  -5    4.32    7.19
   4   6   5    0.06    4.59
   4   6   5    9.91    8.08
   4   6   5   11.39    9.95
  -5  -6  -5  680.56   40.84
  -5  -6  -5  691.60   43.04
  -5  -6  -5  688.92   41.04
   5   6   5  633.85   43.92
   5   6   5  685.77   40.74
  -6  -6  -5    4.33    9.40
  -6  -6  -5    9.10    9.07
  -6  -6  -5   11.25    8.08
   6   6   5   10.92    7.29
   6   6   5    2.64    9.01
  -7  -6  -5  385.91   33.22
  -7  -6  -5  389.29   36.08
  -7  -6  -5  397.79   29.17
   7   6   5  364.91   35.66
   7   6   5  446.46   33.95
  -8  -6  -5    3.07   11.85
  -8  -6  -5   13.02   11.14
  -8  -6  -5   17.91   15.63
   8   6   5   -2.85   11.37
   8   6   5    9.10   11.81
  -9  -6  -5  104.64   23.46
  -9  -6  -5   73.79   19.17
   9   6   5  106.28   19.65
   8  -7  -5  189.51   25.25
  -8   7   5  195.05   26.98
  -8   7   5  223.75   31.03
   7  -7  -5    6.04   11.76
   7  -7  -5   -6.29   12.86
  -7   7   5   -3.30   14.87
  -7   7   5    0.95   13.33
   6  -7  -5  324.06   28.29
   6  -7  -5  338.27   29.88
  -6   7   5  351.01   31.05
  -6   7   5  381.76   36.81
  -6   7   5  331.57   33.01
   5  -7  -5    1.40   10.16
   5  -7  -5   -8.12    9.18
  -5   7   5    0.29   10.52
  -5   7   5    8.53   11.53
  -5   7   5   -5.11   11.31
   4  -7  -5  597.40   40.78
   4  -7  -5  545.10   37.47
  -4   7   5  633.75   38.67
  -4   7   5  636.89   41.96
  -4   7   5  589.99   38.71
   3  -7  -5    0.75    7.69
   3  -7  -5    3.31    8.70
  -3   7   5   10.02    8.88
  -3   7   5   -0.50    8.96
  -3   7   5   -9.59    9.52
   2  -7  -5 1139.58   64.06
   2  -7  -5 1188.34   60.41
   2  -7  -5 1172.06   66.83
  -2   7   5 1191.14   64.85
  -2   7   5 1062.11   64.80
  -2   7   5 1200.11   63.84
   1  -7  -5   10.25    8.57
   1  -7  -5   14.32    4.52
   1  -7  -5    0.78    5.66
   1  -7  -5    4.74    7.26
  -1   7   5   -4.46    7.86
  -1   7   5  -16.99    6.93
  -1   7   5   -0.61    6.64
   0  -7  -5 1526.53   78.69
   0  -7  -5 1442.05   77.35
   0  -7  -5 1439.78   73.95
   0   7   5 1251.23   75.85
   0   7   5 1398.41   75.44
   0   7   5 1551.60   77.77
  -1  -7  -5    2.06    8.62
  -1  -7  -5   -6.45    6.60
  -1  -7  -5   -5.16    5.56
   1   7   5   11.89    8.91
   1   7   5   11.05    7.94
  -2  -7  -5  974.36   54.41
  -2  -7  -5  994.76   57.49
  -2  -7  -5  991.50   56.56
  -2  -7  -5 1007.39   56.92
   2   7   5 1002.48   54.22
   2   7   5  970.95   50.64
   2   7   5 1026.82   56.17
  -3  -7  -5    6.92    6.66
  -3  -7  -5   -3.73    6.85
  -3  -7  -5   14.83    9.60
   3   7   5    0.36    5.02
   3   7   5   -2.71    5.20
   3   7   5    6.04    6.55
  -4  -7  -5  801.96   44.52
  -4  -7  -5  742.21   45.67
  -4  -7  -5  684.68   43.92
   4   7   5  692.98   39.13
   4   7   5  701.03   42.83
  -5  -7  -5   12.99    8.75
  -5  -7  -5    0.05    8.15
  -5  -7  -5   -1.66    8.38
   5   7   5    7.72    9.88
  -6  -7  -5  583.54   40.06
  -6  -7  -5  473.64   34.37
  -6  -7  -5  533.21   35.70
   6   7   5  500.11   35.44
  -7  -7  -5    2.40   15.00
  -7  -7  -5   -7.11   11.49
  -7  -7  -5   17.09   11.85
   7   7   5    8.74   12.20
  -8  -7  -5  245.24   28.77
  -8  -7  -5  109.25   19.52
  -8  -7  -5  165.48   23.59
   8   7   5  118.55   20.38
  -9  -7  -5   -9.12   14.39
  -9  -7  -5   -6.37   11.85
   9   7   5   13.73   14.75
   9   7   5  -17.00   16.01
   7  -8  -5  274.41   28.26
  -7   8   5  219.37   31.04
  -7   8   5  239.85   27.31
   6  -8  -5  -21.42   10.43
   6  -8  -5  -14.01   11.06
  -6   8   5    1.38   15.74
  -6   8   5   15.24   10.76
  -6   8   5   -4.51   14.48
   5  -8  -5  411.19   33.59
   5  -8  -5  414.48   34.39
  -5   8   5  432.53   37.16
  -5   8   5  434.34   36.19
  -5   8   5  393.86   36.19
   4  -8  -5   -6.89   10.27
   4  -8  -5    0.07    9.47
  -4   8   5   -0.90    8.43
  -4   8   5    3.84   11.32
  -4   8   5    8.43   10.04
   3  -8  -5  477.24   37.10
   3  -8  -5  591.84   35.76
  -3   8   5  548.52   35.80
  -3   8   5  519.83   34.46
  -3   8   5  566.58   38.89
   2  -8  -5   -1.99    7.93
   2  -8  -5   -6.54    9.39
  -2   8   5   -4.59    7.56
  -2   8   5   -0.06    6.88
  -2   8   5  -13.97    9.04
   1  -8  -5  652.83   37.56
   1  -8  -5  730.41   45.12
   1  -8  -5  696.55   41.71
  -1   8   5  672.91   42.02
  -1   8   5  679.18   39.83
  -1   8   5  690.28   42.20
   0  -8  -5    0.23    5.92
   0  -8  -5    7.91    8.44
   0  -8  -5    9.80    6.40
   0  -8  -5   -4.97    8.66
   0   8   5   -2.10    8.05
   0   8   5   -3.26    6.64
   0   8   5   -1.13    6.26
  -1  -8  -5  983.71   54.74
  -1  -8  -5  848.77   51.23
  -1  -8  -5  913.85   53.15
   1   8   5  780.75   49.51
   1   8   5  851.06   49.50
  -2  -8  -5   -5.65    9.87
  -2  -8  -5   -3.58    9.80
  -2  -8  -5  -10.67    7.20
   2   8   5    4.27    9.11
   2   8   5   -9.40    4.77
  -3  -8  -5  847.70   50.00
  -3  -8  -5  936.40   52.64
  -3  -8  -5  817.82   49.85
   3   8   5  868.06   44.90
   3   8   5  765.59   48.41
   3   8   5  798.80   45.85
  -4  -8  -5    9.54   10.57
  -4  -8  -5   -0.01   12.10
  -4  -8  -5    9.98    8.71
   4   8   5   11.52    8.32
   4   8   5   -5.27    6.70
  -5  -8  -5  492.82   34.86
  -5  -8  -5  557.92   36.12
  -5  -8  -5  472.85   41.93
   5   8   5  453.18   31.09
   5   8   5  463.80   37.04
  -6  -8  -5   12.18   11.39
  -6  -8  -5    9.22   12.91
  -6  -8  -5    8.67   11.21
   6   8   5    1.21   11.30
   6   8   5    4.27    9.74
  -7  -8  -5  192.89   24.39
  -7  -8  -5  202.05   24.44
  -7  -8  -5  184.83   25.92
   7   8   5  201.07   24.25
   7   8   5  199.01   23.29
  -8  -8  -5   -5.04   17.67
  -8  -8  -5   13.66   15.22
  -8  -8  -5    3.45   10.91
   8   8   5    8.48   14.30
   8   8   5   -0.26   14.22
   6  -9  -5  201.92   24.41
   6  -9  -5  255.57   27.51
  -6   9   5  175.95   25.62
  -6   9   5  247.71   29.58
   5  -9  -5   -0.91    9.03
  -5   9   5   -4.05    9.39
  -5   9   5   10.58   15.48
   4  -9  -5  610.30   37.75
   4  -9  -5  505.19   45.75
  -4   9   5  513.54   36.87
  -4   9   5  518.66   38.88
   3  -9  -5   16.44    9.77
   3  -9  -5    7.50   13.73
  -3   9   5  -16.70    7.14
  -3   9   5   -6.43    7.75
  -3   9   5   -6.71   11.21
   2  -9  -5  489.99   33.94
   2  -9  -5  457.43   39.99
  -2   9   5  456.60   34.90
  -2   9   5  466.44   32.39
  -2   9   5  463.64   31.00
   1  -9  -5    0.95   10.55
   1  -9  -5   -5.68   11.02
  -1   9   5    0.71    7.52
  -1   9   5    6.58    7.53
  -1   9   5    4.13   10.09
   0  -9  -5  773.89   48.15
   0  -9  -5  770.12   42.36
   0  -9  -5  767.58   47.01
   0   9   5  737.78   45.95
   0   9   5  715.16   43.30
   0   9   5  740.22   45.24
  -1  -9  -5    6.56    8.30
  -1  -9  -5   15.98    9.77
  -1  -9  -5    1.06    8.51
  -1  -9  -5  -21.37   10.94
   1   9   5    1.46    9.83
   1   9   5    0.46    7.57
  -2  -9  -5  750.90   45.82
  -2  -9  -5  708.29   45.50
  -2  -9  -5  694.89   45.96
   2   9   5  680.24   43.09
  -3  -9  -5   -3.14   11.95
  -3  -9  -5    5.49    8.05
  -3  -9  -5   -7.65    8.62
   3   9   5   -5.92    9.92
  -4  -9  -5  612.40   40.66
  -4  -9  -5  582.56   39.63
  -4  -9  -5  497.75   41.31
   4   9   5  495.22   35.54
  -5  -9  -5   -1.01   11.49
  -5  -9  -5    6.58   12.64
  -5  -9  -5    2.75    9.58
   5   9   5    0.90   11.75
  -6  -9  -5  241.82   27.16
  -6  -9  -5  225.30   30.97
  -6  -9  -5  288.15   29.99
   6   9   5  299.93   28.55
  -7  -9  -5    5.50   14.40
  -7  -9  -5   -5.20   15.96
  -7  -9  -5  -15.69   13.61
   7   9   5    3.12   12.97
   7   9   5    8.15   12.82
  -8  -9  -5  111.21   23.31
  -8  -9  -5   89.04   21.79
   8   9   5  102.37   21.94
   8   9   5  120.70   21.71
   6 -10  -5   -6.73   15.46
   6 -10  -5  -22.19   14.66
  -6  10   5  -10.79   15.84
   5 -10  -5  235.73   27.46
  -5  10   5  240.84   28.53
  -5  10   5  214.41   27.86
   4 -10  -5    8.24   12.81
   4 -10  -5    3.61   11.66
  -4  10   5    3.44    9.47
  -4  10   5   -5.37    9.75
   3 -10  -5  509.64   44.27
   3 -10  -5  438.25   36.89
  -3  10   5  469.49   40.42
  -3  10   5  432.79   37.51
   2 -10  -5   -5.23    8.05
   2 -10  -5   15.84   15.19
  -2  10   5    8.55   12.54
  -2  10   5   -8.29   10.93
   1 -10  -5  668.62   45.46
   1 -10  -5  606.34   41.65
  -1  10   5  593.18   40.89
  -1  10   5  586.29   39.81
   0 -10  -5    8.91   12.87
   0 -10  -5   36.19   16.61
   0  10   5    3.01    8.04
   0  10   5   -1.06    9.92
  -1 -10  -5  582.19   44.37
  -1 -10  -5  596.43   42.33
  -1 -10  -5  699.82   46.21
   1  10   5  645.77   42.07
   1  10   5  654.22   40.01
  -2 -10  -5   15.97    9.54
  -2 -10  -5   12.27   11.12
  -2 -10  -5    1.52   10.08
   2  10   5   -5.91   10.47
  -3 -10  -5  442.80   40.70
  -3 -10  -5  422.45   36.73
  -3 -10  -5  425.99   38.64
   3  10   5  481.80   36.92
  -4 -10  -5   -2.15   13.28
  -4 -10  -5  -10.89   13.18
  -4 -10  -5  -23.00   14.06
   4  10   5    1.63   12.07
  -5 -10  -5  261.63   29.59
  -5 -10  -5  220.72   28.36
  -5 -10  -5  216.71   30.55
   5  10   5  232.01   26.22
  -6 -10  -5   -7.09   14.18
  -6 -10  -5  -20.17   10.61
  -6 -10  -5   -2.31   15.22
   6  10   5    7.26   13.96
  -7 -10  -5  132.91   25.78
  -7 -10  -5  177.90   24.40
  -7 -10  -5  153.51   26.00
   7  10   5  195.45   26.58
   4 -11  -5  191.79   28.66
   4 -11  -5  292.41   31.02
  -4  11   5  217.21   31.05
  -4  11   5  224.69   27.10
   3 -11  -5   -7.18   15.80
   3 -11  -5   -8.73   13.16
  -3  11   5   -0.47   13.59
  -3  11   5   -9.70   13.85
   2 -11  -5  327.40   32.37
   2 -11  -5  319.60   35.29
  -2  11   5  330.39   31.50
  -2  11   5  263.07   29.09
   1 -11  -5  -10.39   11.46
   1 -11  -5  -13.25   12.41
  -1  11   5   -3.51    8.04
  -1  11   5  -10.32   11.15
   0 -11  -5  320.35   34.68
   0 -11  -5  432.23   36.49
   0  11   5  358.84   33.14
   0  11   5  387.04   32.54
  -1 -11  -5   -8.90   14.75
  -1 -11  -5    4.51   13.29
   1  11   5    3.54   11.92
  -2 -11  -5  317.76   33.00
  -2 -11  -5  341.84   33.24
  -2 -11  -5  317.69   35.06
   2  11   5  324.77   30.52
  -3 -11  -5   18.03   10.80
  -3 -11  -5    5.74   11.95
  -3 -11  -5   -8.90   10.40
   3  11   5   13.45   12.89
  -4 -11  -5  241.26   29.93
  -4 -11  -5  209.18   29.86
  -4 -11  -5  272.33   34.66
   4  11   5  277.00   28.76
  -5 -11  -5    2.36   15.92
  -5 -11  -5  -13.08   12.82
  -5 -11  -5   -8.06   15.97
   5  11   5    2.18   13.52
  -6 -11  -5  155.80   26.96
  -6 -11  -5  147.94   28.10
  -6 -11  -5  204.25   33.41
   6  11   5  181.08   24.70
   3 -12  -5  255.20   30.72
   3 -12  -5  232.87   33.77
  -3  12   5  243.12   31.71
  -3  12   5  220.00   28.79
   2 -12  -5   -5.54   12.03
   2 -12  -5  -21.52   12.69
  -2  12   5   -2.31   14.83
  -2  12   5   -3.58   10.01
   1 -12  -5  275.64   34.91
   1 -12  -5  252.24   30.22
  -1  12   5  246.94   28.78
  -1  12   5  266.49   29.49
   0 -12  -5    4.41   13.46
   0 -12  -5    9.18   11.93
   0  12   5   -7.92   13.49
  -1 -12  -5  299.62   30.79
  -1 -12  -5  219.50   32.04
   1  12   5  323.02   30.55
  -2 -12  -5   -5.06   14.88
  -2 -12  -5  -11.29   16.23
  -2 -12  -5   18.56   20.97
   2  12   5    2.58   13.38
  -3 -12  -5  298.60   31.39
  -3 -12  -5  299.10   35.65
  -3 -12  -5  238.77   33.80
   3  12   5  210.96   26.85
  -4 -12  -5   19.05   17.80
  -4 -12  -5   -4.61   18.95
  -4 -12  -5   -0.18   19.88
   4  12   5    4.03   10.59
   2  12  -6  214.87   26.44
   2  12  -6  268.60   30.03
  -2 -12   6  199.87   31.56
   1  12  -6   10.80   15.47
   1  12  -6   -6.60   14.66
  -1 -12   6  -10.97   17.83
   0  12  -6  263.19   28.14
   0  12  -6  199.79   26.93
   0 -12   6  212.02   31.29
  -1  12  -6    8.52   14.90
  -1  12  -6   -7.01   13.84
   1 -12   6   -6.11   13.18
  -2  12  -6  230.85   28.08
  -2  12  -6  222.74   26.47
   2 -12   6  223.11   30.34
   2 -12   6  211.99   27.80
  -3  12  -6   -5.62   10.93
   3 -12   6  -25.06   17.42
   3 -12   6    1.95   15.86
   3 -12   6   -1.46   18.37
   4  11  -6    5.11   17.43
   4  11  -6   11.78   16.27
   4  11  -6    1.68   14.23
  -4 -11   6   -6.06   12.21
   3  11  -6  295.89   30.15
   3  11  -6  321.42   33.35
   3  11  -6  248.59   30.08
  -3 -11   6  284.30   34.84
   2  11  -6    8.79   14.17
   2  11  -6    8.29   12.77
  -2 -11   6   -0.41   16.73
   1  11  -6  328.41   31.40
   1  11  -6  321.69   32.76
  -1 -11   6  360.99   37.86
   0  11  -6    6.68   13.50
   0  11  -6    5.41   13.23
   0 -11   6  -17.29   18.44
  -1  11  -6  282.27   28.51
  -1  11  -6  250.99   25.90
   1 -11   6  232.23   25.63
   1 -11   6  299.93   34.77
  -2  11  -6   -6.81   14.15
  -2  11  -6    6.52   11.56
   2 -11   6  -16.59   15.37
   2 -11   6   10.08   13.34
  -3  11  -6  257.65   24.82
  -3  11  -6  177.99   27.94
  -3  11  -6  212.42   27.11
   3 -11   6  173.76   26.01
   3 -11   6  265.23   26.44
   3 -11   6  248.87   31.73
  -4  11  -6   -3.54   10.10
  -4  11  -6    4.91   14.14
   4 -11   6   -2.65    9.82
   4 -11   6  -28.65   13.92
   4 -11   6    1.01   16.43
  -5  11  -6  231.93   28.94
  -5  11  -6  179.94   21.57
  -5  11  -6  185.95   26.28
   5 -11   6  198.47   24.44
   5 -11   6  247.02   32.96
   5 -11   6  174.80   29.06
   5  10  -6    9.00   16.17
   5  10  -6  -12.52   17.23
  -5 -10   6    8.56   16.48
  -5 -10   6  -12.42   17.29
   4  10  -6  339.56   35.56
   4  10  -6  320.89   30.47
   4  10  -6  377.38   34.86
  -4 -10   6  331.00   37.21
  -4 -10   6  367.45   33.00
   3  10  -6   -5.36   11.50
   3  10  -6   -8.87    8.75
   3  10  -6   15.65   15.28
  -3 -10   6   12.19   12.13
  -3 -10   6  -15.49    9.04
   2  10  -6  513.02   37.28
   2  10  -6  535.35   37.91
   2  10  -6  588.85   38.67
  -2 -10   6  503.28   44.55
   1  10  -6    8.53   11.96
   1  10  -6  -10.06   11.44
  -1 -10   6    1.36   13.66
  -1 -10   6    7.49   13.75
   0  10  -6  523.22   34.72
   0  10  -6  540.12   38.08
   0  10  -6  479.59   36.25
   0 -10   6  630.00   52.07
   0 -10   6  606.10   42.45
   0 -10   6  528.63   49.31
  -1  10  -6   29.79   11.79
  -1  10  -6    0.18    9.37
  -1  10  -6    3.83   12.38
   1 -10   6    6.05   10.25
   1 -10   6    8.35   10.01
   1 -10   6   -3.32   17.36
  -2  10  -6  348.80   30.72
  -2  10  -6  433.12   32.64
  -2  10  -6  323.45   30.83
   2 -10   6  425.86   33.13
   2 -10   6  380.79   37.19
   2 -10   6  387.02   39.36
  -3  10  -6   -0.59    8.62
  -3  10  -6    8.82   11.58
  -3  10  -6    4.56    7.56
  -3  10  -6   -2.21    9.55
   3 -10   6  -10.21    9.21
   3 -10   6  -11.24   15.72
   3 -10   6   -9.71   10.30
   3 -10   6   -0.35   14.81
  -4  10  -6  282.66   29.93
  -4  10  -6  308.00   24.42
  -4  10  -6  310.36   29.94
   4 -10   6  312.53   32.98
   4 -10   6  300.17   33.82
   4 -10   6  239.35   26.51
  -5  10  -6  -10.98    8.88
  -5  10  -6  -11.18    9.03
  -5  10  -6   -1.16   12.86
   5 -10   6   -3.47   15.67
   5 -10   6   -0.01   15.50
   5 -10   6   -9.48   11.58
  -6  10  -6  182.24   21.34
  -6  10  -6  183.12   23.69
   6 -10   6  201.54   28.58
   6 -10   6  180.42   24.22
   6 -10   6  209.52   29.61
  -7  10  -6   -0.02   14.60
  -7  10  -6   34.39   17.44
   7 -10   6   -9.93   10.49
   6   9  -6    4.01   14.25
   6   9  -6   15.30   13.88
  -6  -9   6  -18.37   14.82
  -6  -9   6    7.41   12.95
   5   9  -6  384.40   35.21
   5   9  -6  243.86   30.01
   5   9  -6  280.66   27.80
  -5  -9   6  319.89   34.49
  -5  -9   6  340.61   32.99
   4   9  -6   10.29   15.49
   4   9  -6   10.06   11.14
   4   9  -6   -0.51    9.65
  -4  -9   6   11.62   11.80
  -4  -9   6    5.07   12.23
   3   9  -6  547.60   42.29
   3   9  -6  508.48   40.66
   3   9  -6  457.76   33.56
  -3  -9   6  455.55   44.37
  -3  -9   6  574.90   36.27
  -3  -9   6  514.14   38.41
   2   9  -6    7.07   12.36
   2   9  -6   -6.13    6.32
   2   9  -6  -11.72    6.99
   2   9  -6  -13.11    7.60
  -2  -9   6   -6.67   13.72
  -2  -9   6   -0.51   10.47
  -2  -9   6  -18.73    7.56
   1   9  -6  596.42   38.49
   1   9  -6  447.37   39.43
   1   9  -6  574.73   36.09
  -1  -9   6  500.96   41.13
  -1  -9   6  621.78   35.53
  -1  -9   6  591.34   41.09
   0   9  -6   -0.72    7.36
   0   9  -6   -1.60    7.47
   0   9  -6    3.84    9.78
   0  -9   6   17.16   15.87
   0  -9   6   -7.92   11.03
   0  -9   6    6.45    9.51
  -1   9  -6  823.22   46.31
  -1   9  -6  692.85   44.26
  -1   9  -6  696.82   46.02
   1  -9   6  723.13   50.33
   1  -9   6  765.46   49.01
   1  -9   6  741.01   43.72
  -2   9  -6   -4.92    4.62
  -2   9  -6    6.13    8.01
  -2   9  -6    3.05    9.36
  -2   9  -6    1.66    8.77
   2  -9   6   -7.59    8.48
   2  -9   6    8.29   13.08
   2  -9   6    5.35   14.08
  -3   9  -6  588.49   33.07
  -3   9  -6  611.47   39.57
  -3   9  -6  578.90   36.44
  -3   9  -6  564.64   37.89
   3  -9   6  579.72   41.47
   3  -9   6  511.03   39.69
   3  -9   6  566.97   42.86
   3  -9   6  531.08   36.48
  -4   9  -6   19.25    9.07
  -4   9  -6   -4.73    7.91
  -4   9  -6   10.56   11.10
  -4   9  -6   -2.23    7.76
   4  -9   6  -15.05   11.13
   4  -9   6   -3.12   13.69
   4  -9   6   18.32   11.91
   4  -9   6    3.53   15.64
  -5   9  -6  245.39   26.11
  -5   9  -6  223.08   21.68
  -5   9  -6  250.09   26.31
   5  -9   6  266.49   26.90
   5  -9   6  281.95   29.72
   5  -9   6  259.78   28.73
   5  -9   6  255.88   33.88
  -6   9  -6   -3.65   10.00
  -6   9  -6   -1.44   12.40
   6  -9   6    8.28   13.24
   6  -9   6   11.54   13.85
   6  -9   6   12.01   15.14
  -7   9  -6  229.56   23.92
  -7   9  -6  181.98   24.54
   7  -9   6  189.46   25.53
   7  -9   6  196.17   28.71
   7   8  -6   -4.60   14.90
   7   8  -6   21.33   19.97
  -7  -8   6  -15.80   12.26
  -7  -8   6  -14.64   11.58
   6   8  -6  275.15   29.27
   6   8  -6  272.31   32.43
  -6  -8   6  248.55   32.94
  -6  -8   6  257.08   30.52
   5   8  -6   14.77   11.20
   5   8  -6    2.26   12.63
   5   8  -6   20.43   15.02
  -5  -8   6   -5.15   12.42
  -5  -8   6   17.62   13.66
   4   8  -6  499.86   35.18
   4   8  -6  586.72   39.01
   4   8  -6  506.50   36.50
  -4  -8   6  530.19   44.51
  -4  -8   6  569.08   38.23
   3   8  -6    1.57    8.77
   3   8  -6   -6.26    8.82
   3   8  -6    3.39    7.69
  -3  -8   6  -12.72    8.10
  -3  -8   6   -8.26    7.07
   2   8  -6  655.59   43.11
   2   8  -6  642.88   40.71
   2   8  -6  648.74   39.65
   2   8  -6  690.32   41.59
  -2  -8   6  616.50   45.05
  -2  -8   6  617.71   43.41
  -2  -8   6  660.84   39.89
   1   8  -6   -5.31    6.18
   1   8  -6   -1.27    9.94
   1   8  -6    0.91    8.26
   1   8  -6    1.85    7.51
  -1  -8   6    3.94    7.39
  -1  -8   6    7.16   10.61
  -1  -8   6   -2.74    8.29
  -1  -8   6    5.35    7.98
   0   8  -6  591.81   36.80
   0   8  -6  637.33   38.69
   0   8  -6  604.47   38.05
   0  -8   6  580.42   35.32
   0  -8   6  598.41   42.01
   0  -8   6  543.42   39.11
   0  -8   6  578.75   33.72
  -1   8  -6    5.43    8.48
  -1   8  -6    9.11    3.46
  -1   8  -6    3.19    6.56
  -1   8  -6   19.81    9.98
   1  -8   6   14.16   12.86
   1  -8   6    3.50    7.42
   1  -8   6   10.29   10.49
  -2   8  -6  663.34   36.41
  -2   8  -6  640.78   41.64
  -2   8  -6  743.75   41.85
  -2   8  -6  707.71   42.08
   2  -8   6  634.86   45.74
   2  -8   6  735.27   45.06
   2  -8   6  670.36   40.27
  -3   8  -6    4.63    9.39
  -3   8  -6   -4.40    7.32
  -3   8  -6    3.89    8.94
  -3   8  -6   16.96    6.85
   3  -8   6   -3.07    7.49
   3  -8   6   -7.15   10.64
   3  -8   6    3.44   10.56
   3  -8   6    9.62    8.81
  -4   8  -6  673.01   38.36
  -4   8  -6  675.51   41.97
  -4   8  -6  692.28   37.52
  -4   8  -6  622.81   40.24
   4  -8   6  586.82   42.56
   4  -8   6  601.04   46.24
   4  -8   6  618.35   42.48
   4  -8   6  637.04   39.31
  -5   8  -6    6.34    8.75
  -5   8  -6    8.61   11.54
   5  -8   6    8.11   11.12
   5  -8   6    2.99   10.51
   5  -8   6    3.44   12.61
   5  -8   6  -15.75   14.29
  -6   8  -6  227.80   22.16
  -6   8  -6  241.01   24.86
   6  -8   6  258.44   26.33
   6  -8   6  303.45   30.65
   6  -8   6  216.20   25.25
   6  -8   6  240.65   32.66
  -7   8  -6   11.00   11.95
  -7   8  -6   -3.74   10.25
   7  -8   6   -0.15   15.27
   7  -8   6    7.89   13.05
  -8   8  -6  114.84   18.59
  -8   8  -6   80.99   17.96
   8  -8   6  102.87   20.11
   8  -8   6  126.23   24.36
   7   7  -6  219.72   24.70
   7   7  -6  187.37   27.33
  -7  -7   6  256.07   32.35
  -7  -7   6  210.50   29.65
   6   7  -6   -0.31   12.07
   6   7  -6  -15.30   13.56
  -6  -7   6   -5.89    9.13
  -6  -7   6   -8.01    8.43
   5   7  -6  462.70   31.43
   5   7  -6  462.49   32.61
   5   7  -6  430.19   39.02
  -5  -7   6  438.91   39.61
  -5  -7   6  429.25   37.15
   4   7  -6   -6.16    7.83
   4   7  -6  -13.03    7.88
   4   7  -6    6.81   10.56
  -4  -7   6    3.60    7.92
  -4  -7   6    7.87   11.95
   3   7  -6 1032.25   61.86
   3   7  -6 1026.79   59.72
   3   7  -6 1046.90   58.81
  -3  -7   6 1041.74   62.37
  -3  -7   6 1062.61   59.36
   2   7  -6   35.51   10.89
   2   7  -6   48.97   11.44
   2   7  -6   47.21   10.88
   2   7  -6   35.95    9.39
  -2  -7   6   41.34    9.71
  -2  -7   6   41.11    9.00
  -2  -7   6   13.01   10.14
  -2  -7   6   33.65   12.12
   1   7  -6 1109.98   60.20
   1   7  -6 1172.22   60.81
   1   7  -6 1137.14   60.66
   1   7  -6 1011.72   61.30
  -1  -7   6 1102.85   57.38
  -1  -7   6 1054.02   57.75
  -1  -7   6 1008.66   61.06
  -1  -7   6 1008.73   64.03
   0   7  -6   -0.28    5.77
   0   7  -6   11.72    8.12
   0   7  -6   -1.85    5.87
   0  -7   6   12.91   11.69
   0  -7   6   -1.28    5.37
   0  -7   6    8.98    9.18
   0  -7   6   -0.55    2.14
   0  -7   6    5.63    5.24
  -1   7  -6 1063.15   52.43
  -1   7  -6  992.90   58.08
  -1   7  -6 1172.42   59.43
  -1   7  -6 1052.19   58.45
   1  -7   6  950.46   62.11
   1  -7   6 1029.84   56.47
   1  -7   6 1099.97   59.95
  -2   7  -6   12.81    4.39
  -2   7  -6   14.32    6.51
  -2   7  -6    5.13    7.05
  -2   7  -6   15.78    8.72
   2  -7   6   -3.18    8.51
   2  -7   6   13.99   10.32
   2  -7   6    4.23    6.93
  -3   7  -6  765.21   41.47
  -3   7  -6  816.62   46.36
  -3   7  -6  724.57   44.61
  -3   7  -6  805.76   44.01
   3  -7   6  766.51   43.97
   3  -7   6  825.93   50.35
   3  -7   6  672.23   46.69
   3  -7   6  754.25   46.69
  -4   7  -6   10.80    6.61
  -4   7  -6    1.73    6.46
  -4   7  -6    7.31    7.28
   4  -7   6    8.21    9.35
   4  -7   6   10.13    9.96
   4  -7   6   26.31   12.36
   4  -7   6    6.20    6.50
  -5   7  -6  517.24   32.15
  -5   7  -6  582.91   35.45
   5  -7   6  499.64   34.16
   5  -7   6  557.85   38.58
   5  -7   6  499.13   38.70
   5  -7   6  482.93   34.85
  -6   7  -6    8.67   10.07
  -6   7  -6   14.43    9.19
   6  -7   6   18.35   12.40
   6  -7   6    7.14   10.65
   6  -7   6   16.99    9.78
   6  -7   6    2.10   11.20
  -7   7  -6  208.00   22.47
  -7   7  -6  269.22   24.78
   7  -7   6  239.57   25.91
   7  -7   6  183.54   29.95
   7  -7   6  303.93   30.70
  -8   7  -6    0.61   10.73
  -8   7  -6   -8.86    7.39
   8  -7   6    1.72   14.85
   8  -7   6   -6.74   12.76
  -9   7  -6  114.63   19.33
   9  -7   6   86.88   17.51
   8   6  -6  198.10   30.53
   8   6  -6  205.47   25.62
   8   6  -6  211.58   27.36
  -8  -6   6  184.87   29.16
  -8  -6   6  249.57   30.69
   7   6  -6    3.75   13.77
   7   6  -6    9.18   12.44
   7   6  -6  -16.71   13.85
  -7  -6   6   -7.14   10.38
  -7  -6   6    2.69   12.04
   6   6  -6  419.15   38.01
   6   6  -6  488.47   38.17
   6   6  -6  471.12   34.06
  -6  -6   6  379.02   37.28
  -6  -6   6  566.54   38.62
   5   6  -6    1.32    8.89
   5   6  -6   -8.11    9.53
   5   6  -6    8.73   11.57
   5   6  -6   -0.35    8.51
  -5  -6   6  -12.50   10.27
  -5  -6   6    5.72    8.99
  -5  -6   6   -8.00   10.96
   4   6  -6  658.24   40.66
   4   6  -6  553.77   37.72
   4   6  -6  550.63   37.59
   4   6  -6  582.39   36.56
  -4  -6   6  631.82   41.80
  -4  -6   6  654.27   35.89
  -4  -6   6  638.84   39.85
   3   6  -6    0.81    7.42
   3   6  -6   -4.28    5.92
   3   6  -6   -0.96    6.91
  -3  -6   6    2.28    5.57
  -3  -6   6   -1.54    7.61
  -3  -6   6   14.06   10.81
   2   6  -6 1238.79   72.42
   2   6  -6 1435.44   73.12
   2   6  -6 1236.47   74.10
   2   6  -6 1306.06   71.97
  -2  -6   6 1394.27   74.88
  -2  -6   6 1339.13   68.95
  -2  -6   6 1448.08   72.20
  -2  -6   6 1360.44   69.16
   1   6  -6   -3.89    5.58
   1   6  -6    4.60    5.42
   1   6  -6    1.88    7.00
   1   6  -6    1.28    7.74
  -1  -6   6    4.04    5.97
  -1  -6   6  -14.27    5.49
  -1  -6   6   15.97    6.19
  -1  -6   6    7.72    5.13
  -1  -6   6    4.38    4.20
   0   6  -6 1466.01   82.09
   0   6  -6 1536.99   82.80
   0   6  -6 1473.68   82.18
   0  -6   6 1695.20   83.95
   0  -6   6 1759.28   80.28
   0  -6   6 1533.17   78.48
   0  -6   6 1602.13   79.72
   0  -6   6 1542.85   86.64
   0  -6   6 1492.08   78.20
  -1   6  -6    5.23    1.66
  -1   6  -6   -6.12    6.59
  -1   6  -6   14.42    7.55
  -1   6  -6   18.90    5.64
  -1   6  -6    9.19    1.93
  -1   6  -6   10.01    6.29
   1  -6   6   10.18    8.20
   1  -6   6    8.58    3.66
   1  -6   6    9.69    4.06
   1  -6   6   12.39    7.70
   1  -6   6    9.34    5.53
  -2   6  -6 1210.36   65.75
  -2   6  -6 1199.13   65.11
  -2   6  -6 1267.68   62.99
  -2   6  -6 1235.45   66.21
  -2   6  -6 1200.38   61.54
   2  -6   6 1268.76   70.72
   2  -6   6 1174.26   62.19
   2  -6   6 1191.61   66.44
   2  -6   6 1229.85   63.91
  -3   6  -6   11.21    7.77
  -3   6  -6    4.56    5.91
  -3   6  -6   -0.96    5.50
  -3   6  -6   -2.25    4.55
  -3   6  -6    2.63    3.84
   3  -6   6   -0.40    6.75
   3  -6   6   -1.08    4.84
   3  -6   6   -1.76    9.92
   3  -6   6   17.66    8.09
   3  -6   6   -0.35    7.81
  -4   6  -6  774.44   42.07
  -4   6  -6  738.24   40.34
  -4   6  -6  753.37   44.57
   4  -6   6  813.59   48.27
   4  -6   6  836.09   44.33
   4  -6   6  723.31   44.61
   4  -6   6  735.01   48.40
  -5   6  -6   17.14    7.00
  -5   6  -6   -0.62    6.97
   5  -6   6   10.60   10.60
   5  -6   6   -4.13    7.24
   5  -6   6    7.56    6.75
   5  -6   6  -10.35    7.93
  -6   6  -6  562.73   33.26
  -6   6  -6  527.02   32.90
   6  -6   6  440.86   41.27
   6  -6   6  535.50   37.65
   6  -6   6  501.81   33.33
  -7   6  -6   -7.86    8.64
  -7   6  -6   -6.49    8.27
   7  -6   6   -1.87    7.94
   7  -6   6   -4.85   13.95
   7  -6   6   15.55   13.38
  -8   6  -6  198.57   22.28
  -8   6  -6  169.92   19.62
   8  -6   6  151.73   21.71
   8  -6   6  229.81   26.58
  -9   6  -6    1.89    9.03
   9  -6   6   -9.55   15.30
   9  -6   6   -2.72   13.43
   8   5  -6   11.76   16.76
   8   5  -6   12.87   13.70
   8   5  -6  -11.07   14.40
  -8  -5   6   20.90   13.57
   7   5  -6  442.50   36.44
   7   5  -6  382.42   32.98
   7   5  -6  424.77   39.51
  -7  -5   6  390.71   37.73
  -7  -5   6  382.51   33.94
   6   5  -6   12.92   12.00
   6   5  -6    4.96    9.76
   6   5  -6   13.98   10.06
  -6  -5   6  -17.19   10.67
  -6  -5   6   -2.35    9.63
   5   5  -6  630.53   37.79
   5   5  -6  667.98   40.64
   5   5  -6  617.71   40.77
   5   5  -6  546.31   38.71
  -5  -5   6  602.02   37.77
  -5  -5   6  669.09   40.90
   4   5  -6   12.43    7.08
   4   5  -6    3.05    7.64
   4   5  -6   -2.98    6.28
   4   5  -6    4.66   10.60
  -4  -5   6   -0.97    6.08
  -4  -5   6    7.96    6.31
  -4  -5   6   -2.11    6.17
   3   5  -6 1087.42   62.86
   3   5  -6 1172.67   62.30
   3   5  -6 1193.13   65.11
   3   5  -6 1167.86   62.92
  -3  -5   6 1138.14   58.30
  -3  -5   6 1099.93   62.69
  -3  -5   6 1052.65   63.57
  -3  -5   6 1219.76   60.90
   2   5  -6   23.95    8.54
   2   5  -6    6.01    7.36
   2   5  -6   18.79    6.59
   2   5  -6   12.96    9.59
  -2  -5   6   13.63    5.37
  -2  -5   6   20.42    6.23
  -2  -5   6   22.77    4.79
  -2  -5   6   11.95    8.03
   1   5  -6  769.62   41.66
   1   5  -6  687.97   41.32
   1   5  -6  736.02   42.62
   1   5  -6  747.22   41.40
  -1  -5   6  699.56   39.46
  -1  -5   6  755.51   38.81
  -1  -5   6  723.82   42.22
  -1  -5   6  691.46   44.89
  -1  -5   6  674.65   37.66
   0   5  -6   30.19    7.50
   0   5  -6   34.58    7.64
   0   5  -6   41.28    9.12
   0   5  -6   43.18    7.88
   0  -5   6   41.14    6.09
   0  -5   6   36.76    6.10
   0  -5   6   42.36   12.00
   0  -5   6   41.11    9.15
  -1   5  -6 1658.18   84.46
  -1   5  -6 1692.30   82.14
  -1   5  -6 1671.46   83.71
  -1   5  -6 1682.65   83.84
   1  -5   6 1614.53   83.71
   1  -5   6 1464.35   80.58
   1  -5   6 1529.73   80.88
   1  -5   6 1618.12   79.71
   1  -5   6 1539.18   86.66
  -2   5  -6    3.84    4.82
  -2   5  -6    4.47    6.94
  -2   5  -6   -1.50    3.18
  -2   5  -6    3.78    4.62
  -2   5  -6   -3.08    5.18
  -2   5  -6   -0.58    3.83
   2  -5   6    5.32    5.88
   2  -5   6   -2.03    4.94
   2  -5   6   -8.82    5.35
   2  -5   6    6.22    4.24
  -3   5  -6 1597.23   76.18
  -3   5  -6 1537.83   74.63
  -3   5  -6 1467.80   77.74
  -3   5  -6 1570.05   74.34
  -3   5  -6 1423.38   76.77
   3  -5   6 1425.15   75.37
   3  -5   6 1370.39   78.69
   3  -5   6 1420.72   80.76
   3  -5   6 1334.46   74.83
   3  -5   6 1404.63   76.58
  -4   5  -6   -2.60    4.95
  -4   5  -6    1.25    4.27
  -4   5  -6    1.66    6.41
   4  -5   6    6.00    6.54
   4  -5   6    0.07    5.60
   4  -5   6   -5.99    7.63
   4  -5   6    2.30    7.60
  -5   5  -6  613.94   35.03
  -5   5  -6  606.20   33.26
  -5   5  -6  574.39   35.62
   5  -5   6  596.53   35.41
   5  -5   6  592.89   40.15
   5  -5   6  658.17   40.12
   5  -5   6  554.33   35.21
  -6   5  -6   12.54    8.34
  -6   5  -6   12.92    6.21
  -6   5  -6    2.12    6.97
   6  -5   6   14.99   10.15
   6  -5   6    5.24    6.30
   6  -5   6   14.13   11.46
  -7   5  -6  323.35   26.79
  -7   5  -6  336.08   26.01
  -7   5  -6  335.75   28.91
   7  -5   6  355.72   32.08
   7  -5   6  297.01   32.69
   7  -5   6  286.67   27.22
  -8   5  -6   -3.88    9.76
  -8   5  -6   16.83    9.66
  -8   5  -6  -18.13   11.83
   8  -5   6    0.00   12.27
   8  -5   6   -0.17   10.68
   8  -5   6    4.29   13.54
  -9   5  -6  144.43   18.99
   9  -5   6  146.72   19.91
   9  -5   6  134.75   21.17
 -10   5  -6    5.34   14.36
  10  -5   6   -5.84   13.60
   9   4  -6   11.31   19.14
   8   4  -6  236.61   29.14
   8   4  -6  213.14   24.04
   8   4  -6  260.81   29.28
  -8  -4   6  268.30   31.78
   7   4  -6   -2.22    9.63
   7   4  -6   14.40   13.59
   7   4  -6    7.81   13.84
  -7  -4   6    0.39   11.95
  -7  -4   6    5.54   12.95
   6   4  -6  622.60   39.34
   6   4  -6  602.02   41.88
   6   4  -6  649.44   42.34
  -6  -4   6  680.37   43.13
  -6  -4   6  664.88   41.38
   5   4  -6   12.20   11.28
   5   4  -6   13.47    7.08
   5   4  -6   32.88   12.02
  -5  -4   6    7.52    8.22
  -5  -4   6   16.33   11.73
  -5  -4   6   17.12    8.91
   4   4  -6 1113.92   62.90
   4   4  -6 1142.28   61.54
   4   4  -6 1185.83   62.48
   4   4  -6 1065.29   60.18
  -4  -4   6 1131.65   62.77
  -4  -4   6 1077.11   56.76
  -4  -4   6 1126.07   60.60
  -4  -4   6 1088.77   58.90
   3   4  -6    3.23    8.27
   3   4  -6   -9.16    4.23
   3   4  -6   -5.36    7.15
   3   4  -6    1.93    6.92
  -3  -4   6    2.53    5.19
  -3  -4   6  -11.27    4.72
  -3  -4   6   10.11    6.30
  -3  -4   6   -0.56    3.17
   2   4  -6 1345.73   71.74
   2   4  -6 1354.98   71.59
   2   4  -6 1262.72   72.78
   2   4  -6 1199.28   70.44
   2   4  -6 1415.37   72.54
  -2  -4   6 1355.11   66.98
  -2  -4   6 1380.83   70.32
  -2  -4   6 1475.92   71.61
   1   4  -6   10.68    5.05
   1   4  -6    9.99    6.72
   1   4  -6   19.76    6.60
   1   4  -6    6.83    5.79
   1   4  -6    3.18    7.93
  -1  -4   6   14.96    5.28
  -1  -4   6   25.78    6.65
  -1  -4   6   22.38    5.49
  -1  -4   6    6.86    6.70
  -1  -4   6   16.46    3.56
   0   4  -6 1977.88  105.54
   0   4  -6 2002.22  104.32
   0   4  -6 2168.82  104.80
   0   4  -6 2144.61  105.36
   0   4  -6 2006.20  103.69
   0  -4   6 1899.38  106.76
   0  -4   6 2139.77  104.52
   0  -4   6 1979.87  102.15
   0  -4   6 2077.05  101.10
  -1   4  -6   -1.36    5.54
  -1   4  -6    4.29    5.12
  -1   4  -6    5.44    3.80
  -1   4  -6    2.58    4.51
   1  -4   6    6.81    4.60
   1  -4   6    5.71    3.69
   1  -4   6    5.60    6.02
   1  -4   6    5.20    2.78
  -2   4  -6 1726.25   85.33
  -2   4  -6 1739.97   83.11
  -2   4  -6 1664.44   80.69
  -2   4  -6 1690.73   83.65
  -2   4  -6 1538.20   80.99
  -2   4  -6 1613.21   83.90
   2  -4   6 1658.25   82.82
   2  -4   6 1579.53   86.85
   2  -4   6 1503.67   81.80
   2  -4   6 1651.69   86.03
   2  -4   6 1550.12   83.23
  -3   4  -6   15.44    5.37
  -3   4  -6   25.62    5.47
  -3   4  -6   19.61    5.60
   3  -4   6   19.66    6.63
   3  -4   6   22.27    7.43
   3  -4   6   25.74    6.31
   3  -4   6   19.04    5.78
   3  -4   6   12.39    6.95
  -4   4  -6 1145.05   59.31
  -4   4  -6 1192.03   59.35
  -4   4  -6 1064.22   59.90
   4  -4   6 1059.71   64.31
   4  -4   6 1175.18   60.33
   4  -4   6 1142.59   63.41
   4  -4   6 1135.66   59.36
  -5   4  -6    4.19    6.78
  -5   4  -6   22.89    7.14
  -5   4  -6   18.81    6.06
   5  -4   6   32.12   11.12
   5  -4   6   13.25    7.98
   5  -4   6   24.63    9.55
  -6   4  -6  521.64   31.69
  -6   4  -6  562.53   33.01
   6  -4   6  488.12   33.22
   6  -4   6  464.04   37.14
   6  -4   6  634.92   37.85
  -7   4  -6    5.04    6.46
  -7   4  -6   -9.62    6.98
  -7   4  -6   -7.21    9.92
   7  -4   6   -4.22    5.99
   7  -4   6   -0.79    9.39
   7  -4   6   -0.50   10.57
  -8   4  -6  196.57   21.64
  -8   4  -6  273.65   27.14
   8  -4   6  302.03   26.93
   8  -4   6  253.59   27.62
   8  -4   6  252.57   30.63
  -9   4  -6    8.67   11.47
   9  -4   6    9.09   11.89
   9  -4   6   -5.86   14.19
 -10   4  -6   84.65   18.92
  10  -4   6   93.75   17.35
  10  -4   6   54.32   20.26
   9   3  -6  180.75   27.61
   9   3  -6  161.63   25.82
  -9  -3   6  144.06   27.73
   8   3  -6   -2.69   14.69
   8   3  -6   -3.04    9.51
  -8  -3   6  -11.00   13.85
   7   3  -6  379.31   33.26
   7   3  -6  396.42   35.28
   7   3  -6  400.84   28.39
  -7  -3   6  401.61   35.61
  -7  -3   6  365.77   33.25
   6   3  -6    0.42   10.71
   6   3  -6    4.14    7.70
   6   3  -6   -0.55   10.44
  -6  -3   6    0.16   10.40
  -6  -3   6   -7.90    9.24
   5   3  -6  779.44   47.19
   5   3  -6  674.25   43.15
   5   3  -6  760.39   45.13
  -5  -3   6  796.57   46.60
  -5  -3   6  738.58   42.64
  -5  -3   6  781.39   45.64
  -5  -3   6  801.09   40.98
   4   3  -6   -3.09    6.10
   4   3  -6    0.18    4.85
   4   3  -6   12.52    6.56
   4   3  -6    1.24    6.39
  -4  -3   6    1.90    3.99
  -4  -3   6   -5.65    7.54
  -4  -3   6    3.07    5.49
  -4  -3   6   12.54    7.29
   3   3  -6 2274.25  116.31
   3   3  -6 2295.19  115.48
   3   3  -6 2220.76  115.62
   3   3  -6 2258.03  116.52
   3   3  -6 2236.35  117.66
  -3  -3   6 2286.13  116.75
  -3  -3   6 2335.79  111.82
  -3  -3   6 2236.43  116.22
  -3  -3   6 2289.74  115.53
   2   3  -6   -3.31    6.48
   2   3  -6    0.15    3.89
   2   3  -6   12.59    7.57
   2   3  -6   -1.04    4.35
   2   3  -6   -3.63    6.16
   2   3  -6   -3.64    5.43
   2   3  -6   -2.83    4.29
  -2  -3   6   -0.20    1.46
  -2  -3   6   -0.09    1.81
  -2  -3   6    5.15    5.17
   1   3  -6 1868.90   94.36
   1   3  -6 1724.86   93.82
   1   3  -6 1800.42   94.11
   1   3  -6 2024.94   94.42
   1   3  -6 1812.79   94.96
   1   3  -6 1873.58   93.17
   1   3  -6 1801.01   95.31
  -1  -3   6 1771.85   89.57
  -1  -3   6 1761.00   95.84
  -1  -3   6 1856.15   93.90
  -1  -3   6 1905.78   89.54
   0   3  -6   14.29    6.68
   0   3  -6   23.00    4.83
   0   3  -6   21.79    5.52
   0   3  -6   18.58    6.70
   0   3  -6   18.53    6.42
   0   3  -6   20.66    5.83
   0  -3   6   15.43    2.89
   0  -3   6   13.05    4.97
   0  -3   6   22.20    8.27
  -1   3  -6 1689.01   87.78
  -1   3  -6 1662.69   87.60
  -1   3  -6 1762.87   87.68
  -1   3  -6 1720.35   88.67
   1  -3   6 1685.53   85.15
   1  -3   6 1761.85   90.11
   1  -3   6 1746.14   87.00
  -2   3  -6    2.43    3.68
  -2   3  -6    7.22    5.57
  -2   3  -6   -1.41    4.57
  -2   3  -6    5.56    6.13
  -2   3  -6   -5.89    4.83
  -2   3  -6    1.43    3.03
  -2   3  -6   -0.69    2.74
   2  -3   6   -1.66    1.95
   2  -3   6    0.50    4.97
   2  -3   6    7.10    6.74
   2  -3   6    2.69    3.23
   2  -3   6    4.81    4.69
   2  -3   6    0.68    3.44
  -3   3  -6 2100.57   98.58
  -3   3  -6 1922.00   98.03
  -3   3  -6 1987.83   96.62
   3  -3   6 1719.82   99.73
   3  -3   6 1990.80   96.84
   3  -3   6 1984.52  101.59
   3  -3   6 1858.85   97.26
   3  -3   6 1883.47   98.38
  -4   3  -6   13.00    5.43
  -4   3  -6   12.97    5.59
   4  -3   6   27.14    7.57
   4  -3   6   22.61    5.07
   4  -3   6   15.34    5.39
   4  -3   6   15.62    7.53
  -5   3  -6 1023.82   56.85
  -5   3  -6 1010.62   57.35
   5  -3   6 1121.21   61.01
   5  -3   6 1186.05   58.94
   5  -3   6 1101.96   62.08
  -6   3  -6    2.17    5.28
  -6   3  -6    0.91    3.81
  -6   3  -6   -4.41    7.06
   6  -3   6  -12.55    8.51
   6  -3   6    2.36    5.91
   6  -3   6    7.74   11.73
  -7   3  -6  264.38   23.97
  -7   3  -6  371.18   30.06
  -7   3  -6  302.06   19.67
   7  -3   6  333.01   29.55
   7  -3   6  252.25   24.44
   7  -3   6  290.98   29.20
  -8   3  -6   15.38   10.53
  -8   3  -6   -1.68    8.90
   8  -3   6    9.50   10.24
   8  -3   6   10.53   12.28
   8  -3   6  -10.72    9.04
  -9   3  -6  246.41   24.82
   9  -3   6  177.87   23.37
   9  -3   6  232.77   27.60
 -10   3  -6   -2.30   12.90
  10  -3   6  -19.38   15.00
  10  -3   6    3.84    9.56
   9   2  -6    4.83   11.38
   9   2  -6    8.00   12.69
  -9  -2   6   14.61   17.44
   8   2  -6  250.75   30.06
   8   2  -6  288.11   30.38
  -8  -2   6  337.34   34.37
   7   2  -6   11.34    7.57
   7   2  -6  -10.89    7.47
   7   2  -6   -5.95   11.93
  -7  -2   6   -8.13    8.05
  -7  -2   6   -3.30   12.18
   6   2  -6  866.56   48.59
   6   2  -6  853.32   47.87
   6   2  -6  848.62   50.77
   6   2  -6  843.26   50.95
  -6  -2   6  826.50   51.33
  -6  -2   6  795.57   47.64
  -6  -2   6  866.48   51.70
   5   2  -6    6.59    6.91
   5   2  -6   -0.08    5.39
   5   2  -6   -6.27    5.87
   5   2  -6   -5.36    8.43
  -5  -2   6    6.56    5.41
  -5  -2   6   12.09    7.02
  -5  -2   6  -11.11    7.82
  -5  -2   6   -9.43    6.55
   4   2  -6 1158.01   58.42
   4   2  -6 1114.96   59.61
   4   2  -6 1084.30   58.53
   4   2  -6 1060.54   59.89
  -4  -2   6 1108.52   58.70
  -4  -2   6 1054.63   59.95
  -4  -2   6 1027.19   54.95
   3   2  -6    2.57    4.24
   3   2  -6   -1.97    5.34
   3   2  -6    7.06    8.33
   3   2  -6    6.64    5.29
  -3  -2   6   17.52    6.47
  -3  -2   6    2.73    6.39
  -3  -2   6   -0.33    2.49
   2   2  -6 1642.56   81.85
   2   2  -6 1567.44   82.99
   2   2  -6 1613.36   82.82
   2   2  -6 1624.41   82.35
   2   2  -6 1720.59   84.11
   2   2  -6 1604.34   83.49
   2   2  -6 1649.40   82.53
  -2  -2   6 1584.04   77.93
  -2  -2   6 1549.58   77.89
  -2  -2   6 1472.29   82.66
   1   2  -6   -2.26    5.11
   1   2  -6    0.21    4.96
   1   2  -6    5.77    4.67
   1   2  -6   10.09    4.79
   1   2  -6   -3.68    5.63
   1   2  -6    0.35    3.66
   1   2  -6    3.20    3.39
  -1  -2   6   -9.49    4.79
   0   2  -6 1399.92   73.71
   0   2  -6 1396.41   72.89
   0   2  -6 1412.27   72.90
   0   2  -6 1388.81   72.42
   0   2  -6 1210.02   71.14
   0   2  -6 1521.73   73.02
   0   2  -6 1523.07   73.91
   0  -2   6 1396.12   69.12
   0  -2   6 1424.94   74.14
   0  -2   6 1451.51   69.13
  -1   2  -6   19.77    5.97
  -1   2  -6   13.35    6.39
  -1   2  -6   29.09    6.20
  -1   2  -6   16.36    4.42
  -1   2  -6   29.29    6.43
  -1   2  -6   10.51    5.49
   1  -2   6   22.23    6.52
   1  -2   6   17.06    3.61
   1  -2   6   17.52    6.93
   1  -2   6   13.98    3.16
  -2   2  -6 2539.86  121.25
  -2   2  -6 2575.99  120.79
  -2   2  -6 2528.60  122.92
  -2   2  -6 2425.03  123.32
  -2   2  -6 2366.70  125.00
  -2   2  -6 2401.53  120.65
  -2   2  -6 2538.86  124.30
   2  -2   6 2437.60  120.97
   2  -2   6 2699.38  125.11
   2  -2   6 2364.59  120.95
   2  -2   6 2191.21  121.25
   2  -2   6 2454.14  125.12
  -3   2  -6    9.22    5.19
  -3   2  -6    6.74    3.53
  -3   2  -6   10.27    4.41
  -3   2  -6    8.42    4.22
  -3   2  -6    6.50    2.62
   3  -2   6   16.86    5.72
   3  -2   6   14.98    6.46
   3  -2   6    9.29    2.77
   3  -2   6    9.28    2.60
   3  -2   6    3.55    5.61
   3  -2   6   10.46    4.78
  -4   2  -6 1088.20   53.92
  -4   2  -6 1051.22   55.36
  -4   2  -6 1029.62   53.63
  -4   2  -6 1012.64   55.42
   4  -2   6 1086.05   53.54
   4  -2   6 1074.68   58.71
   4  -2   6 1115.12   56.29
   4  -2   6 1067.35   59.75
  -5   2  -6   49.32    8.17
  -5   2  -6   62.08    7.66
  -5   2  -6   54.33    6.78
   5  -2   6   56.51   12.54
   5  -2   6   61.42   11.04
   5  -2   6   72.12    9.96
  -6   2  -6  744.12   41.40
  -6   2  -6  812.76   44.26
  -6   2  -6  802.85   41.48
   6  -2   6  763.75   44.11
   6  -2   6  761.61   47.67
   6  -2   6  776.32   47.21
  -7   2  -6    6.27    5.26
  -7   2  -6   13.17    8.87
  -7   2  -6    7.30   10.66
  -7   2  -6    4.21    5.90
   7  -2   6    7.94    7.38
   7  -2   6   17.34   11.23
   7  -2   6    6.12    8.95
  -8   2  -6  332.92   27.45
  -8   2  -6  336.97   29.82
   8  -2   6  316.07   31.14
   8  -2   6  265.29   25.49
   8  -2   6  293.50   28.70
  -9   2  -6    2.03    7.93
  -9   2  -6   -6.99   12.80
   9  -2   6   14.40   11.49
   9  -2   6   -2.85    8.05
 -10   2  -6  125.38   18.28
  10  -2   6   79.58   14.99
  10  -2   6   90.49   22.20
   9   1  -6  254.15   31.22
   9   1  -6  179.54   26.45
  -9  -1   6  235.14   30.05
   8   1  -6   10.86   10.64
   8   1  -6    5.50   10.14
  -8  -1   6   13.05   11.09
   7   1  -6  490.48   35.43
   7   1  -6  506.60   32.83
   7   1  -6  546.39   37.88
   7   1  -6  551.96   32.58
  -7  -1   6  558.20   39.17
  -7  -1   6  593.88   40.16
  -7  -1   6  462.70   33.43
   6   1  -6   12.19    8.40
   6   1  -6    7.13    7.83
   6   1  -6    3.53    5.99
   6   1  -6   14.13    8.90
  -6  -1   6   22.78   11.12
  -6  -1   6   12.76    8.29
  -6  -1   6   14.40   12.32
  -6  -1   6    2.16    6.93
   5   1  -6  880.08   47.86
   5   1  -6  709.03   46.26
   5   1  -6  759.95   45.48
   5   1  -6  871.48   45.45
  -5  -1   6  902.64   47.25
  -5  -1   6  780.92   48.33
  -5  -1   6  775.30   43.21
   4   1  -6    2.08    5.68
   4   1  -6   -5.06    6.93
   4   1  -6    5.75    7.80
   4   1  -6    1.02    6.35
  -4  -1   6   -3.42    5.44
  -4  -1   6   10.89    8.49
  -4  -1   6    1.67    3.73
   3   1  -6 1935.40  106.22
   3   1  -6 2140.92  105.44
   3   1  -6 2092.15  106.64
   3   1  -6 2038.19  106.28
   3   1  -6 2249.23  105.82
  -3  -1   6 2079.28  107.23
  -3  -1   6 1916.16  105.94
  -3  -1   6 2122.61  102.37
   2   1  -6   -2.37    5.84
   2   1  -6    7.36    4.37
   2   1  -6    9.53    5.44
   2   1  -6    0.77    3.94
   2   1  -6    7.68    5.99
   2   1  -6    4.71    4.15
  -2  -1   6   -9.25    5.56
  -2  -1   6    2.64    2.13
  -2  -1   6  -15.00    4.23
   1   1  -6 1616.19   85.20
   1   1  -6 1643.05   83.72
   1   1  -6 1639.67   84.47
   1   1  -6 1666.24   85.01
   1   1  -6 1759.10   85.82
   1   1  -6 1638.18   84.37
   1   1  -6 1695.13   84.39
  -1  -1   6 1678.62   84.78
  -1  -1   6 1612.38   80.62
  -1  -1   6 1624.39   80.58
   0   1  -6    4.57    3.61
   0   1  -6   -0.94    2.88
   0   1  -6   -6.22    2.94
   0   1  -6    0.88    3.43
   0   1  -6   14.83    6.07
   0  -1   6   -2.72    3.45
   0  -1   6   -0.80    1.90
   0  -1   6    2.57    1.76
   0  -1   6   -7.03    4.03
  -1   1  -6 2149.98  106.13
  -1   1  -6 2249.56  108.16
  -1   1  -6 2082.16  108.22
  -1   1  -6 2060.07  107.91
  -1   1  -6 2012.58  106.93
   1  -1   6 2215.29  108.13
   1  -1   6 2180.34  105.16
   1  -1   6 2121.26  107.95
  -2   1  -6    4.53    4.15
  -2   1  -6   -4.09    2.51
  -2   1  -6    4.79    5.17
  -2   1  -6    8.30    3.31
  -2   1  -6    1.35    3.62
  -2   1  -6    0.16    3.39
  -2   1  -6    1.85    3.19
   2  -1   6    7.72    1.41
   2  -1   6   10.17    6.02
   2  -1   6    0.52    3.36
   2  -1   6    2.45    3.79
  -3   1  -6 1441.92   78.77
  -3   1  -6 1511.77   76.19
  -3   1  -6 1497.64   75.91
  -3   1  -6 1564.14   75.97
  -3   1  -6 1476.10   74.51
   3  -1   6 1366.58   77.72
   3  -1   6 1573.30   79.11
   3  -1   6 1633.05   76.69
   3  -1   6 1473.39   79.05
  -4   1  -6    6.48    4.33
  -4   1  -6   12.31    5.37
  -4   1  -6    5.19    2.03
  -4   1  -6    3.94    1.82
  -4   1  -6    2.60    3.34
   4  -1   6   -4.48    4.64
   4  -1   6    3.17    5.09
   4  -1   6    9.91    5.71
  -5   1  -6  934.35   51.14
  -5   1  -6  979.23   50.55
  -5   1  -6  935.28   48.75
  -5   1  -6  940.57   49.32
   5  -1   6  977.98   51.80
   5  -1   6  970.80   55.44
   5  -1   6  976.55   54.23
  -6   1  -6    6.34    5.10
  -6   1  -6    8.77    4.18
  -6   1  -6    8.33    5.83
   6  -1   6    9.10    7.27
   6  -1   6   -2.54    7.42
   6  -1   6   -0.53   10.21
  -7   1  -6  616.87   35.55
  -7   1  -6  587.94   38.96
  -7   1  -6  567.84   33.75
   7  -1   6  605.78   39.51
   7  -1   6  581.90   40.82
   7  -1   6  520.77   35.05
  -8   1  -6   11.89    9.77
  -8   1  -6   12.50    9.54
  -8   1  -6   31.36    8.49
   8  -1   6    1.91   10.31
   8  -1   6    3.84    8.38
   8  -1   6    7.18   10.40
  -9   1  -6  194.53   21.38
  -9   1  -6  184.89   24.67
   9  -1   6  165.74   28.64
   9  -1   6  222.72   25.27
   9  -1   6  184.20   22.24
 -10   1  -6   10.45   13.70
  10  -1   6    6.25   16.06
  10  -1   6   16.18   13.13
 -11   1  -6   17.30   16.29
   9   0  -6   20.67   16.29
   9   0  -6   -3.04   15.03
  -9   0   6   17.60   17.37
   8   0  -6  251.33   28.43
   8   0  -6  213.99   26.59
   8   0  -6  236.60   22.57
  -8   0   6  239.85   27.98
  -8   0   6  232.33   28.25
   7   0  -6   14.41    9.75
   7   0  -6    8.60   10.91
   7   0  -6   13.86   12.20
  -7   0   6   -2.28    7.79
  -7   0   6    3.92   11.42
  -7   0   6    3.85   12.25
  -7   0   6   -2.47    8.74
   6   0  -6  688.63   43.53
   6   0  -6  734.28   43.31
   6   0  -6  685.85   41.28
  -6   0   6  684.24   42.91
  -6   0   6  717.56   44.78
  -6   0   6  708.63   39.86
   5   0  -6    2.86    8.44
   5   0  -6    9.14    6.74
   5   0  -6    7.39    5.75
  -5   0   6   16.82   10.58
  -5   0   6   12.89    8.40
  -5   0   6   -0.34    5.16
   4   0  -6 1703.88   89.24
   4   0  -6 1724.67   90.13
   4   0  -6 1741.03   90.36
  -4   0   6 1693.41   89.04
  -4   0   6 1772.64   91.14
  -4   0   6 1668.92   86.96
  -4   0   6 1837.51   92.78
   3   0  -6    2.65    4.83
   3   0  -6   -5.57    5.48
   3   0  -6    3.94    5.91
   3   0  -6    7.35    5.52
  -3   0   6    5.38    5.60
  -3   0   6   -3.08    6.27
  -3   0   6   -1.16    3.44
   2   0  -6 2547.54  127.87
   2   0  -6 2445.46  128.47
   2   0  -6 2400.13  128.72
   2   0  -6 2496.06  128.42
  -2   0   6 2675.36  125.82
  -2   0   6 2694.96  129.94
  -2   0   6 2593.00  130.43
   1   0  -6   -7.09    5.01
   1   0  -6    1.44    4.49
   1   0  -6   -0.08    3.86
   1   0  -6    2.44    5.31
   1   0  -6    1.88    3.45
  -1   0   6    3.59    3.14
  -1   0   6   -0.95    2.35
  -1   0   6   -0.51    3.06
   0   0  -6 2705.98  137.73
   0   0  -6 2828.71  139.17
   0   0  -6 2711.20  137.71
   0   0  -6 2830.46  139.29
   0   0   6 2808.26  136.07
   0   0   6 2496.92  137.45
   0   0   6 3088.75  138.55
  -1   0  -6   -1.18    1.84
  -1   0  -6   -0.24    4.39
  -1   0  -6    0.05    4.01
  -1   0  -6   -0.22    3.09
  -1   0  -6    0.47    2.66
  -1   0  -6    1.79    4.23
  -1   0  -6    0.34    2.47
  -1   0  -6   -2.90    5.41
   1   0   6    2.30    4.47
   1   0   6    6.44    3.98
   1   0   6   -0.10    2.15
   1   0   6    0.57    2.52
  -2   0  -6 1467.42   78.40
  -2   0  -6 1545.66   80.68
  -2   0  -6 1526.59   78.64
  -2   0  -6 1535.77   79.52
  -2   0  -6 1581.79   78.86
  -2   0  -6 1729.44   81.58
   2   0   6 1659.98   81.25
   2   0   6 1541.47   81.36
   2   0   6 1630.46   79.25
  -3   0  -6    0.45    3.81
  -3   0  -6   -3.93    2.48
  -3   0  -6    2.98    4.05
  -3   0  -6    3.30    3.40
  -3   0  -6    0.65    4.01
   3   0   6    3.46    4.42
   3   0   6    9.99    6.54
   3   0   6    0.69    4.42
   3   0   6   -1.63    3.83
  -4   0  -6 1598.71   80.29
  -4   0  -6 1520.78   78.50
  -4   0  -6 1676.50   80.36
  -4   0  -6 1586.77   77.31
   4   0   6 1596.24   82.87
   4   0   6 1464.80   80.21
   4   0   6 1523.86   82.72
  -5   0  -6    3.17    3.37
  -5   0  -6    5.86    5.78
  -5   0  -6   -1.63    3.93
  -5   0  -6   -5.13    3.24
  -5   0  -6    1.36    1.07
   5   0   6    3.71    5.83
   5   0   6    9.50    8.18
   5   0   6   -2.06    6.40
  -6   0  -6  794.32   44.77
  -6   0  -6  832.08   44.32
   6   0   6  753.65   48.26
   6   0   6  749.87   44.48
   6   0   6  809.60   47.43
  -7   0  -6   12.71    8.36
  -7   0  -6    9.58    8.76
  -7   0  -6    0.84    6.28
   7   0   6    8.21    8.75
   7   0   6   -1.07    8.65
   7   0   6    9.64    9.02
  -8   0  -6  303.17   27.51
  -8   0  -6  389.40   25.62
  -8   0  -6  311.99   31.05
   8   0   6  304.43   30.92
   8   0   6  351.15   29.75
   8   0   6  337.46   33.93
  -9   0  -6   11.35   14.98
  -9   0  -6    6.93   11.18
  -9   0  -6   -0.66    9.10
   9   0   6    0.71   10.29
   9   0   6    1.66    8.14
 -10   0  -6  112.35   19.59
  10   0   6   83.27   22.71
 -11   0  -6    6.43   15.64
  11   0   6    6.28   16.16
  11   0   6  -18.43   19.98
   9  -1  -6  266.63   30.22
   9  -1  -6  240.03   29.95
  -9   1   6  210.59   29.71
   8  -1  -6    6.72   13.76
   8  -1  -6   20.49   11.01
   8  -1  -6    2.13   12.11
  -8   1   6   -3.25   10.97
  -8   1   6  -19.49   12.77
  -8   1   6    6.07   12.50
   7  -1  -6  554.22   35.78
   7  -1  -6  531.95   38.17
   7  -1  -6  536.39   34.44
  -7   1   6  568.05   34.16
  -7   1   6  544.95   37.53
  -7   1   6  452.77   41.74
   6  -1  -6   26.23   10.60
   6  -1  -6    4.88   10.13
   6  -1  -6   -4.89    8.01
  -6   1   6    3.81   11.34
  -6   1   6   19.83   10.78
  -6   1   6   25.12    8.93
   5  -1  -6  831.31   46.31
   5  -1  -6  860.47   47.41
   5  -1  -6  817.03   47.68
  -5   1   6  842.48   49.50
  -5   1   6  830.32   45.91
  -5   1   6  813.68   44.95
  -5   1   6  750.27   48.11
   4  -1  -6    1.07    1.43
   4  -1  -6   -0.73    5.43
   4  -1  -6   -0.51    4.32
   4  -1  -6   -2.59    4.50
  -4   1   6   -3.61    6.04
  -4   1   6    2.04    2.59
  -4   1   6    2.18    2.18
  -4   1   6   -6.01    5.36
  -4   1   6    1.43    5.31
  -4   1   6   -1.86    4.28
   3  -1  -6 2032.37  105.62
   3  -1  -6 2065.95  106.59
   3  -1  -6 2158.77  105.91
   3  -1  -6 1939.09  106.05
  -3   1   6 2230.91  102.40
  -3   1   6 2005.48  102.37
  -3   1   6 2075.07  107.83
  -3   1   6 2001.85  108.20
  -3   1   6 2217.36  104.31
  -3   1   6 2020.43  103.91
   2  -1  -6    5.85    4.51
   2  -1  -6    4.59    5.18
   2  -1  -6    3.82    5.60
   2  -1  -6    1.29    5.46
  -2   1   6    1.95    3.94
  -2   1   6    5.04    2.90
  -2   1   6    5.49    6.96
  -2   1   6   -1.06    6.81
   1  -1  -6 1831.19   84.38
   1  -1  -6 1660.21   85.08
   1  -1  -6 1655.13   83.95
   1  -1  -6 1598.10   84.80
   1  -1  -6 1557.47   83.71
   1  -1  -6 1657.80   80.65
   1  -1  -6 1590.60   80.61
  -1   1   6 1700.36   82.22
  -1   1   6 1682.22   85.94
  -1   1   6 1652.12   82.72
  -1   1   6 1645.38   82.62
   0  -1  -6    0.75    3.48
   0  -1  -6    0.08    1.93
   0  -1  -6   -0.81    3.68
   0  -1  -6    2.48    4.38
   0  -1  -6   -1.22    2.16
   0  -1  -6   -1.42    4.35
   0   1   6    0.88    2.86
   0   1   6    0.10    2.65
   0   1   6    0.56    3.24
  -1  -1  -6 2153.15  107.87
  -1  -1  -6 2156.21  107.41
  -1  -1  -6 2180.26  108.01
  -1  -1  -6 2042.21  109.25
  -1  -1  -6 2214.43  110.57
  -1  -1  -6 2157.61  108.80
  -1  -1  -6 2483.56  109.07
   1   1   6 2295.01  108.27
   1   1   6 2108.86  109.60
   1   1   6 2095.58  107.45
   1   1   6 2125.49  108.50
  -2  -1  -6    3.49    3.46
  -2  -1  -6    4.85    4.33
  -2  -1  -6    7.97    4.72
  -2  -1  -6   10.47    5.47
  -2  -1  -6    5.82    4.22
   2   1   6    4.99    1.47
   2   1   6   12.76    5.06
   2   1   6    6.18    3.30
   2   1   6    9.22    2.78
   2   1   6   14.23    5.31
  -3  -1  -6 1422.78   77.49
  -3  -1  -6 1553.51   78.29
  -3  -1  -6 1537.60   78.93
  -3  -1  -6 1459.60   79.36
   3   1   6 1530.94   80.10
   3   1   6 1562.32   79.85
   3   1   6 1597.77   75.55
   3   1   6 1550.94   79.62
  -4  -1  -6    6.06    6.85
  -4  -1  -6    7.45    5.55
  -4  -1  -6    2.30    5.24
  -4  -1  -6    5.47    2.01
   4   1   6    9.63    7.73
   4   1   6    0.21    4.91
   4   1   6    1.86    3.90
  -5  -1  -6  950.82   50.65
  -5  -1  -6  882.51   46.79
  -5  -1  -6  917.80   49.86
   5   1   6  957.64   50.59
   5   1   6  932.33   53.23
   5   1   6  917.72   52.59
  -6  -1  -6    9.61    7.24
  -6  -1  -6    3.66    7.42
   6   1   6    0.91    9.01
   6   1   6    4.94    5.27
   6   1   6   -2.65    7.08
  -7  -1  -6  538.21   35.37
  -7  -1  -6  545.54   34.89
   7   1   6  595.88   39.54
   7   1   6  638.73   40.19
  -8  -1  -6    3.91    8.86
  -8  -1  -6   11.14    9.77
   8   1   6   -3.22    8.96
  -9  -1  -6  167.11   20.86
  -9  -1  -6  162.44   19.57
   9   1   6  218.39   22.49
   9   1   6  174.92   26.02
 -10  -1  -6    1.25   13.54
 -10  -1  -6    5.71   12.95
  10   1   6   -5.35   12.75
  10   1   6  -21.56   15.64
 -11  -1  -6   38.44   14.68
  11   1   6   29.81   13.91
   9  -2  -6    8.21   15.37
   9  -2  -6   -7.24   16.53
  -9   2   6   -6.01   17.55
  -9   2   6    0.86   13.81
   8  -2  -6  372.44   29.00
   8  -2  -6  344.47   30.82
   8  -2  -6  323.11   33.01
  -8   2   6  342.09   33.04
  -8   2   6  277.19   29.81
  -8   2   6  282.02   27.82
   7  -2  -6    3.85   13.01
   7  -2  -6   -9.04    8.44
   7  -2  -6    2.12    9.77
  -7   2   6  -13.85    7.65
  -7   2   6    0.37   10.12
  -7   2   6    4.54   11.79
   6  -2  -6  821.65   49.15
   6  -2  -6  856.02   48.78
   6  -2  -6  811.65   51.41
  -6   2   6  865.14   52.67
  -6   2   6  838.76   48.02
  -6   2   6  923.76   52.86
   5  -2  -6    0.63    7.35
   5  -2  -6   -3.40    7.18
   5  -2  -6   19.18   10.74
   5  -2  -6    0.82    3.86
  -5   2   6    4.43    9.71
  -5   2   6    5.74    9.77
  -5   2   6  -12.89    5.51
   4  -2  -6 1136.52   61.44
   4  -2  -6 1174.11   60.58
   4  -2  -6 1043.97   56.84
   4  -2  -6 1225.23   60.37
  -4   2   6 1152.30   63.57
  -4   2   6 1066.01   57.83
  -4   2   6 1162.29   59.62
  -4   2   6 1117.97   63.10
   3  -2  -6   -2.41    6.30
   3  -2  -6    3.87    3.41
   3  -2  -6   -2.04    3.33
   3  -2  -6   -7.79    4.15
   3  -2  -6   -2.96    4.51
   3  -2  -6    5.85    6.04
  -3   2   6   -5.59    7.72
  -3   2   6    9.55    8.13
  -3   2   6    1.24    3.06
  -3   2   6   -4.89    4.28
   2  -2  -6 1693.70   82.48
   2  -2  -6 1560.72   81.25
   2  -2  -6 1607.26   79.49
   2  -2  -6 1805.28   83.55
   2  -2  -6 1657.22   79.54
   2  -2  -6 1504.64   82.07
  -2   2   6 1505.20   78.25
  -2   2   6 1456.55   84.18
  -2   2   6 1667.87   84.69
  -2   2   6 1637.31   81.35
  -2   2   6 1640.14   78.41
  -2   2   6 1534.52   78.49
   1  -2  -6    8.10    5.45
   1  -2  -6    3.61    3.29
   1  -2  -6   -0.12    2.76
   1  -2  -6   -3.01    3.37
   1  -2  -6   13.67    4.98
   1  -2  -6    1.56    3.05
  -1   2   6    0.47    4.64
  -1   2   6    4.37    3.19
  -1   2   6    4.89    4.01
   0  -2  -6 1495.05   73.05
   0  -2  -6 1393.34   74.97
   0  -2  -6 1513.44   74.51
   0  -2  -6 1401.14   73.11
   0   2   6 1431.45   73.52
   0   2   6 1420.53   71.64
   0   2   6 1516.85   73.68
   0   2   6 1442.89   75.97
  -1  -2  -6   20.72    4.44
  -1  -2  -6   18.57    3.72
  -1  -2  -6   23.89    5.26
  -1  -2  -6   15.97    4.25
  -1  -2  -6   10.30    4.80
   1   2   6   23.83    5.81
   1   2   6   18.20    4.39
   1   2   6   12.74    4.43
   1   2   6   17.13    5.27
  -2  -2  -6 2559.36  121.52
  -2  -2  -6 2423.33  121.68
  -2  -2  -6 2463.50  123.15
  -2  -2  -6 2320.57  121.11
  -2  -2  -6 2347.41  119.49
   2   2   6 2264.67  121.11
   2   2   6 2460.24  121.61
   2   2   6 2517.90  119.81
   2   2   6 2519.55  122.92
  -3  -2  -6    8.90    5.44
  -3  -2  -6    7.59    5.47
  -3  -2  -6   15.40    4.81
  -3  -2  -6    7.36    3.14
  -3  -2  -6    6.17    6.39
   3   2   6    7.80    6.34
   3   2   6   14.09    5.86
   3   2   6   11.20    6.06
   3   2   6    0.23    6.49
  -4  -2  -6 1071.41   57.97
  -4  -2  -6 1088.73   56.29
  -4  -2  -6 1061.41   53.47
  -4  -2  -6 1039.36   57.41
   4   2   6  987.57   57.97
   4   2   6 1055.49   57.85
   4   2   6 1102.10   56.48
  -5  -2  -6   43.65    8.23
  -5  -2  -6   54.27    6.45
  -5  -2  -6   59.44    9.69
   5   2   6   66.10   12.70
   5   2   6   54.97    4.17
   5   2   6   57.84    9.07
   5   2   6   48.92   10.21
  -6  -2  -6  759.99   41.70
  -6  -2  -6  808.36   44.93
  -6  -2  -6  745.72   44.73
   6   2   6  783.78   47.51
   6   2   6  814.69   44.84
   6   2   6  780.22   48.14
  -7  -2  -6   -7.28    8.32
  -7  -2  -6    4.94    9.00
  -7  -2  -6   -0.44    5.49
   7   2   6    9.48   12.43
   7   2   6   13.37    9.31
  -8  -2  -6  307.48   26.62
  -8  -2  -6  331.55   28.47
   8   2   6  329.70   28.02
   8   2   6  318.54   32.31
  -9  -2  -6   16.90    9.07
  -9  -2  -6    1.00   11.92
   9   2   6   23.02   16.68
   9   2   6   21.56   10.32
 -10  -2  -6  114.05   19.97
 -10  -2  -6  114.67   20.32
  10   2   6   80.41   22.81
  10   2   6  125.52   20.52
   9  -3  -6  200.29   27.10
  -9   3   6  158.05   28.23
  -9   3   6  163.75   30.15
  -9   3   6  254.68   30.02
   8  -3  -6   11.87   12.50
   8  -3  -6    4.29   15.51
   8  -3  -6  -14.42    9.39
  -8   3   6    9.38   11.07
  -8   3   6    8.59   12.48
   7  -3  -6  348.40   28.85
   7  -3  -6  396.75   34.79
   7  -3  -6  415.79   28.66
  -7   3   6  354.30   33.82
  -7   3   6  396.25   36.34
  -7   3   6  424.59   32.01
   6  -3  -6   -2.12    6.74
   6  -3  -6    2.57   10.83
   6  -3  -6    3.66    6.18
   6  -3  -6    4.89    6.68
  -6   3   6  -10.71   10.89
  -6   3   6   -1.79    8.14
  -6   3   6   10.08    8.74
   5  -3  -6  787.47   46.84
   5  -3  -6  805.74   43.92
   5  -3  -6  788.17   41.74
   5  -3  -6  731.67   44.26
  -5   3   6  802.40   48.81
  -5   3   6  786.57   48.28
  -5   3   6  712.66   43.80
   4  -3  -6    5.13    4.47
   4  -3  -6    9.17    5.61
   4  -3  -6   -4.95    6.55
   4  -3  -6    4.70    8.72
  -4   3   6   -4.03    5.83
  -4   3   6   -0.21    6.39
  -4   3   6    0.32    3.63
  -4   3   6   -2.45    6.80
   3  -3  -6 2337.45  116.69
   3  -3  -6 2291.39  117.26
   3  -3  -6 2228.98  119.13
   3  -3  -6 2246.88  118.71
   3  -3  -6 2534.04  119.46
  -3   3   6 2269.96  113.86
  -3   3   6 2441.30  121.84
  -3   3   6 2393.53  121.80
  -3   3   6 2408.97  118.74
   2  -3  -6   -4.48    3.63
   2  -3  -6   -5.87    3.73
   2  -3  -6    2.71    5.42
   2  -3  -6   -1.26    3.99
   2  -3  -6   -1.06    3.92
  -2   3   6   -1.69    4.84
  -2   3   6   -1.44    5.34
  -2   3   6   -0.19    5.30
   1  -3  -6 1876.46   93.86
   1  -3  -6 1867.56   93.24
   1  -3  -6 1863.98   95.14
   1  -3  -6 1668.05   91.95
  -1   3   6 1889.30   96.75
  -1   3   6 1909.93   94.45
  -1   3   6 1960.54   92.36
   0  -3  -6   27.19    6.16
   0  -3  -6   22.37    4.80
   0  -3  -6   14.26    5.49
   0  -3  -6   15.80    6.58
   0   3   6   11.36    7.03
   0   3   6    7.92    5.26
   0   3   6   12.26    4.59
   0   3   6   27.04    5.26
  -1  -3  -6 1640.82   87.49
  -1  -3  -6 1952.43   90.36
  -1  -3  -6 1694.39   89.14
  -1  -3  -6 1705.99   88.87
  -1  -3  -6 1873.45   88.43
  -1  -3  -6 1714.56   91.85
   1   3   6 1844.66   89.95
   1   3   6 1866.90   90.34
   1   3   6 1662.57   90.87
  -2  -3  -6    2.09    4.39
  -2  -3  -6    7.92    4.27
  -2  -3  -6   -0.99    5.17
  -2  -3  -6   -4.57    3.25
  -2  -3  -6   -0.17    3.77
   2   3   6   -1.99    5.45
   2   3   6    8.24    6.41
  -3  -3  -6 1898.60   99.11
  -3  -3  -6 2045.68  100.62
  -3  -3  -6 1985.42   97.30
  -3  -3  -6 2082.20   99.12
  -3  -3  -6 1898.77   96.86
   3   3   6 1863.06   98.52
   3   3   6 1804.85   99.83
  -4  -3  -6   12.29    4.66
  -4  -3  -6    7.95    4.23
  -4  -3  -6   21.15    6.12
  -4  -3  -6    8.77    7.95
   4   3   6   12.82    6.96
   4   3   6    5.63    6.30
  -5  -3  -6 1258.76   62.54
  -5  -3  -6 1102.75   59.92
  -5  -3  -6 1055.97   57.47
   5   3   6 1022.58   62.64
   5   3   6 1149.44   60.56
  -6  -3  -6   -4.90    8.23
  -6  -3  -6    4.45    4.93
  -6  -3  -6    2.93    7.48
   6   3   6   15.17   11.71
   6   3   6    0.78    5.60
  -7  -3  -6  350.32   27.10
  -7  -3  -6  311.43   21.27
  -7  -3  -6  274.58   26.40
   7   3   6  287.75   28.70
   7   3   6  291.11   24.85
  -8  -3  -6    7.48   11.05
  -8  -3  -6   10.19   11.58
   8   3   6   24.87   11.15
   8   3   6    7.95   10.88
  -9  -3  -6  186.59   23.59
  -9  -3  -6  189.94   24.53
   9   3   6  230.17   23.58
   9   3   6  168.98   26.79
 -10  -3  -6    8.11   14.05
 -10  -3  -6    8.24   16.02
  10   3   6    6.42   10.62
  10   3   6  -12.89   17.33
  -9   4   6    9.38   16.22
   8  -4  -6  230.04   27.33
   8  -4  -6  188.83   21.30
  -8   4   6  278.87   31.51
  -8   4   6  174.54   24.19
   7  -4  -6   -2.23    9.65
   7  -4  -6   14.50    9.90
   7  -4  -6   -9.45    7.89
  -7   4   6   -2.46   10.79
  -7   4   6    1.11   14.01
  -7   4   6    3.06   12.29
   6  -4  -6  621.92   38.06
   6  -4  -6  606.44   35.69
   6  -4  -6  644.83   36.91
   6  -4  -6  572.89   40.82
  -6   4   6  621.52   43.18
  -6   4   6  565.75   38.01
  -6   4   6  606.20   41.24
   5  -4  -6   10.39    7.90
   5  -4  -6   23.04    7.81
   5  -4  -6   19.50    7.07
   5  -4  -6   19.10   11.82
  -5   4   6   19.81   10.19
  -5   4   6    2.39    8.11
  -5   4   6  -11.40    7.33
   4  -4  -6 1169.85   57.94
   4  -4  -6 1046.99   59.40
   4  -4  -6 1061.60   56.85
  -4   4   6 1094.43   59.38
  -4   4   6  997.40   61.69
  -4   4   6 1161.41   63.37
   3  -4  -6   -3.83    4.97
   3  -4  -6    4.56    5.95
   3  -4  -6   -1.74    4.98
   3  -4  -6   -0.56    3.87
  -3   4   6   -3.09    6.76
  -3   4   6   -5.30    8.12
  -3   4   6   -4.83    5.55
   2  -4  -6 1333.98   72.12
   2  -4  -6 1435.80   71.41
  -2   4   6 1329.20   74.42
  -2   4   6 1380.86   72.48
  -2   4   6 1418.07   74.96
   1  -4  -6    9.94    6.72
   1  -4  -6   10.66    5.22
   1  -4  -6   16.84    6.48
   1  -4  -6   15.87    4.05
  -1   4   6   22.04    7.40
  -1   4   6   22.42    7.48
   0  -4  -6 1954.60  102.37
   0  -4  -6 2005.34  102.91
   0  -4  -6 1914.27  102.88
   0   4   6 2241.66  105.10
   0   4   6 2260.24  102.10
   0   4   6 1864.36   99.34
   0   4   6 1945.52  102.57
  -1  -4  -6    7.22    3.78
  -1  -4  -6    5.29    6.27
  -1  -4  -6   -0.46    4.70
  -1  -4  -6    1.04    5.18
  -1  -4  -6    4.52    3.12
   1   4   6    4.85    4.48
   1   4   6    4.87    5.73
   1   4   6   -4.13    5.33
  -2  -4  -6 1610.17   88.49
  -2  -4  -6 1670.69   82.13
  -2  -4  -6 1701.92   86.07
  -2  -4  -6 1667.22   84.11
  -2  -4  -6 1735.23   87.02
  -2  -4  -6 1723.91   85.78
   2   4   6 1638.31   87.37
   2   4   6 1741.93   86.77
   2   4   6 1638.32   86.88
  -3  -4  -6   13.88    4.37
  -3  -4  -6   10.25    6.46
  -3  -4  -6   19.65    7.22
  -3  -4  -6   14.45    6.01
  -3  -4  -6    8.35    5.56
   3   4   6   17.41    6.24
   3   4   6    7.12    6.44
   3   4   6   31.26    7.23
  -4  -4  -6 1012.81   60.45
  -4  -4  -6 1163.10   56.79
  -4  -4  -6 1089.81   57.70
  -4  -4  -6 1123.57   59.53
   4   4   6 1105.94   59.61
   4   4   6 1063.39   61.39
  -5  -4  -6   11.66    5.79
  -5  -4  -6    8.50    8.61
  -5  -4  -6   24.95    7.32
   5   4   6    9.71    8.42
   5   4   6    8.14    7.88
  -6  -4  -6  524.90   33.42
  -6  -4  -6  540.32   31.58
  -6  -4  -6  527.76   36.02
   6   4   6  564.96   37.12
   6   4   6  499.38   33.81
  -7  -4  -6   -7.48    9.96
  -7  -4  -6    0.66    6.66
  -7  -4  -6    7.95    9.67
   7   4   6   -9.47    8.63
   7   4   6   15.05   10.69
  -8  -4  -6  288.90   29.23
  -8  -4  -6  288.52   26.82
   8   4   6  262.05   26.60
   8   4   6  296.55   31.47
  -9  -4  -6   -5.06   12.07
  -9  -4  -6   19.64   14.39
   9   4   6   17.44   17.96
   9   4   6   15.55   11.56
 -10  -4  -6  100.90   22.68
 -10  -4  -6   78.51   19.53
  10   4   6   89.06   24.57
  10   4   6   82.75   18.80
   8  -5  -6   11.34   14.55
   8  -5  -6   12.74   13.29
  -8   5   6   15.01   14.80
  -8   5   6   -0.34   11.38
   7  -5  -6  420.63   32.72
   7  -5  -6  354.66   29.98
   7  -5  -6  456.23   38.71
  -7   5   6  422.43   35.19
  -7   5   6  465.75   40.77
   6  -5  -6   -3.86    8.31
   6  -5  -6    4.37    9.51
   6  -5  -6    2.56    9.18
  -6   5   6    7.29   13.08
  -6   5   6   -7.75    8.68
  -6   5   6    9.05    8.60
   5  -5  -6  624.15   38.07
   5  -5  -6  672.83   39.92
  -5   5   6  644.72   39.57
  -5   5   6  694.02   43.39
  -5   5   6  596.96   42.46
   4  -5  -6    5.42    5.10
   4  -5  -6    0.77    6.67
   4  -5  -6   12.51    8.91
  -4   5   6   -2.20   10.24
  -4   5   6   -6.06    7.72
  -4   5   6   -5.07    6.50
   3  -5  -6 1112.26   55.57
   3  -5  -6 1139.45   59.32
   3  -5  -6 1099.33   58.82
   3  -5  -6 1045.34   59.86
  -3   5   6 1244.53   63.46
  -3   5   6 1071.09   62.58
  -3   5   6 1017.90   59.92
   2  -5  -6   16.33    6.48
   2  -5  -6   18.02    7.52
   2  -5  -6    9.13    7.00
  -2   5   6   19.99    8.52
  -2   5   6   41.78   11.48
  -2   5   6   11.92    8.55
   1  -5  -6  743.25   40.78
   1  -5  -6  802.90   42.97
   1  -5  -6  770.52   41.20
  -1   5   6  663.22   41.31
  -1   5   6  691.89   42.51
  -1   5   6  691.91   42.57
   0  -5  -6   36.08    8.46
   0  -5  -6   44.30    3.92
   0  -5  -6   48.67    8.74
   0  -5  -6   37.89    3.91
   0  -5  -6   46.23    8.71
   0   5   6   37.21    7.11
   0   5   6   42.94    8.82
   0   5   6   45.79    9.49
  -1  -5  -6 1595.13   80.22
  -1  -5  -6 1525.21   82.99
  -1  -5  -6 1757.49   83.79
  -1  -5  -6 1427.57   84.73
   1   5   6 1612.86   82.85
   1   5   6 1634.71   83.88
   1   5   6 1593.00   83.14
  -2  -5  -6   -0.36    1.89
  -2  -5  -6    7.29    5.58
  -2  -5  -6   -3.75    8.08
  -2  -5  -6    2.99    5.98
  -2  -5  -6    0.59    5.18
   2   5   6    1.26    5.30
   2   5   6    2.53    4.45
   2   5   6    0.19    6.57
  -3  -5  -6 1417.21   77.25
  -3  -5  -6 1521.14   79.73
  -3  -5  -6 1552.26   77.35
  -3  -5  -6 1407.92   72.65
  -3  -5  -6 1533.42   76.56
   3   5   6 1436.89   76.22
   3   5   6 1320.78   76.77
   3   5   6 1501.52   78.73
  -4  -5  -6   14.59   10.05
  -4  -5  -6    7.15    5.79
  -4  -5  -6    2.69    5.70
  -4  -5  -6    5.80    3.75
   4   5   6   -0.79    6.78
   4   5   6   13.92    9.17
   4   5   6    9.02    5.63
  -5  -5  -6  550.96   31.41
  -5  -5  -6  573.11   37.46
  -5  -5  -6  597.34   34.26
  -5  -5  -6  579.96   35.75
   5   5   6  614.71   38.77
   5   5   6  572.62   33.06
   5   5   6  584.95   35.63
  -6  -5  -6    3.37   11.17
  -6  -5  -6    2.90    5.94
  -6  -5  -6   -1.31    6.59
   6   5   6    8.47    7.09
   6   5   6   19.64   14.00
   6   5   6    4.03    4.97
  -7  -5  -6  357.16   26.34
  -7  -5  -6  366.08   33.79
  -7  -5  -6  347.36   30.51
   7   5   6  392.47   31.40
   7   5   6  386.73   35.25
  -8  -5  -6   11.50   12.20
  -8  -5  -6   -4.10   14.01
   8   5   6   21.30   16.34
   8   5   6  -11.75   11.40
  -9  -5  -6  101.16   17.77
  -9  -5  -6  141.38   25.02
   9   5   6  165.82   20.79
   9   5   6  117.83   22.29
 -10  -5  -6  -16.92   17.76
 -10  -5  -6   14.70   12.32
  10   5   6   12.41   18.05
  10   5   6    3.50   14.93
   8  -6  -6  274.32   30.79
  -8   6   6  240.91   32.52
  -8   6   6  225.19   29.18
   7  -6  -6   -0.59   10.41
   7  -6  -6   -9.88   15.22
   7  -6  -6    6.45   10.98
  -7   6   6   -0.83   15.10
  -7   6   6    2.54    9.94
   6  -6  -6  506.10   34.41
   6  -6  -6  545.37   35.58
  -6   6   6  523.21   41.00
  -6   6   6  501.36   43.11
  -6   6   6  527.01   38.96
   5  -6  -6   -0.52    9.26
   5  -6  -6    6.45    8.89
  -5   6   6    9.27   12.31
  -5   6   6  -12.81    9.44
  -5   6   6   -2.26   10.66
   4  -6  -6  620.98   38.91
   4  -6  -6  632.65   37.79
  -4   6   6  667.03   42.90
  -4   6   6  634.91   40.27
  -4   6   6  558.48   38.03
   3  -6  -6   -5.71    6.35
   3  -6  -6   -0.20    7.37
   3  -6  -6    0.72    5.89
  -3   6   6  -12.53    7.64
  -3   6   6    8.52    9.35
  -3   6   6   -2.40    6.96
   2  -6  -6 1388.49   76.00
   2  -6  -6 1397.75   78.42
   2  -6  -6 1402.81   74.72
  -2   6   6 1508.62   78.16
  -2   6   6 1417.06   77.12
  -2   6   6 1506.09   79.17
   1  -6  -6    2.81    8.55
   1  -6  -6    0.02    7.24
   1  -6  -6   14.19    6.67
  -1   6   6   11.09    8.85
  -1   6   6   -5.83    4.81
  -1   6   6   -7.16    6.70
   0  -6  -6 1660.71   83.94
   0  -6  -6 1590.59   78.97
   0  -6  -6 1586.16   82.66
   0  -6  -6 1624.56   85.01
   0   6   6 1449.26   83.25
   0   6   6 1629.96   85.09
  -1  -6  -6   17.05    8.82
  -1  -6  -6   14.45    5.57
  -1  -6  -6   -6.69    8.42
  -1  -6  -6   -0.29    5.22
   1   6   6    9.84    2.54
   1   6   6    8.07    7.51
   1   6   6    9.49    6.85
   1   6   6    3.74    1.95
  -2  -6  -6 1215.55   69.04
  -2  -6  -6 1366.01   67.53
  -2  -6  -6 1160.41   64.70
  -2  -6  -6 1236.32   66.88
   2   6   6 1198.50   65.99
   2   6   6 1216.64   66.92
   2   6   6 1250.74   66.66
  -3  -6  -6    0.86    6.69
  -3  -6  -6   -2.03    5.65
  -3  -6  -6    5.79    7.55
   3   6   6   11.81    7.50
   3   6   6   12.91    7.28
   3   6   6    6.24    6.33
  -4  -6  -6  752.31   43.97
  -4  -6  -6  815.84   45.70
  -4  -6  -6  721.83   47.04
   4   6   6  736.42   44.28
   4   6   6  776.69   42.24
   4   6   6  735.01   46.27
  -5  -6  -6   -3.06    7.80
  -5  -6  -6    9.16    9.96
  -5  -6  -6    3.75    6.68
   5   6   6   -0.41    7.89
   5   6   6    1.87    9.06
   5   6   6    6.45    5.79
  -6  -6  -6  542.54   39.73
  -6  -6  -6  569.13   37.27
  -6  -6  -6  547.21   34.69
   6   6   6  526.36   40.00
   6   6   6  563.11   36.82
  -7  -6  -6    2.67    8.58
  -7  -6  -6   -2.71    7.76
  -7  -6  -6   32.57   15.89
   7   6   6    4.07   10.85
   7   6   6    9.13    9.46
  -8  -6  -6  211.40   23.61
  -8  -6  -6  166.10   25.81
   8   6   6  243.52   25.08
   8   6   6  134.53   22.48
  -9  -6  -6   -2.90   16.31
  -9  -6  -6   18.63   16.20
   9   6   6   -2.93   12.12
   9   6   6   -4.11   13.04
   7  -7  -6  210.66   23.85
   7  -7  -6  188.22   23.74
  -7   7   6  254.35   32.03
  -7   7   6  251.57   28.96
   6  -7  -6    6.55   11.89
   6  -7  -6   -2.24    9.59
  -6   7   6   -5.27   12.02
  -6   7   6    0.00   14.45
  -6   7   6    5.22   15.46
   5  -7  -6  455.03   32.24
   5  -7  -6  454.12   36.11
  -5   7   6  471.32   38.64
  -5   7   6  506.58   41.76
  -5   7   6  480.22   38.66
   4  -7  -6   10.22    9.42
   4  -7  -6   -3.08    7.97
  -4   7   6   16.21   10.27
  -4   7   6   -5.57    9.65
  -4   7   6   15.97   10.57
   3  -7  -6 1006.60   57.89
   3  -7  -6 1030.18   54.54
   3  -7  -6 1008.16   60.74
  -3   7   6 1105.36   59.88
  -3   7   6  978.62   58.87
  -3   7   6 1001.95   60.38
   2  -7  -6   53.18   14.10
   2  -7  -6   36.53    8.59
   2  -7  -6   42.32   11.22
  -2   7   6   54.72   11.58
  -2   7   6   63.63   12.95
  -2   7   6   30.80   12.03
   1  -7  -6 1177.02   63.64
   1  -7  -6 1102.04   61.05
   1  -7  -6 1053.52   58.21
  -1   7   6 1087.47   62.54
  -1   7   6 1078.45   60.72
  -1   7   6 1083.24   60.76
   0  -7  -6   -3.71    8.30
   0  -7  -6    5.07    3.99
   0  -7  -6    8.76    7.33
   0  -7  -6    0.79    6.51
   0   7   6    8.14    6.84
   0   7   6    5.56    9.06
  -1  -7  -6 1257.87   62.88
  -1  -7  -6 1053.41   62.33
  -1  -7  -6 1099.52   63.76
  -1  -7  -6 1101.41   61.61
   1   7   6 1021.99   61.10
   1   7   6 1128.38   61.62
  -2  -7  -6   16.82    8.56
  -2  -7  -6   16.65   10.90
  -2  -7  -6    0.79    7.52
  -2  -7  -6    4.64    9.10
   2   7   6   19.12    8.23
   2   7   6    7.65    7.24
   2   7   6    3.54    4.14
  -3  -7  -6  732.55   48.24
  -3  -7  -6  822.13   47.28
  -3  -7  -6  870.94   47.19
   3   7   6  804.06   44.87
   3   7   6  717.41   46.57
  -4  -7  -6    6.35   12.08
  -4  -7  -6    6.38    9.71
  -4  -7  -6    4.41    8.71
   4   7   6   32.13   12.63
   4   7   6   -3.57    5.72
   4   7   6   10.70   10.51
  -5  -7  -6  518.98   38.73
  -5  -7  -6  516.35   34.42
  -5  -7  -6  551.33   35.26
   5   7   6  523.00   37.20
   5   7   6  516.80   34.47
  -6  -7  -6    2.04    9.50
  -6  -7  -6    0.19    8.41
  -6  -7  -6   -5.65    7.22
   6   7   6    2.48   11.41
   6   7   6   -3.92    9.39
  -7  -7  -6  204.25   27.87
  -7  -7  -6  198.63   24.26
  -7  -7  -6  250.03   23.96
   7   7   6  214.25   24.23
   7   7   6  192.54   27.01
  -8  -7  -6   29.58   15.92
  -8  -7  -6    4.52   12.52
   8   7   6   -1.85    9.35
  -9  -7  -6  117.00   22.15
  -9  -7  -6  121.15   26.37
   9   7   6   85.64   19.89
   7  -8  -6  -13.57   13.59
   7  -8  -6   -3.76   15.05
  -7   8   6  -14.78   15.76
  -7   8   6    3.78   18.03
   6  -8  -6  265.81   27.23
   6  -8  -6  301.58   28.42
  -6   8   6  237.69   29.43
  -6   8   6  288.75   33.64
   5  -8  -6   21.66   10.32
   5  -8  -6  -14.82    9.92
  -5   8   6    3.17   14.00
  -5   8   6   21.97   14.14
  -5   8   6    8.44   10.06
   4  -8  -6  585.13   36.60
  -4   8   6  515.73   38.15
  -4   8   6  487.86   39.96
  -4   8   6  488.40   36.17
   3  -8  -6    2.04    7.71
   3  -8  -6  -10.43    7.72
  -3   8   6    1.25    8.88
  -3   8   6   -7.91    8.60
  -3   8   6  -12.99    9.95
   2  -8  -6  785.37   46.04
   2  -8  -6  674.85   42.61
  -2   8   6  604.20   41.63
  -2   8   6  647.73   44.52
  -2   8   6  718.16   42.30
   1  -8  -6   -5.58    6.51
   1  -8  -6   -3.86    6.11
   1  -8  -6   -1.32   11.19
  -1   8   6   -7.56    8.77
  -1   8   6    8.51    7.15
  -1   8   6   -1.55    6.69
   0  -8  -6  622.84   36.56
   0  -8  -6  597.47   39.09
   0  -8  -6  590.22   40.68
   0   8   6  616.30   39.28
   0   8   6  608.87   38.46
   0   8   6  629.59   37.44
  -1  -8  -6   10.75    9.87
  -1  -8  -6    4.90    8.49
  -1  -8  -6    3.61    9.58
   1   8   6    9.61    9.01
   1   8   6   15.52   10.58
  -2  -8  -6  699.78   45.70
  -2  -8  -6  726.55   45.58
  -2  -8  -6  722.25   47.16
   2   8   6  798.00   44.04
   2   8   6  754.91   45.69
  -3  -8  -6  -13.13    9.00
  -3  -8  -6   -1.82    8.44
  -3  -8  -6    4.48    8.04
   3   8   6  -11.69    6.68
   3   8   6   11.87   10.47
  -4  -8  -6  706.11   42.29
  -4  -8  -6  638.74   45.02
  -4  -8  -6  607.61   40.38
   4   8   6  697.73   42.35
   4   8   6  612.17   37.16
  -5  -8  -6    5.39   10.49
  -5  -8  -6    0.35   11.71
  -5  -8  -6    3.05   13.10
   5   8   6    3.87    8.83
   5   8   6   -6.28    7.74
  -6  -8  -6  240.32   25.07
  -6  -8  -6  224.94   27.28
  -6  -8  -6  274.95   27.84
   6   8   6  237.20   23.34
   6   8   6  236.58   24.72
  -7  -8  -6  -13.43   10.13
  -7  -8  -6   -1.99    9.41
  -7  -8  -6    0.28   13.41
   7   8   6   17.03   14.07
   7   8   6   -9.57   11.77
  -8  -8  -6   67.09   22.54
  -8  -8  -6  128.43   20.24
   8   8   6  143.32   20.55
   8   8   6  100.04   21.07
   6  -9  -6  -14.66   14.43
   6  -9  -6  -10.19   13.21
  -6   9   6   18.53   14.02
  -6   9   6  -11.00   14.86
   5  -9  -6  297.41   30.49
   5  -9  -6  381.43   33.40
  -5   9   6  341.76   36.47
  -5   9   6  295.37   33.02
   4  -9  -6   37.28   14.53
   4  -9  -6    8.20   11.23
  -4   9   6   18.75   19.58
  -4   9   6    2.78   12.71
  -4   9   6    6.18   14.16
   3  -9  -6  517.74   45.17
   3  -9  -6  548.80   37.32
  -3   9   6  559.68   38.20
  -3   9   6  485.13   34.94
  -3   9   6  473.27   41.48
   2  -9  -6    4.04   11.63
   2  -9  -6   15.38   14.37
  -2   9   6    2.37    8.47
  -2   9   6   -1.15    8.36
  -2   9   6  -14.16    6.86
   1  -9  -6  542.18   39.62
   1  -9  -6  519.65   36.57
  -1   9   6  540.06   37.79
  -1   9   6  554.31   33.86
  -1   9   6  490.69   34.89
   0  -9  -6   -5.92    9.55
   0  -9  -6    9.12    9.25
   0  -9  -6   -7.26   11.43
   0   9   6   -5.34    7.29
   0   9   6    1.42   10.28
   0   9   6   10.91   10.53
  -1  -9  -6  812.19   49.39
  -1  -9  -6  731.49   46.86
  -1  -9  -6  768.00   48.84
   1   9   6  708.20   46.24
   1   9   6  712.67   45.03
  -2  -9  -6  -17.75   11.53
  -2  -9  -6    0.75    7.90
  -2  -9  -6  -12.65    8.91
   2   9   6   -3.11    8.74
   2   9   6   -3.46    7.24
  -3  -9  -6  611.76   39.78
  -3  -9  -6  563.42   41.20
  -3  -9  -6  640.69   41.86
   3   9   6  550.32   38.02
  -4  -9  -6   -5.12    8.34
  -4  -9  -6   -8.65   14.39
  -4  -9  -6    2.32   11.89
   4   9   6    0.72   11.12
  -5  -9  -6  249.30   28.77
  -5  -9  -6  258.83   27.95
  -5  -9  -6  239.70   30.07
   5   9   6  268.16   27.49
  -6  -9  -6  -20.90   15.27
  -6  -9  -6   -4.19   13.42
  -6  -9  -6    7.31   10.29
   6   9   6   -3.64   12.47
  -7  -9  -6  162.50   27.16
  -7  -9  -6  177.40   25.44
  -7  -9  -6  150.00   27.35
   7   9   6  144.86   23.17
   5 -10  -6   21.90   15.59
   5 -10  -6  -12.38   14.31
  -5  10   6   -5.79   14.20
  -5  10   6  -13.77   11.00
   4 -10  -6  404.66   36.05
   4 -10  -6  358.05   39.24
  -4  10   6  348.11   36.63
  -4  10   6  408.66   37.67
   3 -10  -6    4.70   12.86
   3 -10  -6    0.76   11.43
  -3  10   6   -1.36   12.37
  -3  10   6   18.07   14.90
   2 -10  -6  573.50   37.81
   2 -10  -6  519.68   40.06
  -2  10   6  524.55   43.58
  -2  10   6  551.46   42.82
   1 -10  -6   10.84   10.11
   1 -10  -6    4.12   14.17
  -1  10   6    8.22   12.27
  -1  10   6   10.59   12.61
   0 -10  -6  636.55   43.95
   0 -10  -6  621.12   41.04
   0  10   6  549.88   38.35
   0  10   6  547.59   39.51
  -1 -10  -6    8.68   10.37
  -1 -10  -6   14.73   10.17
   1  10   6    5.14    9.97
   1  10   6   17.59   12.69
  -2 -10  -6  366.02   36.00
  -2 -10  -6  413.79   36.82
  -2 -10  -6  446.08   40.93
   2  10   6  428.15   35.40
  -3 -10  -6    0.26   13.37
  -3 -10  -6   -6.20    8.70
  -3 -10  -6   -3.99   11.17
   3  10   6    7.68   12.92
  -4 -10  -6  317.10   32.30
  -4 -10  -6  234.00   28.49
  -4 -10  -6  315.44   34.29
   4  10   6  315.20   28.79
  -5 -10  -6  -13.63   13.65
  -5 -10  -6   13.99   10.86
  -5 -10  -6  -14.47   10.78
   5  10   6   -5.56   13.27
  -6 -10  -6  225.57   32.10
  -6 -10  -6  188.04   27.55
  -6 -10  -6  199.49   27.83
   6  10   6  205.96   26.49
  -7 -10  -6   -7.69   16.84
  -7 -10  -6   -2.54   20.57
   7  10   6    8.31   15.59
   4 -11  -6   -8.27   17.00
   4 -11  -6    1.93   16.07
  -4  11   6   -0.69   16.04
  -4  11   6  -16.39   15.25
   3 -11  -6  254.17   31.85
   3 -11  -6  221.00   26.79
  -3  11   6  325.88   32.42
  -3  11   6  279.08   32.29
   2 -11  -6   -7.36   10.81
   2 -11  -6   24.77   14.90
  -2  11   6    5.16   13.98
  -2  11   6   -2.37   10.96
   1 -11  -6  321.95   35.61
   1 -11  -6  355.95   32.97
  -1  11   6  325.79   32.58
  -1  11   6  386.54   35.17
   0 -11  -6   -5.16   13.16
   0 -11  -6   11.07   12.18
   0  11   6   10.68   11.41
   0  11   6    5.95   11.72
  -1 -11  -6  304.25   34.10
  -1 -11  -6  269.54   29.93
   1  11   6  315.51   28.29
   1  11   6  299.41   30.13
  -2 -11  -6   -3.64   10.85
  -2 -11  -6   25.52   15.46
  -2 -11  -6    3.57   11.64
   2  11   6   -2.66   12.50
  -3 -11  -6  247.77   29.07
  -3 -11  -6  294.72   30.71
  -3 -11  -6  301.37   34.78
   3  11   6  168.15   22.88
  -4 -11  -6  -10.18   17.63
  -4 -11  -6   11.47   16.62
  -4 -11  -6    1.48   14.90
   4  11   6   20.96   15.70
  -5 -11  -6  169.05   29.53
  -5 -11  -6  177.08   28.74
  -5 -11  -6  231.81   30.23
   5  11   6  242.55   28.24
   2 -12  -6  207.83   26.37
   2 -12  -6  215.11   32.34
  -2  12   6  224.64   29.34
  -2  12   6  228.28   29.00
   1 -12  -6   -4.63   12.90
   1 -12  -6   -3.47   13.06
  -1  12   6   -6.78   10.33
  -1  12   6   17.59   16.14
   0 -12  -6  265.49   30.97
   0 -12  -6  214.30   31.88
   0  12   6  303.04   30.26
  -1 -12  -6   -7.95   14.28
  -1 -12  -6    3.48   17.99
   1  12   6    2.49   10.04
  -2 -12  -6  315.45   32.49
  -2 -12  -6  254.39   32.24
   2  12   6  265.42   28.67
  -3 -12  -6   -5.77   17.14
  -3 -12  -6    0.84   18.83
  -3 -12  -6   -0.64   14.08
   3  12   6   -1.95   14.57
   1  12  -7  240.04   29.81
   1  12  -7  203.05   28.46
  -1 -12   7  258.56   35.26
   0  12  -7   -1.54   14.45
   0  12  -7   -0.54   11.39
   0 -12   7   -4.39   13.07
  -1  12  -7  253.47   29.64
  -1  12  -7  289.42   33.15
   1 -12   7  215.23   33.68
  -2  12  -7   19.32   16.03
  -2  12  -7   10.55   12.19
   2 -12   7  -14.36   19.09
  -3  12  -7  252.97   30.30
   3  11  -7    8.71   15.90
   3  11  -7   26.10   16.10
  -3 -11   7   10.89   17.95
   2  11  -7  343.26   33.34
   2  11  -7  305.74   33.74
  -2 -11   7  318.38   35.45
   1  11  -7   -5.87    9.64
   1  11  -7   12.56   13.91
  -1 -11   7    8.04   16.99
   0  11  -7  312.50   32.34
   0  11  -7  268.25   29.86
   0 -11   7  285.16   32.85
  -1  11  -7   -8.75    8.22
  -1  11  -7    2.75    9.01
   1 -11   7    5.34   12.19
  -2  11  -7  252.95   27.15
  -2  11  -7  240.20   28.50
   2 -11   7  243.80   32.37
  -3  11  -7   -9.15   11.87
  -3  11  -7    1.46   14.26
  -3  11  -7    4.76   12.47
   3 -11   7    7.40   13.54
   3 -11   7    9.57   12.25
   3 -11   7  -16.90   12.68
  -4  11  -7  239.32   27.49
  -4  11  -7  244.02   28.40
   4 -11   7  189.31   29.32
   4 -11   7  221.72   30.77
   4 -11   7  187.09   26.02
  -5  11  -7    5.87   16.62
  -5  11  -7   -6.49   15.26
   5 -11   7    8.09   17.97
   5 -11   7   -8.79   17.51
   5 -11   7   -2.18   11.03
   4  10  -7    2.05   10.61
   4  10  -7   11.56   14.52
   4  10  -7   20.37   17.71
  -4 -10   7   24.90   15.41
  -4 -10   7  -16.15   16.49
   3  10  -7  452.05   39.78
   3  10  -7  421.15   36.02
   3  10  -7  461.16   38.59
  -3 -10   7  372.76   39.02
   2  10  -7    3.20   12.20
   2  10  -7    5.84    9.73
  -2 -10   7    7.46   11.38
   1  10  -7  571.48   41.93
   1  10  -7  591.40   41.56
  -1 -10   7  637.69   45.80
   0  10  -7  -15.15    9.96
   0  10  -7   -1.57   10.32
   0  10  -7   -7.90   10.82
   0 -10   7   11.73   14.04
  -1  10  -7  363.04   31.51
  -1  10  -7  440.82   30.73
  -1  10  -7  349.49   33.93
   1 -10   7  453.36   39.26
  -2  10  -7   -8.17   10.34
  -2  10  -7  -10.60   12.10
  -2  10  -7   -9.58    9.99
   2 -10   7    5.43   10.51
   2 -10   7  -22.93   12.43
  -3  10  -7  296.49   30.04
  -3  10  -7  263.07   27.70
  -3  10  -7  289.08   26.80
   3 -10   7  262.44   26.47
   3 -10   7  240.72   30.13
   3 -10   7  356.33   35.26
  -4  10  -7   -6.23   12.68
  -4  10  -7   12.44    9.99
   4 -10   7   -1.47   13.16
   4 -10   7   -6.01   11.08
   4 -10   7   -5.35   14.83
  -5  10  -7  231.16   25.64
  -5  10  -7  193.93   25.36
  -5  10  -7  179.49   20.07
   5 -10   7  270.77   28.04
   5 -10   7  140.76   25.05
   5 -10   7  256.75   31.16
  -6  10  -7   -4.24   10.64
  -6  10  -7    9.02   12.92
  -6  10  -7   -9.93   13.96
   6 -10   7    4.51   18.15
   6 -10   7   -8.62    9.95
   5   9  -7   21.28   15.34
   5   9  -7   12.22   13.65
   5   9  -7  -16.92   15.24
  -5  -9   7    8.34   17.20
  -5  -9   7   -4.49   10.27
   4   9  -7  386.71   36.19
   4   9  -7  343.05   33.07
   4   9  -7  335.79   31.05
  -4  -9   7  391.71   33.85
  -4  -9   7  352.80   36.04
   3   9  -7   -9.92   12.92
   3   9  -7   -4.20    7.65
   3   9  -7   -3.99    8.46
  -3  -9   7   10.20   11.22
  -3  -9   7    3.19   14.62
   2   9  -7  529.17   42.04
   2   9  -7  493.82   34.69
   2   9  -7  466.58   33.93
   2   9  -7  533.73   36.26
  -2  -9   7  530.95   34.02
  -2  -9   7  542.86   40.13
  -2  -9   7  456.73   45.51
   1   9  -7    5.78   10.69
   1   9  -7  -11.11    9.84
   1   9  -7   -0.01    8.93
  -1  -9   7    0.82   10.54
  -1  -9   7  -14.15    7.17
   0   9  -7  614.49   40.28
   0   9  -7  671.27   42.49
   0   9  -7  633.73   41.99
   0  -9   7  597.07   47.29
   0  -9   7  654.71   44.46
  -1   9  -7   -4.56    8.47
  -1   9  -7    9.28    8.03
  -1   9  -7   13.60   11.46
   1  -9   7   15.12   10.09
   1  -9   7   -0.03   14.08
   1  -9   7    4.68    8.90
  -2   9  -7  522.88   35.14
  -2   9  -7  583.39   37.36
  -2   9  -7  520.03   36.29
   2  -9   7  537.08   41.77
   2  -9   7  539.10   34.87
   2  -9   7  531.25   38.03
  -3   9  -7   -7.52    7.48
  -3   9  -7    2.89    9.15
  -3   9  -7   15.67   11.45
   3  -9   7   11.66   16.10
   3  -9   7   -9.68    9.06
   3  -9   7    6.55    9.45
   3  -9   7   -8.96   12.51
  -4   9  -7  412.50   34.52
  -4   9  -7  353.99   24.04
  -4   9  -7  362.81   33.01
  -4   9  -7  327.38   28.17
   4  -9   7  423.82   37.49
   4  -9   7  341.41   38.24
   4  -9   7  344.22   30.39
   4  -9   7  387.64   35.00
  -5   9  -7   -7.72    8.96
  -5   9  -7   -4.88    8.68
  -5   9  -7    7.13   12.53
   5  -9   7    8.78   12.49
   5  -9   7    6.69   13.38
   5  -9   7   -1.09   14.57
  -6   9  -7  171.39   21.65
  -6   9  -7  159.21   21.96
  -6   9  -7  194.24   19.81
   6  -9   7  166.28   29.75
   6  -9   7  154.86   22.11
   6  -9   7  162.07   23.79
  -7   9  -7   12.19   12.88
  -7   9  -7   -9.46   13.01
   7  -9   7    8.03   15.52
   7  -9   7   -9.20   16.95
   6   8  -7    0.31   14.44
   6   8  -7   -7.56   16.51
  -6  -8   7   -4.51   15.80
  -6  -8   7    2.22   12.28
   5   8  -7  406.56   38.96
   5   8  -7  431.94   34.77
   5   8  -7  411.59   35.56
  -5  -8   7  352.48   33.70
  -5  -8   7  399.89   39.30
   4   8  -7    9.10   12.63
   4   8  -7   31.45   16.68
   4   8  -7    0.75    7.48
  -4  -8   7    9.94   13.42
  -4  -8   7    4.93   11.39
   3   8  -7  505.26   34.70
   3   8  -7  519.68   36.22
   3   8  -7  482.45   33.91
  -3  -8   7  503.87   36.69
  -3  -8   7  455.21   33.07
  -3  -8   7  450.21   43.58
   2   8  -7   -8.40    9.44
   2   8  -7   -7.34   11.82
   2   8  -7   -3.98    9.26
   2   8  -7  -14.51    8.60
  -2  -8   7   -5.41    7.41
  -2  -8   7    9.09    8.62
  -2  -8   7   -2.69   13.28
   1   8  -7  599.26   38.44
   1   8  -7  575.20   38.50
   1   8  -7  642.69   39.47
  -1  -8   7  671.63   36.62
  -1  -8   7  510.93   42.26
  -1  -8   7  614.26   40.56
   0   8  -7  -13.31    5.64
   0   8  -7   -7.37    8.39
   0   8  -7    2.13    7.24
   0  -8   7   -5.68    8.52
   0  -8   7   -9.12    9.73
   0  -8   7   12.68    7.69
  -1   8  -7  684.39   41.26
  -1   8  -7  594.46   40.57
  -1   8  -7  668.73   41.36
   1  -8   7  717.51   39.10
   1  -8   7  618.10   42.53
   1  -8   7  630.58   45.18
  -2   8  -7   25.35   11.45
  -2   8  -7   10.14   10.41
  -2   8  -7   13.26    9.37
   2  -8   7    6.52   14.14
   2  -8   7    2.67   10.54
   2  -8   7   26.40    8.91
  -3   8  -7  561.60   36.55
  -3   8  -7  532.18   35.10
  -3   8  -7  571.98   31.11
  -3   8  -7  513.77   36.97
   3  -8   7  570.89   39.66
   3  -8   7  554.85   34.74
   3  -8   7  581.94   41.92
   3  -8   7  536.54   38.48
  -4   8  -7    5.46    6.82
  -4   8  -7    1.67   10.99
  -4   8  -7    4.30    8.00
  -4   8  -7  -11.50    9.49
   4  -8   7    5.93   11.24
   4  -8   7   -5.29   12.67
   4  -8   7    6.19    9.16
   4  -8   7   -3.55   10.01
  -5   8  -7  304.32   27.17
  -5   8  -7  255.33   27.42
  -5   8  -7  318.29   23.57
   5  -8   7  254.66   33.66
   5  -8   7  267.67   28.34
   5  -8   7  317.45   31.52
   5  -8   7  295.66   26.99
  -6   8  -7   17.51   10.96
  -6   8  -7    5.25    8.37
   6  -8   7    8.10   14.19
   6  -8   7    3.47   12.55
   6  -8   7  -11.41   10.03
  -7   8  -7  182.45   21.45
  -7   8  -7  180.42   22.68
   7  -8   7  150.05   22.31
   7  -8   7  156.68   26.30
  -8   8  -7   10.91   13.34
  -8   8  -7    1.56   12.37
   8  -8   7  -10.38   16.58
   8  -8   7    6.45   11.61
   7   7  -7  -14.33   16.17
   7   7  -7   -1.13   14.76
  -7  -7   7    6.56   13.00
  -7  -7   7    9.74   18.11
   6   7  -7  262.37   32.52
   6   7  -7  310.74   29.41
  -6  -7   7  235.45   29.44
  -6  -7   7  324.71   33.51
   5   7  -7   10.26   11.94
   5   7  -7   10.66   10.28
   5   7  -7   15.22   15.13
  -5  -7   7   20.81   10.86
  -5  -7   7   17.91   13.93
   4   7  -7  656.11   42.81
   4   7  -7  581.53   41.29
   4   7  -7  655.99   40.09
  -4  -7   7  627.67   41.41
  -4  -7   7  576.85   43.54
   3   7  -7    5.70    9.23
   3   7  -7   24.74   10.18
   3   7  -7   -6.95    9.57
  -3  -7   7   33.67   11.14
  -3  -7   7   26.70   10.50
   2   7  -7 1536.00   79.14
   2   7  -7 1401.53   78.88
   2   7  -7 1416.09   80.86
   2   7  -7 1413.10   78.82
  -2  -7   7 1395.77   84.01
  -2  -7   7 1440.86   81.16
  -2  -7   7 1472.56   77.35
   1   7  -7  -14.35    8.29
   1   7  -7   15.33   11.27
   1   7  -7    1.74    6.70
   1   7  -7   -4.06    8.18
  -1  -7   7   38.77   12.52
  -1  -7   7   14.32    6.98
  -1  -7   7    7.07   10.47
   0   7  -7  767.26   46.35
   0   7  -7  802.23   46.63
   0   7  -7  872.24   47.36
   0  -7   7  749.95   46.40
   0  -7   7  758.35   42.56
   0  -7   7  761.65   51.29
   0  -7   7  754.48   42.10
  -1   7  -7    5.01    8.18
  -1   7  -7  -10.65    7.81
  -1   7  -7   -1.25    6.29
   1  -7   7    8.28    7.40
   1  -7   7   -1.79    7.79
   1  -7   7    5.33    9.29
  -2   7  -7  800.06   43.87
  -2   7  -7  728.30   44.54
  -2   7  -7  622.56   42.52
   2  -7   7  753.64   41.39
   2  -7   7  724.25   44.86
   2  -7   7  758.94   49.72
  -3   7  -7   10.84   10.14
  -3   7  -7    0.06    4.68
  -3   7  -7    1.30    5.13
  -3   7  -7   10.11    9.22
  -3   7  -7    5.96    7.94
   3  -7   7   -7.13   12.06
   3  -7   7    2.00    8.12
   3  -7   7    5.77   10.34
   3  -7   7    2.05    7.39
  -4   7  -7  521.95   34.67
  -4   7  -7  555.25   32.95
  -4   7  -7  556.43   37.36
  -4   7  -7  580.39   38.61
   4  -7   7  554.03   42.96
   4  -7   7  631.76   38.34
   4  -7   7  636.17   36.47
   4  -7   7  619.87   41.58
  -5   7  -7    4.35    9.56
  -5   7  -7    0.39    7.01
   5  -7   7   -7.95    8.49
   5  -7   7    3.41    8.50
   5  -7   7    2.51   11.23
   5  -7   7   -7.05    8.55
  -6   7  -7  357.79   29.21
  -6   7  -7  275.16   24.59
   6  -7   7  294.96   35.41
   6  -7   7  299.56   27.72
   6  -7   7  342.24   33.48
   6  -7   7  294.18   26.75
  -7   7  -7    0.11   10.37
  -7   7  -7   13.94   10.93
   7  -7   7  -17.21   10.23
   7  -7   7  -14.97   12.64
  -8   7  -7   93.09   16.68
  -8   7  -7  113.62   18.53
   8  -7   7  124.06   19.03
   8  -7   7   98.47   19.59
  -9   7  -7   -6.96   13.15
   9  -7   7  -19.42   12.95
   9  -7   7   -0.53   18.62
   7   6  -7  215.01   25.64
   7   6  -7  243.28   28.47
   7   6  -7  254.20   31.16
  -7  -6   7  191.19   27.41
  -7  -6   7  307.89   34.35
   6   6  -7    3.58   10.14
   6   6  -7   -6.81    7.73
   6   6  -7  -15.62    8.90
  -6  -6   7  -10.86   12.10
  -6  -6   7    9.31   11.15
   5   6  -7  573.75   40.62
   5   6  -7  525.16   37.15
   5   6  -7  550.14   38.47
   5   6  -7  649.19   39.41
  -5  -6   7  576.18   39.54
  -5  -6   7  675.97   44.05
   4   6  -7   -2.69    9.88
   4   6  -7   -9.89    8.43
   4   6  -7   -1.22    8.00
   4   6  -7   -3.00   12.03
  -4  -6   7   -5.99   10.84
  -4  -6   7   -1.18    9.71
  -4  -6   7  -20.91    6.72
   3   6  -7 1013.05   60.84
   3   6  -7 1016.40   57.92
   3   6  -7 1052.64   59.21
  -3  -6   7 1073.66   58.40
  -3  -6   7 1058.24   60.33
  -3  -6   7  954.90   54.88
   2   6  -7   72.59   12.56
   2   6  -7   65.51   11.08
   2   6  -7   64.45   12.69
   2   6  -7   49.58   11.63
  -2  -6   7   69.89   16.88
  -2  -6   7   54.22    8.48
  -2  -6   7   59.50   13.31
  -2  -6   7   64.44   10.84
   1   6  -7 1289.08   72.16
   1   6  -7 1295.74   71.58
   1   6  -7 1378.99   72.40
   1   6  -7 1332.86   74.02
  -1  -6   7 1360.21   69.89
  -1  -6   7 1343.00   67.90
  -1  -6   7 1434.53   77.58
  -1  -6   7 1184.70   72.41
  -1  -6   7 1334.13   68.34
   0   6  -7    3.88    8.25
   0   6  -7   -4.40    7.63
   0   6  -7  -15.70    6.73
   0  -6   7  -10.00    4.02
   0  -6   7    4.96    8.39
   0  -6   7   -0.51    4.95
   0  -6   7   -4.76    4.89
   0  -6   7   -2.33    7.45
  -1   6  -7 1150.12   62.54
  -1   6  -7 1138.34   64.58
  -1   6  -7 1248.11   66.01
  -1   6  -7 1160.37   64.90
   1  -6   7 1225.28   69.05
   1  -6   7 1179.29   65.06
   1  -6   7 1206.95   61.73
  -2   6  -7   -6.90    5.17
  -2   6  -7    1.64    2.66
  -2   6  -7   -1.83    7.73
  -2   6  -7    1.32    5.05
  -2   6  -7   16.38    8.37
   2  -6   7   14.03    6.19
   2  -6   7   18.51    9.44
   2  -6   7    3.95    5.56
   2  -6   7   -1.69    7.45
  -3   6  -7  779.29   40.58
  -3   6  -7  707.77   43.17
  -3   6  -7  779.99   41.54
  -3   6  -7  828.67   46.61
  -3   6  -7  805.21   45.40
   3  -6   7  731.00   41.84
   3  -6   7  720.11   44.66
   3  -6   7  775.49   42.95
   3  -6   7  726.08   48.33
   3  -6   7  805.29   47.68
  -4   6  -7   24.16    7.40
  -4   6  -7   19.07    5.83
  -4   6  -7   14.53   10.44
  -4   6  -7   14.41    9.41
   4  -6   7   28.23   11.44
   4  -6   7   34.19   10.71
   4  -6   7   17.30    8.71
   4  -6   7    9.76   11.36
  -5   6  -7  505.07   29.74
  -5   6  -7  508.91   31.36
   5  -6   7  467.29   34.15
   5  -6   7  488.51   31.17
   5  -6   7  440.47   31.18
   5  -6   7  435.42   39.89
  -6   6  -7    3.22    8.67
  -6   6  -7   18.62    9.16
   6  -6   7   19.61   10.22
   6  -6   7  -15.01   14.02
   6  -6   7   11.01   11.84
  -7   6  -7  253.95   23.67
  -7   6  -7  287.70   24.79
   7  -6   7  313.79   32.00
   7  -6   7  230.62   23.97
   7  -6   7  256.18   30.86
  -8   6  -7    0.18    9.82
  -8   6  -7   -3.81    9.85
   8  -6   7    8.27   14.58
   8  -6   7   14.29   12.72
  -9   6  -7   50.18   15.39
   9  -6   7  106.87   24.25
   9  -6   7   85.76   17.58
   8   5  -7  228.80   30.01
   8   5  -7  228.20   26.95
   8   5  -7  215.01   26.72
  -8  -5   7  284.02   34.87
   7   5  -7   19.39   17.52
   7   5  -7   -2.23    9.54
   7   5  -7   16.45   12.88
  -7  -5   7   -5.58    9.98
  -7  -5   7    9.02   22.38
   6   5  -7  569.51   39.39
   6   5  -7  589.58   36.89
   6   5  -7  473.33   41.76
  -6  -5   7  540.54   38.66
  -6  -5   7  507.96   36.65
   5   5  -7    8.30    9.40
   5   5  -7    9.79    8.09
   5   5  -7    2.86    7.94
  -5  -5   7    0.10    8.54
  -5  -5   7    9.71    8.70
   4   5  -7  447.26   38.69
   4   5  -7  586.56   34.40
   4   5  -7  466.83   34.01
   4   5  -7  507.45   33.95
  -4  -5   7  560.64   33.38
  -4  -5   7  467.68   33.60
  -4  -5   7  542.70   31.49
   3   5  -7   -4.91    8.13
   3   5  -7    5.08    6.37
   3   5  -7   -1.18    9.66
   3   5  -7   -2.71    5.99
  -3  -5   7   -4.82    7.17
  -3  -5   7    0.56    6.87
  -3  -5   7    9.71    6.90
  -3  -5   7    3.87    5.93
   2   5  -7 1111.23   65.79
   2   5  -7 1240.02   67.62
   2   5  -7 1202.66   68.41
   2   5  -7 1329.60   67.64
  -2  -5   7 1227.08   67.74
  -2  -5   7 1225.84   65.23
  -2  -5   7 1234.34   70.28
  -2  -5   7 1237.80   66.12
  -2  -5   7 1243.87   64.92
   1   5  -7   -3.60    7.98
   1   5  -7   -6.47    4.15
   1   5  -7   -5.33    7.04
   1   5  -7   -7.28    7.85
  -1  -5   7   -1.50    6.50
  -1  -5   7    6.33    5.63
  -1  -5   7    3.31    3.82
  -1  -5   7   -4.52    6.35
  -1  -5   7   -1.40    4.57
   0   5  -7 1575.21   80.52
   0   5  -7 1470.32   81.87
   0   5  -7 1508.24   81.10
   0   5  -7 1459.45   81.08
   0  -5   7 1566.73   77.38
   0  -5   7 1577.74   85.00
   0  -5   7 1557.34   81.57
   0  -5   7 1577.72   78.54
  -1   5  -7  112.81   11.64
  -1   5  -7   81.83   11.09
  -1   5  -7   94.91   13.67
  -1   5  -7   86.17   11.22
   1  -5   7   87.11   11.62
   1  -5   7   79.10    9.01
   1  -5   7   90.98    8.01
   1  -5   7  101.52   15.33
   1  -5   7   72.29    9.53
  -2   5  -7  871.14   52.31
  -2   5  -7  975.82   52.76
  -2   5  -7  959.84   54.24
  -2   5  -7  949.53   51.24
   2  -5   7  957.89   57.13
   2  -5   7  968.85   55.70
   2  -5   7  981.55   50.50
   2  -5   7  957.69   50.83
   2  -5   7  987.87   52.77
  -3   5  -7    9.17    7.01
  -3   5  -7    1.95    7.08
  -3   5  -7    3.19    4.88
  -3   5  -7   -4.05    3.73
  -3   5  -7   13.25    8.73
   3  -5   7   -0.93    5.36
   3  -5   7   10.33    6.70
   3  -5   7    0.37    7.51
   3  -5   7   -1.48    5.62
   3  -5   7   -3.80    5.98
  -4   5  -7  786.47   43.11
  -4   5  -7  707.87   40.21
  -4   5  -7  751.46   40.12
   4  -5   7  737.66   46.83
   4  -5   7  721.77   45.11
   4  -5   7  735.21   41.72
   4  -5   7  714.68   41.28
  -5   5  -7    7.58    6.14
  -5   5  -7    4.20    5.85
  -5   5  -7    3.44    6.52
   5  -5   7    6.43    8.92
   5  -5   7   12.19    8.56
   5  -5   7   16.32   11.46
   5  -5   7    6.91    6.86
  -6   5  -7  401.81   26.34
  -6   5  -7  386.24   24.69
  -6   5  -7  365.80   25.32
   6  -5   7  405.91   26.87
   6  -5   7  330.43   34.73
   6  -5   7  416.69   35.36
  -7   5  -7   31.19   10.44
  -7   5  -7    4.39    7.86
   7  -5   7   17.67   10.46
   7  -5   7    6.79   10.67
   7  -5   7    9.75   10.32
  -8   5  -7  186.23   19.85
   8  -5   7  224.50   23.00
   8  -5   7  150.64   23.45
  -9   5  -7   13.99    9.88
   9  -5   7   16.05   13.56
   9  -5   7    3.21   15.95
 -10   5  -7   59.38   17.42
  10  -5   7   52.93   22.51
  10  -5   7   89.06   20.16
   8   4  -7    6.84   12.05
   8   4  -7  -21.43   13.21
  -8  -4   7   -9.09   10.97
   7   4  -7  313.26   34.03
   7   4  -7  306.06   31.29
   7   4  -7  312.24   28.71
  -7  -4   7  288.91   32.30
  -7  -4   7  379.00   33.63
   6   4  -7    1.83   12.44
   6   4  -7   12.88   10.49
   6   4  -7   11.27   10.11
  -6  -4   7   -7.38   12.00
  -6  -4   7    7.41   10.65
   5   4  -7  803.06   49.10
   5   4  -7  806.26   47.77
   5   4  -7  777.08   47.36
  -5  -4   7  735.07   48.02
  -5  -4   7  804.62   47.29
   4   4  -7   -1.79    6.92
   4   4  -7   19.45    9.18
   4   4  -7    4.36    6.70
   4   4  -7    6.30    6.35
  -4  -4   7    3.29    9.19
  -4  -4   7   -5.14    6.75
  -4  -4   7  -10.42    5.33
   3   4  -7 1512.02   76.35
   3   4  -7 1348.77   75.29
   3   4  -7 1313.04   75.55
   3   4  -7 1417.26   77.86
  -3  -4   7 1472.01   74.93
  -3  -4   7 1438.78   76.37
  -3  -4   7 1383.02   74.91
   2   4  -7    6.31    5.88
   2   4  -7   -4.16    5.60
   2   4  -7    0.35    7.23
   2   4  -7    4.83    6.57
   2   4  -7    9.33    5.90
  -2  -4   7    2.66    5.87
  -2  -4   7   -2.51    2.29
  -2  -4   7    4.00    6.48
   1   4  -7 1575.21   87.72
   1   4  -7 1641.41   87.47
   1   4  -7 1512.37   87.99
   1   4  -7 1704.99   89.32
   1   4  -7 1671.25   87.47
  -1  -4   7 1776.79   88.20
  -1  -4   7 1650.41   86.57
  -1  -4   7 1828.89   86.72
  -1  -4   7 1667.91   90.36
  -1  -4   7 1718.83   82.93
   0   4  -7   48.09    8.24
   0   4  -7   50.33    9.45
   0   4  -7   62.18   11.08
   0   4  -7   42.08    7.45
   0  -4   7   40.64    6.31
   0  -4   7   44.49    8.26
   0  -4   7   32.66   11.08
   0  -4   7   44.22    4.98
  -1   4  -7 1340.77   74.25
  -1   4  -7 1425.72   75.08
  -1   4  -7 1456.64   76.25
  -1   4  -7 1396.27   74.92
   1  -4   7 1495.18   71.89
   1  -4   7 1536.26   78.47
   1  -4   7 1341.97   71.73
   1  -4   7 1475.43   74.54
  -2   4  -7   23.19    3.15
  -2   4  -7   12.83    5.61
  -2   4  -7   24.75    6.20
  -2   4  -7   36.51    8.24
  -2   4  -7   33.22    7.12
   2  -4   7   21.01    2.36
   2  -4   7   29.77    6.52
   2  -4   7   22.92    2.86
   2  -4   7   21.72    6.64
   2  -4   7   26.24    5.73
   2  -4   7   12.87    9.49
   2  -4   7   18.88    8.90
  -3   4  -7 1380.93   72.58
  -3   4  -7 1374.19   68.15
  -3   4  -7 1313.29   70.12
  -3   4  -7 1446.75   71.53
   3  -4   7 1391.18   69.93
   3  -4   7 1163.48   72.44
   3  -4   7 1429.32   69.78
   3  -4   7 1274.97   74.50
   3  -4   7 1313.12   70.47
  -4   4  -7    0.60    6.31
  -4   4  -7   10.35    6.10
  -4   4  -7   22.08    6.95
   4  -4   7   10.13    6.04
   4  -4   7   11.60    7.25
   4  -4   7    9.81    5.62
   4  -4   7   -4.59    9.82
  -5   4  -7  545.37   33.22
  -5   4  -7  571.20   32.99
  -5   4  -7  610.17   33.04
   5  -4   7  507.57   36.85
   5  -4   7  569.87   39.29
   5  -4   7  531.66   33.02
  -6   4  -7   -0.61    7.38
  -6   4  -7   14.47    7.62
   6  -4   7   18.74    9.52
   6  -4   7   -1.96    7.95
   6  -4   7    4.74    7.85
  -7   4  -7  300.76   21.12
  -7   4  -7  330.86   26.19
   7  -4   7  228.02   29.37
   7  -4   7  280.04   29.07
   7  -4   7  292.78   26.18
  -8   4  -7   19.89   11.34
   8  -4   7   -6.96    7.09
   8  -4   7   13.37   16.53
   8  -4   7    5.28    9.91
  -9   4  -7  161.76   20.67
   9  -4   7  173.35   22.21
   9  -4   7  115.81   22.44
 -10   4  -7    7.15   13.25
  10  -4   7   -0.70   13.11
  10  -4   7   -0.99   14.37
   8   3  -7  232.88   27.05
   8   3  -7  229.07   29.93
  -8  -3   7  239.44   29.45
   7   3  -7    1.93   10.84
   7   3  -7   20.45   14.42
   7   3  -7    4.18   13.95
  -7  -3   7   -5.41    9.39
  -7  -3   7   12.44   13.61
   6   3  -7  627.48   41.66
   6   3  -7  625.06   41.46
   6   3  -7  647.49   39.21
  -6  -3   7  564.62   39.57
  -6  -3   7  623.46   43.08
   5   3  -7   -5.53    8.09
   5   3  -7    7.56    7.66
   5   3  -7    1.90    7.87
  -5  -3   7   26.61   10.93
  -5  -3   7  -25.87    7.02
  -5  -3   7   -0.94    7.72
   4   3  -7  987.72   54.91
   4   3  -7  964.66   54.19
   4   3  -7  977.44   55.70
   4   3  -7 1028.94   57.65
  -4  -3   7  982.43   54.43
  -4  -3   7  979.04   55.74
  -4  -3   7  975.43   56.74
   3   3  -7   -4.58    4.43
   3   3  -7    7.51    6.21
   3   3  -7    1.03    8.03
   3   3  -7    7.95    5.57
   3   3  -7    6.10    8.29
  -3  -3   7    5.33    2.80
  -3  -3   7    5.82    6.36
  -3  -3   7   -8.93    6.10
  -3  -3   7    7.37    6.17
   2   3  -7 2439.77  119.32
   2   3  -7 2271.75  117.80
   2   3  -7 2326.86  118.67
   2   3  -7 2525.28  119.72
   2   3  -7 2312.30  120.45
   2   3  -7 2345.33  119.06
   2   3  -7 2275.02  119.95
  -2  -3   7 2191.24  118.52
  -2  -3   7 2397.39  113.24
  -2  -3   7 2209.15  113.10
   1   3  -7    2.29    4.61
   1   3  -7    6.64    6.09
   1   3  -7    4.29    4.80
   1   3  -7    0.91    4.71
   1   3  -7   14.65    8.14
   1   3  -7    3.49    6.61
   1   3  -7   -5.67    5.02
  -1  -3   7   10.84    6.32
  -1  -3   7   14.23    8.16
  -1  -3   7    7.33    1.50
  -1  -3   7    7.80    1.29
   0   3  -7 1973.45  100.77
   0   3  -7 2081.44  100.16
   0   3  -7 1985.60  100.03
   0   3  -7 2012.96   98.53
   0   3  -7 1880.54   99.43
   0  -3   7 1869.00   95.43
   0  -3   7 1851.67  101.36
   0  -3   7 1953.50   98.87
  -1   3  -7    7.94    5.43
  -1   3  -7    9.09    4.96
  -1   3  -7   -1.11    3.93
  -1   3  -7   10.23    6.34
  -1   3  -7    3.31    5.62
   1  -3   7    0.79    7.11
   1  -3   7   -0.38    3.47
   1  -3   7   -0.62    4.87
   1  -3   7    2.51    2.90
  -2   3  -7 1932.07   93.58
  -2   3  -7 1605.07   89.35
  -2   3  -7 1747.39   93.24
  -2   3  -7 1745.68   94.36
   2  -3   7 1900.23   91.37
   2  -3   7 2002.35   93.83
   2  -3   7 1807.22   96.16
   2  -3   7 1977.12   91.98
   2  -3   7 1799.58   95.25
   2  -3   7 1782.75   90.26
  -3   3  -7   29.45    6.53
  -3   3  -7   32.86    7.45
  -3   3  -7   47.00    9.51
  -3   3  -7   38.99    5.91
   3  -3   7   43.41   10.14
   3  -3   7   54.14    8.96
   3  -3   7   38.71    6.34
   3  -3   7   43.99    2.85
   3  -3   7   39.37    6.03
   3  -3   7   34.67    8.95
  -4   3  -7  893.75   47.16
  -4   3  -7  889.29   47.66
  -4   3  -7  864.57   45.93
   4  -3   7  883.65   51.74
   4  -3   7  818.53   49.65
   4  -3   7  830.81   46.86
  -5   3  -7   -1.61    5.60
  -5   3  -7    7.37    5.74
   5  -3   7   -5.84    6.62
   5  -3   7    1.06    5.41
   5  -3   7   21.41   11.67
  -6   3  -7  532.97   34.25
  -6   3  -7  634.58   33.59
   6  -3   7  536.92   38.51
   6  -3   7  619.21   39.44
   6  -3   7  538.98   34.55
  -7   3  -7    2.35    6.36
  -7   3  -7   24.19    9.69
   7  -3   7    9.78    7.75
   7  -3   7   18.54   12.60
   7  -3   7   11.38   13.91
  -8   3  -7  262.71   23.62
   8  -3   7  227.69   25.80
   8  -3   7  203.74   27.75
   8  -3   7  235.19   23.12
  -9   3  -7   13.25   12.06
   9  -3   7   -5.24   13.92
   9  -3   7    6.01   11.35
 -10   3  -7   71.59   17.97
  10  -3   7   69.55   22.31
  10  -3   7   74.82   18.23
   9   2  -7  161.71   25.10
   8   2  -7   -7.93   15.78
   8   2  -7   25.77   16.75
  -8  -2   7    8.92   11.95
   7   2  -7  417.11   28.81
   7   2  -7  381.73   34.41
   7   2  -7  470.03   38.13
  -7  -2   7  389.02   36.10
  -7  -2   7  435.30   37.76
   6   2  -7    2.63    7.69
   6   2  -7    0.97    7.95
   6   2  -7    5.21    6.84
   6   2  -7   -3.05    7.77
  -6  -2   7   -3.72    9.57
  -6  -2   7   -2.53   11.08
  -6  -2   7   -2.82    7.83
   5   2  -7  739.85   47.75
   5   2  -7  779.78   46.39
   5   2  -7  764.03   46.05
   5   2  -7  893.84   48.54
  -5  -2   7  832.43   49.18
  -5  -2   7  846.07   49.14
  -5  -2   7  792.50   46.69
   4   2  -7   -2.19    5.13
   4   2  -7  -11.78    8.35
   4   2  -7    1.70    6.54
   4   2  -7   -7.02    5.86
  -4  -2   7  -11.91    6.80
  -4  -2   7   -6.67    8.07
  -4  -2   7   -3.83    3.76
   3   2  -7 1367.35   73.19
   3   2  -7 1382.51   72.33
   3   2  -7 1508.26   73.08
   3   2  -7 1293.62   73.54
  -3  -2   7 1248.13   72.61
  -3  -2   7 1460.66   68.08
  -3  -2   7 1272.07   73.19
   2   2  -7   -2.49    5.92
   2   2  -7    4.04    6.61
   2   2  -7   -1.93    4.34
   2   2  -7   -5.56    4.56
   2   2  -7   -6.01    5.35
   2   2  -7    3.35    5.47
   2   2  -7   -1.27    5.75
  -2  -2   7    0.23    1.27
  -2  -2   7   -0.68    1.42
  -2  -2   7   -8.47    3.45
   1   2  -7 1652.00   86.04
   1   2  -7 1739.74   85.35
   1   2  -7 1644.56   85.94
   1   2  -7 1526.11   86.79
   1   2  -7 1832.00   87.87
   1   2  -7 1611.56   85.93
   1   2  -7 1622.55   86.23
  -1  -2   7 1697.38   87.06
   0   2  -7    2.84    4.72
   0   2  -7    3.45    5.86
   0   2  -7    0.19    4.17
   0   2  -7   -0.80    5.62
   0   2  -7   -0.97    5.50
   0   2  -7    1.12    4.07
   0  -2   7   -1.70    5.51
   0  -2   7   -3.43    5.53
   0  -2   7    3.01    1.88
  -1   2  -7 2000.93   93.82
  -1   2  -7 1920.06   95.05
  -1   2  -7 1743.97   95.75
  -1   2  -7 1924.10   95.63
   1  -2   7 1819.22   93.11
   1  -2   7 1760.54   95.84
   1  -2   7 1945.23   92.19
   1  -2   7 1752.30   96.19
  -2   2  -7   39.70    6.95
  -2   2  -7   21.29    4.57
  -2   2  -7   21.63    3.49
  -2   2  -7   25.16    7.60
  -2   2  -7   21.71    5.45
  -2   2  -7   32.64    8.49
  -2   2  -7   21.39    3.36
   2  -2   7   31.65    5.10
   2  -2   7   28.29    7.66
   2  -2   7   11.88    3.74
   2  -2   7   27.93    6.76
  -3   2  -7 1691.46   85.36
  -3   2  -7 1762.45   85.03
  -3   2  -7 1633.96   83.45
  -3   2  -7 1650.16   81.89
  -3   2  -7 1639.73   81.21
   3  -2   7 1635.72   86.27
   3  -2   7 1606.65   84.69
   3  -2   7 1622.85   82.77
   3  -2   7 1662.33   86.56
   3  -2   7 1562.37   80.10
   3  -2   7 1565.26   81.04
  -4   2  -7   21.84    6.14
  -4   2  -7   19.42    6.01
   4  -2   7   29.52    8.18
   4  -2   7   17.58    6.91
   4  -2   7   31.99    8.81
   4  -2   7   16.93    4.02
  -5   2  -7  837.83   45.00
  -5   2  -7  847.27   44.22
  -5   2  -7  758.42   42.54
   5  -2   7  823.83   45.81
   5  -2   7  801.45   48.76
   5  -2   7  880.31   49.58
  -6   2  -7    1.32    4.56
  -6   2  -7   11.62    5.38
  -6   2  -7   12.64    7.62
   6  -2   7   17.49    8.33
   6  -2   7    4.43    5.99
   6  -2   7   -8.05   10.17
  -7   2  -7  392.48   22.96
  -7   2  -7  375.43   26.59
   7  -2   7  328.04   33.24
   7  -2   7  336.04   28.38
   7  -2   7  414.97   29.69
  -8   2  -7    2.25    9.60
   8  -2   7    9.04   10.66
   8  -2   7  -18.51    8.81
   8  -2   7   12.81   10.11
  -9   2  -7  177.79   20.89
   9  -2   7  187.03   24.07
   9  -2   7  188.21   23.15
 -10   2  -7    4.30   12.90
  10  -2   7    6.41   12.90
  10  -2   7   -2.38   13.16
   9   1  -7   -6.26   11.93
   9   1  -7  -11.90   16.39
  -9  -1   7  -12.77   17.76
   8   1  -7  286.20   29.97
   8   1  -7  290.54   31.90
  -8  -1   7  308.69   34.69
   7   1  -7   -6.37   12.12
   7   1  -7   -5.44   11.02
   7   1  -7   -8.62    9.41
  -7  -1   7    4.77   10.19
  -7  -1   7   11.98   14.32
  -7  -1   7    0.12    9.63
   6   1  -7  835.39   48.81
   6   1  -7  738.62   48.70
   6   1  -7  697.99   45.88
  -6  -1   7  916.65   49.32
  -6  -1   7  806.41   50.61
  -6  -1   7  766.81   49.26
   5   1  -7    6.72    8.96
   5   1  -7    4.34    7.26
   5   1  -7    0.43    5.58
   5   1  -7    4.45    7.84
  -5  -1   7    2.51    7.36
  -5  -1   7    5.50    5.72
  -5  -1   7    7.31    8.27
   4   1  -7  915.25   52.48
   4   1  -7  903.91   53.28
   4   1  -7 1065.18   55.20
   4   1  -7  969.51   52.46
  -4  -1   7  997.31   54.29
  -4  -1   7  906.21   49.01
  -4  -1   7  958.88   55.49
   3   1  -7   11.72    7.45
   3   1  -7    1.90    5.82
   3   1  -7    3.85    5.70
   3   1  -7    4.74    7.21
   3   1  -7   -1.95    5.25
  -3  -1   7    5.49    6.21
  -3  -1   7   -2.91    6.82
  -3  -1   7    1.86    3.09
   2   1  -7 2298.58  115.34
   2   1  -7 2261.09  114.14
   2   1  -7 2351.21  113.90
   2   1  -7 2175.34  115.55
   2   1  -7 2288.28  115.23
   2   1  -7 2195.06  114.31
  -2  -1   7 2410.40  115.75
  -2  -1   7 2249.23  115.91
  -2  -1   7 2072.20  110.10
   1   1  -7   -1.90    3.94
   1   1  -7    5.41    4.24
   1   1  -7   -1.62    6.19
   1   1  -7    2.51    5.06
   1   1  -7   -0.80    6.19
   1   1  -7    6.54    4.61
  -1  -1   7    9.97    5.30
  -1  -1   7   -1.70    3.56
  -1  -1   7    0.92    2.03
  -1  -1   7   -0.60    1.47
   0   1  -7 1900.68   97.83
   0   1  -7 1843.11   98.59
   0   1  -7 1889.10   99.66
   0   1  -7 2098.77   98.85
   0   1  -7 1879.58   99.55
   0  -1   7 1990.77   99.20
   0  -1   7 1926.53   98.95
   0  -1   7 1990.45   95.46
  -1   1  -7   54.06    7.25
  -1   1  -7   44.89    7.75
  -1   1  -7   42.95    7.69
  -1   1  -7   54.39    8.24
  -1   1  -7   72.10    9.24
   1  -1   7   47.61    8.21
   1  -1   7   56.41    8.37
   1  -1   7   51.92    5.40
  -2   1  -7 1500.40   82.31
  -2   1  -7 1616.50   78.94
  -2   1  -7 1612.40   82.72
  -2   1  -7 1657.57   83.57
  -2   1  -7 1620.83   81.48
  -2   1  -7 1629.89   79.26
  -2   1  -7 1528.34   79.87
   2  -1   7 1672.82   83.40
   2  -1   7 1695.50   80.20
   2  -1   7 1507.26   82.79
   2  -1   7 1516.76   77.92
  -3   1  -7   11.34    5.38
  -3   1  -7   10.33    6.42
  -3   1  -7    2.90    3.77
  -3   1  -7    7.26    4.82
  -3   1  -7    5.48    2.99
   3  -1   7    4.48    4.54
   3  -1   7    6.10    6.80
   3  -1   7   13.78    6.06
  -4   1  -7 1346.82   67.55
  -4   1  -7 1403.82   70.28
  -4   1  -7 1336.13   69.67
  -4   1  -7 1355.96   69.81
   4  -1   7 1358.84   73.94
   4  -1   7 1426.56   71.01
   4  -1   7 1323.81   73.71
  -5   1  -7   10.50    5.42
  -5   1  -7   27.79    5.40
  -5   1  -7    8.72    1.87
  -5   1  -7   12.80    6.44
   5  -1   7   19.83    9.07
   5  -1   7   12.03    7.54
   5  -1   7   -2.11    5.25
  -6   1  -7  699.43   35.70
  -6   1  -7  635.86   37.17
  -6   1  -7  706.70   39.05
   6  -1   7  593.04   41.58
   6  -1   7  640.26   42.25
   6  -1   7  685.30   39.75
  -7   1  -7    3.45    8.42
  -7   1  -7    5.91    5.79
   7  -1   7    2.23    6.79
   7  -1   7    0.22   10.96
   7  -1   7   14.87   12.53
  -8   1  -7  259.08   21.47
  -8   1  -7  262.21   24.37
   8  -1   7  205.76   24.16
   8  -1   7  183.43   24.90
   8  -1   7  200.68   21.73
  -9   1  -7    8.49   12.12
   9  -1   7   11.80   11.07
   9  -1   7    4.15    8.65
 -10   1  -7  101.71   19.59
  10  -1   7   96.30   19.35
  10  -1   7   84.74   22.49
   9   0  -7  129.69   22.91
   9   0  -7  181.87   27.24
  -9   0   7  226.34   32.11
   8   0  -7   -2.17    8.95
   8   0  -7    2.54   11.25
   8   0  -7  -13.36    9.45
  -8   0   7   -0.17   15.47
   7   0  -7  401.05   33.35
   7   0  -7  356.60   28.95
   7   0  -7  434.13   34.93
  -7   0   7  432.50   37.00
  -7   0   7  355.49   32.09
  -7   0   7  334.60   33.80
   6   0  -7   -7.44    9.67
   6   0  -7   12.42   12.23
   6   0  -7    6.29    9.65
  -6   0   7   -2.62    8.55
  -6   0   7   -5.18    8.97
  -6   0   7    9.92    8.42
   5   0  -7  915.21   56.41
   5   0  -7 1045.43   57.04
   5   0  -7  951.13   54.55
  -5   0   7 1039.47   59.18
  -5   0   7  958.48   52.30
  -5   0   7 1049.98   57.70
   4   0  -7   -1.59    5.10
   4   0  -7    5.71    6.29
   4   0  -7    5.46    6.22
  -4   0   7  -17.36    5.75
  -4   0   7   -7.82    8.11
  -4   0   7    1.59    7.43
  -4   0   7   -1.89    3.61
   3   0  -7 2236.27  105.97
   3   0  -7 2106.23  106.56
   3   0  -7 2060.67  107.08
   3   0  -7 1922.38  106.09
  -3   0   7 2002.45  108.00
  -3   0   7 2041.15  102.75
  -3   0   7 2093.05  107.69
   2   0  -7   -5.69    5.83
   2   0  -7   -6.36    5.86
   2   0  -7   -2.10    3.83
   2   0  -7   -7.97    5.62
  -2   0   7    0.13    4.44
  -2   0   7    0.75    3.57
  -2   0   7    0.95    5.46
  -2   0   7   -1.94    3.09
  -2   0   7   -4.48    6.57
   1   0  -7 2873.41  140.04
   1   0  -7 2448.90  138.49
   1   0  -7 2732.88  139.76
   1   0  -7 2872.99  138.58
   1   0  -7 2721.15  138.10
  -1   0   7 2993.10  135.92
  -1   0   7 2696.50  137.52
  -1   0   7 2735.04  137.61
   0   0  -7    3.86    4.88
   0   0  -7    4.51    4.57
   0   0  -7   -5.54    3.66
   0   0  -7    2.85    4.37
   0   0   7   -1.33    2.64
   0   0   7   -1.93    2.73
   0   0   7    0.35    4.02
  -1   0  -7 2024.39   97.96
  -1   0  -7 2118.11   98.14
  -1   0  -7 1952.68   99.68
  -1   0  -7 2001.60  100.02
  -1   0  -7 1952.16   99.26
  -1   0  -7 1888.43   95.56
  -1   0  -7 1842.90   98.51
   1   0   7 1839.05   96.27
   1   0   7 1994.81   98.85
   1   0   7 1948.17   99.42
  -2   0  -7   -5.42    3.26
  -2   0  -7    2.49    4.54
  -2   0  -7    1.68    3.71
  -2   0  -7   -0.06    5.03
  -2   0  -7    2.14    4.25
  -2   0  -7   -7.54    4.26
  -2   0  -7    3.03    3.06
   2   0   7    5.49    5.91
   2   0   7   11.56    5.27
   2   0   7    5.39    4.02
  -3   0  -7 1589.79   76.36
  -3   0  -7 1512.63   77.40
  -3   0  -7 1561.49   78.45
  -3   0  -7 1445.44   79.74
  -3   0  -7 1447.12   78.80
  -3   0  -7 1520.40   77.28
   3   0   7 1524.21   80.04
   3   0   7 1549.13   77.81
   3   0   7 1545.98   80.48
  -4   0  -7    2.94    4.86
  -4   0  -7    3.45    2.77
  -4   0  -7    2.36    4.96
  -4   0  -7   -1.88    4.03
   4   0   7    2.24    4.25
   4   0   7   10.35    6.28
   4   0   7   -3.07    4.85
  -5   0  -7 1014.63   51.68
  -5   0  -7 1013.62   55.99
  -5   0  -7 1198.91   53.99
  -5   0  -7 1070.65   55.90
   5   0   7 1057.13   56.67
   5   0   7  944.99   58.48
   5   0   7  971.18   58.49
  -6   0  -7   -1.02    6.79
  -6   0  -7    3.05    6.97
   6   0   7    0.98    6.09
   6   0   7    0.28    9.63
   6   0   7    2.68   10.17
  -7   0  -7  588.07   35.48
  -7   0  -7  555.59   33.94
   7   0   7  555.89   34.71
   7   0   7  503.00   37.72
   7   0   7  570.75   38.06
  -8   0  -7   17.26   11.19
  -8   0  -7    1.74    7.50
   8   0   7    8.30    7.74
   8   0   7  -10.33   12.98
   8   0   7   -4.53   12.57
  -9   0  -7   89.59   16.96
  -9   0  -7  114.24   17.13
   9   0   7  121.06   20.24
 -10   0  -7   -4.03    9.10
  10   0   7  -19.45   16.68
   9  -1  -7   -6.69   13.47
   9  -1  -7   -4.37   15.99
  -9   1   7    0.72   18.57
   8  -1  -7  285.29   29.03
   8  -1  -7  305.47   30.92
   8  -1  -7  255.51   25.71
  -8   1   7  277.05   31.42
  -8   1   7  282.16   29.59
   7  -1  -7   -2.07    8.85
   7  -1  -7   26.56   11.12
   7  -1  -7    8.73   10.81
  -7   1   7   -9.91   11.15
  -7   1   7  -10.22   13.52
   6  -1  -7  763.83   45.56
   6  -1  -7  714.30   46.54
   6  -1  -7  754.79   44.45
  -6   1   7  746.86   42.77
  -6   1   7  704.06   48.28
  -6   1   7  764.78   47.35
   5  -1  -7   -0.83    7.36
   5  -1  -7    0.26    5.57
   5  -1  -7   12.72    8.76
  -5   1   7   13.74   10.21
  -5   1   7    1.95    6.73
  -5   1   7    1.28    7.51
   4  -1  -7  996.75   53.11
   4  -1  -7 1024.41   52.72
   4  -1  -7  838.17   51.30
  -4   1   7  956.11   49.79
  -4   1   7  998.59   55.00
  -4   1   7  907.66   48.17
  -4   1   7  927.26   54.77
  -4   1   7  893.17   49.67
   3  -1  -7    5.06    5.71
   3  -1  -7    2.85    4.95
   3  -1  -7  -13.34    6.14
   3  -1  -7   -8.57    5.11
  -3   1   7    4.93    4.20
  -3   1   7    2.18    2.83
  -3   1   7    3.41    7.91
  -3   1   7   -9.56    3.56
  -3   1   7    2.83    6.23
   2  -1  -7 2240.07  111.16
   2  -1  -7 2228.41  109.86
   2  -1  -7 2025.99  109.55
   2  -1  -7 2164.66  110.06
  -2   1   7 2119.84  107.92
  -2   1   7 2172.17  107.27
  -2   1   7 2176.55  111.96
  -2   1   7 2084.51  112.29
  -2   1   7 2227.01  107.72
   1  -1  -7    8.86    5.03
   1  -1  -7    3.08    4.75
   1  -1  -7   -2.01    3.33
   1  -1  -7   -2.49    5.13
   1  -1  -7    6.33    6.49
  -1   1   7   -0.64    6.15
  -1   1   7   -4.52    3.21
  -1   1   7    1.07    3.03
  -1   1   7    6.88    3.75
   0  -1  -7 1786.15   94.79
   0  -1  -7 1971.52   91.01
   0  -1  -7 1723.52   95.28
   0  -1  -7 1808.75   93.94
   0  -1  -7 1928.88   93.66
   0   1   7 1868.40   93.90
   0   1   7 1734.08   92.46
   0   1   7 1974.04   92.76
  -1  -1  -7   51.97    7.41
  -1  -1  -7   41.83    5.04
  -1  -1  -7   47.67    6.60
  -1  -1  -7   68.11    8.20
  -1  -1  -7   47.69    7.62
  -1  -1  -7   50.33    6.02
  -1  -1  -7   34.05    7.20
   1   1   7   56.09    7.21
   1   1   7   53.08    6.57
   1   1   7   49.69    5.85
   1   1   7   49.30    7.94
  -2  -1  -7 1589.71   82.04
  -2  -1  -7 1763.89   82.53
  -2  -1  -7 1631.61   80.57
  -2  -1  -7 1540.74   80.44
   2   1   7 1478.55   80.52
   2   1   7 1512.53   78.02
   2   1   7 1521.16   81.61
   2   1   7 1828.93   83.70
  -3  -1  -7    5.24    6.16
  -3  -1  -7    1.10    4.66
  -3  -1  -7    5.74    5.68
  -3  -1  -7    2.61    5.54
  -3  -1  -7    5.37    3.83
   3   1   7    6.32    2.93
   3   1   7    7.32    6.26
   3   1   7    6.96    5.23
  -4  -1  -7 1354.18   70.01
  -4  -1  -7 1337.31   70.93
  -4  -1  -7 1405.20   67.89
  -4  -1  -7 1332.15   70.41
   4   1   7 1345.36   72.65
   4   1   7 1281.22   72.16
  -5  -1  -7   13.23    3.54
  -5  -1  -7   15.58    7.19
  -5  -1  -7   11.89    2.19
  -5  -1  -7    8.50    1.93
  -5  -1  -7   24.78    7.73
   5   1   7    9.34    9.40
   5   1   7   11.08    7.17
  -6  -1  -7  604.00   37.25
  -6  -1  -7  614.77   33.57
  -6  -1  -7  635.55   38.40
   6   1   7  732.49   42.95
   6   1   7  690.60   41.67
  -7  -1  -7    2.51    8.61
  -7  -1  -7    9.34    6.73
   7   1   7   20.44   12.96
   7   1   7    0.89    9.38
  -8  -1  -7  261.05   24.49
  -8  -1  -7  241.40   23.67
   8   1   7  223.22   25.88
   8   1   7  258.63   28.64
  -9  -1  -7   37.72   13.47
  -9  -1  -7   -9.80    9.88
   9   1   7    3.48   11.40
   9   1   7  -11.77   10.82
 -10  -1  -7   86.67   16.17
  10   1   7   72.60   23.76
  10   1   7  115.75   20.06
   9  -2  -7  181.69   29.23
   8  -2  -7   -4.59   10.46
   8  -2  -7   14.29   11.62
   8  -2  -7    8.45   12.39
  -8   2   7   -2.38   13.96
   7  -2  -7  389.38   34.53
   7  -2  -7  415.28   33.22
   7  -2  -7  425.09   32.51
  -7   2   7  407.21   36.38
  -7   2   7  418.17   32.28
   6  -2  -7   -3.89    8.52
   6  -2  -7    7.22    7.17
   6  -2  -7    8.89    8.82
  -6   2   7   13.95   12.63
  -6   2   7   -5.58    8.44
  -6   2   7   -4.55    7.66
   5  -2  -7  887.54   49.93
   5  -2  -7  787.07   46.54
   5  -2  -7  804.69   47.02
  -5   2   7  781.68   49.50
  -5   2   7  806.08   51.46
  -5   2   7  858.18   46.12
   4  -2  -7    4.22    6.37
   4  -2  -7   -2.77    2.50
   4  -2  -7  -10.93    6.58
   4  -2  -7   -0.94    8.24
   4  -2  -7   -2.25    5.55
  -4   2   7    4.08    9.45
  -4   2   7   -5.75    4.22
  -4   2   7    6.78    6.50
  -4   2   7   -8.49    6.12
   3  -2  -7 1353.25   67.16
   3  -2  -7 1388.15   70.94
   3  -2  -7 1411.73   72.61
   3  -2  -7 1255.07   71.25
   3  -2  -7 1351.05   72.28
  -3   2   7 1336.38   74.42
  -3   2   7 1385.15   74.56
  -3   2   7 1392.77   70.39
  -3   2   7 1334.26   67.58
   2  -2  -7    2.15    4.61
   2  -2  -7   -1.43    5.81
   2  -2  -7   -5.32    2.19
   2  -2  -7   -0.77    4.13
   2  -2  -7    7.45    7.08
  -2   2   7    8.37    6.67
  -2   2   7   -6.45    7.54
  -2   2   7    0.71    1.38
  -2   2   7   -1.09    4.41
  -2   2   7   -3.08    1.31
  -2   2   7   -2.36    2.47
   1  -2  -7 1653.43   80.97
   1  -2  -7 1611.95   83.93
   1  -2  -7 1638.68   83.35
   1  -2  -7 1582.74   84.93
  -1   2   7 1740.86   86.68
  -1   2   7 1704.35   83.01
  -1   2   7 1611.29   81.80
  -1   2   7 1566.42   79.47
   0  -2  -7   -0.04    3.31
   0  -2  -7   -1.22    3.91
   0  -2  -7    8.27    6.14
   0  -2  -7    5.95    3.32
   0  -2  -7    1.56    5.52
   0  -2  -7    2.10    3.81
   0   2   7    6.64    4.43
   0   2   7    0.80    2.42
   0   2   7    2.22    4.40
   0   2   7   -6.98    5.64
  -1  -2  -7 1729.68   92.97
  -1  -2  -7 1890.02   96.43
  -1  -2  -7 1911.11   95.00
  -1  -2  -7 1989.37   94.14
  -1  -2  -7 1915.10   93.77
   1   2   7 1872.50   93.46
   1   2   7 1874.95   95.23
   1   2   7 1784.16   94.04
  -2  -2  -7   27.70    5.92
  -2  -2  -7   24.41    6.99
  -2  -2  -7   22.43    6.32
  -2  -2  -7   26.72    6.18
   2   2   7   22.71    6.57
   2   2   7   19.55    5.95
   2   2   7   25.09    4.28
   2   2   7   23.12    6.29
  -3  -2  -7 1544.85   80.63
  -3  -2  -7 1591.55   83.84
  -3  -2  -7 1706.74   84.16
  -3  -2  -7 1706.62   86.06
  -3  -2  -7 1702.47   85.39
   3   2   7 1606.91   83.96
   3   2   7 1610.70   84.92
   3   2   7 1728.08   86.65
  -4  -2  -7   18.59    7.24
  -4  -2  -7   11.70    6.04
  -4  -2  -7   20.72    3.22
  -4  -2  -7    9.94    6.09
   4   2   7   11.53    6.56
   4   2   7    9.47    6.03
   4   2   7   31.39    7.72
  -5  -2  -7  819.78   42.57
  -5  -2  -7  927.29   48.71
  -5  -2  -7  810.62   46.64
   5   2   7  818.79   47.02
   5   2   7  793.12   49.65
   5   2   7  864.07   49.79
  -6  -2  -7    5.37    8.98
  -6  -2  -7    7.83    4.00
  -6  -2  -7    6.86    7.90
   6   2   7   18.30   10.92
   6   2   7   24.63   10.12
   6   2   7   -0.14   10.53
  -7  -2  -7  387.29   30.17
  -7  -2  -7  367.30   30.48
   7   2   7  382.51   34.11
   7   2   7  390.86   30.30
  -8  -2  -7    5.99   10.35
  -8  -2  -7   -4.15    8.67
   8   2   7   16.34   15.05
   8   2   7    3.52    7.66
  -9  -2  -7  160.25   21.59
  -9  -2  -7  209.71   24.44
   9   2   7  159.12   26.82
   9   2   7  198.08   22.09
 -10  -2  -7   12.36   14.96
 -10  -2  -7   13.96   13.78
  10   2   7  -32.25   15.66
  10   2   7   -5.10   12.45
   8  -3  -7  241.12   24.47
   8  -3  -7  196.13   28.43
  -8   3   7  205.67   27.69
   7  -3  -7   -1.32    9.69
   7  -3  -7   -1.80   11.00
   7  -3  -7    6.65   10.81
  -7   3   7    3.18   13.58
  -7   3   7  -12.44    9.64
   6  -3  -7  634.04   40.03
   6  -3  -7  646.97   39.24
   6  -3  -7  671.51   42.26
  -6   3   7  671.56   44.72
  -6   3   7  654.07   43.86
  -6   3   7  604.66   39.28
   5  -3  -7   -1.85    6.35
   5  -3  -7   -3.97    4.42
   5  -3  -7    5.24    8.92
   5  -3  -7    6.52   10.43
  -5   3   7   -3.54    6.55
  -5   3   7    4.47   10.34
  -5   3   7   -0.68   10.93
   4  -3  -7  907.78   51.93
   4  -3  -7  894.24   49.90
   4  -3  -7 1007.21   52.96
   4  -3  -7  907.42   47.73
   4  -3  -7  864.47   51.32
  -4   3   7  906.74   50.78
  -4   3   7  956.96   54.73
  -4   3   7  934.45   54.87
   3  -3  -7    8.31    6.26
   3  -3  -7   -3.88    3.88
   3  -3  -7   -1.10    5.03
   3  -3  -7    2.35    7.50
   3  -3  -7   14.92    7.48
  -3   3   7    6.92    6.98
  -3   3   7   -5.42    8.39
  -3   3   7    3.34    5.87
   2  -3  -7 2224.62  123.03
   2  -3  -7 2464.26  120.12
   2  -3  -7 2452.21  120.82
   2  -3  -7 2483.17  123.11
   2  -3  -7 2425.18  122.71
  -2   3   7 2476.95  126.02
  -2   3   7 2384.84  122.13
  -2   3   7 2427.64  125.34
   1  -3  -7    4.74    5.09
   1  -3  -7    0.90    4.96
   1  -3  -7    9.77    7.30
   1  -3  -7   11.65    4.54
  -1   3   7   -4.28    4.47
  -1   3   7   10.68    7.38
  -1   3   7    4.35    3.76
   0  -3  -7 2041.09  102.46
   0  -3  -7 2008.27  102.64
   0  -3  -7 2043.17  104.83
   0   3   7 1965.43  105.68
   0   3   7 2152.20  102.98
   0   3   7 2031.22  103.53
  -1  -3  -7    6.81    3.67
  -1  -3  -7   -5.16    5.91
  -1  -3  -7    4.48    3.55
  -1  -3  -7    7.09    5.10
  -1  -3  -7    0.15    3.77
  -1  -3  -7   -1.56    5.45
   1   3   7    4.61    4.19
   1   3   7   -0.63    6.68
   1   3   7   -4.15    4.88
  -2  -3  -7 1931.83   93.34
  -2  -3  -7 1769.14   93.84
  -2  -3  -7 1886.99   97.26
  -2  -3  -7 1811.42   94.28
  -2  -3  -7 1849.50   94.90
   2   3   7 1909.08   95.07
   2   3   7 1865.46   96.07
  -3  -3  -7   56.82    7.49
  -3  -3  -7   33.68    8.00
  -3  -3  -7   45.63    8.18
  -3  -3  -7   31.49    9.93
  -3  -3  -7   45.36    6.22
   3   3   7   45.19    9.00
   3   3   7   25.34    7.51
  -4  -3  -7  942.48   47.74
  -4  -3  -7  880.42   45.95
  -4  -3  -7  910.67   50.57
  -4  -3  -7  841.17   48.84
   4   3   7  892.25   49.18
   4   3   7  840.19   50.65
  -5  -3  -7    8.51    4.37
  -5  -3  -7    7.26    7.35
  -5  -3  -7   14.02    7.42
   5   3   7    9.47    8.79
   5   3   7   -1.40    6.80
  -6  -3  -7  579.64   38.48
  -6  -3  -7  544.30   36.48
   6   3   7  629.82   41.15
   6   3   7  648.97   37.12
  -7  -3  -7   -1.78   10.30
  -7  -3  -7    1.64    6.73
   7   3   7    3.96    7.08
   7   3   7   -9.63    8.37
  -8  -3  -7  234.80   25.75
  -8  -3  -7  211.04   22.77
   8   3   7  267.89   30.80
   8   3   7  289.58   26.71
  -9  -3  -7    0.74    8.75
  -9  -3  -7   -5.61    9.07
   9   3   7    3.13    8.72
   9   3   7   47.43   19.74
 -10  -3  -7   65.31   19.93
 -10  -3  -7   82.44   16.99
  10   3   7   88.40   19.24
  10   3   7   73.75   23.89
   8  -4  -7   13.61   13.05
   8  -4  -7   10.98   13.52
  -8   4   7    8.16   13.98
  -8   4   7   -8.42   15.27
   7  -4  -7  310.72   31.25
   7  -4  -7  260.00   26.16
  -7   4   7  313.65   28.83
  -7   4   7  334.84   34.65
   6  -4  -7   -4.22    6.63
   6  -4  -7   16.08   13.34
   6  -4  -7    1.93    9.42
  -6   4   7   14.45   10.76
  -6   4   7   13.92   14.01
  -6   4   7   -8.14   13.12
   5  -4  -7  740.04   46.18
   5  -4  -7  769.71   44.74
   5  -4  -7  797.98   49.29
   5  -4  -7  882.28   44.17
  -5   4   7  796.97   51.46
  -5   4   7  782.19   46.45
  -5   4   7  848.98   51.07
   4  -4  -7    2.05    7.11
   4  -4  -7    3.69    6.16
   4  -4  -7   14.63    7.86
   4  -4  -7   -0.90    6.47
   4  -4  -7   -3.05    4.53
  -4   4   7    2.33    7.82
  -4   4   7   -4.09   10.60
  -4   4   7   -8.11    9.73
   3  -4  -7 1349.39   75.67
   3  -4  -7 1484.75   73.79
   3  -4  -7 1516.64   76.85
   3  -4  -7 1410.50   75.84
   3  -4  -7 1491.34   73.10
  -3   4   7 1377.48   78.53
  -3   4   7 1445.87   75.77
  -3   4   7 1315.21   78.41
   2  -4  -7   -8.37    4.56
   2  -4  -7   -7.62    6.24
   2  -4  -7   -4.50    5.89
   2  -4  -7   -7.75    4.89
  -2   4   7   -1.73    6.25
  -2   4   7   -6.79    6.03
  -2   4   7   -9.79    5.23
   1  -4  -7 1692.51   85.47
   1  -4  -7 1709.96   85.80
   1  -4  -7 1610.86   86.97
  -1   4   7 1705.89   83.88
  -1   4   7 1628.36   86.41
  -1   4   7 1657.12   89.22
   0  -4  -7   49.89    8.52
   0  -4  -7   46.88    8.50
   0  -4  -7   45.64    7.20
   0  -4  -7   52.37    9.01
   0   4   7   44.43   10.86
   0   4   7   40.94    6.50
   0   4   7   60.86    9.84
   0   4   7   53.69    8.36
  -1  -4  -7 1484.75   76.51
  -1  -4  -7 1393.05   73.88
  -1  -4  -7 1496.23   75.31
  -1  -4  -7 1472.47   74.12
  -1  -4  -7 1509.59   76.92
   1   4   7 1437.21   78.42
   1   4   7 1526.08   77.23
   1   4   7 1514.01   77.13
  -2  -4  -7   17.24    7.49
  -2  -4  -7   21.50    2.80
  -2  -4  -7   20.36    6.26
  -2  -4  -7   26.16    7.74
  -2  -4  -7   18.20    6.33
  -2  -4  -7   29.30    5.77
   2   4   7   24.07    6.50
   2   4   7   30.82    9.09
   2   4   7   22.36    7.94
  -3  -4  -7 1348.12   73.56
  -3  -4  -7 1326.13   69.06
  -3  -4  -7 1338.86   69.87
  -3  -4  -7 1381.50   71.61
  -3  -4  -7 1340.72   71.40
   3   4   7 1325.33   71.43
   3   4   7 1287.27   71.43
   3   4   7 1519.76   74.37
  -4  -4  -7  -12.15    4.92
  -4  -4  -7    2.98    4.80
  -4  -4  -7    9.99    5.19
  -4  -4  -7   10.05    6.11
   4   4   7    1.53    6.77
   4   4   7   16.65    7.93
  -5  -4  -7  572.07   35.38
  -5  -4  -7  607.83   38.39
  -5  -4  -7  589.04   32.75
  -5  -4  -7  604.18   33.19
   5   4   7  536.69   38.75
   5   4   7  548.68   35.73
  -6  -4  -7    3.64    6.55
  -6  -4  -7    8.57    6.00
  -6  -4  -7    8.01   10.93
   6   4   7    9.24    9.52
   6   4   7   -2.21   12.43
  -7  -4  -7  343.67   29.51
  -7  -4  -7  317.89   29.29
   7   4   7  329.72   31.76
   7   4   7  305.16   28.29
  -8  -4  -7   14.87   12.23
  -8  -4  -7   17.75   10.83
   8   4   7    2.87   11.25
   8   4   7    8.10   11.92
  -9  -4  -7  143.83   20.29
  -9  -4  -7  172.84   25.03
   9   4   7  186.23   21.76
   9   4   7  171.62   27.73
 -10  -4  -7  -16.01   16.32
 -10  -4  -7    2.17   11.10
  10   4   7    3.13   18.78
  10   4   7   -7.79   13.59
   8  -5  -7  274.91   33.52
   8  -5  -7  247.69   28.21
  -8   5   7  260.70   29.82
  -8   5   7  243.01   30.68
   7  -5  -7  -10.79   14.12
   7  -5  -7    3.37   11.17
  -7   5   7   11.45   13.60
  -7   5   7   -3.94   15.69
   6  -5  -7  576.57   38.77
   6  -5  -7  534.99   33.36
   6  -5  -7  548.18   36.94
  -6   5   7  529.38   37.55
  -6   5   7  590.59   43.09
  -6   5   7  569.85   42.27
   5  -5  -7   -2.52    6.73
   5  -5  -7   13.39    9.69
   5  -5  -7   -0.71    7.37
  -5   5   7   -6.60    9.46
  -5   5   7   -2.95   11.91
  -5   5   7  -10.07    8.39
   4  -5  -7  590.26   31.98
   4  -5  -7  541.11   34.17
   4  -5  -7  482.96   33.79
  -4   5   7  524.36   36.14
  -4   5   7  472.06   32.82
  -4   5   7  520.15   37.80
   3  -5  -7    2.08    7.26
   3  -5  -7   11.62    9.20
   3  -5  -7   -6.12    5.97
  -3   5   7   10.90    9.54
  -3   5   7    3.85    8.00
  -3   5   7    5.21    9.00
   2  -5  -7 1245.40   65.77
   2  -5  -7 1242.57   64.86
  -2   5   7 1125.63   65.88
  -2   5   7 1284.61   69.04
  -2   5   7 1216.09   68.09
   1  -5  -7   -5.85    5.88
   1  -5  -7   -0.06    4.77
   1  -5  -7   -0.95    6.29
  -1   5   7    8.05    9.18
  -1   5   7   -1.55    7.62
  -1   5   7   -4.23    6.42
   0  -5  -7 1655.92   81.78
   0  -5  -7 1580.34   81.96
   0  -5  -7 1518.94   78.79
   0  -5  -7 1483.82   80.66
   0   5   7 1677.36   83.54
   0   5   7 1546.97   79.67
   0   5   7 1474.37   76.09
   0   5   7 1529.49   81.24
  -1  -5  -7   96.58   12.38
  -1  -5  -7   95.30    8.13
  -1  -5  -7   78.03    7.67
  -1  -5  -7   94.56   12.86
   1   5   7   66.39   10.53
   1   5   7   88.79   11.65
   1   5   7   79.92   13.13
   1   5   7   62.85    8.25
  -2  -5  -7  960.23   52.17
  -2  -5  -7  903.67   54.08
  -2  -5  -7  862.22   46.59
  -2  -5  -7  957.66   51.41
  -2  -5  -7  985.05   50.32
   2   5   7  981.30   53.28
   2   5   7  986.02   52.57
   2   5   7  943.10   52.35
  -3  -5  -7  -14.68    7.94
  -3  -5  -7   -4.99    7.35
  -3  -5  -7   -4.86    6.53
  -3  -5  -7   -1.33    6.03
  -3  -5  -7    6.64    4.00
   3   5   7   -8.22    8.18
   3   5   7   -2.75    6.01
   3   5   7   -5.74    7.25
  -4  -5  -7  797.35   45.65
  -4  -5  -7  725.16   40.64
  -4  -5  -7  764.91   47.75
  -4  -5  -7  761.10   43.20
   4   5   7  801.11   45.82
   4   5   7  799.61   48.27
   4   5   7  820.44   44.25
  -5  -5  -7   -4.97    6.92
  -5  -5  -7   -0.56    5.13
  -5  -5  -7   -3.25    6.04
  -5  -5  -7    3.11    8.70
   5   5   7  -14.17    5.18
   5   5   7    4.35    8.56
   5   5   7    7.60    5.76
  -6  -5  -7  434.42   26.34
  -6  -5  -7  396.16   32.35
  -6  -5  -7  371.04   27.00
  -6  -5  -7  471.28   31.71
   6   5   7  362.53   34.66
   6   5   7  386.95   28.11
  -7  -5  -7    4.14   12.83
  -7  -5  -7    4.70    8.94
   7   5   7   21.06   11.19
   7   5   7   12.56   14.55
  -8  -5  -7  198.73   24.55
  -8  -5  -7  186.63   22.06
   8   5   7  154.51   21.63
   8   5   7  192.83   27.55
  -9  -5  -7   -3.91   15.64
  -9  -5  -7   -1.37   14.57
   9   5   7    5.12   12.84
   9   5   7   10.40   13.25
 -10  -5  -7   67.58   17.16
 -10  -5  -7   91.29   24.57
  10   5   7   89.11   21.01
  10   5   7   60.51   23.66
   7  -6  -7  238.95   25.92
   7  -6  -7  265.47   30.11
  -7   6   7  276.15   29.94
  -7   6   7  277.11   33.94
   6  -6  -7   13.06   12.45
   6  -6  -7   -3.06    8.97
   6  -6  -7    7.78   10.70
  -6   6   7    2.08   10.63
  -6   6   7   12.85   10.17
   5  -6  -7  561.54   37.07
   5  -6  -7  571.13   36.38
  -5   6   7  588.47   39.48
  -5   6   7  572.37   43.08
  -5   6   7  628.26   42.43
   4  -6  -7   -3.96    8.85
   4  -6  -7   -7.13    6.92
  -4   6   7    2.83   10.08
  -4   6   7    3.44    9.59
  -4   6   7    0.65    8.54
   3  -6  -7 1103.81   58.68
   3  -6  -7 1173.33   61.16
   3  -6  -7 1081.15   59.25
  -3   6   7 1030.52   62.97
  -3   6   7 1070.39   62.79
  -3   6   7 1023.70   60.42
   2  -6  -7   64.10   10.51
   2  -6  -7   59.23   12.41
   2  -6  -7   62.68   11.59
  -2   6   7   56.84   12.99
  -2   6   7   62.05   14.14
  -2   6   7   70.30   11.80
   1  -6  -7 1334.21   71.85
   1  -6  -7 1402.57   72.28
   1  -6  -7 1391.27   74.42
  -1   6   7 1346.30   73.94
  -1   6   7 1307.96   75.01
  -1   6   7 1338.09   73.36
   0  -6  -7   -9.18    6.22
   0  -6  -7    0.50    7.40
   0  -6  -7   15.72    9.16
   0   6   7  -13.23    7.48
   0   6   7   -7.50    7.54
  -1  -6  -7 1246.39   69.10
  -1  -6  -7 1251.62   68.93
   1   6   7 1357.96   70.47
   1   6   7 1222.27   68.54
   1   6   7 1319.55   69.35
  -2  -6  -7   -0.26    5.89
  -2  -6  -7   11.25    8.88
  -2  -6  -7    7.64    7.59
  -2  -6  -7    3.01    2.66
  -2  -6  -7   -0.34    7.09
   2   6   7    5.24    8.06
   2   6   7    7.65    8.76
   2   6   7    0.74    8.60
  -3  -6  -7  833.32   45.20
  -3  -6  -7  794.00   43.44
  -3  -6  -7  572.45   43.94
  -3  -6  -7  848.62   47.89
   3   6   7  788.14   44.03
   3   6   7  720.78   42.79
   3   6   7  695.43   45.01
  -4  -6  -7   18.97    9.71
  -4  -6  -7   27.77    8.78
  -4  -6  -7   17.52    7.40
   4   6   7   25.24    8.41
   4   6   7   22.39    9.72
   4   6   7   13.86    7.67
  -5  -6  -7  490.73   32.70
  -5  -6  -7  512.57   31.81
  -5  -6  -7  469.32   39.12
   5   6   7  473.23   33.47
   5   6   7  478.62   34.94
   5   6   7  502.53   30.29
  -6  -6  -7   -9.32    8.30
  -6  -6  -7    2.77    7.79
  -6  -6  -7    5.14    7.92
   6   6   7   -0.12   13.52
   6   6   7   -5.37   10.11
  -7  -6  -7  227.75   25.43
  -7  -6  -7  239.44   28.58
   7   6   7  243.73   25.22
   7   6   7  202.96   26.29
  -8  -6  -7   -7.75   10.28
  -8  -6  -7   26.32   14.43
   8   6   7   -4.07   13.35
   8   6   7    0.90   11.57
  -9  -6  -7  103.83   20.67
  -9  -6  -7   97.00   23.65
   9   6   7   82.18   20.82
   9   6   7   76.45   19.76
   7  -7  -7   -0.95   14.03
   7  -7  -7   22.33   17.83
  -7   7   7    7.12   18.71
  -7   7   7   12.74   16.34
   6  -7  -7  301.48   26.22
   6  -7  -7  332.98   31.36
   6  -7  -7  279.78   26.58
  -6   7   7  279.29   33.47
  -6   7   7  237.13   28.68
   5  -7  -7   -6.17   10.65
   5  -7  -7    8.82   11.19
  -5   7   7    2.77   12.31
  -5   7   7    0.52   13.20
  -5   7   7   -4.79    9.43
   4  -7  -7  590.10   37.89
   4  -7  -7  577.57   39.67
  -4   7   7  659.53   41.28
  -4   7   7  553.17   41.00
  -4   7   7  654.67   42.98
   3  -7  -7   14.25    8.71
   3  -7  -7    0.86    9.35
  -3   7   7    4.53    9.61
  -3   7   7   -3.95   10.23
  -3   7   7    2.50    7.83
   2  -7  -7 1456.80   80.35
   2  -7  -7 1379.31   75.46
   2  -7  -7 1523.60   77.83
  -2   7   7 1443.26   78.57
  -2   7   7 1375.56   77.81
  -2   7   7 1426.43   80.19
   1  -7  -7    2.58    9.91
   1  -7  -7    0.74    8.66
   1  -7  -7    7.26    8.46
  -1   7   7    7.85    8.04
  -1   7   7    4.92    8.29
  -1   7   7   -3.01    8.86
   0  -7  -7  727.17   43.40
   0  -7  -7  742.06   46.22
   0  -7  -7  730.38   44.17
   0   7   7  863.73   47.63
   0   7   7  735.70   45.38
  -1  -7  -7  -14.80    7.24
  -1  -7  -7    9.25    8.72
   1   7   7    4.73    8.67
   1   7   7  -11.74    8.90
  -2  -7  -7  787.64   45.69
  -2  -7  -7  737.80   44.73
  -2  -7  -7  748.08   47.43
   2   7   7  713.71   44.31
   2   7   7  777.16   45.78
  -3  -7  -7    5.91    8.49
  -3  -7  -7    0.97    8.78
  -3  -7  -7   -0.13   10.10
   3   7   7  -16.59    8.42
   3   7   7   16.10    8.36
   3   7   7   -2.30    6.45
  -4  -7  -7  516.86   35.75
  -4  -7  -7  616.85   37.72
  -4  -7  -7  578.00   41.07
   4   7   7  585.86   39.92
   4   7   7  543.12   34.01
   4   7   7  633.26   37.53
  -5  -7  -7    5.32   13.11
  -5  -7  -7  -14.19    7.29
  -5  -7  -7   11.45   11.34
   5   7   7   -8.50    7.04
   5   7   7   -1.09   10.78
  -6  -7  -7  322.55   32.79
  -6  -7  -7  373.83   31.96
  -6  -7  -7  333.15   28.24
   6   7   7  268.18   28.29
   6   7   7  333.89   32.66
  -7  -7  -7    2.15   14.97
  -7  -7  -7   -2.79   11.67
   7   7   7   14.78   15.77
   7   7   7   19.55   13.12
  -8  -7  -7  108.22   20.82
  -8  -7  -7   93.73   19.81
   8   7   7   82.06   21.87
   8   7   7   98.03   20.34
  -9  -7  -7    3.99   13.65
  -9  -7  -7    4.33   20.24
   9   7   7  -10.16   14.97
   6  -8  -7    5.34   14.42
   6  -8  -7    0.32   13.45
  -6   8   7   -0.68   16.91
  -6   8   7   -1.49   10.24
   5  -8  -7  388.83   34.63
   5  -8  -7  445.58   34.42
  -5   8   7  441.15   38.04
  -5   8   7  311.57   35.02
  -5   8   7  489.64   42.54
   4  -8  -7   18.27   13.38
   4  -8  -7   -3.64   10.49
  -4   8   7   12.98   12.47
  -4   8   7   26.47   12.76
  -4   8   7   -6.82   11.58
   3  -8  -7  448.11   32.19
   3  -8  -7  436.02   40.43
  -3   8   7  511.60   36.01
  -3   8   7  518.83   39.70
  -3   8   7  564.85   37.74
   2  -8  -7   -4.15    8.02
   2  -8  -7    2.82    9.64
  -2   8   7    8.95    9.95
  -2   8   7   -5.95   10.68
  -2   8   7   -9.30    9.70
   1  -8  -7  734.96   39.84
   1  -8  -7  536.35   35.78
   1  -8  -7  564.89   40.22
  -1   8   7  665.64   39.84
  -1   8   7  589.99   41.12
  -1   8   7  671.62   39.87
   0  -8  -7    5.50   10.21
   0  -8  -7    9.33    8.78
   0  -8  -7   -9.12    8.02
   0   8   7    3.00    8.13
   0   8   7    2.09   10.61
   0   8   7   15.44   11.49
  -1  -8  -7  654.39   43.06
  -1  -8  -7  701.68   42.68
   1   8   7  626.92   41.85
   1   8   7  685.12   42.34
  -2  -8  -7    1.59   10.27
  -2  -8  -7    1.46    9.28
  -2  -8  -7   38.75   12.93
   2   8   7    4.74    8.81
   2   8   7    9.58    8.76
  -3  -8  -7  493.86   35.52
  -3  -8  -7  524.13   37.71
  -3  -8  -7  529.94   35.30
   3   8   7  503.31   32.75
   3   8   7  546.62   35.15
  -4  -8  -7   -7.13   13.08
  -4  -8  -7    4.47   10.19
  -4  -8  -7    6.99    8.52
   4   8   7    2.45    8.93
  -5  -8  -7  302.00   32.22
  -5  -8  -7  298.25   29.79
  -5  -8  -7  277.30   26.59
   5   8   7  304.62   29.32
  -6  -8  -7   -0.62   11.45
  -6  -8  -7  -10.38   11.87
  -6  -8  -7   -9.74   10.06
   6   8   7   25.39   14.12
  -7  -8  -7  148.79   24.04
  -7  -8  -7  170.32   22.44
   7   8   7  174.08   24.17
  -8  -8  -7    8.10   14.04
  -8  -8  -7    4.10   11.64
   8   8   7    0.21   15.67
   8   8   7   -6.98   14.49
   5  -9  -7  -15.10   13.32
   5  -9  -7   -2.70   12.69
  -5   9   7   12.42   17.46
  -5   9   7    6.91   10.98
   4  -9  -7  419.64   35.75
  -4   9   7  438.16   40.82
  -4   9   7  397.96   36.27
   3  -9  -7    1.79   10.59
   3  -9  -7  -11.35   11.05
  -3   9   7   10.00   11.78
  -3   9   7   -6.22    9.18
  -3   9   7   -5.72   11.82
   2  -9  -7  574.72   37.61
   2  -9  -7  534.72   40.71
  -2   9   7  545.24   43.91
  -2   9   7  469.89   36.64
  -2   9   7  565.28   38.55
   1  -9  -7  -10.91   11.49
   1  -9  -7   -2.98   11.01
  -1   9   7   -0.62    8.45
  -1   9   7   -2.52   11.56
  -1   9   7   -9.67   10.60
   0  -9  -7  578.58   38.72
   0  -9  -7  595.96   39.84
   0  -9  -7  631.48   42.63
   0   9   7  619.00   40.29
   0   9   7  657.63   41.21
   0   9   7  532.91   36.87
  -1  -9  -7    7.05    9.21
  -1  -9  -7  -14.20   10.49
  -1  -9  -7   16.04   12.52
   1   9   7   12.84    9.05
   1   9   7   -0.28   10.01
  -2  -9  -7  579.33   42.66
  -2  -9  -7  535.37   37.53
  -2  -9  -7  520.00   36.67
   2   9   7  561.13   36.70
   2   9   7  554.84   38.06
  -3  -9  -7   13.68    9.83
  -3  -9  -7   13.08   11.41
  -3  -9  -7  -14.82   11.32
   3   9   7    7.55   12.14
  -4  -9  -7  344.50   32.72
  -4  -9  -7  309.63   35.38
  -4  -9  -7  393.85   33.32
   4   9   7  344.41   31.58
  -5  -9  -7   -9.43   12.07
  -5  -9  -7   -6.86   15.87
  -5  -9  -7  -13.28    8.92
   5   9   7   17.46   12.93
  -6  -9  -7  187.01   24.06
  -6  -9  -7  184.26   27.24
   6   9   7  160.77   23.02
  -7  -9  -7   -8.60   12.38
  -7  -9  -7   17.91   16.68
   7   9   7    5.95   14.23
   4 -10  -7   -8.33   12.65
  -4  10   7    9.16   16.20
  -4  10   7  -10.67   12.93
   3 -10  -7  462.75   38.00
   3 -10  -7  367.10   39.34
  -3  10   7  448.08   38.36
  -3  10   7  417.97   38.74
   2 -10  -7   15.10   13.39
   2 -10  -7   -3.43   10.68
  -2  10   7   -3.01    9.55
  -2  10   7   -4.04    9.82
   1 -10  -7  568.81   43.41
   1 -10  -7  595.80   39.14
  -1  10   7  533.30   43.23
  -1  10   7  574.53   40.16
   0 -10  -7   12.28   12.38
   0 -10  -7   -7.46   13.43
   0  10   7   -9.54   10.96
   0  10   7    3.33   12.50
  -1 -10  -7  435.77   36.91
  -1 -10  -7  398.91   36.47
   1  10   7  411.73   34.19
   1  10   7  453.27   36.17
  -2 -10  -7  -18.39   13.48
  -2 -10  -7   -7.28   12.63
  -2 -10  -7  -27.27   12.48
   2  10   7   -7.46    8.63
   2  10   7   12.95   10.34
  -3 -10  -7  314.59   31.62
  -3 -10  -7  281.30   31.44
  -3 -10  -7  294.78   33.12
   3  10   7  280.06   28.06
  -4 -10  -7   -5.67   16.18
  -4 -10  -7   -9.96    9.94
  -4 -10  -7    3.37   13.82
   4  10   7  -24.32   11.46
  -5 -10  -7  272.58   28.99
  -5 -10  -7  188.34   26.77
  -5 -10  -7  193.10   28.58
   5  10   7  214.70   25.18
  -6 -10  -7  -19.75   18.48
  -6 -10  -7   -1.04   11.98
   6  10   7   14.16   15.12
   3 -11  -7    3.86   17.13
   3 -11  -7    5.38   14.50
  -3  11   7   -4.37   11.16
  -3  11   7  -14.37   15.95
   2 -11  -7  361.90   34.94
   2 -11  -7  326.94   35.73
  -2  11   7  325.88   35.64
  -2  11   7  375.98   35.77
   1 -11  -7  -41.25   13.54
   1 -11  -7   -2.01   13.15
  -1  11   7   -0.26    9.96
  -1  11   7   19.49   15.05
   0 -11  -7  262.91   30.20
   0 -11  -7  345.63   33.89
   0  11   7  270.67   29.52
   0  11   7  253.36   28.54
  -1 -11  -7    4.06   12.78
  -1 -11  -7    2.61   16.68
   1  11   7  -10.31   11.57
   1  11   7   23.64   15.24
  -2 -11  -7  231.41   31.06
  -2 -11  -7  270.64   30.25
   2  11   7  312.84   31.16
  -3 -11  -7   -7.73   11.79
  -3 -11  -7   10.43   13.86
  -3 -11  -7   22.03   16.11
   3  11   7   19.18   15.23
  -4 -11  -7  220.59   31.22
  -4 -11  -7  208.51   29.70
  -4 -11  -7  246.23   28.73
   4  11   7  216.03   25.42
  -5 -11  -7   -2.47   12.05
  -5 -11  -7  -23.20   17.00
  -5 -11  -7   -4.24   14.21
   5  11   7    3.08   15.38
   1 -12  -7  203.99   30.99
   1 -12  -7  268.04   30.82
  -1  12   7  193.28   27.44
  -1  12   7  284.99   30.68
   0 -12  -7  -14.13   17.01
   0 -12  -7   29.43   17.86
   0  12   7  -27.74   13.05
  -1 -12  -7  208.06   28.48
  -1 -12  -7  247.63   32.35
   1  12   7  256.14   29.78
  -2 -12  -7    3.44   15.73
  -2 -12  -7   -4.93   12.91
   2  12   7   -3.53   15.48
  -3 -12  -7  223.40   30.28
   3  12   7  222.83   28.72
   2  11  -8   -3.85   14.69
   2  11  -8   -9.12   15.17
  -2 -11   8   17.98   14.03
   1  11  -8  259.61   30.36
   1  11  -8  295.25   30.90
  -1 -11   8  296.49   35.15
   0  11  -8    1.87   14.32
   0  11  -8    7.11   14.09
   0 -11   8  -14.82   10.45
  -1  11  -8  265.94   28.03
  -1  11  -8  234.13   27.58
   1 -11   8  253.40   32.07
  -2  11  -8   23.73   15.19
  -2  11  -8  -17.05   14.43
   2 -11   8  -19.82   16.22
  -3  11  -8  179.77   26.70
  -3  11  -8  188.34   25.59
  -3  11  -8  214.01   25.11
   3 -11   8  235.25   30.90
   3 -11   8  195.43   30.33
  -4  11  -8    5.32   11.45
  -4  11  -8  -13.96   14.71
   4 -11   8  -19.16   18.17
   4 -11   8   12.12   19.76
   4  10  -8  253.70   28.77
   4  10  -8  269.51   33.28
   4  10  -8  177.29   27.60
  -4 -10   8  276.04   35.51
   3  10  -8   12.96   16.41
   3  10  -8  -17.04    8.66
   3  10  -8   -6.01   13.14
  -3 -10   8   21.49   13.47
   2  10  -8  375.70   36.41
   2  10  -8  404.81   36.91
  -2 -10   8  464.49   42.01
   1  10  -8   27.54   14.35
   1  10  -8   -6.62   11.85
   1  10  -8   -7.01   10.98
  -1 -10   8   26.66   15.91
   0  10  -8  449.39   36.12
   0  10  -8  426.13   36.95
   0  10  -8  420.36   37.37
   0 -10   8  458.16   39.99
  -1  10  -8   -9.40    8.28
  -1  10  -8   -2.33    9.90
  -1  10  -8    2.34   11.29
   1 -10   8  -12.58   13.46
  -2  10  -8  354.44   31.36
  -2  10  -8  343.69   31.92
  -2  10  -8  336.48   33.26
   2 -10   8  305.90   32.60
  -3  10  -8   19.52   13.50
  -3  10  -8  -13.52   10.24
  -3  10  -8  -21.26   12.18
   3 -10   8  -15.24   13.84
   3 -10   8   17.84   17.31
   3 -10   8  -15.94   12.15
  -4  10  -8  251.37   29.03
  -4  10  -8  210.47   27.15
   4 -10   8  216.14   25.41
   4 -10   8  271.76   32.20
   4 -10   8  317.25   35.56
  -5  10  -8   -1.58   14.47
  -5  10  -8   11.97   15.23
   5 -10   8  -14.32   16.24
   5 -10   8    9.96   14.56
  -6  10  -8  136.42   23.14
  -6  10  -8  111.71   22.43
   6 -10   8  110.47   21.93
   6 -10   8  124.11   23.79
   5   9  -8  263.87   33.61
   5   9  -8  272.18   29.22
   5   9  -8  263.53   31.94
  -5  -9   8  254.39   30.79
  -5  -9   8  194.21   31.43
   4   9  -8   17.05   14.98
   4   9  -8    3.31   11.77
   4   9  -8    7.61   12.68
  -4  -9   8    3.54   13.82
  -4  -9   8   -1.46   11.52
   3   9  -8  309.05   31.52
   3   9  -8  249.46   27.67
   3   9  -8  288.10   28.60
  -3  -9   8  256.32   26.45
  -3  -9   8  312.35   34.00
   2   9  -8  -10.48    7.46
   2   9  -8   -0.80   10.93
   2   9  -8  -13.04   11.36
  -2  -9   8   -2.40   12.63
   1   9  -8  583.58   37.95
   1   9  -8  599.54   38.75
   1   9  -8  560.26   38.92
  -1  -9   8  455.01   51.89
  -1  -9   8  502.28   38.51
   0   9  -8    6.11   10.84
   0   9  -8   13.06   12.92
   0   9  -8  -12.42   10.46
   0  -9   8   -3.69   15.12
   0  -9   8    2.30    8.84
  -1   9  -8  598.22   39.15
  -1   9  -8  572.88   38.64
  -1   9  -8  495.06   37.10
   1  -9   8  637.70   42.50
   1  -9   8  582.82   50.64
  -2   9  -8    9.17    8.51
  -2   9  -8    5.69   11.35
  -2   9  -8    1.30   11.69
   2  -9   8   -1.17   12.31
   2  -9   8    8.79   16.87
  -3   9  -8  292.66   28.07
  -3   9  -8  438.63   34.29
  -3   9  -8  321.16   31.63
   3  -9   8  398.00   35.14
   3  -9   8  257.61   39.85
   3  -9   8  319.10   27.66
   3  -9   8  358.55   34.88
  -4   9  -8    4.05   12.23
  -4   9  -8   -0.67   11.59
  -4   9  -8   16.76   12.16
   4  -9   8    5.24   13.89
   4  -9   8   -8.94    8.71
   4  -9   8    2.66   10.20
  -5   9  -8  207.41   25.12
  -5   9  -8  223.50   27.48
   5  -9   8  263.15   30.01
   5  -9   8  183.83   21.71
  -6   9  -8   -9.13   10.66
  -6   9  -8   -0.32   10.14
  -6   9  -8   -2.81   13.18
   6  -9   8    6.09   13.03
   6  -9   8   18.42   17.76
  -7   9  -8  118.83   17.76
  -7   9  -8  127.32   21.83
  -7   9  -8  145.55   25.27
   7  -9   8  103.33   25.82
   7  -9   8  129.80   22.48
   6   8  -8  253.10   30.23
   6   8  -8  238.08   34.05
  -6  -8   8  237.83   33.63
  -6  -8   8  254.89   31.88
   5   8  -8   -4.52    9.65
   5   8  -8    1.52   16.52
   5   8  -8   -7.76   11.68
  -5  -8   8   11.52   14.82
  -5  -8   8   29.38   14.19
   4   8  -8  368.21   34.74
   4   8  -8  376.00   38.17
   4   8  -8  437.09   35.04
  -4  -8   8  369.58   33.97
  -4  -8   8  401.40   38.65
   3   8  -8   -5.34   11.98
   3   8  -8   12.50   12.71
   3   8  -8    7.94   11.63
  -3  -8   8    2.63   17.65
  -3  -8   8   26.07   11.18
  -3  -8   8   -4.12    8.93
   2   8  -8  477.77   37.03
   2   8  -8  449.14   35.18
   2   8  -8  455.29   37.17
   2   8  -8  357.51   31.00
  -2  -8   8  371.69   28.06
  -2  -8   8  399.28   40.71
  -2  -8   8  388.68   35.05
   1   8  -8    3.40   10.32
   1   8  -8   19.71   11.82
   1   8  -8    9.53    8.55
  -1  -8   8   -4.55   10.90
  -1  -8   8   10.92   11.90
   0   8  -8  548.08   36.09
   0   8  -8  581.07   37.34
   0   8  -8  534.38   36.09
   0  -8   8  567.42   37.26
   0  -8   8  458.33   43.75
  -1   8  -8  -14.28    9.30
  -1   8  -8    7.47    7.95
  -1   8  -8    0.05    9.67
   1  -8   8    9.84   10.74
   1  -8   8    8.90   10.49
  -2   8  -8  593.41   39.33
  -2   8  -8  564.16   38.83
  -2   8  -8  709.15   40.43
   2  -8   8  596.43   36.30
   2  -8   8  618.28   46.05
   2  -8   8  575.73   40.66
  -3   8  -8    3.14   10.64
  -3   8  -8   -4.36    9.44
  -3   8  -8    5.40    9.26
   3  -8   8   -0.75   14.79
   3  -8   8  -22.33    9.62
   3  -8   8    5.28    8.66
   3  -8   8    6.17    9.00
  -4   8  -8  360.21   29.20
  -4   8  -8  427.20   35.21
  -4   8  -8  386.27   32.05
  -4   8  -8  369.94   23.69
   4  -8   8  324.20   36.86
   4  -8   8  403.78   33.52
   4  -8   8  407.88   37.69
   4  -8   8  383.68   26.74
  -5   8  -8   -4.23   11.36
  -5   8  -8   10.12   11.49
  -5   8  -8    3.32    8.25
   5  -8   8    4.20    7.74
   5  -8   8   12.88   13.20
   5  -8   8   15.99   15.17
  -6   8  -8  170.31   24.47
  -6   8  -8  177.45   22.90
   6  -8   8  224.31   24.31
   6  -8   8  202.23   26.05
  -7   8  -8   17.97   13.71
  -7   8  -8   -2.62   10.70
   7  -8   8   -0.49   12.93
   7  -8   8    7.08   16.65
  -8   8  -8   71.09   17.11
  -8   8  -8   87.64   19.14
   8  -8   8   93.79   20.04
   8  -8   8   71.32   23.60
   6   7  -8   -9.76   13.02
   6   7  -8    3.44   12.15
  -6  -7   8  -17.95   14.26
  -6  -7   8   -4.51   11.36
   5   7  -8  555.16   38.69
   5   7  -8  509.04   35.85
   5   7  -8  512.91   43.85
  -5  -7   8  482.43   41.23
  -5  -7   8  390.20   40.99
   4   7  -8    7.87    9.06
   4   7  -8    8.42   14.12
   4   7  -8  -11.64    9.93
  -4  -7   8  -11.03    7.60
  -4  -7   8    6.94   12.57
   3   7  -8  633.37   40.34
   3   7  -8  582.92   42.75
   3   7  -8  659.51   40.95
  -3  -7   8  524.53   48.45
  -3  -7   8  562.65   40.93
  -3  -7   8  662.10   39.98
   2   7  -8   19.74    9.01
   2   7  -8   40.95   12.66
   2   7  -8   34.47   10.57
   2   7  -8   30.88   13.89
  -2  -7   8   13.46    9.04
  -2  -7   8   28.38   13.33
  -2  -7   8    6.11   11.55
   1   7  -8  781.87   51.08
   1   7  -8  919.65   51.87
   1   7  -8  850.55   51.86
  -1  -7   8  921.53   58.15
  -1  -7   8  889.13   49.19
  -1  -7   8  925.10   53.22
   0   7  -8   12.62   10.73
   0   7  -8    2.71    7.87
   0   7  -8    6.99    7.33
   0  -7   8    1.88    6.10
   0  -7   8   10.33   14.15
   0  -7   8   20.01   11.09
  -1   7  -8  912.62   48.39
  -1   7  -8  757.91   46.37
  -1   7  -8  782.13   47.11
   1  -7   8  758.36   47.18
   1  -7   8  779.81   43.23
   1  -7   8  717.45   50.34
  -2   7  -8   20.21    6.91
  -2   7  -8   17.79    9.76
  -2   7  -8   -4.93    6.90
  -2   7  -8   -9.60    8.80
   2  -7   8   17.65    7.54
   2  -7   8   20.92    9.95
   2  -7   8    1.05   12.40
   2  -7   8    6.98    8.75
  -3   7  -8  505.99   33.39
  -3   7  -8  488.63   33.44
  -3   7  -8  471.63   35.22
  -3   7  -8  570.62   30.60
   3  -7   8  469.84   34.95
   3  -7   8  511.39   31.72
   3  -7   8  479.65   36.31
   3  -7   8  576.81   39.73
  -4   7  -8    5.02    6.37
  -4   7  -8    8.91   10.37
  -4   7  -8   -7.38   10.89
   4  -7   8   -5.96   10.49
   4  -7   8  -18.73   12.97
   4  -7   8    5.65    8.89
   4  -7   8   13.39    9.12
  -5   7  -8  399.73   28.70
  -5   7  -8  423.40   26.49
  -5   7  -8  364.93   33.03
   5  -7   8  415.70   30.13
   5  -7   8  387.67   31.26
   5  -7   8  408.21   37.33
   5  -7   8  394.01   39.22
  -6   7  -8  -11.11    9.03
  -6   7  -8   -9.89    9.36
   6  -7   8   -2.68   13.83
   6  -7   8    3.89    8.19
   6  -7   8   -9.63   16.92
  -7   7  -8  166.19   19.33
  -7   7  -8  168.89   20.38
   7  -7   8  170.23   27.04
   7  -7   8  203.19   23.95
  -8   7  -8    1.43   11.50
   8  -7   8   -0.96   17.13
   8  -7   8   16.08   11.24
   7   6  -8    6.58   15.50
   7   6  -8   -7.77   14.63
   7   6  -8  -11.23   10.97
  -7  -6   8    4.78   12.58
  -7  -6   8    2.13   11.79
   6   6  -8  376.70   32.86
   6   6  -8  298.75   32.37
   6   6  -8  316.98   31.43
  -6  -6   8  351.59   33.56
  -6  -6   8  230.31   31.65
   5   6  -8    2.37   12.00
   5   6  -8   10.70   10.57
   5   6  -8   -9.02   10.75
   5   6  -8   -9.30    9.83
  -5  -6   8   -7.71   13.24
  -5  -6   8   -0.43   12.08
   4   6  -8  525.01   36.68
   4   6  -8  534.38   36.57
   4   6  -8  484.23   41.85
  -4  -6   8  670.36   39.56
  -4  -6   8  529.95   39.94
   3   6  -8   -6.55    7.98
   3   6  -8    5.11    7.09
   3   6  -8    8.91    8.50
  -3  -6   8    3.30    8.29
  -3  -6   8    8.99    9.68
  -3  -6   8   10.19    9.93
  -3  -6   8    8.23    8.16
   2   6  -8 1161.72   67.90
   2   6  -8 1302.30   70.96
   2   6  -8 1404.49   70.30
   2   6  -8 1229.70   67.50
  -2  -6   8 1139.05   68.95
  -2  -6   8 1132.15   64.25
  -2  -6   8 1206.26   72.63
  -2  -6   8 1261.22   66.72
   1   6  -8    8.59    8.46
   1   6  -8    1.18    9.55
   1   6  -8    4.63    9.69
   1   6  -8   -4.46    8.87
  -1  -6   8   -6.02    7.82
  -1  -6   8   -2.75    5.63
  -1  -6   8  -16.06    5.87
  -1  -6   8   13.06    9.61
   0   6  -8 1001.98   57.54
   0   6  -8 1150.98   58.15
   0   6  -8  954.23   56.46
   0   6  -8  963.57   55.18
   0  -6   8 1026.83   53.91
   0  -6   8 1086.07   62.65
   0  -6   8  947.05   53.13
   0  -6   8 1070.22   56.69
   0  -6   8  959.06   57.08
  -1   6  -8    0.05    8.82
  -1   6  -8    6.04    6.19
  -1   6  -8   -3.98    4.42
  -1   6  -8    3.40    8.21
   1  -6   8   -2.42    4.14
   1  -6   8  -11.00    6.57
   1  -6   8   -0.20    5.21
   1  -6   8    6.67    7.43
  -2   6  -8  767.57   47.69
  -2   6  -8  782.99   48.84
  -2   6  -8  819.12   47.00
  -2   6  -8  864.15   45.94
   2  -6   8  817.12   52.75
   2  -6   8  828.46   50.34
   2  -6   8  839.26   48.11
   2  -6   8  817.32   44.72
  -3   6  -8    2.06   10.05
  -3   6  -8    1.69    5.65
  -3   6  -8    1.66    6.34
  -3   6  -8   -4.07    3.43
  -3   6  -8    7.49    7.74
   3  -6   8   13.75    6.96
   3  -6   8   -5.97    7.62
   3  -6   8  -10.97    7.00
   3  -6   8   -7.23   11.14
  -4   6  -8  672.42   41.38
  -4   6  -8  722.68   43.76
  -4   6  -8  657.51   38.05
  -4   6  -8  616.88   36.51
   4  -6   8  655.17   39.42
   4  -6   8  794.12   45.56
   4  -6   8  643.59   40.39
   4  -6   8  734.58   46.81
  -5   6  -8   -1.28    6.32
  -5   6  -8    5.09    8.81
  -5   6  -8   14.07    9.11
   5  -6   8    3.89    8.27
   5  -6   8    0.25   11.46
   5  -6   8   -0.79   10.03
   5  -6   8   -2.29    8.41
  -6   6  -8  352.50   26.17
  -6   6  -8  336.09   27.75
   6  -6   8  410.23   34.81
   6  -6   8  239.17   32.90
   6  -6   8  347.29   28.45
  -7   6  -8   -1.28    9.90
  -7   6  -8    4.56    9.12
   7  -6   8   21.99    9.25
   7  -6   8   18.11   14.94
  -8   6  -8  101.80   16.66
   8  -6   8   99.04   21.99
   8  -6   8  128.33   19.63
  -9   6  -8   22.66   13.99
   9  -6   8   -0.33   14.58
   9  -6   8   -3.26   18.84
   7   5  -8  323.58   32.37
   7   5  -8  263.68   28.02
   7   5  -8  269.12   31.69
  -7  -5   8  292.79   33.18
   6   5  -8  -18.05    8.75
   6   5  -8   11.51   11.00
   6   5  -8    9.62   12.68
  -6  -5   8   13.72   14.50
  -6  -5   8    0.19   12.29
   5   5  -8  599.67   39.90
   5   5  -8  567.16   40.63
   5   5  -8  575.58   40.75
  -5  -5   8  547.08   37.91
  -5  -5   8  651.37   42.26
   4   5  -8   10.43    7.98
   4   5  -8    2.54    8.53
   4   5  -8   -7.49   10.77
   4   5  -8   -6.20    5.91
  -4  -5   8    5.77    9.86
  -4  -5   8  -15.50    6.68
  -4  -5   8    1.45    8.60
   3   5  -8  531.44   37.13
   3   5  -8  541.12   38.76
   3   5  -8  619.63   38.15
   3   5  -8  577.11   36.86
  -3  -5   8  657.03   37.12
  -3  -5   8  584.97   38.06
  -3  -5   8  627.51   36.37
  -3  -5   8  605.48   38.91
   2   5  -8   -1.98    5.89
   2   5  -8   17.21   11.05
   2   5  -8   13.82   10.54
   2   5  -8    6.61    6.65
  -2  -5   8    2.70    6.98
  -2  -5   8    9.27    7.12
  -2  -5   8   21.48   12.01
  -2  -5   8   14.30    7.82
   1   5  -8 1168.73   64.61
   1   5  -8 1117.40   64.45
   1   5  -8 1222.77   63.27
   1   5  -8 1167.96   62.93
   1   5  -8 1073.39   62.86
  -1  -5   8 1061.44   65.67
  -1  -5   8 1090.61   62.79
  -1  -5   8 1142.72   61.24
  -1  -5   8 1214.31   61.39
   0   5  -8   11.44    6.51
   0   5  -8   -2.72    6.38
   0   5  -8   11.40    6.51
   0   5  -8    4.93    8.74
   0  -5   8    7.59   11.28
   0  -5   8   12.04    5.24
   0  -5   8    9.50    4.27
   0  -5   8   13.22    7.15
  -1   5  -8 1185.43   64.54
  -1   5  -8 1097.04   62.95
  -1   5  -8 1058.56   63.18
  -1   5  -8 1196.38   62.48
   1  -5   8 1137.35   67.15
   1  -5   8 1224.20   59.23
   1  -5   8 1132.24   59.46
   1  -5   8 1215.65   63.11
  -2   5  -8   -1.46    5.27
  -2   5  -8   -5.23    7.18
  -2   5  -8   -6.37    7.63
  -2   5  -8    4.60    6.28
   2  -5   8    4.24    7.31
   2  -5   8   -1.10    5.31
   2  -5   8    1.70    6.98
   2  -5   8    2.49   10.13
   2  -5   8    1.17    4.50
  -3   5  -8  977.76   51.80
  -3   5  -8  828.77   49.55
  -3   5  -8  878.58   44.85
  -3   5  -8  879.02   48.39
   3  -5   8  867.95   54.38
   3  -5   8  880.47   48.83
   3  -5   8  878.07   47.51
   3  -5   8  822.07   51.81
  -4   5  -8   -1.63    6.45
  -4   5  -8   -1.98    7.46
  -4   5  -8   -4.40    4.94
  -4   5  -8   -5.01    4.92
   4  -5   8   -0.94    6.01
   4  -5   8    7.64   10.23
   4  -5   8    3.80    6.24
   4  -5   8    4.19    8.86
  -5   5  -8  542.80   29.72
  -5   5  -8  503.27   30.78
  -5   5  -8  458.66   29.03
   5  -5   8  435.41   28.68
   5  -5   8  532.74   35.14
   5  -5   8  445.89   35.28
   5  -5   8  466.20   30.82
  -6   5  -8   12.94    7.06
  -6   5  -8    6.87    6.13
  -6   5  -8    5.97    7.42
   6  -5   8   27.87   10.30
   6  -5   8  -30.18   11.00
   6  -5   8    1.63   11.27
  -7   5  -8  309.45   25.48
  -7   5  -8  285.91   24.49
   7  -5   8  307.84   32.07
   7  -5   8  319.28   28.06
   7  -5   8  254.06   32.43
  -8   5  -8  -12.26    9.71
   8  -5   8    3.07    8.69
   8  -5   8   23.08   12.37
  -9   5  -8  106.40   18.60
   9  -5   8   95.10   19.58
   9  -5   8  140.25   25.67
   8   4  -8  204.63   28.89
   8   4  -8  171.87   26.91
  -8  -4   8  254.99   33.63
   7   4  -8   19.49   16.55
   7   4  -8   -1.96   11.26
   7   4  -8   10.44   11.95
  -7  -4   8    5.92   11.66
   6   4  -8  383.78   32.66
   6   4  -8  380.76   36.31
   6   4  -8  476.38   37.06
  -6  -4   8  455.07   38.85
  -6  -4   8  438.44   36.61
   5   4  -8    0.73    8.23
   5   4  -8   19.40    8.45
   5   4  -8    0.94    8.51
  -5  -4   8    4.63    9.89
  -5  -4   8    0.18   11.23
   4   4  -8  782.35   48.84
   4   4  -8  767.27   46.33
   4   4  -8  760.40   46.28
  -4  -4   8  769.41   46.58
  -4  -4   8  755.17   44.88
  -4  -4   8  739.50   45.24
   3   4  -8   -6.24    9.39
   3   4  -8   -0.49    9.65
   3   4  -8   -8.40    7.48
   3   4  -8    1.57    5.83
  -3  -4   8  -11.77    6.36
  -3  -4   8   -9.34    4.91
  -3  -4   8   -0.54    7.06
   2   4  -8 1370.14   73.37
   2   4  -8 1209.97   73.60
   2   4  -8 1259.46   72.41
   2   4  -8 1430.66   72.92
   2   4  -8 1377.60   74.63
  -2  -4   8 1388.51   72.20
  -2  -4   8 1380.16   72.33
  -2  -4   8 1340.46   75.62
   1   4  -8   20.46    6.82
   1   4  -8   17.89    7.02
   1   4  -8   13.46    6.41
   1   4  -8   16.20    8.01
   1   4  -8   13.97    9.43
  -1  -4   8   16.33    6.50
  -1  -4   8   25.02    9.16
  -1  -4   8   19.69    8.08
  -1  -4   8   28.58    8.19
  -1  -4   8   18.99    3.41
   0   4  -8 1956.13   98.92
   0   4  -8 2018.23   97.49
   0   4  -8 1740.50   96.90
   0   4  -8 1874.41   97.18
   0  -4   8 1846.40   99.77
   0  -4   8 1921.34   92.39
   0  -4   8 1798.43   94.64
   0  -4   8 1807.12   96.38
  -1   4  -8    8.09    5.63
  -1   4  -8    6.70    6.36
  -1   4  -8   -0.42    7.00
  -1   4  -8    9.27    6.70
   1  -4   8   -5.79    4.76
   1  -4   8    3.37    3.61
   1  -4   8    6.62    4.03
   1  -4   8    6.72    6.94
   1  -4   8    0.20    7.76
  -2   4  -8  975.61   55.48
  -2   4  -8  973.75   53.59
  -2   4  -8  936.89   53.42
  -2   4  -8  981.87   53.38
   2  -4   8  955.58   50.79
   2  -4   8 1022.69   57.78
   2  -4   8  980.75   48.89
   2  -4   8  996.99   53.17
   2  -4   8  943.12   55.66
   2  -4   8  990.48   50.41
   2  -4   8  980.52   52.30
  -3   4  -8    5.64    8.28
  -3   4  -8   -5.30    3.36
  -3   4  -8   -1.31    5.91
  -3   4  -8   -5.61    6.41
   3  -4   8    1.82    9.70
   3  -4   8    6.09    5.38
   3  -4   8   -1.52    5.82
   3  -4   8    3.23    5.44
  -4   4  -8  803.13   45.90
  -4   4  -8  843.61   48.25
  -4   4  -8  824.79   46.26
  -4   4  -8  768.72   43.39
   4  -4   8  951.68   51.18
   4  -4   8  784.35   43.26
   4  -4   8  838.40   51.37
   4  -4   8  807.65   44.90
  -5   4  -8   17.94    6.70
  -5   4  -8    3.77    6.59
  -5   4  -8    3.49    6.92
   5  -4   8    6.75    7.72
   5  -4   8   -5.76   11.29
   5  -4   8    1.83    7.01
  -6   4  -8  447.39   29.71
  -6   4  -8  455.76   29.99
  -6   4  -8  515.45   30.36
   6  -4   8  473.31   31.68
   6  -4   8  497.44   34.61
   6  -4   8  468.00   35.65
  -7   4  -8    4.80    7.72
  -7   4  -8   -0.53    8.66
   7  -4   8   14.07   10.20
   7  -4   8  -17.53   10.62
   7  -4   8   -1.33    9.71
  -8   4  -8  198.50   21.31
   8  -4   8  235.94   28.14
   8  -4   8  173.57   20.65
  -9   4  -8    6.18   11.97
   9  -4   8    8.42   13.16
   9  -4   8    0.06    9.67
 -10   4  -8   62.83   17.30
  10  -4   8   42.08   14.11
  10  -4   8   52.65   22.68
   8   3  -8    4.37   18.25
   8   3  -8   18.48   16.65
  -8  -3   8   -0.76   16.72
   7   3  -8  260.74   25.95
   7   3  -8  272.11   29.81
   7   3  -8  267.42   31.57
  -7  -3   8  296.85   31.76
   6   3  -8   16.76   10.58
   6   3  -8    8.51   12.88
   6   3  -8   -0.94    6.74
  -6  -3   8    2.67    8.99
  -6  -3   8   -2.99    8.44
   5   3  -8  750.16   50.68
   5   3  -8  820.64   48.93
   5   3  -8  859.79   50.96
   5   3  -8  869.79   49.17
  -5  -3   8  902.12   51.80
  -5  -3   8  838.59   52.59
   4   3  -8   -1.60    8.28
   4   3  -8   -3.98    7.18
   4   3  -8   11.11    6.93
   4   3  -8   -5.24    9.85
  -4  -3   8    4.85    6.66
  -4  -3   8   -0.81    8.23
  -4  -3   8   -2.61    7.47
   3   3  -8 1152.45   60.94
   3   3  -8 1080.18   61.36
   3   3  -8 1041.03   62.29
   3   3  -8 1108.66   60.98
   3   3  -8 1027.84   59.22
  -3  -3   8 1134.80   60.83
  -3  -3   8 1107.70   61.22
   2   3  -8    0.20    5.51
   2   3  -8    7.26    7.82
   2   3  -8   -4.37    8.67
   2   3  -8    2.42    6.12
   2   3  -8    7.42    8.31
   2   3  -8    5.21    5.21
   2   3  -8   -0.57    6.27
  -2  -3   8   14.18    6.44
  -2  -3   8  -18.21    7.05
   1   3  -8 2118.36  109.84
   1   3  -8 2156.71  108.66
   1   3  -8 2142.97  107.37
   1   3  -8 2113.28  108.85
   1   3  -8 2157.92  109.92
   1   3  -8 2168.60  108.53
   1   3  -8 2046.95  108.39
  -1  -3   8 2296.49  109.43
  -1  -3   8 2107.52  102.36
  -1  -3   8 1912.87  102.30
  -1  -3   8 2086.12  110.36
   0   3  -8    5.82    6.59
   0   3  -8    4.30    4.97
   0   3  -8   -4.29    5.58
   0   3  -8   -2.62    6.31
   0   3  -8   -1.21    4.00
   0  -3   8    0.53    4.53
   0  -3   8   -1.81    2.11
   0  -3   8   -8.22    6.96
  -1   3  -8 1762.02   94.24
  -1   3  -8 1812.24   94.64
  -1   3  -8 1881.49   92.86
  -1   3  -8 1834.01   94.65
  -1   3  -8 1909.33   96.05
   1  -3   8 1833.35   92.89
   1  -3   8 1869.55   96.95
   1  -3   8 1764.25   90.77
   1  -3   8 1824.36   96.16
  -2   3  -8   -2.06    4.45
  -2   3  -8   10.92    7.96
  -2   3  -8   -1.19    3.99
  -2   3  -8    5.50    6.63
   2  -3   8    3.22    5.45
   2  -3   8    2.72    5.71
   2  -3   8   -0.65    4.23
   2  -3   8    3.55    4.47
  -3   3  -8 1261.66   66.44
  -3   3  -8 1200.26   63.32
  -3   3  -8 1257.09   63.41
  -3   3  -8 1311.38   67.21
  -3   3  -8 1242.34   68.53
   3  -3   8 1283.74   69.29
   3  -3   8 1414.48   71.24
   3  -3   8 1179.06   62.19
   3  -3   8 1284.84   65.17
  -4   3  -8   -2.11    5.28
  -4   3  -8    4.73    4.62
  -4   3  -8   -2.89    5.27
  -4   3  -8    5.29    6.55
   4  -3   8    4.78    6.03
   4  -3   8    1.59    9.90
   4  -3   8  -12.34    8.66
  -5   3  -8  644.90   36.26
  -5   3  -8  586.49   37.14
  -5   3  -8  658.31   36.90
   5  -3   8  648.85   40.81
   5  -3   8  666.67   37.91
   5  -3   8  618.34   42.24
  -6   3  -8   12.76    6.50
  -6   3  -8   -7.33    6.84
   6  -3   8   10.43    9.14
   6  -3   8    8.99    8.60
   6  -3   8    4.03   12.15
  -7   3  -8  341.78   26.20
  -7   3  -8  335.37   21.64
   7  -3   8  344.61   32.83
   7  -3   8  314.81   26.99
   7  -3   8  261.96   29.92
  -8   3  -8    7.46    9.41
   8  -3   8   20.85   14.66
   8  -3   8   15.28    9.10
   8  -3   8   -2.35   15.58
  -9   3  -8  155.68   21.86
   9  -3   8  185.26   22.17
   9  -3   8  177.56   27.55
 -10   3  -8  -12.33   13.21
  10  -3   8   29.39   15.37
  10  -3   8  -16.63   18.87
   8   2  -8  296.07   33.42
   8   2  -8  404.42   37.31
  -8  -2   8  340.20   37.72
   7   2  -8   -1.98   10.27
   7   2  -8  -15.69    8.85
  -7  -2   8  -22.41   12.57
   6   2  -8  598.99   38.38
   6   2  -8  584.92   35.84
   6   2  -8  534.39   42.37
   6   2  -8  548.04   35.26
  -6  -2   8  491.39   37.89
  -6  -2   8  504.49   35.98
  -6  -2   8  583.29   40.02
   5   2  -8    1.66   10.62
   5   2  -8    4.61    8.01
   5   2  -8   -2.71    9.82
   5   2  -8   -5.85    6.64
  -5  -2   8   -9.25    9.83
  -5  -2   8    2.54    8.80
  -5  -2   8    7.27    7.96
   4   2  -8  756.16   44.58
   4   2  -8  714.32   43.44
   4   2  -8  771.76   43.78
   4   2  -8  724.30   44.94
  -4  -2   8  729.19   44.42
  -4  -2   8  756.14   46.13
   3   2  -8    3.12    5.46
   3   2  -8  -16.57    7.55
   3   2  -8   -6.12    4.99
   3   2  -8   12.58    9.36
   3   2  -8   15.39    8.07
  -3  -2   8   -8.25    6.06
  -3  -2   8   13.96    9.12
   2   2  -8 1484.22   78.35
   2   2  -8 1466.68   76.85
   2   2  -8 1525.65   78.59
   2   2  -8 1611.16   77.73
   2   2  -8 1378.98   75.50
   2   2  -8 1392.32   76.32
   2   2  -8 1464.44   77.45
  -2  -2   8 1412.37   77.80
  -2  -2   8 1413.04   70.86
  -2  -2   8 1389.86   77.19
   1   2  -8   -6.70    4.57
   1   2  -8    5.82    5.09
   1   2  -8   -0.10    4.57
   1   2  -8    1.83    5.51
   1   2  -8    0.00    4.61
   1   2  -8   -2.89    4.44
   1   2  -8   11.43    6.22
  -1  -2   8   -0.73    1.59
  -1  -2   8   -4.10    4.95
   0   2  -8 1727.08   95.31
   0   2  -8 1814.21   93.55
   0   2  -8 1811.80   94.49
   0   2  -8 1804.54   95.94
   0   2  -8 1894.66   95.23
   0  -2   8 1768.83   90.39
   0  -2   8 1936.97   96.12
   0  -2   8 1999.75   96.08
  -1   2  -8   -6.92    4.39
  -1   2  -8    0.69    4.54
  -1   2  -8   -1.79    4.43
  -1   2  -8  -10.44    5.49
   1  -2   8    3.62    3.53
   1  -2   8    4.49    3.10
   1  -2   8   -8.16    5.91
   1  -2   8    4.53    6.27
  -2   2  -8 1972.91  100.23
  -2   2  -8 1901.77   98.56
  -2   2  -8 1840.49   96.55
  -2   2  -8 1980.02   99.66
  -2   2  -8 1823.74   93.83
   2  -2   8 1751.99   99.81
   2  -2   8 2161.07   96.76
   2  -2   8 2062.50  101.23
   2  -2   8 1918.90   95.60
  -3   2  -8   -2.34    3.81
  -3   2  -8   -1.65    3.65
  -3   2  -8    3.11    5.85
  -3   2  -8    5.05    4.37
  -3   2  -8    6.04    7.18
  -3   2  -8   11.06    7.27
   3  -2   8    8.79    5.16
   3  -2   8    3.58    6.25
   3  -2   8    3.33    5.22
  -4   2  -8  966.25   52.08
  -4   2  -8  963.22   51.15
  -4   2  -8  983.74   54.13
  -4   2  -8 1019.11   54.72
   4  -2   8  943.70   52.09
   4  -2   8  973.15   55.60
   4  -2   8  960.50   55.88
  -5   2  -8   17.01    7.61
  -5   2  -8    2.45    5.37
   5  -2   8    0.89    9.17
   5  -2   8   -3.24    9.19
   5  -2   8    1.86    7.06
  -6   2  -8  497.69   32.82
  -6   2  -8  564.60   31.39
   6  -2   8  513.99   37.42
   6  -2   8  550.21   37.93
   6  -2   8  602.36   34.90
  -7   2  -8   -4.56    7.71
   7  -2   8   16.57   10.17
   7  -2   8   17.94   12.73
   7  -2   8    9.78   10.26
  -8   2  -8  247.84   23.55
   8  -2   8  254.65   28.81
   8  -2   8  239.66   25.03
   8  -2   8  185.34   27.09
  -9   2  -8   19.27    9.78
   9  -2   8    2.58    8.77
   9  -2   8   18.32   16.68
 -10   2  -8   99.14   19.59
  10  -2   8   59.68   18.40
  10  -2   8   69.95   15.93
   8   1  -8    0.35   15.98
   8   1  -8    4.60   15.48
  -8  -1   8   -1.34   11.19
   7   1  -8  319.90   33.04
   7   1  -8  349.54   30.47
   7   1  -8  367.54   35.10
  -7  -1   8  475.46   41.16
   6   1  -8    5.13    7.48
   6   1  -8    4.56    8.52
   6   1  -8   17.96   12.78
  -6  -1   8   -4.47    9.73
  -6  -1   8   -1.78   12.72
   5   1  -8  822.09   49.07
   5   1  -8  853.29   51.72
   5   1  -8  804.01   51.48
  -5  -1   8  875.17   51.52
  -5  -1   8  952.41   54.28
   4   1  -8    2.24    6.72
   4   1  -8    0.11    6.71
   4   1  -8   -5.61    7.74
  -4  -1   8    0.04    5.64
  -4  -1   8   12.44   10.07
   3   1  -8 1096.67   57.19
   3   1  -8 1003.47   57.23
   3   1  -8  990.08   55.38
   3   1  -8 1041.58   56.76
  -3  -1   8 1061.91   58.61
  -3  -1   8  972.65   51.04
  -3  -1   8  951.38   56.38
   2   1  -8   -7.33    4.42
   2   1  -8   -2.60    5.75
   2   1  -8    0.44    5.02
   2   1  -8   -2.70    7.02
   2   1  -8   -2.07    4.53
  -2  -1   8   -3.57    2.75
  -2  -1   8   -5.74    3.93
  -2  -1   8    2.23    6.63
  -2  -1   8   -3.00    4.56
  -2  -1   8  -11.32    6.93
   1   1  -8 2267.12  110.90
   1   1  -8 2029.31  110.53
   1   1  -8 2201.59  108.93
   1   1  -8 2398.62  110.04
   1   1  -8 2138.68  110.56
  -1  -1   8 1905.12  105.06
  -1  -1   8 2179.96  109.16
  -1  -1   8 2172.55  109.50
   0   1  -8   30.83    7.92
   0   1  -8   20.39    5.48
   0   1  -8   16.39    6.37
   0   1  -8   12.42    5.92
   0   1  -8   12.73    5.62
   0  -1   8   22.91    6.82
   0  -1   8   -2.83    4.33
  -1   1  -8 2143.87  111.36
  -1   1  -8 2192.08  109.11
  -1   1  -8 2279.39  111.91
  -1   1  -8 1997.67  111.04
  -1   1  -8 2188.64  110.50
   1  -1   8 2214.38  111.40
   1  -1   8 2283.09  107.67
   1  -1   8 2044.01  110.63
  -2   1  -8   15.55    7.03
  -2   1  -8   23.96    5.38
  -2   1  -8   13.78    3.48
  -2   1  -8   19.51    3.16
  -2   1  -8   22.63    5.72
  -2   1  -8   22.82    8.28
  -2   1  -8    6.28    6.62
   2  -1   8   23.49    7.53
   2  -1   8   35.35    9.29
   2  -1   8   18.76    2.51
   2  -1   8   26.79    5.54
   2  -1   8   18.05    2.37
  -3   1  -8 1493.08   76.91
  -3   1  -8 1588.49   80.87
  -3   1  -8 1662.19   81.47
  -3   1  -8 1640.77   79.18
  -3   1  -8 1477.49   77.24
   3  -1   8 1499.71   78.17
   3  -1   8 1451.98   81.21
   3  -1   8 1482.35   81.60
  -4   1  -8   15.15    5.68
  -4   1  -8   18.32    3.92
  -4   1  -8   14.07    8.27
  -4   1  -8   21.11    6.22
   4  -1   8    7.19    8.47
   4  -1   8   11.56    6.41
   4  -1   8   11.20    7.16
  -5   1  -8  837.83   44.43
  -5   1  -8  821.49   45.37
  -5   1  -8  810.76   44.59
   5  -1   8  825.95   50.13
   5  -1   8  838.84   49.35
   5  -1   8  818.28   46.35
  -6   1  -8   20.55    5.95
  -6   1  -8   19.55    6.81
  -6   1  -8    3.92    7.35
   6  -1   8    7.23   11.44
   6  -1   8   14.60    8.88
   6  -1   8    7.67    8.83
  -7   1  -8  380.47   25.35
  -7   1  -8  389.86   29.84
   7  -1   8  370.32   33.88
   7  -1   8  434.74   36.01
   7  -1   8  369.80   30.43
  -8   1  -8   14.92   10.55
   8  -1   8   -1.60    7.21
   8  -1   8    0.83   14.60
   8  -1   8    7.18   13.12
  -9   1  -8  124.93   18.81
   9  -1   8   99.51   19.65
   9  -1   8  121.15   19.29
 -10   1  -8    8.99   10.88
  10  -1   8   17.56   10.74
  10  -1   8   -5.49   17.40
   8   0  -8  204.38   27.72
   8   0  -8  218.40   24.71
   8   0  -8  217.82   28.12
  -8   0   8  240.93   29.66
   7   0  -8   -1.78   12.07
   7   0  -8  -19.73   13.17
   7   0  -8   -0.82   10.96
  -7   0   8   -2.24    9.61
  -7   0   8   -4.02   11.57
   6   0  -8  591.82   36.84
   6   0  -8  558.93   37.80
   6   0  -8  493.37   36.26
  -6   0   8  575.97   39.67
  -6   0   8  575.07   38.91
   5   0  -8   -7.14    8.26
   5   0  -8   -5.92    6.46
   5   0  -8    4.10    8.12
  -5   0   8   10.32   10.42
  -5   0   8   -2.88   10.69
   4   0  -8 1270.76   66.66
   4   0  -8 1289.09   65.83
   4   0  -8 1197.56   64.36
  -4   0   8 1163.56   60.89
  -4   0   8 1171.88   66.87
  -4   0   8 1018.10   66.38
  -4   0   8 1204.14   61.25
   3   0  -8   -2.12    5.11
   3   0  -8   -9.48    7.16
   3   0  -8    5.69    7.65
   3   0  -8   -4.19    5.07
  -3   0   8    1.90    4.55
  -3   0   8   -3.17    5.68
  -3   0   8    3.58    9.06
  -3   0   8   -2.74    3.91
   2   0  -8 1981.36  103.27
   2   0  -8 2196.35  104.90
   2   0  -8 1954.26  102.84
   2   0  -8 2063.99  102.85
  -2   0   8 1764.82  104.02
  -2   0   8 1944.12  101.51
  -2   0   8 1954.61  100.85
  -2   0   8 2151.44  106.05
  -2   0   8 2051.75   99.66
   1   0  -8    2.28    6.45
   1   0  -8   -6.05    4.78
   1   0  -8    1.70    5.80
   1   0  -8   -2.03    4.02
   1   0  -8    1.69    7.03
  -1   0   8   -3.07    5.08
  -1   0   8    1.63    4.25
  -1   0   8    6.89    3.56
  -1   0   8   -2.48    3.85
   0   0  -8 2389.87  127.05
   0   0  -8 2456.69  125.35
   0   0  -8 2556.04  127.34
   0   0  -8 2476.17  125.33
   0   0   8 2616.29  123.18
   0   0   8 2315.03  124.77
   0   0   8 2639.66  126.04
  -1   0  -8    3.21    5.09
  -1   0  -8    7.39    6.38
  -1   0  -8    0.13    5.05
  -1   0  -8    5.67    4.57
  -1   0  -8    1.39    4.59
   1   0   8   -3.02    2.85
   1   0   8    0.76    4.43
   1   0   8    6.92    4.45
  -2   0  -8 1662.96   87.92
  -2   0  -8 1663.21   85.60
  -2   0  -8 1648.35   88.03
  -2   0  -8 1695.71   86.83
  -2   0  -8 1739.64   84.73
  -2   0  -8 1715.95   88.71
  -2   0  -8 1584.27   84.02
   2   0   8 1705.28   87.79
   2   0   8 1871.20   89.27
   2   0   8 1716.14   85.57
  -3   0  -8   -1.61    3.12
  -3   0  -8   -0.64    3.92
  -3   0  -8    1.27    6.09
  -3   0  -8    2.62    4.17
  -3   0  -8   -0.74    4.25
   3   0   8   -4.27    6.45
   3   0   8    0.24    5.10
   3   0   8   -0.66    4.49
  -4   0  -8 1809.41   93.03
  -4   0  -8 1754.00   91.82
  -4   0  -8 1762.66   89.02
  -4   0  -8 1880.29   90.76
  -4   0  -8 1853.81   91.25
   4   0   8 1758.34   91.67
   4   0   8 1761.57   94.63
   4   0   8 1706.29   94.31
  -5   0  -8   18.29    7.45
  -5   0  -8    2.92    4.45
  -5   0  -8    2.14    2.65
   5   0   8    0.56    6.77
   5   0   8    6.41    7.03
   5   0   8    1.69    9.43
  -6   0  -8  467.44   29.18
  -6   0  -8  477.91   29.14
   6   0   8  420.40   29.03
   6   0   8  521.57   33.96
   6   0   8  447.36   32.37
  -7   0  -8   13.04    8.54
  -7   0  -8    7.96    6.48
   7   0   8   20.57   13.81
   7   0   8    6.53    9.56
   7   0   8    5.51    8.95
  -8   0  -8  198.53   21.14
  -8   0  -8  208.08   19.82
   8   0   8  163.78   20.51
   8   0   8  181.86   24.27
   8   0   8  158.66   23.15
  -9   0  -8   11.03   11.79
   9   0   8   -1.39   11.37
 -10   0  -8  101.33   19.59
  10   0   8   92.48   23.71
   8  -1  -8    0.40   14.97
   8  -1  -8    4.59   12.18
   8  -1  -8    5.11   15.93
  -8   1   8    8.44   15.94
  -8   1   8   25.76   15.80
   7  -1  -8  344.16   30.30
   7  -1  -8  399.27   33.91
   7  -1  -8  360.59   34.93
  -7   1   8  386.93   34.98
   6  -1  -8    8.02    8.97
   6  -1  -8   -4.50    6.92
   6  -1  -8   -5.54    9.60
  -6   1   8   -1.30   12.50
  -6   1   8   21.09   13.80
   5  -1  -8  804.66   50.10
   5  -1  -8  817.60   51.31
   5  -1  -8 1003.39   51.14
  -5   1   8  888.98   47.29
  -5   1   8  816.17   51.68
  -5   1   8  833.50   53.19
   4  -1  -8    4.98    6.49
   4  -1  -8   -2.84    6.94
   4  -1  -8   -2.41    5.45
   4  -1  -8    2.48    6.58
  -4   1   8   -7.20    9.41
  -4   1   8   10.58    5.87
  -4   1   8    3.87    7.24
   3  -1  -8 1014.67   55.72
   3  -1  -8  929.79   56.25
   3  -1  -8 1146.45   56.89
   3  -1  -8  963.28   57.30
  -3   1   8 1049.58   53.73
  -3   1   8 1011.10   53.09
  -3   1   8 1025.20   59.07
  -3   1   8  995.83   58.17
  -3   1   8 1043.33   53.57
   2  -1  -8   -3.49    4.88
   2  -1  -8    3.71    5.45
   2  -1  -8    0.68    4.71
   2  -1  -8   -7.45    4.08
  -2   1   8   -2.09    3.60
  -2   1   8    0.88    3.73
  -2   1   8   -6.18    8.53
  -2   1   8    3.65    3.99
  -2   1   8    2.31    8.60
   1  -1  -8 2010.43  108.83
   1  -1  -8 2407.84  109.70
   1  -1  -8 2185.60  107.63
   1  -1  -8 2037.48  107.32
  -1   1   8 1991.49  106.00
  -1   1   8 2151.19  105.24
  -1   1   8 2082.67  105.55
  -1   1   8 2087.58  110.04
   0  -1  -8   14.23    5.58
   0  -1  -8   23.39    6.76
   0  -1  -8   12.82    4.45
   0  -1  -8   18.32    6.62
   0   1   8   15.38    4.44
   0   1   8    4.16    4.25
   0   1   8   15.37    5.37
  -1  -1  -8 2046.24  104.73
  -1  -1  -8 2124.03  106.32
  -1  -1  -8 2321.21  107.36
  -1  -1  -8 2074.67  108.23
  -1  -1  -8 2127.56  109.19
  -1  -1  -8 2056.48  104.32
  -1  -1  -8 2129.88  107.21
   1   1   8 2051.57  107.98
   1   1   8 2085.70  105.94
   1   1   8 2218.54  106.86
  -2  -1  -8   19.59    7.09
  -2  -1  -8   21.27    6.99
  -2  -1  -8   16.84    5.44
  -2  -1  -8    7.93    4.91
  -2  -1  -8   23.05    6.33
   2   1   8   16.21    5.40
   2   1   8   17.26    2.62
   2   1   8   15.15    7.32
   2   1   8   28.23    7.09
  -3  -1  -8 1517.74   82.68
  -3  -1  -8 1668.93   82.80
  -3  -1  -8 1583.93   83.23
  -3  -1  -8 1607.89   80.87
  -3  -1  -8 1580.96   80.17
   3   1   8 1506.01   81.03
   3   1   8 1704.71   84.58
   3   1   8 1523.58   82.74
  -4  -1  -8    9.36    6.97
  -4  -1  -8    7.90    5.69
  -4  -1  -8   12.68    4.44
  -4  -1  -8   18.95    6.48
   4   1   8   17.01    4.28
   4   1   8    0.98    7.92
   4   1   8   10.05    7.99
  -5  -1  -8  907.08   49.01
  -5  -1  -8  778.66   47.32
  -5  -1  -8  861.65   44.24
   5   1   8  831.30   51.42
   5   1   8  928.09   51.07
  -6  -1  -8   11.67    7.94
  -6  -1  -8   17.84    8.30
   6   1   8   25.04   11.69
   6   1   8   12.80   11.04
  -7  -1  -8  363.45   27.21
  -7  -1  -8  393.36   30.42
   7   1   8  416.13   35.86
   7   1   8  395.77   35.20
  -8  -1  -8    0.10    9.96
  -8  -1  -8    6.79   10.59
   8   1   8   34.97   16.83
   8   1   8    4.42    9.92
  -9  -1  -8  141.81   19.61
  -9  -1  -8  128.22   19.30
   9   1   8  156.64   21.20
   9   1   8   93.99   19.86
 -10  -1  -8   33.25   15.37
  10   1   8   16.09   14.67
  10   1   8  -14.36   17.91
   8  -2  -8  244.11   25.27
   8  -2  -8  258.90   31.43
   8  -2  -8  309.27   30.83
  -8   2   8  297.88   32.41
   7  -2  -8    8.19   13.76
   7  -2  -8  -19.36   10.65
   7  -2  -8    8.04   11.30
  -7   2   8   -8.63   13.45
   6  -2  -8  486.80   36.20
   6  -2  -8  518.28   35.72
   6  -2  -8  616.62   36.70
  -6   2   8  529.96   39.54
  -6   2   8  523.29   44.33
   5  -2  -8  -14.87    9.60
   5  -2  -8  -10.87    8.93
   5  -2  -8  -16.39    8.09
  -5   2   8   -5.80    7.63
  -5   2   8   -9.71    7.15
  -5   2   8    4.86    8.96
   4  -2  -8  718.20   43.06
   4  -2  -8  740.84   43.24
   4  -2  -8  760.42   41.38
   4  -2  -8  668.09   40.79
  -4   2   8  653.39   44.27
  -4   2   8  666.88   39.44
  -4   2   8  700.38   44.99
   3  -2  -8    1.76    5.94
   3  -2  -8    9.32    8.55
   3  -2  -8    1.41    5.99
   3  -2  -8   -9.58    5.68
  -3   2   8   -2.05    5.24
  -3   2   8    9.86    7.50
  -3   2   8    3.05    2.89
  -3   2   8    7.25    7.25
  -3   2   8    2.67    2.66
   2  -2  -8 1559.82   79.25
   2  -2  -8 1683.65   78.51
   2  -2  -8 1489.41   78.90
   2  -2  -8 1498.50   80.31
  -2   2   8 1290.41   80.80
  -2   2   8 1572.15   77.71
  -2   2   8 1414.84   73.28
  -2   2   8 1468.11   73.31
  -2   2   8 1566.45   75.21
  -2   2   8 1586.97   81.88
   1  -2  -8   -1.00    1.58
   1  -2  -8    0.04    5.93
   1  -2  -8    0.28    2.48
   1  -2  -8   12.89    7.85
   1  -2  -8   -1.63    4.31
  -1   2   8    3.64    4.39
  -1   2   8   -1.02    4.57
  -1   2   8   -1.68    1.35
  -1   2   8   10.26    8.00
   0  -2  -8 2011.74   96.48
   0  -2  -8 1849.10   97.63
   0  -2  -8 1794.62   92.99
   0  -2  -8 1847.15   93.30
   0  -2  -8 1996.61   97.11
   0  -2  -8 1841.81   95.07
   0   2   8 1894.62   95.20
   0   2   8 1909.82   95.47
   0   2   8 1831.36   98.53
  -1  -2  -8    5.14    4.21
  -1  -2  -8   -1.40    3.96
  -1  -2  -8    1.08    4.83
  -1  -2  -8    3.58    4.19
  -1  -2  -8   -5.68    3.82
  -1  -2  -8    4.16    4.37
   1   2   8    3.53    4.34
   1   2   8   -4.91    3.84
   1   2   8   -4.19    4.60
  -2  -2  -8 1914.91   98.66
  -2  -2  -8 1896.24   98.11
  -2  -2  -8 1931.46   97.99
  -2  -2  -8 1885.05   98.83
   2   2   8 2060.90   98.56
   2   2   8 2029.47  100.45
   2   2   8 1886.85   96.05
   2   2   8 1916.32   98.36
  -3  -2  -8   -0.13    5.75
  -3  -2  -8    5.30    7.70
  -3  -2  -8   11.47    5.88
  -3  -2  -8    7.00    5.23
   3   2   8    9.98    4.96
   3   2   8   17.70    7.13
   3   2   8   -0.13    5.32
  -4  -2  -8  981.53   53.94
  -4  -2  -8  979.28   54.02
  -4  -2  -8 1020.18   56.02
   4   2   8 1027.72   57.43
   4   2   8 1073.71   54.46
   4   2   8  920.62   55.49
  -5  -2  -8    2.59    7.10
  -5  -2  -8   11.26    6.66
  -5  -2  -8   -4.64    8.16
   5   2   8   -1.87    6.53
   5   2   8    9.12    7.89
   5   2   8    7.43    7.12
  -6  -2  -8  571.68   35.43
  -6  -2  -8  570.16   36.42
   6   2   8  556.21   39.69
   6   2   8  598.90   36.13
   6   2   8  641.70   40.85
  -7  -2  -8   11.47   10.29
  -7  -2  -8    1.88    9.22
   7   2   8   12.40   13.44
   7   2   8   -5.58    6.67
  -8  -2  -8  227.84   23.44
  -8  -2  -8  201.95   22.92
   8   2   8  243.37   28.60
   8   2   8  229.90   24.34
  -9  -2  -8    9.66   12.14
  -9  -2  -8    0.70   12.95
   9   2   8  -12.89   11.18
   9   2   8  -14.43   16.20
 -10  -2  -8   72.40   18.11
 -10  -2  -8   70.32   23.83
  10   2   8   44.72   22.21
  10   2   8   56.00   17.62
   8  -3  -8   -0.21   12.86
   8  -3  -8   -7.69   11.66
  -8   3   8   -9.69   11.33
   7  -3  -8  250.52   24.66
   7  -3  -8  297.74   30.06
  -7   3   8  300.53   33.37
   6  -3  -8   -2.48    7.55
   6  -3  -8   -6.46    8.84
   6  -3  -8   -6.00    8.11
  -6   3   8   14.35   13.46
  -6   3   8  -20.53    8.22
  -6   3   8    7.55   13.50
   5  -3  -8  869.33   54.08
   5  -3  -8  869.64   52.27
   5  -3  -8  906.84   51.10
  -5   3   8  944.23   51.48
  -5   3   8  961.40   57.31
  -5   3   8  857.82   55.77
   4  -3  -8    2.63    5.61
   4  -3  -8  -13.11    8.62
   4  -3  -8    4.51    7.45
   4  -3  -8   -0.46    3.30
   4  -3  -8   -0.20    6.37
  -4   3   8   -3.20   10.61
  -4   3   8    8.78    9.39
  -4   3   8    6.18    7.30
   3  -3  -8 1047.02   61.43
   3  -3  -8 1159.96   56.76
   3  -3  -8 1101.88   61.05
   3  -3  -8 1153.15   59.42
   3  -3  -8 1070.49   61.47
  -3   3   8 1184.47   60.67
  -3   3   8 1089.33   64.81
  -3   3   8 1102.91   63.99
   2  -3  -8   -2.04    5.06
   2  -3  -8    2.02    4.08
   2  -3  -8   11.18    8.56
   2  -3  -8    5.54    7.80
  -2   3   8    4.57    2.68
  -2   3   8    3.89    7.05
  -2   3   8    8.61    9.94
  -2   3   8   15.72    7.02
   1  -3  -8 2332.70  107.22
   1  -3  -8 2021.80  109.57
   1  -3  -8 2126.05  110.95
   1  -3  -8 1971.91  108.57
  -1   3   8 2102.12  109.00
  -1   3   8 2178.06  107.09
  -1   3   8 2253.81  112.77
   0  -3  -8    3.38    5.04
   0  -3  -8   -4.37    6.19
   0  -3  -8    6.51    4.83
   0  -3  -8   -9.42    4.26
   0  -3  -8    1.47    4.05
   0   3   8   -3.12    5.40
   0   3   8   -2.39    4.77
   0   3   8    6.48    4.93
  -1  -3  -8 1785.30   96.69
  -1  -3  -8 1909.72   94.48
  -1  -3  -8 1802.19   94.80
  -1  -3  -8 1774.64   92.87
  -1  -3  -8 1937.26   93.17
   1   3   8 1930.79   95.26
   1   3   8 1863.74   95.48
   1   3   8 1875.41   97.72
  -2  -3  -8    5.73    6.25
  -2  -3  -8    4.76    5.24
  -2  -3  -8    2.04    4.10
  -2  -3  -8   13.90    5.87
   2   3   8    3.40    5.99
   2   3   8    5.18    6.76
  -3  -3  -8 1256.42   67.30
  -3  -3  -8 1260.33   66.22
  -3  -3  -8 1180.37   69.09
  -3  -3  -8 1242.71   63.74
  -3  -3  -8 1264.97   66.90
   3   3   8 1307.40   68.93
   3   3   8 1356.81   67.46
  -4  -3  -8    0.48    4.86
  -4  -3  -8   -1.69    2.95
  -4  -3  -8    0.20    6.30
  -4  -3  -8   -5.52    4.89
   4   3   8    1.04    6.64
   4   3   8   -0.09    6.72
  -5  -3  -8  672.96   41.14
  -5  -3  -8  686.35   40.24
  -5  -3  -8  699.90   38.69
   5   3   8  629.74   39.30
   5   3   8  661.86   43.17
  -6  -3  -8   14.66    9.56
  -6  -3  -8    8.11    6.83
  -6  -3  -8   15.43    8.30
   6   3   8   12.04    9.67
   6   3   8    0.14   12.05
  -7  -3  -8  331.87   27.37
  -7  -3  -8  285.74   28.72
   7   3   8  385.45   34.88
   7   3   8  323.13   28.71
  -8  -3  -8   -3.26   11.34
  -8  -3  -8    7.40    8.34
   8   3   8   16.14   12.73
   8   3   8    9.23   12.27
  -9  -3  -8  222.60   25.17
  -9  -3  -8  151.57   23.72
   9   3   8  184.42   28.87
   9   3   8  150.09   20.75
 -10  -3  -8  -13.51   16.06
 -10  -3  -8   -9.67   14.13
  10   3   8    4.41   10.80
  10   3   8  -28.89   17.72
   8  -4  -8  206.22   25.13
   8  -4  -8  232.80   30.97
  -8   4   8  180.87   29.23
   7  -4  -8    4.16    9.13
   7  -4  -8  -24.41   13.31
  -7   4   8    2.65   12.10
  -7   4   8   10.08   16.81
   6  -4  -8  417.83   37.24
   6  -4  -8  413.53   32.86
  -6   4   8  434.90   34.34
  -6   4   8  460.25   40.78
   5  -4  -8   -6.13    7.05
   5  -4  -8    0.90   11.73
  -5   4   8    6.25   10.69
  -5   4   8   20.36   18.26
  -5   4   8   -4.39   12.34
   4  -4  -8  711.16   44.73
   4  -4  -8  824.15   42.37
   4  -4  -8  728.83   44.36
   4  -4  -8  831.35   46.89
  -4   4   8  703.52   44.25
  -4   4   8  736.22   47.90
  -4   4   8  742.35   48.07
   3  -4  -8   -0.57    6.32
   3  -4  -8    0.28    8.57
   3  -4  -8   -3.92    5.00
   3  -4  -8    5.26    4.88
   3  -4  -8    9.16    8.41
  -3   4   8   -4.95    6.92
  -3   4   8    3.19    8.03
  -3   4   8   -0.50    6.87
   2  -4  -8 1299.77   70.31
   2  -4  -8 1366.48   73.48
   2  -4  -8 1438.61   74.05
   2  -4  -8 1307.99   72.72
  -2   4   8 1400.33   76.29
  -2   4   8 1427.59   76.55
  -2   4   8 1412.30   73.18
   1  -4  -8   11.01    8.29
   1  -4  -8   27.51    7.14
   1  -4  -8   21.20    9.01
   1  -4  -8   14.78    7.03
  -1   4   8   12.05    7.81
  -1   4   8   20.83    5.44
  -1   4   8   23.69    8.07
   0  -4  -8 1878.94   99.55
   0  -4  -8 1979.84   99.20
   0  -4  -8 2017.11  102.02
   0   4   8 1965.48   99.68
   0   4   8 1949.23  100.93
   0   4   8 1983.67  103.43
  -1  -4  -8    4.05    6.06
  -1  -4  -8    9.84    6.66
  -1  -4  -8    2.49    5.25
  -1  -4  -8    6.98    5.97
  -1  -4  -8    4.57    3.63
  -1  -4  -8    8.68    4.12
   1   4   8    4.97    6.04
   1   4   8    0.71    6.86
   1   4   8    9.88    6.89
  -2  -4  -8  897.19   48.83
  -2  -4  -8  999.93   53.66
  -2  -4  -8  976.50   51.97
  -2  -4  -8  902.70   51.35
  -2  -4  -8 1001.62   57.02
  -2  -4  -8 1021.44   51.95
   2   4   8 1079.87   55.21
   2   4   8 1004.46   53.58
   2   4   8 1029.69   55.51
  -3  -4  -8   -0.41    6.72
  -3  -4  -8   -7.02    4.15
  -3  -4  -8    4.12    5.01
  -3  -4  -8   -1.30    6.92
  -3  -4  -8   -0.11    6.21
   3   4   8   -3.38    4.97
   3   4   8   -3.49    5.13
   3   4   8   -7.88    8.28
  -4  -4  -8  843.13   50.62
  -4  -4  -8  900.69   46.61
  -4  -4  -8  824.71   45.56
  -4  -4  -8  901.97   49.31
   4   4   8  883.13   48.88
   4   4   8  828.70   50.73
  -5  -4  -8   11.10   10.98
  -5  -4  -8    8.70    5.57
  -5  -4  -8   11.68    6.05
  -5  -4  -8   15.10    7.58
   5   4   8   -1.68   11.45
   5   4   8   22.32   10.03
  -6  -4  -8  518.99   33.66
  -6  -4  -8  549.31   30.36
  -6  -4  -8  408.79   32.68
   6   4   8  477.26   31.87
   6   4   8  448.13   39.25
  -7  -4  -8   -4.08    6.54
  -7  -4  -8   13.97   11.85
   7   4   8   -3.50    9.47
   7   4   8   -1.89   10.37
  -8  -4  -8  172.51   24.54
  -8  -4  -8  229.21   23.70
   8   4   8  238.61   25.36
   8   4   8  195.97   26.96
  -9  -4  -8   -8.47   13.01
  -9  -4  -8   -7.46   14.35
   9   4   8   -8.51   16.07
   9   4   8   -4.95    9.75
 -10  -4  -8   77.77   19.28
 -10  -4  -8   53.74   16.97
  10   4   8   44.37   23.23
  10   4   8   78.20   20.16
   7  -5  -8  298.68   29.03
   7  -5  -8  328.33   32.47
  -7   5   8  320.15   36.22
  -7   5   8  253.88   27.64
   6  -5  -8    2.53   10.90
   6  -5  -8   16.28    9.97
  -6   5   8    1.12   11.33
  -6   5   8   29.42   13.76
   5  -5  -8  583.39   39.81
   5  -5  -8  608.05   33.77
   5  -5  -8  569.34   36.83
  -5   5   8  504.93   39.48
  -5   5   8  535.89   36.32
  -5   5   8  602.23   41.52
   4  -5  -8    0.98    8.18
   4  -5  -8  -14.21    9.66
   4  -5  -8   -2.28    6.04
   4  -5  -8   -6.36    6.77
  -4   5   8  -11.52   12.00
  -4   5   8   -0.76   11.52
  -4   5   8   -8.67    8.83
   3  -5  -8  646.37   35.83
   3  -5  -8  593.70   37.43
   3  -5  -8  590.79   38.57
   3  -5  -8  591.50   38.09
  -3   5   8  585.21   37.22
  -3   5   8  615.89   41.33
  -3   5   8  664.24   41.55
   2  -5  -8   13.79    8.64
   2  -5  -8    8.70    6.57
   2  -5  -8   16.03    8.29
   2  -5  -8    7.19    9.76
  -2   5   8    6.49    9.82
  -2   5   8   11.23   11.14
  -2   5   8    7.01    8.40
   1  -5  -8 1073.96   58.97
   1  -5  -8 1119.07   59.29
   1  -5  -8 1053.76   60.21
  -1   5   8 1154.78   63.87
  -1   5   8 1185.18   61.27
  -1   5   8 1053.00   62.80
   0  -5  -8    0.39    7.41
   0  -5  -8    2.33    5.51
   0  -5  -8    7.60    6.69
   0  -5  -8   16.04    8.37
   0   5   8    4.18    6.25
   0   5   8    7.12    7.57
   0   5   8   21.71    7.36
  -1  -5  -8 1244.20   63.36
  -1  -5  -8 1170.91   63.07
  -1  -5  -8 1090.51   59.46
  -1  -5  -8 1060.70   58.68
  -1  -5  -8 1200.55   64.56
   1   5   8 1251.21   63.52
   1   5   8 1234.40   63.73
   1   5   8 1252.62   65.85
  -2  -5  -8   14.99    6.27
  -2  -5  -8   -5.21    5.59
  -2  -5  -8    8.47    5.00
  -2  -5  -8    4.52    2.28
  -2  -5  -8   -2.19    7.40
  -2  -5  -8    9.44    8.18
   2   5   8   12.64    9.24
   2   5   8    3.61    8.35
   2   5   8    4.67    8.38
  -3  -5  -8  877.29   53.94
  -3  -5  -8  992.98   50.26
  -3  -5  -8  910.65   52.12
   3   5   8  859.63   51.96
   3   5   8  974.49   52.77
   3   5   8  857.22   53.41
  -4  -5  -8   -6.44    5.52
  -4  -5  -8    1.22    7.37
  -4  -5  -8   -1.04    5.04
  -4  -5  -8    5.90    8.52
   4   5   8   17.18    8.30
   4   5   8   -2.65   10.38
   4   5   8   -1.26    9.28
  -5  -5  -8  460.06   28.20
  -5  -5  -8  524.92   35.51
  -5  -5  -8  455.86   31.76
  -5  -5  -8  444.47   27.10
   5   5   8  484.54   30.22
   5   5   8  465.24   31.02
   5   5   8  420.36   33.04
  -6  -5  -8   17.43   13.25
  -6  -5  -8    3.68    7.39
   6   5   8   15.09    9.10
   6   5   8  -14.60   10.88
  -7  -5  -8  301.79   31.05
  -7  -5  -8  278.73   28.11
   7   5   8  289.15   32.33
   7   5   8  301.52   28.78
  -8  -5  -8   12.09   12.76
  -8  -5  -8   -8.51   14.49
   8   5   8   -1.97   16.10
   8   5   8    5.44   12.83
  -9  -5  -8   81.14   19.84
  -9  -5  -8  138.65   25.62
   9   5   8   83.35   19.51
   9   5   8   81.34   20.24
   7  -6  -8   18.04   15.03
   7  -6  -8   -1.74   11.98
  -7   6   8    0.78   17.51
  -7   6   8   15.52   16.98
   6  -6  -8  308.75   30.18
   6  -6  -8  285.37   28.26
  -6   6   8  279.13   32.44
  -6   6   8  289.37   29.55
   5  -6  -8    1.28   11.34
   5  -6  -8   -4.99    9.51
   5  -6  -8   11.16    9.99
  -5   6   8    6.06   14.07
  -5   6   8  -11.10   14.49
  -5   6   8   -2.33   10.67
   4  -6  -8  577.50   35.55
   4  -6  -8  594.29   38.97
   4  -6  -8  510.71   37.92
  -4   6   8  621.26   42.74
  -4   6   8  605.57   41.70
  -4   6   8  557.58   38.27
   3  -6  -8    1.02    7.55
   3  -6  -8    9.10   10.71
   3  -6  -8   22.29   10.14
   3  -6  -8   -4.09    9.05
  -3   6   8    2.05    8.55
  -3   6   8   11.96   11.18
  -3   6   8   -4.17   10.51
   2  -6  -8 1181.65   68.65
   2  -6  -8 1288.48   68.42
   2  -6  -8 1319.51   69.14
  -2   6   8 1272.55   70.45
  -2   6   8 1313.34   72.16
  -2   6   8 1282.77   73.49
   1  -6  -8    8.33    7.72
   1  -6  -8   -4.77    6.32
   1  -6  -8   -1.33    7.18
   1  -6  -8   -3.17    8.72
  -1   6   8  -12.39    9.02
  -1   6   8    4.09    9.74
  -1   6   8   19.54   10.21
   0  -6  -8  979.74   51.87
   0  -6  -8  929.20   55.33
   0  -6  -8  966.45   54.18
   0  -6  -8  988.01   54.69
   0   6   8 1019.55   55.65
   0   6   8  957.46   56.94
  -1  -6  -8    0.22    7.72
  -1  -6  -8    5.14    4.45
  -1  -6  -8   -4.97    4.98
  -1  -6  -8    0.70    5.77
   1   6   8   -6.28    8.42
   1   6   8   -7.74    6.48
   1   6   8   -5.96    8.17
  -2  -6  -8  873.75   48.93
  -2  -6  -8  845.93   49.68
  -2  -6  -8  838.92   52.12
   2   6   8  877.09   50.34
   2   6   8  832.03   50.17
   2   6   8  877.83   50.31
  -3  -6  -8    3.45    8.42
  -3  -6  -8   -6.62    6.11
  -3  -6  -8    7.12    6.90
   3   6   8    8.92   10.45
   3   6   8   -6.29    7.53
   3   6   8   -5.77    6.21
  -4  -6  -8  700.75   44.84
  -4  -6  -8  634.63   41.23
  -4  -6  -8  639.23   38.65
   4   6   8  693.09   40.88
   4   6   8  631.47   39.10
   4   6   8  657.06   42.28
  -5  -6  -8    1.88    8.83
  -5  -6  -8   11.63   11.38
  -5  -6  -8   12.61    7.20
   5   6   8   -0.44   10.16
   5   6   8   -5.22    6.82
   5   6   8    0.99    9.01
  -6  -6  -8  365.17   31.39
  -6  -6  -8  333.43   33.42
   6   6   8  333.06   30.49
   6   6   8  339.93   33.95
  -7  -6  -8    0.69   11.96
  -7  -6  -8   14.32   11.83
   7   6   8   -5.99    9.79
   7   6   8   -8.71   11.84
  -8  -6  -8  139.86   22.70
  -8  -6  -8   73.50   19.69
   8   6   8  126.34   21.50
   8   6   8  139.27   22.95
  -9  -6  -8   -2.48   11.56
  -9  -6  -8  -28.82   16.74
   9   6   8    3.96   14.83
   9   6   8    4.61   12.90
   6  -7  -8   -3.76   12.48
   6  -7  -8   -6.52   12.17
   6  -7  -8   -9.58   11.65
  -6   7   8  -22.82   15.55
  -6   7   8   13.34   16.11
   5  -7  -8  497.56   33.38
   5  -7  -8  453.22   36.90
   5  -7  -8  457.81   38.15
  -5   7   8  465.44   38.81
  -5   7   8  512.29   44.93
   4  -7  -8    4.88   10.78
   4  -7  -8    1.54    8.47
   4  -7  -8   10.81    9.33
  -4   7   8   -3.80   12.58
  -4   7   8    8.85   11.87
  -4   7   8   14.32   11.22
   3  -7  -8  586.84   37.39
   3  -7  -8  634.82   41.02
  -3   7   8  651.95   40.83
  -3   7   8  629.75   42.37
  -3   7   8  546.57   39.57
   2  -7  -8   19.38    8.69
   2  -7  -8   14.84    9.67
   2  -7  -8   40.22   12.02
  -2   7   8   46.68   13.05
  -2   7   8   34.65   12.73
  -2   7   8   22.02   11.20
   1  -7  -8  883.99   51.62
   1  -7  -8  890.02   52.02
   1  -7  -8  964.76   55.40
  -1   7   8  921.88   54.31
  -1   7   8  883.98   54.68
  -1   7   8  907.29   52.84
   0  -7  -8    7.98    8.60
   0  -7  -8    8.86   10.41
   0  -7  -8   15.55   10.18
   0   7   8    0.06    9.62
   0   7   8   13.61   11.16
  -1  -7  -8  757.99   46.85
  -1  -7  -8  785.31   47.42
  -1  -7  -8  812.68   46.99
   1   7   8  824.40   48.83
   1   7   8  766.36   46.74
  -2  -7  -8  -10.80   10.13
  -2  -7  -8   -4.20    9.18
  -2  -7  -8   -7.36    9.63
   2   7   8    8.76   10.21
   2   7   8   -0.39    9.11
   2   7   8  -10.62    8.16
  -3  -7  -8  506.23   33.80
  -3  -7  -8  520.49   39.43
  -3  -7  -8  484.02   35.35
   3   7   8  590.75   35.51
   3   7   8  569.32   34.71
   3   7   8  495.04   35.99
  -4  -7  -8   33.23   13.10
  -4  -7  -8   -2.49    9.81
  -4  -7  -8  -15.20    6.74
   4   7   8   -1.70    7.61
   4   7   8    1.02    8.49
   4   7   8    4.63   12.36
  -5  -7  -8  405.69   28.89
  -5  -7  -8  370.31   32.83
  -5  -7  -8  392.76   35.70
   5   7   8  359.84   34.26
   5   7   8  430.89   34.19
  -6  -7  -8    8.46   11.36
  -6  -7  -8    2.52   11.64
   6   7   8   16.20   14.71
   6   7   8   24.47   13.73
  -7  -7  -8  162.13   24.10
  -7  -7  -8  135.50   20.45
   7   7   8  175.11   23.42
   7   7   8  193.12   25.38
  -8  -7  -8  -14.88   12.20
  -8  -7  -8    5.83   10.86
   8   7   8    1.26   14.62
   8   7   8  -12.20   16.14
   6  -8  -8  239.02   26.51
   6  -8  -8  169.48   27.75
  -6   8   8  245.93   30.81
  -6   8   8  275.59   32.45
   5  -8  -8    5.89   15.38
   5  -8  -8   12.63   11.23
   5  -8  -8   10.91   12.01
  -5   8   8   18.51   13.81
  -5   8   8   30.19   16.93
   4  -8  -8  378.96   32.91
   4  -8  -8  396.79   32.33
  -4   8   8  413.33   38.17
  -4   8   8  392.92   36.95
  -4   8   8  406.09   35.15
   3  -8  -8   19.14   11.14
  -3   8   8  -17.29   11.39
  -3   8   8   -9.86    8.93
  -3   8   8   -5.91   12.23
   2  -8  -8  484.12   34.20
   2  -8  -8  405.52   33.52
  -2   8   8  429.90   38.00
  -2   8   8  431.26   35.60
  -2   8   8  413.87   35.64
   1  -8  -8   -1.63    9.37
   1  -8  -8  -15.31    8.26
   1  -8  -8   -2.62   11.06
  -1   8   8   -7.04   10.26
  -1   8   8   15.08   13.27
  -1   8   8   13.04   10.63
   0  -8  -8  543.95   35.11
   0  -8  -8  636.04   40.10
   0  -8  -8  540.05   36.70
   0   8   8  540.50   37.07
   0   8   8  579.68   39.34
   0   8   8  547.80   37.93
  -1  -8  -8   -3.06    9.99
  -1  -8  -8    3.38   10.43
  -1  -8  -8    5.82   10.35
   1   8   8   -1.52    9.93
   1   8   8    2.04   11.20
  -2  -8  -8  603.70   40.72
  -2  -8  -8  588.71   39.81
  -2  -8  -8  624.95   45.28
   2   8   8  664.15   40.83
   2   8   8  679.95   41.18
  -3  -8  -8   -0.24   10.17
  -3  -8  -8    0.19   10.94
  -3  -8  -8    1.29    9.97
   3   8   8    2.04   11.57
   3   8   8   -1.78    9.26
  -4  -8  -8  454.09   36.61
  -4  -8  -8  342.02   36.04
  -4  -8  -8  369.64   31.03
   4   8   8  379.06   33.10
  -5  -8  -8   -4.36   10.18
  -5  -8  -8  -42.46   13.01
  -5  -8  -8    2.34    8.91
   5   8   8   -2.98   11.70
   5   8   8   -4.07    9.23
  -6  -8  -8  230.20   28.41
  -6  -8  -8  182.49   23.37
   6   8   8  186.95   25.11
   6   8   8  165.10   24.72
  -7  -8  -8   15.60   15.28
  -7  -8  -8   14.23   13.90
   7   8   8   12.58   14.87
  -8  -8  -8   71.70   17.60
  -8  -8  -8   97.10   22.45
   8   8   8  132.75   23.56
   5  -9  -8  200.58   26.25
   5  -9  -8  252.50   27.01
  -5   9   8  255.42   30.68
  -5   9   8  229.88   32.26
   4  -9  -8  -17.24   13.13
   4  -9  -8   20.28   15.15
  -4   9   8   -5.16   13.79
  -4   9   8   -8.91   15.42
   3  -9  -8  298.68   28.56
  -3   9   8  346.63   33.46
  -3   9   8  238.23   29.86
  -3   9   8  364.73   34.84
   2  -9  -8    5.32   11.67
   2  -9  -8   -9.89   12.90
  -2   9   8    3.20   13.46
  -2   9   8   -7.27   11.87
  -2   9   8   14.23   12.52
   1  -9  -8  575.60   39.90
   1  -9  -8  609.91   43.51
  -1   9   8  571.20   39.70
  -1   9   8  592.78   41.06
  -1   9   8  665.09   43.89
   0  -9  -8    0.41    9.01
   0  -9  -8   -1.24   11.47
   0   9   8    8.93   10.89
   0   9   8  -11.57   10.69
   0   9   8  -13.53    7.17
  -1  -9  -8  581.74   40.21
  -1  -9  -8  578.52   36.79
  -1  -9  -8  521.37   38.18
   1   9   8  521.77   41.90
   1   9   8  587.64   39.27
  -2  -9  -8   23.79   13.44
  -2  -9  -8   -7.64   11.23
   2   9   8    1.64   10.84
   2   9   8   -2.21   11.62
  -3  -9  -8  366.99   36.58
  -3  -9  -8  362.00   32.39
  -3  -9  -8  362.76   32.03
   3   9   8  340.03   30.49
   3   9   8  305.32   28.91
  -4  -9  -8  -18.31   14.47
  -4  -9  -8  -13.85   12.26
  -4  -9  -8   -4.69   12.82
   4   9   8    2.55   13.73
  -5  -9  -8  252.81   32.94
  -5  -9  -8  246.60   28.47
  -5  -9  -8  260.44   41.18
   5   9   8  254.35   27.82
  -6  -9  -8   15.53   12.91
  -6  -9  -8    6.02   13.58
   6   9   8    8.46   11.25
  -7  -9  -8  106.91   24.15
  -7  -9  -8  150.13   25.95
   7   9   8  118.20   23.36
   4 -10  -8  210.93   27.83
   4 -10  -8  262.90   28.37
  -4  10   8  243.66   30.75
  -4  10   8  220.44   31.68
   3 -10  -8   14.81   15.15
  -3  10   8    9.32   16.10
  -3  10   8   -1.08   15.71
   2 -10  -8  586.11   42.14
   2 -10  -8  383.60   39.38
  -2  10   8  460.03   40.18
  -2  10   8  444.57   40.65
   1 -10  -8    8.88    9.37
   1 -10  -8   13.65   15.43
  -1  10   8    1.86   14.47
  -1  10   8  -10.89    8.03
   0 -10  -8  516.11   40.26
   0 -10  -8  485.35   42.14
   0  10   8  500.74   40.56
   0  10   8  418.88   38.37
  -1 -10  -8  -22.72   12.75
  -1 -10  -8   -6.08    8.55
   1  10   8  -18.29   10.67
   1  10   8   -1.90   12.53
  -2 -10  -8  347.96   32.77
  -2 -10  -8  349.84   33.98
   2  10   8  316.14   30.68
   2  10   8  431.95   35.46
  -3 -10  -8  -14.66   13.62
  -3 -10  -8   -6.27   12.10
  -3 -10  -8   -0.77   16.58
   3  10   8   -6.09   12.77
  -4 -10  -8  254.11   28.69
  -4 -10  -8  240.41   28.58
  -4 -10  -8  216.92   31.78
   4  10   8  203.03   25.08
  -5 -10  -8   -1.76   18.27
  -5 -10  -8    7.92   12.01
   5  10   8   -1.37   14.75
  -6 -10  -8  114.24   24.68
  -6 -10  -8  150.41   23.60
   6  10   8  130.41   24.02
   2 -11  -8   -0.39   17.77
   2 -11  -8    9.55   14.25
  -2  11   8  -13.80   15.58
  -2  11   8   10.17   11.96
   1 -11  -8  277.90   30.47
   1 -11  -8  262.18   33.09
  -1  11   8  300.84   31.94
  -1  11   8  227.71   30.09
   0 -11  -8  -17.16   12.51
   0 -11  -8    7.59   12.32
   0  11   8    1.63   14.18
   0  11   8   -2.16   10.61
  -1 -11  -8  263.13   28.08
  -1 -11  -8  258.47   31.15
   1  11   8  244.22   27.13
   1  11   8  210.05   26.90
  -2 -11  -8   -7.58   16.15
  -2 -11  -8   17.61   14.68
   2  11   8    2.82   14.37
  -3 -11  -8  189.31   27.74
  -3 -11  -8  216.14   32.18
  -3 -11  -8  217.76   29.77
   3  11   8  250.48   27.19
  -4 -11  -8   13.49   12.34
  -4 -11  -8    5.09   20.77
  -4 -11  -8  -13.65   17.41
   4  11   8   13.31   16.53
   1  11  -9    2.63   12.36
   1  11  -9  -10.69   14.11
  -1 -11   9   24.91   17.60
   0  11  -9  258.96   30.72
   0  11  -9  221.92   28.47
   0 -11   9  200.57   30.73
  -1  11  -9    3.16   11.31
  -1  11  -9   -7.30    9.96
   1 -11   9  -13.82   17.00
  -2  11  -9  228.32   27.96
  -2  11  -9  188.35   27.86
  -2  11  -9  230.71   28.06
   2 -11   9  271.31   33.97
   2 -11   9  191.75   31.43
  -3  11  -9    1.60   16.31
  -3  11  -9  -13.24   17.46
  -3  11  -9    8.31   15.47
   3 -11   9  -21.32   31.37
   3 -11   9   17.68   15.47
   3  10  -9  366.47   35.25
   3  10  -9  301.34   32.45
  -3 -10   9  263.85   32.79
   2  10  -9   -2.80   14.59
   2  10  -9    0.41   14.80
  -2 -10   9    0.46   15.82
   1  10  -9  348.08   35.55
   1  10  -9  395.76   35.51
   1  10  -9  435.07   38.60
  -1 -10   9  420.15   39.39
   0  10  -9   -7.29   12.29
   0  10  -9   -5.63   13.37
   0  10  -9   -8.85   14.20
   0 -10   9    6.76   11.10
  -1  10  -9  265.58   28.20
  -1  10  -9  330.36   31.40
  -1  10  -9  290.38   29.64
   1 -10   9  318.26   33.96
  -2  10  -9   -9.14   12.65
  -2  10  -9   -4.30   12.65
  -2  10  -9   -5.35   13.28
   2 -10   9   13.07   15.77
   2 -10   9    5.37   15.61
  -3  10  -9  265.94   27.52
  -3  10  -9  252.89   29.32
  -3  10  -9  283.52   31.06
   3 -10   9  288.51   34.05
   3 -10   9  256.24   32.52
  -4  10  -9   19.57   15.25
  -4  10  -9    3.28   10.95
   4 -10   9   27.65   19.39
  -5  10  -9  175.86   25.71
  -5  10  -9  127.89   22.35
   5 -10   9  230.78   33.04
   5 -10   9  164.12   23.21
   4   9  -9  240.70   28.73
   4   9  -9  244.37   32.59
   4   9  -9  285.96   32.57
  -4  -9   9  322.68   34.96
   3   9  -9    6.92   11.84
   3   9  -9   -5.06   13.21
   3   9  -9   10.80   11.65
  -3  -9   9   -7.24   14.83
   2   9  -9  387.36   35.49
   2   9  -9  316.71   31.31
   2   9  -9  247.72   28.15
  -2  -9   9  412.32   38.19
   1   9  -9   20.17   13.60
   1   9  -9   16.70   11.20
   1   9  -9   27.79   11.55
  -1  -9   9   22.32   12.19
   0   9  -9  499.72   37.00
   0   9  -9  638.05   39.82
   0   9  -9  510.24   37.37
   0  -9   9  523.09   38.45
  -1   9  -9   -3.19   11.31
  -1   9  -9  -12.09   10.62
  -1   9  -9    1.27    8.35
   1  -9   9    2.01   12.48
  -2   9  -9  405.63   36.31
  -2   9  -9  383.00   33.15
  -2   9  -9  486.53   33.16
   2  -9   9  422.55   37.59
   2  -9   9  402.29   39.63
  -3   9  -9    5.52   12.27
  -3   9  -9    5.20   10.32
  -3   9  -9   -2.96   12.27
   3  -9   9   -6.97    9.15
   3  -9   9  -11.77   12.29
  -4   9  -9  297.52   29.66
  -4   9  -9  240.50   26.77
   4  -9   9  257.30   25.69
   4  -9   9  293.34   33.76
  -5   9  -9   -5.84   12.91
  -5   9  -9   -7.45   13.61
   5  -9   9   14.15   13.14
   5  -9   9   36.48   18.28
  -6   9  -9  176.49   26.90
  -6   9  -9  179.55   24.95
   6  -9   9  136.59   21.84
   6  -9   9  165.41   28.89
   5   8  -9  283.02   30.31
   5   8  -9  247.39   33.73
   5   8  -9  222.72   26.95
  -5  -8   9  259.26   34.57
  -5  -8   9  268.85   31.20
   4   8  -9  -19.28   11.23
   4   8  -9   -3.32   10.97
   4   8  -9   -7.02   13.62
  -4  -8   9    0.83   12.40
  -4  -8   9    9.35   15.73
   3   8  -9  256.91   26.88
   3   8  -9  206.55   26.25
   3   8  -9  195.17   25.45
  -3  -8   9  231.38   27.23
  -3  -8   9  254.80   25.25
   2   8  -9  -25.95   10.76
   2   8  -9   -0.67    9.84
   2   8  -9    3.00   11.61
   2   8  -9   -5.14   11.91
  -2  -8   9    9.26    9.56
  -2  -8   9   -2.06    9.76
  -2  -8   9   -5.74   16.27
   1   8  -9  492.89   35.96
   1   8  -9  438.01   38.53
   1   8  -9  496.12   36.01
  -1  -8   9  496.16   37.65
  -1  -8   9  589.19   48.57
   0   8  -9   22.63   12.74
   0   8  -9   19.03   11.07
   0   8  -9   15.97   11.81
   0  -8   9    1.06   10.72
   0  -8   9    6.97   11.59
  -1   8  -9  581.17   39.82
  -1   8  -9  665.01   40.82
  -1   8  -9  516.87   38.51
   1  -8   9  535.42   42.67
   1  -8   9  617.88   40.42
  -2   8  -9    7.62    8.59
  -2   8  -9   -1.79   11.74
  -2   8  -9    3.12   10.66
   2  -8   9    9.92   14.12
   2  -8   9    6.06   11.90
   2  -8   9   29.86   13.84
  -3   8  -9  411.25   32.76
  -3   8  -9  457.21   36.92
  -3   8  -9  434.87   30.65
   3  -8   9  373.97   39.33
   3  -8   9  351.77   37.06
   3  -8   9  439.00   35.06
   3  -8   9  376.46   27.47
  -4   8  -9    6.34   12.43
  -4   8  -9   -6.81   10.87
   4  -8   9   -0.74    9.68
   4  -8   9    2.08    9.69
  -5   8  -9  277.42   26.69
  -5   8  -9  270.50   29.80
   5  -8   9  276.36   31.13
   5  -8   9  268.11   25.96
  -6   8  -9    9.42   12.53
  -6   8  -9   22.73   15.35
   6  -8   9   10.06    9.69
   6  -8   9    2.20   15.56
  -7   8  -9  177.19   22.79
  -7   8  -9  201.46   26.11
  -7   8  -9  124.30   18.66
   7  -8   9  119.89   21.44
   7  -8   9  212.88   31.76
   6   7  -9  217.85   28.08
   6   7  -9  237.79   32.94
  -6  -7   9  238.36   31.94
  -6  -7   9  219.67   30.18
   5   7  -9  -11.90   13.51
   5   7  -9   -1.42   12.96
   5   7  -9    9.18   16.56
  -5  -7   9    1.78   14.92
  -5  -7   9    6.24   14.97
   4   7  -9  617.67   45.74
   4   7  -9  559.24   38.47
   4   7  -9  509.26   44.50
  -4  -7   9  491.74   44.20
  -4  -7   9  521.54   38.78
   3   7  -9   -3.44   12.90
   3   7  -9   -2.24   11.12
   3   7  -9  -15.00    7.54
  -3  -7   9    4.54   16.42
  -3  -7   9  -10.36    9.51
  -3  -7   9  -21.45   10.10
   2   7  -9  518.86   37.08
   2   7  -9  554.87   38.81
   2   7  -9  547.55   37.28
   2   7  -9  545.11   38.64
  -2  -7   9  563.72   39.57
  -2  -7   9  559.23   35.55
  -2  -7   9  507.77   46.29
   1   7  -9   11.23    8.55
   1   7  -9   28.29   12.15
   1   7  -9    9.65   11.01
  -1  -7   9   -3.09    7.90
  -1  -7   9    5.56   10.78
  -1  -7   9   11.31    8.16
   0   7  -9  594.23   37.92
   0   7  -9  589.52   39.57
   0   7  -9  582.81   38.03
   0  -7   9  579.43   42.19
   0  -7   9  575.49   38.78
  -1   7  -9   16.29   11.74
  -1   7  -9    4.71    9.59
  -1   7  -9   -2.66   10.07
   1  -7   9   -2.09    9.01
   1  -7   9   -6.91    8.05
  -2   7  -9  658.73   44.92
  -2   7  -9  773.48   45.16
  -2   7  -9  695.18   41.79
  -2   7  -9  805.77   45.77
   2  -7   9  691.54   47.20
   2  -7   9  743.52   45.96
   2  -7   9  754.88   49.97
  -3   7  -9    7.46    6.15
  -3   7  -9    1.14    9.27
  -3   7  -9   -1.25   11.09
  -3   7  -9   -9.64    6.01
   3  -7   9   -3.54   11.07
   3  -7   9   -6.10   13.67
   3  -7   9   -9.77    7.63
   3  -7   9   -1.30    7.34
  -4   7  -9  446.15   31.90
  -4   7  -9  443.38   37.60
   4  -7   9  458.11   30.72
   4  -7   9  525.80   39.17
   4  -7   9  486.81   33.51
   4  -7   9  465.83   40.65
  -5   7  -9    2.49   11.39
  -5   7  -9    4.55    7.13
  -5   7  -9  -11.29   10.02
   5  -7   9   14.57   10.05
   5  -7   9   -0.76    9.31
   5  -7   9    1.36   12.04
  -6   7  -9  231.19   27.42
  -6   7  -9  257.08   25.74
  -6   7  -9  208.99   20.01
   6  -7   9  247.09   28.87
   6  -7   9  229.64   24.32
  -7   7  -9   -1.56    9.99
  -7   7  -9    3.53   11.86
  -7   7  -9   -7.04    9.25
   7  -7   9   20.66   12.97
   7  -7   9  -22.48   14.37
  -8   7  -9  122.13   18.15
   8  -7   9  106.59   25.26
   8  -7   9   95.35   17.65
   6   6  -9   12.81   12.59
   6   6  -9   13.03   16.84
   6   6  -9   -7.68   12.89
  -6  -6   9    9.33   16.46
  -6  -6   9    8.42   15.87
   5   6  -9  457.79   39.49
   5   6  -9  469.25   38.25
   5   6  -9  441.55   41.25
  -5  -6   9  488.21   40.44
  -5  -6   9  414.38   39.53
   4   6  -9   14.58   11.57
   4   6  -9    2.83    8.97
   4   6  -9  -10.85    9.69
  -4  -6   9   13.00    9.22
  -4  -6   9   -6.89    7.93
   3   6  -9  622.89   43.15
   3   6  -9  614.53   39.92
   3   6  -9  583.54   39.71
  -3  -6   9  590.49   39.10
  -3  -6   9  557.64   40.25
  -3  -6   9  623.54   45.04
  -3  -6   9  648.50   42.58
   2   6  -9    0.55   10.40
   2   6  -9   -6.98    9.54
   2   6  -9   -1.35    8.29
   2   6  -9   -0.07    7.17
  -2  -6   9   -7.08    7.16
  -2  -6   9    5.20    9.66
  -2  -6   9    1.68    7.68
  -2  -6   9   -9.51    9.70
   1   6  -9  725.06   44.54
   1   6  -9  713.56   45.81
   1   6  -9  803.70   45.66
  -1  -6   9  761.96   45.68
  -1  -6   9  765.13   49.86
  -1  -6   9  682.05   41.27
  -1  -6   9  684.04   41.38
   0   6  -9    7.30    7.39
   0   6  -9   17.42    9.37
   0   6  -9    4.08    9.04
   0   6  -9   11.24    9.03
   0  -6   9   12.49    6.16
   0  -6   9   30.85    8.51
   0  -6   9    0.82    6.99
   0  -6   9   -6.20   11.89
  -1   6  -9  948.55   52.37
  -1   6  -9  909.22   53.93
  -1   6  -9  889.62   53.71
  -1   6  -9  982.84   55.07
   1  -6   9  795.97   55.93
   1  -6   9 1022.40   53.87
  -2   6  -9   -4.43    6.91
  -2   6  -9   -0.96    6.88
  -2   6  -9   16.92    9.65
  -2   6  -9   -6.05    6.07
   2  -6   9   -7.61    5.91
   2  -6   9  -16.22   10.41
   2  -6   9    1.48    7.37
   2  -6   9   -3.44    6.95
  -3   6  -9  702.34   44.00
  -3   6  -9  771.99   39.83
  -3   6  -9  691.58   41.28
   3  -6   9  637.71   45.38
   3  -6   9  639.71   38.74
   3  -6   9  628.72   43.71
   3  -6   9  636.06   40.19
  -4   6  -9   19.52    8.09
  -4   6  -9   23.51    8.31
  -4   6  -9   32.58   12.69
  -4   6  -9   21.55    5.75
   4  -6   9   18.04    8.88
   4  -6   9   22.70    9.79
   4  -6   9   16.13    9.51
   4  -6   9   18.33   15.28
  -5   6  -9  414.28   31.26
  -5   6  -9  468.15   27.88
  -5   6  -9  444.50   30.63
  -5   6  -9  460.46   37.87
   5  -6   9  481.77   31.09
   5  -6   9  516.54   38.15
   5  -6   9  426.54   37.84
  -6   6  -9   -1.23    7.62
  -6   6  -9    7.74   12.25
  -6   6  -9   13.60    9.92
   6  -6   9  -12.54    9.94
   6  -6   9    4.44   10.05
   6  -6   9    2.00    9.40
  -7   6  -9  238.49   23.51
  -7   6  -9  229.17   22.01
   7  -6   9  220.69   29.51
   7  -6   9  214.44   23.29
  -8   6  -9    4.49   11.36
   8  -6   9   -3.15   15.45
   8  -6   9   -1.22   12.87
  -9   6  -9   68.33   17.07
   9  -6   9   81.48   21.31
   9  -6   9   59.36   18.87
   7   5  -9   -0.63   12.45
   7   5  -9   11.85   15.12
   7   5  -9    3.43   16.66
  -7  -5   9   -7.32   15.84
   6   5  -9  318.57   34.15
   6   5  -9  279.27   30.74
   6   5  -9  248.03   28.02
  -6  -5   9  305.98   31.94
   5   5  -9   13.35   11.79
   5   5  -9    8.27    9.97
   5   5  -9   14.14   14.89
  -5  -5   9    2.11   10.84
  -5  -5   9    3.95   13.36
   4   5  -9  548.80   39.44
   4   5  -9  575.79   39.09
   4   5  -9  607.39   41.26
   4   5  -9  610.78   39.30
  -4  -5   9  617.82   40.84
  -4  -5   9  609.65   40.86
  -4  -5   9  563.12   37.66
   3   5  -9   -0.89    8.38
   3   5  -9    0.68    9.44
   3   5  -9  -10.12    8.92
   3   5  -9  -10.06   11.18
  -3  -5   9   10.09    8.34
  -3  -5   9   10.16    7.14
  -3  -5   9   10.65    8.31
  -3  -5   9   -4.45   10.51
  -3  -5   9    0.45    9.82
   2   5  -9  674.75   41.42
   2   5  -9  641.38   39.96
   2   5  -9  611.24   38.83
   2   5  -9  518.67   38.86
  -2  -5   9  609.72   39.64
  -2  -5   9  657.52   37.74
  -2  -5   9  599.77   42.31
  -2  -5   9  560.92   37.20
   1   5  -9    2.04    6.74
   1   5  -9    6.45    6.65
   1   5  -9   -6.49    9.37
   1   5  -9    0.17    8.70
   1   5  -9    3.08    7.52
  -1  -5   9   -0.69    6.66
  -1  -5   9    5.07    6.24
  -1  -5   9   -9.65   10.92
  -1  -5   9    1.88    7.44
   0   5  -9  795.31   49.82
   0   5  -9  903.80   51.28
   0   5  -9 1009.58   53.38
   0   5  -9  881.01   51.76
   0  -5   9  785.33   53.18
   0  -5   9  936.43   51.19
   0  -5   9  933.71   48.41
  -1   5  -9   -1.07    5.91
  -1   5  -9    5.69    9.01
  -1   5  -9    9.00    5.96
  -1   5  -9    3.79    6.61
   1  -5   9   15.04    9.78
   1  -5   9    7.63    6.54
   1  -5   9   -0.27    4.14
   1  -5   9   18.60   11.97
   1  -5   9    6.55    4.64
  -2   5  -9  817.70   44.80
  -2   5  -9  822.40   47.92
  -2   5  -9  756.20   45.67
  -2   5  -9  815.59   46.05
   2  -5   9  742.17   48.70
   2  -5   9  729.24   43.65
   2  -5   9  764.63   41.86
   2  -5   9  773.23   48.46
  -3   5  -9    6.90    6.59
  -3   5  -9   11.40    7.49
  -3   5  -9    6.09    7.14
   3  -5   9   12.95    6.52
   3  -5   9   -5.25    5.91
   3  -5   9    7.89    7.42
   3  -5   9    7.19    9.01
  -4   5  -9  786.95   45.42
  -4   5  -9  763.77   40.30
  -4   5  -9  805.59   47.16
  -4   5  -9  758.37   43.53
   4  -5   9  728.43   50.22
   4  -5   9  781.92   43.44
   4  -5   9  678.74   47.91
   4  -5   9  757.96   41.99
  -5   5  -9   -1.72    6.34
  -5   5  -9    4.21    6.40
  -5   5  -9    1.19   10.27
  -5   5  -9    2.01    6.47
   5  -5   9   -5.44   10.56
   5  -5   9   11.89    8.87
   5  -5   9    0.93    9.60
  -6   5  -9  380.43   24.77
  -6   5  -9  355.59   28.53
  -6   5  -9  327.22   24.95
   6  -5   9  338.47   35.75
   6  -5   9  384.21   35.38
   6  -5   9  375.64   29.68
  -7   5  -9   -5.24    8.54
  -7   5  -9   10.28    9.33
   7  -5   9   46.70   17.11
   7  -5   9   14.60    8.84
  -8   5  -9  116.72   17.64
   8  -5   9  179.56   25.00
   8  -5   9  172.55   20.64
  -9   5  -9   -5.62   12.36
   9  -5   9   -4.51    9.02
   9  -5   9  -14.21   12.09
   7   4  -9  270.80   28.44
   7   4  -9  272.07   33.69
   7   4  -9  271.57   30.58
  -7  -4   9  296.70   33.15
   6   4  -9    5.44   11.51
   6   4  -9    9.44   12.14
   6   4  -9    1.40   10.56
  -6  -4   9   -1.13   14.08
  -6  -4   9   17.74   10.92
   5   4  -9  629.56   43.84
   5   4  -9  698.38   44.80
   5   4  -9  697.10   42.93
  -5  -4   9  597.21   42.09
  -5  -4   9  624.78   43.18
   4   4  -9   -2.20    7.05
   4   4  -9  -11.44   11.02
   4   4  -9  -11.05    7.04
  -4  -4   9    0.72    9.15
  -4  -4   9   -6.35    9.53
  -4  -4   9   13.35    9.21
   3   4  -9  605.28   43.42
   3   4  -9  771.51   44.97
   3   4  -9  716.77   45.83
   3   4  -9  691.79   43.80
  -3  -4   9  784.66   45.41
  -3  -4   9  752.15   47.52
  -3  -4   9  792.22   44.74
  -3  -4   9  721.70   43.79
   2   4  -9   -6.63    6.13
   2   4  -9   -2.60    5.78
   2   4  -9   -2.36    6.97
   2   4  -9   -7.27    6.71
   2   4  -9    5.24   10.10
   2   4  -9    6.03    7.15
  -2  -4   9  -11.88    6.78
  -2  -4   9   -8.18    9.44
  -2  -4   9  -12.64    6.87
   1   4  -9 1004.66   61.14
   1   4  -9 1052.09   60.41
   1   4  -9 1088.54   60.03
   1   4  -9 1005.80   58.17
   1   4  -9 1095.45   60.32
   1   4  -9 1092.55   62.03
  -1  -4   9 1130.64   60.11
  -1  -4   9 1093.80   59.86
  -1  -4   9 1113.78   63.14
  -1  -4   9 1095.20   58.54
   0   4  -9    2.96    5.61
   0   4  -9    0.95    8.18
   0   4  -9    6.25    6.62
   0   4  -9    4.24    7.50
   0  -4   9  -10.89    5.16
   0  -4   9    6.56    9.60
  -1   4  -9 1002.21   61.29
  -1   4  -9 1117.18   62.01
  -1   4  -9 1165.82   62.36
  -1   4  -9 1167.89   64.10
   1  -4   9 1186.38   60.96
   1  -4   9 1194.75   65.64
   1  -4   9 1040.60   63.18
   1  -4   9 1168.03   57.71
  -2   4  -9   10.28    7.53
  -2   4  -9   15.08    8.25
  -2   4  -9    7.76    8.92
   2  -4   9    8.02    5.97
   2  -4   9    6.10   10.17
   2  -4   9    3.36    4.92
   2  -4   9    3.08    3.55
   2  -4   9    5.16    7.17
  -3   4  -9  928.08   51.02
  -3   4  -9  883.82   50.59
  -3   4  -9  890.96   52.59
   3  -4   9  946.10   54.95
   3  -4   9  878.60   53.34
   3  -4   9  922.50   48.27
   3  -4   9  880.71   48.71
  -4   4  -9   20.50   10.77
  -4   4  -9    8.87    7.86
  -4   4  -9    7.94    4.85
  -4   4  -9    4.40    7.87
   4  -4   9    3.65    7.96
   4  -4   9    1.67    6.48
   4  -4   9    0.03    6.88
  -5   4  -9  513.03   36.43
  -5   4  -9  563.36   32.96
  -5   4  -9  578.68   35.06
  -5   4  -9  612.80   35.54
   5  -4   9  578.53   34.31
   5  -4   9  505.01   37.67
   5  -4   9  613.51   41.98
  -6   4  -9    1.35    7.72
  -6   4  -9    1.35    7.94
  -6   4  -9   14.33    8.32
   6  -4   9    2.33    6.57
   6  -4   9   -1.80   12.34
   6  -4   9    1.05    9.08
  -7   4  -9  332.88   23.23
  -7   4  -9  300.33   26.05
  -7   4  -9  334.44   26.33
   7  -4   9  250.11   29.84
   7  -4   9  291.57   32.23
   7  -4   9  342.82   28.54
  -8   4  -9    6.56   10.70
   8  -4   9    9.49   11.51
   8  -4   9   -1.63   14.69
  -9   4  -9  114.69   18.42
   9  -4   9  101.48   23.69
   9  -4   9   90.83   18.40
   7   3  -9  -16.25   10.78
   7   3  -9   -3.07   16.06
   7   3  -9   13.50   16.28
  -7  -3   9    4.96   16.91
   6   3  -9  389.05   36.46
   6   3  -9  357.63   34.04
   6   3  -9  359.19   31.56
  -6  -3   9  396.30   36.70
  -6  -3   9  382.63   36.10
   5   3  -9    7.70   10.27
   5   3  -9   -3.65    8.73
   5   3  -9   12.21    9.10
   5   3  -9  -11.26    7.29
  -5  -3   9  -16.68   10.47
  -5  -3   9    3.12    8.89
  -5  -3   9    4.35    8.82
   4   3  -9  940.68   53.67
   4   3  -9  911.00   53.42
   4   3  -9 1012.19   55.42
   4   3  -9  889.67   56.16
  -4  -3   9  935.88   55.78
  -4  -3   9  884.22   53.71
  -4  -3   9  911.91   55.26
   3   3  -9   15.00   10.98
   3   3  -9   -3.43    6.80
   3   3  -9    2.31    8.39
   3   3  -9    2.82    6.52
  -3  -3   9    6.64    7.53
  -3  -3   9    6.93    8.95
  -3  -3   9   -0.73    8.67
   2   3  -9 1057.61   59.25
   2   3  -9 1078.39   61.18
   2   3  -9 1033.22   62.13
   2   3  -9 1092.75   60.81
   2   3  -9 1120.84   61.26
   2   3  -9 1053.93   60.26
   2   3  -9 1178.72   63.55
  -2  -3   9 1060.77   61.13
  -2  -3   9 1151.88   62.75
   1   3  -9   10.79    8.30
   1   3  -9   -9.27    7.97
   1   3  -9    6.72    5.85
   1   3  -9  -11.43    5.92
   1   3  -9   -1.48    5.98
   1   3  -9   -4.48    5.64
   1   3  -9   -3.00    5.77
  -1  -3   9   -5.13    7.66
  -1  -3   9    2.74    7.14
   0   3  -9 1503.01   80.16
   0   3  -9 1542.08   81.77
   0   3  -9 1560.62   78.60
   0   3  -9 1534.59   80.56
   0   3  -9 1553.76   80.64
   0  -3   9 1507.39   78.55
   0  -3   9 1485.83   74.51
   0  -3   9 1399.10   81.07
   0  -3   9 1491.47   80.99
  -1   3  -9   40.16    9.94
  -1   3  -9   40.32    7.11
  -1   3  -9   20.29    8.39
  -1   3  -9   28.06    8.15
   1  -3   9   46.14   11.21
   1  -3   9   27.50    9.90
   1  -3   9   39.54    7.14
   1  -3   9   38.97    5.60
  -2   3  -9 1110.21   61.36
  -2   3  -9 1237.46   64.24
  -2   3  -9 1211.33   59.59
  -2   3  -9 1119.28   61.89
   2  -3   9 1079.78   58.73
   2  -3   9 1139.21   64.09
   2  -3   9 1131.99   58.65
   2  -3   9 1113.39   63.42
  -3   3  -9   11.63    7.34
  -3   3  -9    7.01    7.70
  -3   3  -9    7.69    7.21
  -3   3  -9    3.77    3.14
   3  -3   9    5.48    6.03
   3  -3   9    5.57    7.26
   3  -3   9    0.21    3.36
   3  -3   9   -0.97    5.75
  -4   3  -9  766.55   46.48
  -4   3  -9  752.67   44.11
  -4   3  -9  768.79   40.98
  -4   3  -9  781.48   43.75
   4  -3   9  703.35   46.18
   4  -3   9  809.76   43.19
   4  -3   9  782.02   48.59
  -5   3  -9    4.33    6.33
  -5   3  -9    8.85    6.91
  -5   3  -9    4.96    7.34
  -5   3  -9   -0.67    5.75
   5  -3   9    3.62    5.85
   5  -3   9    5.75   11.30
   5  -3   9   -1.39    7.16
  -6   3  -9  533.17   35.97
  -6   3  -9  592.88   34.28
  -6   3  -9  565.02   33.65
   6  -3   9  535.14   35.47
   6  -3   9  553.68   38.83
   6  -3   9  601.55   41.91
  -7   3  -9   20.06    9.24
  -7   3  -9   -7.73    6.44
   7  -3   9  -11.51   13.12
   7  -3   9    4.72    9.13
   7  -3   9   20.52   10.53
  -8   3  -9  173.53   19.99
   8  -3   9  159.68   19.35
   8  -3   9  159.04   23.19
  -9   3  -9   -6.79   11.87
   9  -3   9   10.34   13.21
   9  -3   9   -0.71   12.27
 -10   3  -9   67.97   18.16
  10  -3   9   23.24   16.12
  10  -3   9   82.40   20.04
   8   2  -9  -12.64   17.60
   8   2  -9   -5.15   12.70
  -8  -2   9  -30.66   16.95
   7   2  -9  417.89   37.92
   7   2  -9  329.35   34.89
  -7  -2   9  317.72   36.57
   6   2  -9    4.19   11.71
   6   2  -9    5.09   12.54
   6   2  -9   -1.36    9.77
  -6  -2   9  -11.11   12.51
  -6  -2   9    3.43   12.08
  -6  -2   9   -1.36    9.94
   5   2  -9  558.99   38.68
   5   2  -9  615.39   38.65
   5   2  -9  620.70   41.07
   5   2  -9  610.28   41.67
  -5  -2   9  649.31   42.97
  -5  -2   9  682.48   41.45
   4   2  -9   -1.09    8.26
   4   2  -9   -0.92    7.56
   4   2  -9   -3.62   10.49
   4   2  -9   16.12   10.23
  -4  -2   9   -9.77    8.34
  -4  -2   9   -3.94    7.13
   3   2  -9  804.36   45.99
   3   2  -9  753.28   44.13
   3   2  -9  765.10   46.07
   3   2  -9  635.98   41.93
   3   2  -9  890.06   46.19
  -3  -2   9  723.34   44.75
  -3  -2   9  620.44   43.71
  -3  -2   9  787.65   45.53
   2   2  -9   -2.61    8.53
   2   2  -9  -11.26    7.59
   2   2  -9    4.51    6.34
   2   2  -9    1.21    6.89
   2   2  -9    3.25    5.44
   2   2  -9   -0.62    6.07
  -2  -2   9   -3.64    8.04
  -2  -2   9   -9.47    7.43
  -2  -2   9    6.82    7.46
   1   2  -9 1144.65   65.20
   1   2  -9 1238.95   64.54
   1   2  -9 1200.60   64.73
   1   2  -9 1165.43   63.66
   1   2  -9 1122.44   64.91
   1   2  -9 1217.13   63.23
  -1  -2   9 1299.31   64.51
  -1  -2   9 1068.15   58.08
  -1  -2   9 1243.53   64.80
   0   2  -9   -2.40    4.34
   0   2  -9    1.89    7.55
   0   2  -9   -0.42    5.60
   0   2  -9    3.41    5.94
   0   2  -9   -1.83    7.00
   0  -2   9   -3.14    6.17
   0  -2   9    4.46    2.98
   0  -2   9   -0.61    6.73
  -1   2  -9 1708.65   85.44
  -1   2  -9 1675.53   86.73
  -1   2  -9 1623.84   83.31
  -1   2  -9 1522.66   85.27
   1  -2   9 1504.68   80.95
   1  -2   9 1647.03   82.36
   1  -2   9 1700.65   86.25
   1  -2   9 1660.12   86.33
  -2   2  -9    8.30    5.25
  -2   2  -9   11.11    5.51
  -2   2  -9   -1.93    5.04
  -2   2  -9    6.51    5.49
   2  -2   9    7.86    7.90
   2  -2   9    6.14    3.43
   2  -2   9   -3.03    3.66
   2  -2   9    0.11    5.63
  -3   2  -9 1061.18   54.02
  -3   2  -9 1014.59   56.10
  -3   2  -9 1088.92   58.22
  -3   2  -9  941.69   57.62
  -3   2  -9 1053.76   53.03
   3  -2   9 1066.88   59.77
   3  -2   9 1081.65   55.04
   3  -2   9 1012.73   58.79
  -4   2  -9   13.90    7.19
  -4   2  -9   -0.37    6.05
  -4   2  -9    2.10    4.52
  -4   2  -9    4.38    3.55
  -4   2  -9    4.77    8.23
   4  -2   9   12.36    8.29
   4  -2   9  -11.71    7.57
   4  -2   9    7.83    6.51
  -5   2  -9  703.87   42.68
  -5   2  -9  637.61   41.39
  -5   2  -9  713.96   39.99
  -5   2  -9  734.65   39.54
   5  -2   9  666.24   44.65
   5  -2   9  731.16   45.86
   5  -2   9  718.30   40.95
  -6   2  -9   10.15    6.45
  -6   2  -9   22.08    8.23
   6  -2   9   36.04   15.11
   6  -2   9  -12.62    7.87
   6  -2   9    1.53   10.81
  -7   2  -9  350.70   26.42
   7  -2   9  243.23   24.67
   7  -2   9  292.73   29.78
   7  -2   9  331.61   33.54
  -8   2  -9    1.21   10.26
   8  -2   9    0.93   10.80
   8  -2   9   12.04   12.94
   8  -2   9    2.96   10.47
  -9   2  -9  156.14   20.49
   9  -2   9  135.18   20.60
   9  -2   9   95.34   22.81
 -10   2  -9    4.08   13.78
  10  -2   9  -28.88   16.36
  10  -2   9    6.40   14.29
   8   1  -9  212.12   29.87
   8   1  -9  253.55   31.19
  -8  -1   9  229.97   32.98
   7   1  -9    7.35   10.69
   7   1  -9   -0.67   10.15
   7   1  -9   -4.27   11.79
  -7  -1   9   19.51   16.15
   6   1  -9  448.44   35.89
   6   1  -9  487.64   38.40
   6   1  -9  411.01   32.13
  -6  -1   9  325.71   32.25
  -6  -1   9  372.42   35.67
   5   1  -9    6.21    9.93
   5   1  -9    7.25   11.23
   5   1  -9    6.39    9.09
  -5  -1   9   -1.39   12.16
  -5  -1   9   -9.47   10.29
   4   1  -9 1030.69   55.66
   4   1  -9  948.31   56.96
   4   1  -9  984.69   56.92
  -4  -1   9 1004.98   57.59
  -4  -1   9  883.96   57.04
   3   1  -9    7.25    9.38
   3   1  -9   -3.10    5.57
   3   1  -9   11.56    7.93
   3   1  -9   -6.63    6.27
  -3  -1   9   -4.83    7.32
  -3  -1   9    2.51    5.31
  -3  -1   9   -4.17    5.98
  -3  -1   9    4.31    7.54
   2   1  -9  996.19   55.95
   2   1  -9  935.51   54.15
   2   1  -9  966.84   55.20
   2   1  -9 1032.83   56.34
  -2  -1   9 1137.95   58.63
  -2  -1   9 1005.44   56.84
  -2  -1   9  954.07   53.34
  -2  -1   9 1026.98   54.77
  -2  -1   9  889.93   52.36
   1   1  -9    3.56    5.88
   1   1  -9   -4.92    4.72
   1   1  -9   -2.96    6.46
   1   1  -9   -9.29    4.99
   1   1  -9    7.42    5.87
  -1  -1   9    4.12    2.94
  -1  -1   9    0.50    5.22
  -1  -1   9   -3.73    5.83
   0   1  -9 1473.96   81.14
   0   1  -9 1600.64   81.88
   0   1  -9 1580.25   80.53
   0   1  -9 1591.71   80.09
   0   1  -9 1414.04   78.76
   0  -1   9 1454.66   79.92
   0  -1   9 1591.16   80.44
   0  -1   9 1538.04   76.14
  -1   1  -9   16.77    6.16
  -1   1  -9   22.23    8.92
  -1   1  -9   21.48    6.82
  -1   1  -9   22.45    9.18
   1  -1   9   25.97    7.31
   1  -1   9   23.83    4.86
   1  -1   9   28.49    8.43
  -2   1  -9 1481.07   78.36
  -2   1  -9 1499.54   75.12
  -2   1  -9 1648.42   77.38
  -2   1  -9 1442.52   78.06
   2  -1   9 1589.54   78.58
   2  -1   9 1518.75   78.59
   2  -1   9 1373.12   71.88
   2  -1   9 1420.52   74.43
   2  -1   9 1388.23   72.03
  -3   1  -9   27.45    9.41
  -3   1  -9   35.05    6.17
  -3   1  -9   32.20    9.40
  -3   1  -9   34.14    7.85
  -3   1  -9   33.41    6.22
   3  -1   9   21.02    7.53
   3  -1   9   41.93    7.57
   3  -1   9   12.45    8.49
  -4   1  -9 1026.39   53.89
  -4   1  -9  966.60   57.37
  -4   1  -9 1008.26   54.66
  -4   1  -9  996.28   56.91
  -4   1  -9 1014.67   52.20
   4  -1   9 1150.31   59.08
   4  -1   9 1041.49   59.19
   4  -1   9  977.34   54.77
  -5   1  -9    1.95    6.66
  -5   1  -9   -5.96    4.86
  -5   1  -9   10.57    7.45
   5  -1   9    1.09    5.61
   5  -1   9    0.44    6.87
   5  -1   9   -9.95    6.24
  -6   1  -9  336.47   23.43
  -6   1  -9  345.15   22.42
  -6   1  -9  459.52   26.07
   6  -1   9  365.99   28.45
   6  -1   9  360.14   31.51
   6  -1   9  374.73   32.68
  -7   1  -9    1.05    9.00
   7  -1   9    1.36    9.57
   7  -1   9   12.09   13.17
   7  -1   9  -13.26   12.93
  -8   1  -9  207.20   21.90
   8  -1   9  205.15   25.93
   8  -1   9  212.01   23.23
  -9   1  -9   -4.77   12.10
   9  -1   9   -4.25   16.32
   9  -1   9    8.71    9.38
 -10   1  -9   99.22   18.09
  10  -1   9   87.55   21.25
   8   0  -9   38.40   19.43
   8   0  -9  -12.10   15.69
   8   0  -9  -13.74   13.32
  -8   0   9    5.14   13.69
   7   0  -9  277.77   29.63
   7   0  -9  245.83   25.15
   7   0  -9  327.99   30.34
  -7   0   9  300.30   30.78
   6   0  -9  -12.21   10.18
   6   0  -9  -17.44   11.69
   6   0  -9   11.79   12.64
  -6   0   9   -6.87   13.61
  -6   0   9    0.37   12.08
   5   0  -9  765.48   49.02
   5   0  -9  744.56   50.62
   5   0  -9  963.33   51.90
  -5   0   9  849.04   52.17
  -5   0   9  848.26   53.05
   4   0  -9   -0.78    7.14
   4   0  -9   -2.58    9.55
   4   0  -9   -8.44    9.23
  -4   0   9   20.47   12.44
  -4   0   9   10.27    8.73
   3   0  -9 1169.49   62.65
   3   0  -9  973.97   62.83
   3   0  -9 1217.30   62.06
   3   0  -9 1184.02   62.77
  -3   0   9 1064.42   58.64
  -3   0   9 1187.50   60.62
  -3   0   9 1040.27   64.74
  -3   0   9 1199.48   65.05
   2   0  -9   -4.86    5.20
   2   0  -9    4.09    8.05
   2   0  -9    3.40    8.02
   2   0  -9   -0.81    5.07
  -2   0   9   -1.68    8.46
  -2   0   9    0.51    5.23
  -2   0   9    3.76    5.64
  -2   0   9   -0.95    4.22
  -2   0   9   16.13    8.29
   1   0  -9 1769.56   88.23
   1   0  -9 1720.69   89.98
   1   0  -9 1642.47   87.90
   1   0  -9 1584.43   89.51
  -1   0   9 1698.92   84.87
  -1   0   9 1663.94   87.09
  -1   0   9 1686.04   90.63
  -1   0   9 1770.06   86.93
   0   0  -9   -1.83    6.95
   0   0  -9    2.02    6.12
   0   0  -9    7.30    5.99
   0   0  -9   -3.74    5.46
   0   0   9   -1.65    3.38
   0   0   9    5.00    5.43
   0   0   9   -3.12    4.11
  -1   0  -9 1723.45   91.33
  -1   0  -9 1706.15   93.71
  -1   0  -9 1891.47   91.73
  -1   0  -9 1795.50   93.54
   1   0   9 1826.52   93.30
   1   0   9 1719.78   89.79
   1   0   9 1872.50   92.35
  -2   0  -9   -3.79    2.20
  -2   0  -9   -5.70    5.88
  -2   0  -9   -9.14    3.95
  -2   0  -9    5.24    5.49
  -2   0  -9   -1.41    3.53
  -2   0  -9   -6.70    4.63
   2   0   9    2.88    6.34
   2   0   9    1.50    5.16
  -3   0  -9 1124.85   65.63
  -3   0  -9 1241.70   61.69
  -3   0  -9 1131.92   61.44
  -3   0  -9 1165.20   64.94
   3   0   9 1251.53   65.50
   3   0   9 1204.56   66.31
   3   0   9 1240.91   62.75
  -4   0  -9    2.61    5.98
  -4   0  -9   -3.78    4.89
  -4   0  -9   -1.05    3.62
   4   0   9    4.62    8.66
   4   0   9    1.66    6.12
   4   0   9   -0.48    5.87
  -5   0  -9  719.38   40.91
  -5   0  -9  779.23   40.67
  -5   0  -9  695.24   42.33
  -5   0  -9  677.45   36.52
   5   0   9  700.37   44.50
   5   0   9  741.99   44.37
   5   0   9  661.32   40.74
  -6   0  -9   10.79    7.97
  -6   0  -9   -2.80    5.98
   6   0   9   -2.94    6.03
   6   0   9    3.76   11.12
   6   0   9    0.95   10.73
  -7   0  -9  349.42   25.22
  -7   0  -9  328.65   27.63
   7   0   9  310.10   31.41
   7   0   9  397.14   29.91
   7   0   9  315.92   32.77
  -8   0  -9  -13.40    9.32
   8   0   9   -1.27    9.64
   8   0   9  -13.56   15.09
  -9   0  -9  126.90   19.66
   9   0   9   97.30   23.91
 -10   0  -9   -0.69   13.51
  10   0   9   -5.02   13.61
   8  -1  -9  214.55   26.15
   8  -1  -9  305.21   34.12
   8  -1  -9  289.12   31.47
  -8   1   9  264.62   34.80
   7  -1  -9   -9.89   11.29
   7  -1  -9   -3.89   13.74
   7  -1  -9    5.65   12.00
  -7   1   9   -1.32   14.83
   6  -1  -9  406.58   32.76
   6  -1  -9  416.83   34.00
   6  -1  -9  387.50   35.09
  -6   1   9  379.11   34.26
   5  -1  -9   10.98   10.08
   5  -1  -9   -2.76   11.56
   5  -1  -9   -2.22    6.93
  -5   1   9   -3.13   12.77
  -5   1   9    5.36   12.07
   4  -1  -9  967.97   53.83
   4  -1  -9  967.71   56.23
   4  -1  -9  980.02   54.07
   4  -1  -9  936.09   55.29
  -4   1   9  915.53   57.21
  -4   1   9  900.14   56.83
   3  -1  -9   -8.34    8.19
   3  -1  -9   -0.39    7.98
   3  -1  -9    6.40    9.38
   3  -1  -9  -10.01    8.31
  -3   1   9    5.32    7.95
  -3   1   9    5.44    5.68
  -3   1   9    1.40    4.86
  -3   1   9   -8.13    9.33
   2  -1  -9  989.99   52.96
   2  -1  -9  829.34   53.21
   2  -1  -9 1061.21   53.37
   2  -1  -9  865.24   51.94
  -2   1   9 1003.52   50.06
  -2   1   9 1056.31   50.58
  -2   1   9  885.02   55.87
  -2   1   9  917.19   55.41
  -2   1   9  909.04   49.20
   1  -1  -9   -2.16    4.24
   1  -1  -9   -6.35    4.51
   1  -1  -9   -0.81    7.55
   1  -1  -9    8.48    8.16
  -1   1   9   -2.55    5.64
  -1   1   9   -9.12    4.50
  -1   1   9   -1.20    4.70
  -1   1   9   -5.17    3.56
   0  -1  -9 1677.67   82.73
   0  -1  -9 1576.10   79.68
   0  -1  -9 1363.08   80.80
   0  -1  -9 1558.90   80.12
   0   1   9 1502.66   78.15
   0   1   9 1489.18   77.99
   0   1   9 1635.66   80.16
  -1  -1  -9   13.60    3.21
  -1  -1  -9   20.57    8.67
  -1  -1  -9    8.36    6.27
  -1  -1  -9    2.76    5.44
  -1  -1  -9   26.50    6.41
  -1  -1  -9   22.02    7.00
   1   1   9   20.90    7.44
   1   1   9   15.47    5.15
   1   1   9   18.78    5.85
  -2  -1  -9 1405.82   73.50
  -2  -1  -9 1534.18   77.63
  -2  -1  -9 1442.04   78.55
  -2  -1  -9 1512.22   75.69
  -2  -1  -9 1530.84   74.56
  -2  -1  -9 1393.17   76.89
   2   1   9 1527.75   76.82
   2   1   9 1493.73   75.45
   2   1   9 1421.99   72.23
   2   1   9 1445.70   78.04
  -3  -1  -9   29.99    9.11
  -3  -1  -9   19.85    8.00
  -3  -1  -9   29.19    6.75
  -3  -1  -9   28.14    7.12
   3   1   9   34.79   10.81
   3   1   9   30.46    7.62
   3   1   9   25.70    8.02
  -4  -1  -9 1030.28   52.59
  -4  -1  -9  973.29   55.67
  -4  -1  -9 1061.39   54.40
  -4  -1  -9 1028.20   56.26
   4   1   9  950.59   57.22
   4   1   9  995.40   57.05
   4   1   9 1003.16   54.58
  -5  -1  -9    0.68    7.25
  -5  -1  -9    5.03    3.86
  -5  -1  -9   -2.33    7.39
  -5  -1  -9    5.18    7.50
   5   1   9    6.38    7.66
   5   1   9   -0.94    9.19
  -6  -1  -9  385.05   27.47
  -6  -1  -9  425.16   26.23
  -6  -1  -9  359.23   26.70
   6   1   9  366.76   33.04
   6   1   9  381.86   33.00
  -7  -1  -9   -1.92    9.10
  -7  -1  -9    4.01    9.56
   7   1   9   -0.23    8.66
   7   1   9   -4.25    8.75
  -8  -1  -9  199.12   21.96
  -8  -1  -9  207.21   22.93
   8   1   9  188.98   21.89
   8   1   9  201.87   26.36
   8   1   9  225.78   27.97
  -9  -1  -9   -7.76   11.36
   9   1   9    0.18    8.99
   9   1   9    0.52   17.32
 -10  -1  -9  109.30   21.34
  10   1   9   72.81   24.88
  10   1   9  101.25   20.86
   8  -2  -9   -1.73   12.77
   8  -2  -9   14.94   15.01
  -8   2   9   -3.10   17.78
   7  -2  -9  325.51   33.69
   7  -2  -9  394.83   32.22
   7  -2  -9  277.03   29.77
  -7   2   9  376.33   37.07
   6  -2  -9   -4.53    9.82
   6  -2  -9   -9.76    7.07
   6  -2  -9   18.85   13.99
  -6   2   9    0.23    9.59
   5  -2  -9  643.08   40.31
   5  -2  -9  613.12   42.59
   5  -2  -9  650.66   41.56
  -5   2   9  705.67   45.89
  -5   2   9  670.07   46.60
   4  -2  -9   12.16    7.47
   4  -2  -9   -0.40    6.99
   4  -2  -9    0.43    9.53
   4  -2  -9   -9.85    5.76
  -4   2   9   -3.41    7.51
  -4   2   9    8.92    9.56
  -4   2   9    0.46    8.30
   3  -2  -9  741.32   45.18
   3  -2  -9  751.65   43.63
   3  -2  -9  672.67   42.62
   3  -2  -9  672.11   41.98
  -3   2   9  855.64   48.60
  -3   2   9  753.07   46.98
  -3   2   9  774.12   41.64
   2  -2  -9    5.88    7.42
   2  -2  -9    1.91    5.94
   2  -2  -9   -8.37    5.63
  -2   2   9   -4.65    3.93
  -2   2   9   -3.18    6.41
  -2   2   9   13.34    9.99
  -2   2   9   11.91    6.51
   1  -2  -9 1299.76   64.22
   1  -2  -9 1175.06   62.97
   1  -2  -9 1187.34   65.39
  -1   2   9 1149.65   58.23
  -1   2   9 1127.53   61.71
  -1   2   9 1223.64   66.93
  -1   2   9 1179.20   61.24
   0  -2  -9    7.17    5.27
   0  -2  -9    4.12    5.09
   0  -2  -9   -7.25    4.67
   0  -2  -9   -1.49    2.22
   0  -2  -9    6.89    8.17
   0  -2  -9    1.06    2.89
   0   2   9    1.80    5.20
   0   2   9    1.17    5.83
   0   2   9   -3.72    4.82
   0   2   9    6.22    3.60
  -1  -2  -9 1593.51   80.52
  -1  -2  -9 1498.81   83.04
  -1  -2  -9 1604.54   84.20
  -1  -2  -9 1643.57   81.05
  -1  -2  -9 1594.09   81.84
  -1  -2  -9 1574.52   85.35
  -1  -2  -9 1593.86   82.07
   1   2   9 1658.80   82.67
   1   2   9 1644.19   84.02
   1   2   9 1657.07   81.73
  -2  -2  -9    1.65    5.92
  -2  -2  -9    2.33    4.45
  -2  -2  -9    4.36    6.01
  -2  -2  -9    2.94    5.03
  -2  -2  -9    9.69    6.71
   2   2   9    2.66    5.94
   2   2   9    0.75    3.72
   2   2   9   -0.27    5.63
   2   2   9    3.20    6.98
  -3  -2  -9 1047.25   56.81
  -3  -2  -9 1086.69   55.84
  -3  -2  -9 1013.37   57.08
  -3  -2  -9 1015.05   55.06
   3   2   9 1082.13   59.09
   3   2   9 1049.45   56.93
   3   2   9 1009.33   55.77
  -4  -2  -9    1.99    4.84
  -4  -2  -9   16.61    7.11
  -4  -2  -9   10.66    7.07
  -4  -2  -9    8.91    5.93
   4   2   9    3.64    5.92
   4   2   9    9.38    6.12
   4   2   9    2.08    6.66
  -5  -2  -9  667.49   42.35
  -5  -2  -9  731.97   41.34
  -5  -2  -9  651.69   40.62
  -5  -2  -9  696.65   37.86
   5   2   9  732.56   44.23
   5   2   9  674.35   44.64
   5   2   9  740.77   41.27
  -6  -2  -9   -4.01    7.81
  -6  -2  -9    7.66    8.72
  -6  -2  -9   -7.19    8.59
   6   2   9   25.29   10.26
   6   2   9    5.71   12.11
   6   2   9    3.49    8.97
  -7  -2  -9  355.31   30.91
  -7  -2  -9  344.07   28.93
   7   2   9  375.67   34.27
   7   2   9  346.20   30.17
   7   2   9  354.20   34.11
  -8  -2  -9    6.79   11.95
  -8  -2  -9   -1.83   10.63
   8   2   9   -5.44   14.36
   8   2   9   17.87   10.28
  -9  -2  -9   94.95   18.40
  -9  -2  -9  148.03   22.33
   9   2   9  166.28   22.52
   9   2   9  128.69   26.00
 -10  -2  -9  -11.63    8.71
  10   2   9  -15.15   14.15
  10   2   9  -15.50   18.91
   7  -3  -9  -13.89   15.33
   7  -3  -9  -14.74   12.51
  -7   3   9   -7.81   11.70
   6  -3  -9  442.08   35.29
   6  -3  -9  342.13   31.27
  -6   3   9  342.01   34.98
   5  -3  -9    3.22   11.50
   5  -3  -9    0.74    7.90
   5  -3  -9   -3.90    7.29
  -5   3   9    2.87   13.52
  -5   3   9    2.37   13.75
  -5   3   9    2.60    8.86
   4  -3  -9 1001.72   53.81
   4  -3  -9 1013.40   57.03
   4  -3  -9  869.95   55.88
   4  -3  -9  893.62   55.25
  -4   3   9  930.98   58.80
  -4   3   9 1004.98   54.45
  -4   3   9 1049.71   60.50
   3  -3  -9    6.44    5.46
   3  -3  -9  -11.00    7.94
   3  -3  -9   -3.40    6.35
   3  -3  -9    3.64    6.64
  -3   3   9   13.98   12.08
  -3   3   9    8.33    7.38
  -3   3   9   -1.03    7.92
   2  -3  -9 1185.50   62.87
   2  -3  -9 1149.24   63.97
   2  -3  -9 1115.01   57.59
   2  -3  -9 1116.16   62.68
  -2   3   9 1253.56   62.55
  -2   3   9 1209.63   66.38
  -2   3   9 1062.03   65.50
   1  -3  -9    5.35    8.14
   1  -3  -9    1.98    6.33
   1  -3  -9   -2.32    5.11
   1  -3  -9    4.47    3.46
  -1   3   9    1.71    4.71
  -1   3   9    2.60    5.74
  -1   3   9   -3.08    6.87
   0  -3  -9 1439.82   79.43
   0  -3  -9 1476.48   78.01
   0  -3  -9 1535.11   76.88
   0  -3  -9 1586.83   81.81
   0  -3  -9 1534.03   79.80
   0   3   9 1611.62   79.28
   0   3   9 1510.37   78.36
   0   3   9 1455.05   82.11
  -1  -3  -9   27.55    8.13
  -1  -3  -9   22.22    6.79
  -1  -3  -9   45.90    7.59
  -1  -3  -9   34.01    5.85
  -1  -3  -9   31.05    6.20
  -1  -3  -9   35.64    9.00
   1   3   9   29.39    8.99
   1   3   9   51.12    9.22
   1   3   9   51.43    9.56
  -2  -3  -9 1280.90   62.66
  -2  -3  -9 1116.52   61.58
  -2  -3  -9 1149.87   65.24
  -2  -3  -9 1125.28   62.32
   2   3   9 1278.08   64.40
   2   3   9 1117.87   62.29
  -3  -3  -9   -0.14    9.51
  -3  -3  -9   13.97    7.80
  -3  -3  -9    5.62    6.66
  -3  -3  -9    7.93    6.55
   3   3   9   13.26    9.14
   3   3   9   11.02    5.97
   3   3   9   12.82    6.94
  -4  -3  -9  798.27   43.46
  -4  -3  -9  744.25   45.16
  -4  -3  -9  768.58   42.52
   4   3   9  704.09   45.72
   4   3   9  763.47   44.41
   4   3   9  709.58   42.70
  -5  -3  -9    2.87    9.79
  -5  -3  -9    3.45    6.84
  -5  -3  -9    5.99    6.96
   5   3   9   19.11   10.18
   5   3   9   -5.73   10.56
  -6  -3  -9  592.20   35.19
  -6  -3  -9  596.53   37.69
  -6  -3  -9  549.56   36.31
   6   3   9  577.47   36.04
   6   3   9  511.27   38.58
  -7  -3  -9    7.43   11.63
  -7  -3  -9   11.62   10.11
  -7  -3  -9   12.16   10.59
   7   3   9   16.16   11.48
   7   3   9   -5.71   12.68
  -8  -3  -9  200.30   23.07
  -8  -3  -9  169.37   23.47
   8   3   9  176.11   25.06
   8   3   9  189.08   22.03
  -9  -3  -9   -3.32    9.04
  -9  -3  -9    1.07   15.52
   9   3   9   15.02   14.24
   9   3   9    8.50   13.84
 -10  -3  -9   69.38   24.67
 -10  -3  -9   16.18   12.16
  10   3   9   34.69   23.93
  10   3   9   65.77   19.55
   7  -4  -9  266.62   31.04
   7  -4  -9  222.52   25.82
  -7   4   9  242.36   30.43
   6  -4  -9    0.98   14.30
   6  -4  -9   12.45   12.26
  -6   4   9   -4.28   10.67
   5  -4  -9  610.00   39.23
   5  -4  -9  603.12   40.47
  -5   4   9  609.70   39.13
  -5   4   9  603.22   43.27
  -5   4   9  653.58   44.45
   4  -4  -9    8.25    9.82
   4  -4  -9   14.97   11.38
   4  -4  -9   -0.61    9.93
  -4   4   9    0.34    8.93
  -4   4   9    5.04   12.29
  -4   4   9    4.83    9.38
   3  -4  -9  776.27   43.76
   3  -4  -9  696.97   42.55
   3  -4  -9  699.51   42.01
   3  -4  -9  652.89   36.93
  -3   4   9  675.54   46.10
  -3   4   9  688.16   41.49
  -3   4   9  741.89   46.88
   2  -4  -9   -5.69    7.28
   2  -4  -9    7.58    5.28
   2  -4  -9   -0.98    8.90
   2  -4  -9    3.17    9.30
  -2   4   9    6.02    5.96
  -2   4   9   -5.77    9.71
  -2   4   9   -2.49    9.94
   1  -4  -9 1092.62   61.13
   1  -4  -9 1117.07   58.75
   1  -4  -9 1026.16   60.02
   1  -4  -9 1068.63   56.82
  -1   4   9 1076.54   59.40
  -1   4   9 1082.38   56.41
  -1   4   9 1166.72   63.93
   0  -4  -9   -7.77    5.55
   0  -4  -9    2.25    5.95
   0  -4  -9    0.00    4.92
   0  -4  -9   10.25    9.17
   0   4   9    5.60    7.54
   0   4   9   -1.58    5.51
   0   4   9    2.32    6.93
  -1  -4  -9 1185.79   61.96
  -1  -4  -9 1120.96   61.65
  -1  -4  -9 1217.87   59.97
  -1  -4  -9 1169.36   64.37
  -1  -4  -9 1092.32   58.54
   1   4   9 1234.37   65.68
   1   4   9 1197.88   62.94
   1   4   9 1133.54   62.74
  -2  -4  -9    6.23    3.35
  -2  -4  -9   -0.59    5.75
  -2  -4  -9    7.92    4.94
  -2  -4  -9    2.21    5.72
  -2  -4  -9    1.47    7.03
  -2  -4  -9    1.03    6.69
   2   4   9    6.76    9.10
   2   4   9    9.46    8.58
   2   4   9   13.06    8.30
  -3  -4  -9  960.55   51.16
  -3  -4  -9  919.80   55.96
  -3  -4  -9  973.35   49.66
  -3  -4  -9  824.43   52.08
  -3  -4  -9  958.52   52.52
   3   4   9  902.53   52.90
   3   4   9 1056.71   55.25
   3   4   9  940.23   54.82
  -4  -4  -9    8.40    6.71
  -4  -4  -9    7.54    9.11
  -4  -4  -9   14.93   11.94
   4   4   9   -5.05    8.09
   4   4   9   13.72   10.73
  -5  -4  -9  599.54   34.32
  -5  -4  -9  543.98   37.88
  -5  -4  -9  569.51   36.54
   5   4   9  580.88   39.11
   5   4   9  587.05   36.35
  -6  -4  -9    4.03    8.79
  -6  -4  -9   18.62    7.40
  -6  -4  -9   -7.37    9.48
   6   4   9    8.54    9.85
   6   4   9    7.30    9.97
  -7  -4  -9  347.16   29.21
  -7  -4  -9  294.17   25.04
  -7  -4  -9  310.86   31.09
   7   4   9  366.20   30.09
   7   4   9  324.59   32.75
  -8  -4  -9   -8.20   10.87
  -8  -4  -9    4.38   13.74
   8   4   9    1.42   16.36
   8   4   9    6.44    9.72
  -9  -4  -9  121.00   19.38
  -9  -4  -9  131.21   23.99
   9   4   9  146.04   24.71
   9   4   9  102.92   20.28
   7  -5  -9    1.19   10.86
   7  -5  -9    2.73   12.62
  -7   5   9    3.46   12.84
   6  -5  -9  275.02   28.34
   6  -5  -9  258.90   25.85
  -6   5   9  250.33   30.77
  -6   5   9  238.31   26.97
   5  -5  -9   -0.78   11.93
   5  -5  -9   -0.09   11.44
  -5   5   9    6.02   10.63
  -5   5   9   -3.79   14.68
   4  -5  -9  522.36   36.88
   4  -5  -9  585.46   37.64
   4  -5  -9  548.23   32.89
   4  -5  -9  579.01   38.75
  -4   5   9  558.35   38.00
  -4   5   9  587.95   41.00
  -4   5   9  696.49   43.04
   3  -5  -9   10.46    7.50
   3  -5  -9    0.56    8.60
   3  -5  -9   -8.10    5.55
   3  -5  -9   -6.22    6.66
  -3   5   9   10.39    9.72
  -3   5   9   -7.40    8.26
  -3   5   9    3.02   11.70
   2  -5  -9  597.24   33.86
   2  -5  -9  624.41   37.96
   2  -5  -9  529.30   36.52
   2  -5  -9  581.83   35.83
  -2   5   9  555.56   36.13
  -2   5   9  625.73   41.18
  -2   5   9  547.76   39.73
   1  -5  -9   -3.82    5.93
   1  -5  -9   -5.12    6.53
   1  -5  -9   -5.82    5.86
   1  -5  -9  -10.13    4.99
  -1   5   9   -6.47    7.86
  -1   5   9   -0.92    7.25
  -1   5   9   -7.01    9.42
   0  -5  -9 1004.19   51.70
   0  -5  -9  924.06   53.18
   0  -5  -9  855.93   49.75
   0   5   9 1000.53   51.36
   0   5   9  907.71   55.74
   0   5   9  936.10   52.68
  -1  -5  -9  -10.40    7.88
  -1  -5  -9    9.20    7.45
  -1  -5  -9   -6.29    6.97
  -1  -5  -9   -2.15    3.67
   1   5   9  -10.69    7.73
   1   5   9   -4.83    5.49
   1   5   9    2.83    9.06
  -2  -5  -9  878.61   45.25
  -2  -5  -9  775.99   46.03
  -2  -5  -9  782.47   43.55
   2   5   9  793.81   46.89
   2   5   9  805.46   47.70
   2   5   9  763.82   47.11
  -3  -5  -9   -4.79    8.21
  -3  -5  -9   14.36    6.00
  -3  -5  -9   11.00    6.06
  -3  -5  -9    6.43   11.45
   3   5   9    9.63    8.03
   3   5   9   25.25    8.21
   3   5   9   11.77    9.04
  -4  -5  -9  783.25   42.97
  -4  -5  -9  772.00   42.66
  -4  -5  -9  804.38   50.26
  -4  -5  -9  774.57   46.75
   4   5   9  673.53   45.40
   4   5   9  840.85   49.26
   4   5   9  864.22   47.48
  -5  -5  -9   -4.87    8.17
  -5  -5  -9    3.70    9.80
   5   5   9    4.18   10.79
   5   5   9   11.78    7.89
   5   5   9    5.32    9.61
  -6  -5  -9  357.13   33.40
  -6  -5  -9  391.95   31.88
   6   5   9  299.72   29.57
   6   5   9  393.92   35.82
  -7  -5  -9  -12.83   10.57
  -7  -5  -9   -2.29   14.17
   7   5   9   -4.98   10.94
   7   5   9    2.14    9.27
  -8  -5  -9  143.08   24.77
  -8  -5  -9  152.56   20.63
   8   5   9  138.93   24.24
   8   5   9  149.91   22.49
  -9  -5  -9   -3.33   13.47
  -9  -5  -9    6.03   16.83
   9   5   9    0.20   10.63
   9   5   9   -8.65   17.31
   6  -6  -9   -7.93   14.43
   6  -6  -9    9.84   13.44
  -6   6   9   -2.13   14.25
  -6   6   9    5.69   17.07
   5  -6  -9  423.40   35.14
   5  -6  -9  418.51   36.36
  -5   6   9  366.34   34.85
  -5   6   9  431.45   39.48
   4  -6  -9  -10.46    7.36
   4  -6  -9    7.26    9.50
   4  -6  -9  -19.32   10.37
   4  -6  -9   -6.85    7.76
  -4   6   9   -3.76   13.10
  -4   6   9    5.58   14.54
  -4   6   9    9.67   11.86
   3  -6  -9  582.29   37.35
   3  -6  -9  590.38   37.31
   3  -6  -9  583.64   34.39
   3  -6  -9  540.38   38.28
  -3   6   9  529.35   39.66
  -3   6   9  596.54   38.36
  -3   6   9  550.64   40.54
   2  -6  -9   -1.60    8.34
   2  -6  -9    0.51    8.36
   2  -6  -9   17.96    8.90
   2  -6  -9   -3.43    7.57
  -2   6   9    0.47    8.78
  -2   6   9    4.21   11.01
  -2   6   9  -21.06    8.00
   1  -6  -9  692.04   41.29
   1  -6  -9  748.74   42.26
   1  -6  -9  699.60   42.92
  -1   6   9  721.93   47.09
  -1   6   9  764.34   47.03
  -1   6   9  743.99   43.72
   0  -6  -9    7.49    9.03
   0  -6  -9   23.51    7.23
   0  -6  -9   21.20    9.06
   0  -6  -9    8.17    9.70
   0   6   9   -3.78    9.53
   0   6   9    9.10    9.56
  -1  -6  -9  905.21   53.13
  -1  -6  -9 1004.07   55.21
  -1  -6  -9  924.62   53.56
   1   6   9  937.77   54.40
   1   6   9  947.36   53.38
   1   6   9  941.48   56.21
  -2  -6  -9   -1.56    6.25
  -2  -6  -9   -3.59    6.35
   2   6   9    7.51    9.14
   2   6   9   -6.68    8.91
   2   6   9   11.66    9.84
  -3  -6  -9  724.76   41.77
  -3  -6  -9  701.81   47.88
  -3  -6  -9  747.43   44.70
   3   6   9  703.39   43.83
   3   6   9  749.34   46.17
   3   6   9  734.05   44.76
  -4  -6  -9   37.77   15.33
  -4  -6  -9   10.60    7.36
  -4  -6  -9   33.74   11.64
   4   6   9   27.53   10.34
   4   6   9   20.39   13.17
   4   6   9   32.50   10.39
  -5  -6  -9  443.85   39.45
  -5  -6  -9  462.11   36.74
   5   6   9  427.11   36.18
   5   6   9  518.65   37.89
   5   6   9  475.29   31.34
  -6  -6  -9   14.89   14.60
  -6  -6  -9   -0.03    8.25
   6   6   9   11.70   11.67
   6   6   9   26.36   13.56
  -7  -6  -9  258.81   31.11
  -7  -6  -9  246.49   27.15
   7   6   9  239.78   26.21
   7   6   9  221.88   29.97
  -8  -6  -9   11.45   17.85
  -8  -6  -9    0.15    9.89
   8   6   9    0.89   15.28
   8   6   9   24.00   17.66
  -9  -6  -9  103.48   26.02
  -9  -6  -9   86.85   21.41
   9   6   9   35.01   18.56
   9   6   9   66.69   24.53
   6  -7  -9  242.25   28.09
   6  -7  -9  222.97   29.30
  -6   7   9  207.39   32.33
  -6   7   9  246.08   30.08
   5  -7  -9   13.11   14.09
   5  -7  -9  -31.73   12.79
  -5   7   9   -9.52   16.69
  -5   7   9    6.19   13.54
   4  -7  -9  591.63   39.86
   4  -7  -9  565.96   36.36
   4  -7  -9  529.18   42.18
  -4   7   9  621.47   49.98
  -4   7   9  517.63   37.86
  -4   7   9  570.08   51.14
   3  -7  -9   -0.80    8.56
   3  -7  -9   -5.36    9.46
   3  -7  -9   -3.59   10.14
  -3   7   9   -3.12    9.90
  -3   7   9   -4.63   12.37
  -3   7   9  -13.05   10.66
   2  -7  -9  574.80   34.33
   2  -7  -9  496.71   33.98
   2  -7  -9  494.80   34.67
  -2   7   9  575.41   39.11
  -2   7   9  515.76   36.64
  -2   7   9  515.36   36.21
   1  -7  -9   20.50    9.74
   1  -7  -9    6.05    7.53
   1  -7  -9    5.43   10.84
   1  -7  -9   15.80    9.42
  -1   7   9   -5.87   10.65
  -1   7   9   15.14   11.15
  -1   7   9   -3.92   12.16
   0  -7  -9  605.52   37.49
   0  -7  -9  543.06   35.89
   0  -7  -9  523.78   32.92
   0  -7  -9  576.02   36.49
   0   7   9  601.90   38.15
   0   7   9  599.93   40.26
  -1  -7  -9   -5.02    9.14
  -1  -7  -9    8.01    9.41
  -1  -7  -9    4.26    9.74
   1   7   9    0.07   10.58
   1   7   9   -4.14    6.76
  -2  -7  -9  732.87   45.85
  -2  -7  -9  701.71   44.61
   2   7   9  744.50   46.11
   2   7   9  812.39   47.56
   2   7   9  802.66   47.24
  -3  -7  -9  -10.07   12.56
  -3  -7  -9   -6.18    7.26
  -3  -7  -9   -2.64   10.01
   3   7   9    7.38    8.94
   3   7   9    7.91    9.79
   3   7   9   -5.80   10.01
  -4  -7  -9  392.58   32.17
  -4  -7  -9  498.78   41.42
  -4  -7  -9  462.85   36.83
   4   7   9  542.59   37.31
   4   7   9  486.58   32.87
   4   7   9  465.05   32.91
  -5  -7  -9    4.75   10.96
  -5  -7  -9    3.83   12.16
   5   7   9    7.67   12.80
   5   7   9  -16.74   12.60
  -6  -7  -9  263.24   26.43
  -6  -7  -9  233.90   30.34
   6   7   9  193.53   25.34
   6   7   9  219.55   29.65
  -7  -7  -9   16.90   14.04
  -7  -7  -9  -10.67   10.39
   7   7   9   -5.32   10.97
   7   7   9    0.06   14.49
  -8  -7  -9   96.15   21.58
  -8  -7  -9   90.18   20.34
   8   7   9  102.31   24.11
   8   7   9  122.17   22.45
   5  -8  -9  224.40   28.36
   5  -8  -9  264.11   30.00
  -5   8   9  264.92   30.63
  -5   8   9  335.57   35.89
   4  -8  -9   -6.31   10.26
   4  -8  -9   -4.74   14.22
   4  -8  -9  -24.14   11.93
  -4   8   9    9.40   12.94
  -4   8   9   -1.31   13.34
   3  -8  -9  246.01   26.03
   3  -8  -9  250.42   24.38
   3  -8  -9  300.59   27.55
  -3   8   9  203.95   26.13
  -3   8   9  227.69   26.94
  -3   8   9  317.35   33.29
   2  -8  -9   -2.36    9.35
   2  -8  -9   -5.62    9.36
  -2   8   9  -12.51   11.94
  -2   8   9   -4.99   11.13
  -2   8   9    7.37   13.40
   1  -8  -9  528.75   38.48
   1  -8  -9  563.81   35.45
   1  -8  -9  541.55   35.35
   1  -8  -9  467.47   32.05
  -1   8   9  517.39   36.78
  -1   8   9  531.53   37.33
  -1   8   9  499.80   42.66
   0  -8  -9    3.80    8.37
   0  -8  -9   21.33   10.59
   0  -8  -9    3.82    9.86
   0   8   9    4.45   11.12
   0   8   9    9.40   12.65
   0   8   9    6.47   11.48
  -1  -8  -9  627.10   38.67
  -1  -8  -9  526.44   38.31
  -1  -8  -9  576.99   37.69
   1   8   9  586.74   39.40
   1   8   9  564.98   39.80
  -2  -8  -9    2.64   10.08
  -2  -8  -9   32.10   12.57
   2   8   9   19.07   12.33
   2   8   9    7.58   11.77
  -3  -8  -9  382.88   33.32
  -3  -8  -9  388.08   37.69
  -3  -8  -9  358.79   31.34
   3   8   9  442.72   36.27
   3   8   9  489.84   31.92
  -4  -8  -9  -15.47    8.85
  -4  -8  -9    2.84   15.58
  -4  -8  -9   -6.93    9.35
   4   8   9   -9.52    8.48
   4   8   9   -6.06   11.88
   4   8   9    5.12    9.17
  -5  -8  -9  295.25   30.97
  -5  -8  -9  289.54   34.20
   5   8   9  332.95   34.16
   5   8   9  307.56   30.94
  -6  -8  -9  -13.23   13.11
  -6  -8  -9  -13.05   10.64
   6   8   9  -12.73   15.00
   6   8   9    5.94   14.02
  -7  -8  -9  152.73   23.64
  -7  -8  -9  117.43   22.81
   7   8   9  115.43   22.32
   7   8   9  131.65   25.91
   4  -9  -9  279.02   27.55
   4  -9  -9  265.66   30.33
   4  -9  -9  286.36   31.86
  -4   9   9  324.98   34.16
  -4   9   9  300.37   34.57
   3  -9  -9  -10.47   12.71
   3  -9  -9  -24.52   10.35
   3  -9  -9   -6.23   14.56
  -3   9   9   -4.51   14.16
  -3   9   9   -3.32   16.10
   2  -9  -9  275.67   26.03
   2  -9  -9  285.89   28.48
  -2   9   9  285.92   32.76
  -2   9   9  337.24   31.17
  -2   9   9  257.30   28.28
   1  -9  -9   29.56   13.01
   1  -9  -9    8.12   13.93
  -1   9   9    6.75    9.30
  -1   9   9    8.72   12.43
  -1   9   9   24.06   15.71
   0  -9  -9  521.14   42.89
   0  -9  -9  517.61   36.96
   0   9   9  524.71   37.98
   0   9   9  516.56   41.43
   0   9   9  557.93   38.10
  -1  -9  -9   -1.82    7.91
  -1  -9  -9  -11.04    9.57
  -1  -9  -9  -13.53   10.30
   1   9   9   -9.02    8.68
   1   9   9   -4.39   12.86
  -2  -9  -9  469.50   37.77
  -2  -9  -9  534.33   39.42
  -2  -9  -9  482.56   34.10
   2   9   9  377.00   35.78
   2   9   9  465.99   37.51
  -3  -9  -9    5.79   11.57
  -3  -9  -9   -5.10   12.22
  -3  -9  -9  -13.77   14.32
   3   9   9    4.60    9.81
   3   9   9   -8.63   10.44
  -4  -9  -9  300.75   31.54
  -4  -9  -9  279.67   35.25
   4   9   9  307.84   31.97
  -5  -9  -9    5.44   18.67
  -5  -9  -9   10.24   14.96
   5   9   9   -1.13   10.43
  -6  -9  -9  131.67   24.44
  -6  -9  -9  182.48   28.88
   6   9   9  156.16   23.18
   3 -10  -9  396.58   35.60
   3 -10  -9  288.19   32.16
  -3  10   9  354.08   36.26
  -3  10   9  481.62   43.80
   2 -10  -9   14.43   13.53
   2 -10  -9    2.03   15.44
  -2  10   9   -9.35   13.08
  -2  10   9   20.59   13.87
   1 -10  -9  469.27   37.45
   1 -10  -9  410.79   39.36
  -1  10   9  335.21   36.02
  -1  10   9  368.57   35.68
   0 -10  -9   -0.36   10.12
   0 -10  -9   15.03   13.93
   0  10   9   -0.39   10.34
   0  10   9    1.58   14.52
  -1 -10  -9  269.47   30.94
  -1 -10  -9  348.47   30.45
   1  10   9  318.81   31.69
   1  10   9  264.77   29.56
  -2 -10  -9   14.12   14.70
  -2 -10  -9    8.07   14.31
  -2 -10  -9    7.31   13.20
   2  10   9    9.96   15.39
   2  10   9   -9.88   12.10
  -3 -10  -9  288.27   30.81
  -3 -10  -9  273.81   30.94
   3  10   9  317.32   33.02
  -4 -10  -9   -1.85   14.73
  -4 -10  -9  -14.12   12.77
   4  10   9    5.48   11.72
  -5 -10  -9  201.97   27.67
  -5 -10  -9  140.61   29.30
   5  10   9  185.56   26.18
   1 -11  -9    1.24   17.23
   1 -11  -9   13.49   14.51
  -1  11   9  -11.10   16.23
  -1  11   9    5.54   16.47
   0 -11  -9  231.33   27.70
   0 -11  -9  210.80   27.88
   0  11   9  212.91   26.83
   0  11   9  254.82   29.99
  -1 -11  -9   -0.67   13.49
  -1 -11  -9  -14.86   15.42
   1  11   9    0.16   14.61
   1  11   9    4.52   15.52
  -2 -11  -9  214.16   29.59
  -2 -11  -9  266.80   29.98
   2  11   9  204.10   28.40
  -3 -11  -9   -8.15   31.15
  -3 -11  -9   22.56   16.62
   3  11   9   -1.36   15.43
   2  10 -10  309.75   33.40
   2  10 -10  303.53   34.68
  -2 -10  10  288.76   33.18
   1  10 -10  -22.16   13.70
   1  10 -10    0.22   17.14
   1  10 -10   10.77   15.38
  -1 -10  10   -5.72   16.40
   0  10 -10  226.35   28.55
   0  10 -10  232.25   27.87
   0  10 -10  264.48   30.08
   0 -10  10  269.85   29.99
  -1  10 -10   -8.86   12.42
  -1  10 -10   -1.44    9.89
  -1  10 -10    2.02   10.40
   1 -10  10   -3.76   15.31
  -2  10 -10  224.39   26.98
  -2  10 -10  297.65   31.52
  -2  10 -10  276.90   30.86
   2 -10  10  227.05   32.56
  -3  10 -10  -10.24   13.38
  -3  10 -10    9.94   16.04
  -3  10 -10   17.16   15.41
   3 -10  10   -9.61   11.00
  -4  10 -10  213.79   26.01
  -4  10 -10  139.93   23.62
   4 -10  10  210.49   31.16
   3   9 -10  391.49   36.22
   3   9 -10  339.52   35.83
  -3  -9  10  355.14   38.41
   2   9 -10   -3.14    9.48
   2   9 -10    9.72   14.15
  -2  -9  10   18.43   16.28
   1   9 -10  441.69   37.78
   1   9 -10  468.35   39.66
   1   9 -10  436.33   38.88
  -1  -9  10  405.77   38.01
   0   9 -10   -9.04   12.35
   0   9 -10  -18.44    7.97
   0   9 -10    9.38   10.85
   0  -9  10    7.33   10.10
  -1   9 -10  334.35   31.92
  -1   9 -10  269.13   28.14
  -1   9 -10  308.46   31.01
   1  -9  10  308.67   31.46
  -2   9 -10   10.45    9.86
  -2   9 -10   -3.56    9.29
  -2   9 -10  -14.64   12.79
   2  -9  10   -3.00   14.52
   2  -9  10   -3.32   14.03
  -3   9 -10  403.00   35.75
  -3   9 -10  299.49   29.46
  -3   9 -10  316.68   31.20
   3  -9  10  339.03   36.86
  -4   9 -10   22.34   14.26
  -4   9 -10  -12.17   13.92
   4  -9  10    7.55   16.55
  -5   9 -10  216.85   29.00
  -5   9 -10  187.70   25.72
   5  -9  10  208.44   31.82
  -6   9 -10  -10.39   16.25
  -6   9 -10  -26.39   12.60
   6  -9  10  -22.94   16.91
   6  -9  10    0.34   15.42
   4   8 -10  259.23   28.31
   4   8 -10  295.10   31.94
   4   8 -10  251.95   34.03
  -4  -8  10  337.25   31.95
  -4  -8  10  285.89   34.24
   3   8 -10   -1.98    9.76
   3   8 -10  -10.92   10.07
   3   8 -10    1.65   13.37
  -3  -8  10    1.24   10.28
   2   8 -10  314.30   30.61
   2   8 -10  324.21   32.23
   2   8 -10  286.96   30.45
  -2  -8  10  305.94   31.38
   1   8 -10   25.67   14.03
   1   8 -10   18.43   13.89
   1   8 -10    5.86   12.97
  -1  -8  10   30.96   14.48
   0   8 -10  528.71   41.79
   0   8 -10  517.40   40.63
   0   8 -10  474.99   39.76
   0  -8  10  492.08   36.89
  -1   8 -10   -0.82    7.64
  -1   8 -10    2.17   10.96
  -1   8 -10   -8.58   11.19
   1  -8  10   21.59   13.69
   1  -8  10   -8.03    8.55
   1  -8  10   12.10   11.57
  -2   8 -10  521.50   39.64
  -2   8 -10  501.24   40.46
  -2   8 -10  434.65   36.68
   2  -8  10  390.62   46.67
   2  -8  10  493.84   35.40
   2  -8  10  445.28   41.65
  -3   8 -10    2.79   13.46
  -3   8 -10    5.21   11.11
  -3   8 -10    8.70   12.51
   3  -8  10   24.99   15.43
  -4   8 -10  307.45   29.42
  -4   8 -10  250.60   29.61
   4  -8  10  296.81   32.69
  -5   8 -10    6.43   13.04
  -5   8 -10   11.62   14.00
   5  -8  10   -5.80   10.80
   5  -8  10    2.16   11.20
  -6   8 -10  173.53   23.30
  -6   8 -10  180.36   27.14
   6  -8  10  153.21   21.88
   6  -8  10  150.20   27.21
  -7   8 -10   -8.47   11.02
  -7   8 -10   14.48   14.98
   7  -8  10   -8.29   13.99
   7  -8  10   -8.70   19.10
   5   7 -10  318.28   31.54
   5   7 -10  281.18   33.56
  -5  -7  10  304.42   33.53
  -5  -7  10  240.16   30.61
   4   7 -10   15.58   14.38
   4   7 -10   13.42   15.93
   4   7 -10    2.21    9.87
  -4  -7  10   11.24   10.88
  -4  -7  10   19.55   12.18
   3   7 -10  505.73   35.63
   3   7 -10  481.35   40.50
   3   7 -10  443.88   42.05
  -3  -7  10  525.80   36.76
  -3  -7  10  504.39   43.03
   2   7 -10  -24.16   10.83
   2   7 -10   -9.11    9.75
   2   7 -10   -5.71   10.86
   2   7 -10   10.16   12.25
  -2  -7  10    0.77   11.60
  -2  -7  10    7.22   12.51
  -2  -7  10  -11.96    8.25
   1   7 -10  613.94   41.01
   1   7 -10  592.06   38.76
   1   7 -10  517.92   38.53
  -1  -7  10  603.17   44.79
  -1  -7  10  522.47   38.79
   0   7 -10   12.77   12.13
   0   7 -10   15.07   11.58
   0   7 -10   -5.86    7.14
   0  -7  10   43.67   12.96
   0  -7  10    7.17   10.72
  -1   7 -10  564.38   35.60
  -1   7 -10  540.01   37.97
  -1   7 -10  541.92   37.60
  -1   7 -10  531.52   37.85
   1  -7  10  559.47   41.18
   1  -7  10  569.21   41.76
   1  -7  10  555.31   37.20
  -2   7 -10    5.82    8.47
  -2   7 -10    5.68    8.01
  -2   7 -10    7.21   12.38
  -2   7 -10    0.79   10.80
   2  -7  10   -9.87    9.62
   2  -7  10   12.19   11.52
   2  -7  10   -2.55   12.60
  -3   7 -10  488.54   32.17
  -3   7 -10  407.50   28.91
  -3   7 -10  424.89   37.46
   3  -7  10  444.24   41.59
   3  -7  10  437.22   38.73
  -4   7 -10    8.70   10.58
  -4   7 -10   -9.00   11.44
   4  -7  10   21.21   11.71
   4  -7  10   12.35    9.45
   4  -7  10    7.41   16.13
  -5   7 -10  285.26   31.33
  -5   7 -10  337.22   28.34
   5  -7  10  300.32   27.00
   5  -7  10  280.47   31.68
  -6   7 -10   -2.31    7.46
  -6   7 -10    7.58   14.08
   6  -7  10    7.69   11.93
   6  -7  10   12.00   15.67
  -7   7 -10  163.06   21.66
  -7   7 -10  136.84   21.92
   7  -7  10  158.94   28.20
   7  -7  10  132.70   19.56
  -8   7 -10    3.79   12.61
  -8   7 -10   -2.93   14.99
   8  -7  10    8.23   11.27
   8  -7  10   15.34   20.75
   6   6 -10  219.39   33.06
   6   6 -10  195.39   29.30
   6   6 -10  230.56   28.74
  -6  -6  10  244.70   30.80
  -6  -6  10  284.56   33.51
   5   6 -10   15.20   12.85
   5   6 -10  -25.43   12.56
  -5  -6  10    9.90   15.59
  -5  -6  10   17.21   15.57
   4   6 -10  544.65   38.91
   4   6 -10  538.16   43.62
   4   6 -10  590.35   48.26
  -4  -6  10  590.95   40.53
  -4  -6  10  517.65   45.27
  -4  -6  10  514.62   48.06
   3   6 -10    2.23    8.53
   3   6 -10    2.21   10.15
   3   6 -10   14.18   12.24
  -3  -6  10   -2.96   14.55
  -3  -6  10   -5.44   11.45
  -3  -6  10   -2.34   10.08
   2   6 -10  631.41   44.97
   2   6 -10  608.43   43.73
   2   6 -10  621.06   43.01
   2   6 -10  688.49   42.07
  -2  -6  10  704.65   44.24
  -2  -6  10  658.95   40.44
  -2  -6  10  614.15   46.31
   1   6 -10   -0.44    9.90
   1   6 -10    2.68   11.11
   1   6 -10   -1.57    7.64
  -1  -6  10  -18.35   10.56
  -1  -6  10    0.55    9.30
  -1  -6  10    7.60    7.94
   0   6 -10  520.40   36.63
   0   6 -10  633.62   39.28
   0   6 -10  608.23   40.19
   0   6 -10  524.14   36.90
   0  -6  10  608.29   37.99
   0  -6  10  590.28   35.58
   0  -6  10  566.25   40.74
  -1   6 -10    2.08    7.00
  -1   6 -10   -0.88    8.27
  -1   6 -10    6.82   10.28
  -1   6 -10   -8.48    9.29
   1  -6  10    1.90    7.91
   1  -6  10   13.12    8.72
   1  -6  10   -4.60    9.04
  -2   6 -10  697.88   45.94
  -2   6 -10  826.51   47.89
  -2   6 -10  752.71   44.19
  -2   6 -10  696.20   45.61
   2  -6  10  764.98   49.82
   2  -6  10  777.83   51.55
  -3   6 -10    4.72   11.15
  -3   6 -10   -1.86    6.85
  -3   6 -10   11.88    8.85
   3  -6  10  -10.75   12.47
   3  -6  10    0.64    7.36
   3  -6  10    6.15    8.92
  -4   6 -10  443.69   36.75
  -4   6 -10  484.00   29.72
  -4   6 -10  434.71   32.25
   4  -6  10  406.90   36.86
   4  -6  10  441.30   40.53
   4  -6  10  457.59   29.92
  -5   6 -10    2.16    7.45
  -5   6 -10    6.92   12.25
   5  -6  10   -3.24   13.58
   5  -6  10   12.27    9.64
   5  -6  10   -3.56   10.91
  -6   6 -10  232.39   19.59
  -6   6 -10  237.47   22.97
  -6   6 -10  220.05   27.22
   6  -6  10  226.84   23.44
   6  -6  10  195.19   27.57
  -7   6 -10    6.47    9.53
  -7   6 -10   -2.84   10.14
  -7   6 -10   10.45   11.47
   7  -6  10   -0.25   11.80
   7  -6  10   -0.21   15.49
  -8   6 -10  100.42   17.99
  -8   6 -10   56.05   16.60
   8  -6  10  103.98   24.79
   8  -6  10  135.31   21.42
   6   5 -10    8.10   14.12
   6   5 -10    6.51   16.05
   6   5 -10   14.85   16.98
  -6  -5  10    8.88   17.12
   5   5 -10  364.07   32.05
   5   5 -10  362.05   33.35
   5   5 -10  352.81   36.08
  -5  -5  10  285.45   33.18
   4   5 -10   -9.13    9.00
   4   5 -10   13.18   14.49
   4   5 -10    3.09   11.86
  -4  -5  10   -6.93   10.80
  -4  -5  10    4.85   12.09
  -4  -5  10   13.59   14.41
  -4  -5  10  -17.10   10.10
   3   5 -10  504.69   43.56
   3   5 -10  572.28   38.29
   3   5 -10  592.23   39.47
   3   5 -10  570.43   37.39
  -3  -5  10  555.08   42.06
  -3  -5  10  577.91   38.10
  -3  -5  10  526.62   39.30
  -3  -5  10  578.17   38.30
  -3  -5  10  582.29   37.45
   2   5 -10   17.86   10.48
   2   5 -10    5.04    9.03
   2   5 -10   -6.40    9.58
   2   5 -10   22.65   11.14
  -2  -5  10   -5.14    9.39
  -2  -5  10  -15.72    6.80
  -2  -5  10    9.07    8.64
  -2  -5  10   -9.20   11.15
   1   5 -10  547.79   36.84
   1   5 -10  568.89   37.25
   1   5 -10  572.47   38.73
   1   5 -10  598.92   39.07
  -1  -5  10  662.03   42.55
  -1  -5  10  573.26   37.43
  -1  -5  10  530.54   35.95
  -1  -5  10  636.55   35.95
   0   5 -10    7.22    7.46
   0   5 -10  -17.30    8.74
   0   5 -10   -4.50    6.19
   0   5 -10   -3.12    6.90
   0  -5  10   14.63   12.01
   0  -5  10   -6.12    7.39
   0  -5  10    6.13    8.32
   0  -5  10    2.23    6.36
  -1   5 -10  816.57   48.23
  -1   5 -10  780.02   47.40
  -1   5 -10  756.29   46.24
  -1   5 -10  880.59   49.62
   1  -5  10  765.11   51.12
   1  -5  10  884.48   50.46
   1  -5  10  766.72   45.81
  -2   5 -10   11.86    7.44
  -2   5 -10    3.11   10.47
  -2   5 -10   -4.64    5.44
   2  -5  10   -6.36    5.93
   2  -5  10    6.96    9.00
   2  -5  10    0.83    7.72
   2  -5  10    1.56    6.05
  -3   5 -10  591.24   42.53
  -3   5 -10  808.70   43.64
  -3   5 -10  642.12   40.87
   3  -5  10  735.28   47.68
   3  -5  10  686.53   38.86
   3  -5  10  687.45   45.46
  -4   5 -10   21.14    8.08
  -4   5 -10   15.11    8.17
  -4   5 -10   21.68   10.11
   4  -5  10   15.90    8.32
   4  -5  10   -0.20    9.23
   4  -5  10    7.25    8.24
  -5   5 -10  336.66   24.04
  -5   5 -10  303.69   20.27
  -5   5 -10  348.42   30.55
  -5   5 -10  338.62   27.41
   5  -5  10  298.85   25.80
   5  -5  10  355.21   35.98
   5  -5  10  289.09   30.08
  -6   5 -10    2.34    7.74
  -6   5 -10    8.85    9.29
  -6   5 -10   -5.33    7.60
  -6   5 -10   -6.67    8.46
   6  -5  10   12.32   10.63
   6  -5  10   -6.99    9.05
   6  -5  10    0.08   15.90
  -7   5 -10  217.69   22.30
  -7   5 -10  231.83   21.06
  -7   5 -10  174.40   24.86
   7  -5  10  193.44   22.59
   7  -5  10  207.23   27.11
  -8   5 -10  -10.39   11.25
   8  -5  10   13.74   10.29
   8  -5  10   -3.90   15.48
  -9   5 -10   92.59   19.35
   9  -5  10   91.32   17.81
   9  -5  10   60.25   22.87
   7   4 -10    6.09   13.12
   7   4 -10   54.67   21.76
   7   4 -10    0.95   15.79
  -7  -4  10   12.79   20.04
   6   4 -10  310.75   31.58
   6   4 -10  292.89   30.29
   6   4 -10  279.48   33.53
  -6  -4  10  325.83   33.16
   5   4 -10    1.26   11.51
   5   4 -10    5.30   14.70
   5   4 -10   -9.14   12.76
  -5  -4  10   -5.05   11.65
  -5  -4  10   13.82   13.97
   4   4 -10  742.81   48.02
   4   4 -10  682.15   47.24
   4   4 -10  735.78   45.73
  -4  -4  10  682.20   46.07
  -4  -4  10  735.26   46.32
  -4  -4  10  807.74   48.61
   3   4 -10   -2.36    8.80
   3   4 -10   15.33    8.67
   3   4 -10    3.68   11.64
   3   4 -10   -9.79    6.05
  -3  -4  10    3.26    7.12
  -3  -4  10   -9.88    9.41
  -3  -4  10    7.65    9.08
  -3  -4  10  -23.64    7.85
   2   4 -10  698.89   42.22
   2   4 -10  700.16   44.70
   2   4 -10  659.55   45.67
   2   4 -10  716.16   44.48
   2   4 -10  701.33   46.24
   2   4 -10  760.34   45.43
   2   4 -10  751.81   45.01
  -2  -4  10  760.50   44.23
  -2  -4  10  704.93   44.30
  -2  -4  10  727.17   43.21
  -2  -4  10  661.90   45.89
   1   4 -10   -2.54    5.70
   1   4 -10    8.32    7.15
   1   4 -10   -6.19    9.59
   1   4 -10   -1.51    8.57
   1   4 -10    7.90    7.49
  -1  -4  10  -17.31    5.31
  -1  -4  10    5.08   10.47
  -1  -4  10   -1.72    7.66
   0   4 -10  841.53   49.04
   0   4 -10  830.26   48.70
   0   4 -10  847.12   50.09
   0   4 -10  764.04   47.93
   0  -4  10  830.81   47.48
   0  -4  10  799.89   50.10
   0  -4  10  911.18   51.09
  -1   4 -10   -1.96    6.56
  -1   4 -10   -1.25    5.89
  -1   4 -10   -3.35    6.15
   1  -4  10  -10.10    9.34
   1  -4  10   -6.08    6.48
   1  -4  10    1.35    6.46
  -2   4 -10  699.48   40.65
  -2   4 -10  698.79   40.17
  -2   4 -10  638.65   41.92
   2  -4  10  691.36   37.50
   2  -4  10  649.99   43.53
   2  -4  10  594.37   42.03
   2  -4  10  637.66   36.06
  -3   4 -10   -7.11    7.92
  -3   4 -10    3.20    7.81
  -3   4 -10    2.23    7.59
   3  -4  10   -1.67    7.67
   3  -4  10   -1.72    5.98
   3  -4  10   16.22    9.40
  -4   4 -10  627.65   41.32
  -4   4 -10  705.10   39.44
  -4   4 -10  657.70   39.99
  -4   4 -10  610.10   34.29
   4  -4  10  713.30   45.88
   4  -4  10  682.00   38.17
   4  -4  10  604.42   42.08
  -5   4 -10    5.96    6.25
  -5   4 -10   -0.52    7.95
  -5   4 -10   -4.31   10.41
  -5   4 -10    5.85    8.67
   5  -4  10   -3.51   12.81
   5  -4  10   14.71    8.27
   5  -4  10   -3.21   10.76
  -6   4 -10  362.03   29.00
  -6   4 -10  343.90   24.32
  -6   4 -10  364.55   25.69
  -6   4 -10  394.95   34.82
   6  -4  10  335.88   34.54
   6  -4  10  337.62   34.92
   6  -4  10  335.56   28.56
  -7   4 -10   -9.21    7.64
  -7   4 -10  -10.32    9.17
  -7   4 -10    3.52    9.22
  -7   4 -10    9.27    8.96
   7  -4  10   13.51   14.87
   7  -4  10   14.27   10.57
  -8   4 -10  128.20   18.58
   8  -4  10  102.87   22.87
   8  -4  10  135.94   18.66
  -9   4 -10    3.96   13.50
   9  -4  10    3.01   13.35
   9  -4  10   13.72   14.33
   7   3 -10  368.57   37.22
   7   3 -10  252.96   32.65
  -7  -3  10  237.28   33.29
   6   3 -10    0.37   15.14
   6   3 -10    0.95   15.34
  -6  -3  10   21.40   16.25
   5   3 -10  552.26   36.89
   5   3 -10  503.12   40.77
   5   3 -10  555.35   44.66
   5   3 -10  471.77   35.88
  -5  -3  10  591.66   39.73
  -5  -3  10  446.44   35.69
  -5  -3  10  541.42   38.11
   4   3 -10   15.69   11.37
   4   3 -10    6.73    9.28
   4   3 -10    0.47    7.33
   4   3 -10   -6.55   11.16
  -4  -3  10   -9.46    7.60
  -4  -3  10  -12.32   10.52
  -4  -3  10  -23.34    8.41
  -4  -3  10   -3.64   11.43
   3   3 -10  922.95   55.11
   3   3 -10  906.14   57.87
   3   3 -10  867.53   55.10
   3   3 -10  954.16   56.40
  -3  -3  10 1070.30   57.49
  -3  -3  10 1021.32   58.08
  -3  -3  10 1018.19   57.27
   2   3 -10   -7.50    6.81
   2   3 -10   11.07    8.95
   2   3 -10  -14.26    8.11
   2   3 -10    4.66    9.74
   2   3 -10   -0.47    7.81
   2   3 -10    3.55    5.89
   2   3 -10   -1.12    9.00
  -2  -3  10   -4.98    8.00
  -2  -3  10  -14.24    7.15
   1   3 -10  944.51   51.76
   1   3 -10  977.75   53.61
   1   3 -10  872.56   52.70
   1   3 -10  882.02   52.48
   1   3 -10  836.20   53.34
   1   3 -10  887.33   52.97
  -1  -3  10  960.83   54.31
  -1  -3  10 1009.50   54.02
  -1  -3  10  884.07   53.26
   0   3 -10    9.16    7.59
   0   3 -10   -5.73    8.31
   0   3 -10    1.34    5.82
   0   3 -10   15.68    9.14
   0  -3  10   -1.82    8.26
   0  -3  10    5.94    6.04
   0  -3  10    7.64    8.58
  -1   3 -10  997.07   50.23
  -1   3 -10  848.85   52.17
  -1   3 -10  999.25   54.40
  -1   3 -10  808.37   51.44
   1  -3  10  922.80   47.13
   1  -3  10  868.71   53.00
   1  -3  10  928.10   53.20
   1  -3  10  927.26   49.33
  -2   3 -10   -4.20    8.55
  -2   3 -10    6.55    5.73
  -2   3 -10   -4.83    4.87
  -2   3 -10    2.13    5.83
   2  -3  10    1.21    5.05
   2  -3  10    2.68    6.98
   2  -3  10   -6.56    7.86
   2  -3  10   -9.44    4.63
  -3   3 -10  665.38   43.23
  -3   3 -10  742.95   43.15
  -3   3 -10  726.47   41.62
   3  -3  10  681.61   45.17
   3  -3  10  750.42   44.71
   3  -3  10  704.76   39.36
  -4   3 -10   -3.30    4.42
  -4   3 -10   -5.46    5.81
  -4   3 -10    8.47    8.19
  -4   3 -10   13.27    9.54
   4  -3  10    8.38    7.14
   4  -3  10    0.06    7.59
   4  -3  10    1.50    7.34
  -5   3 -10  510.72   36.55
  -5   3 -10  500.10   32.50
  -5   3 -10  547.22   30.88
  -5   3 -10  494.71   33.40
   5  -3  10  558.73   33.26
   5  -3  10  494.59   38.57
   5  -3  10  580.83   39.07
  -6   3 -10   14.64   10.76
  -6   3 -10    6.73    7.85
  -6   3 -10    6.33    8.45
  -6   3 -10   -3.10    7.36
   6  -3  10   11.30   14.41
   6  -3  10   16.45   12.40
   6  -3  10    0.24    6.29
  -7   3 -10  204.55   20.84
  -7   3 -10  263.99   24.85
   7  -3  10  238.89   30.64
   7  -3  10  189.84   25.26
   7  -3  10  210.23   22.43
  -8   3 -10  -11.40    9.42
   8  -3  10    5.51    8.39
   8  -3  10    2.11   11.48
  -9   3 -10   78.29   16.70
   9  -3  10   99.45   24.15
   9  -3  10   59.92   17.26
   7   2 -10   -2.99   15.77
   7   2 -10   -6.34   16.36
  -7  -2  10   -4.16   17.66
   6   2 -10  373.77   32.42
   6   2 -10  395.52   36.75
   6   2 -10  314.42   32.88
  -6  -2  10  355.10   36.20
   5   2 -10  -16.06   11.18
   5   2 -10    7.60   10.08
   5   2 -10    1.68    7.70
  -5  -2  10   -8.90   12.54
  -5  -2  10    2.00   11.10
   4   2 -10  711.97   46.19
   4   2 -10  726.30   45.74
   4   2 -10  641.13   42.98
  -4  -2  10  719.46   45.44
  -4  -2  10  714.22   46.86
   3   2 -10   -2.94    9.14
   3   2 -10   -1.45   10.19
   3   2 -10   11.18   11.37
   3   2 -10   -6.45    9.50
  -3  -2  10    3.36   10.35
  -3  -2  10    0.47    9.92
  -3  -2  10   11.77    9.94
  -3  -2  10    4.26    8.24
   2   2 -10  917.22   50.47
   2   2 -10  838.55   50.03
   2   2 -10  882.56   52.22
   2   2 -10  766.29   48.01
   2   2 -10  885.31   50.49
  -2  -2  10  907.86   51.94
  -2  -2  10  865.11   48.46
  -2  -2  10  740.68   48.42
  -2  -2  10  838.17   50.65
   1   2 -10    5.10    6.54
   1   2 -10   -0.73    5.78
   1   2 -10    1.63    7.86
   1   2 -10    3.13    9.44
   1   2 -10   -0.50    6.20
  -1  -2  10  -11.54    6.33
  -1  -2  10   -7.77    6.91
   0   2 -10  750.29   46.39
   0   2 -10  761.54   43.49
   0   2 -10  696.31   44.03
   0   2 -10  773.66   44.22
   0   2 -10  765.56   46.03
   0  -2  10  787.43   45.48
   0  -2  10  841.03   45.73
  -1   2 -10    4.70    7.76
  -1   2 -10    3.71    6.16
  -1   2 -10    2.98    6.37
  -1   2 -10  -17.50    4.05
   1  -2  10    6.21    7.42
   1  -2  10   -8.67    3.73
   1  -2  10   -9.79    7.27
   1  -2  10    8.07    5.31
  -2   2 -10  990.79   59.16
  -2   2 -10 1189.94   56.51
  -2   2 -10  966.82   57.46
  -2   2 -10 1101.40   59.82
   2  -2  10 1046.29   54.99
   2  -2  10 1095.65   60.08
   2  -2  10 1002.01   59.62
  -3   2 -10   11.01    5.69
  -3   2 -10    0.65    8.32
  -3   2 -10   12.83    7.34
  -3   2 -10    2.99    5.51
  -3   2 -10    1.09    2.68
   3  -2  10    0.65    5.61
   3  -2  10    1.38    6.68
   3  -2  10  -19.51    7.34
  -4   2 -10  529.19   34.50
  -4   2 -10  533.39   35.12
  -4   2 -10  588.85   30.38
  -4   2 -10  496.89   32.73
  -4   2 -10  504.15   29.46
   4  -2  10  517.68   32.24
   4  -2  10  604.25   38.19
   4  -2  10  609.87   37.26
  -5   2 -10   13.59   10.63
  -5   2 -10   10.00    7.88
  -5   2 -10   11.07   10.28
  -5   2 -10   16.66    7.69
   5  -2  10   14.88    6.59
   5  -2  10   15.13    9.45
   5  -2  10    1.78   11.47
  -6   2 -10  421.58   27.88
  -6   2 -10  486.13   32.21
  -6   2 -10  436.18   27.60
  -6   2 -10  435.22   30.74
   6  -2  10  379.63   27.73
   6  -2  10  410.79   37.31
   6  -2  10  382.82   36.81
  -7   2 -10   10.08    9.24
   7  -2  10   -4.61    6.82
   7  -2  10    4.00    9.87
   7  -2  10   -5.20   13.70
  -8   2 -10  176.66   20.27
   8  -2  10  193.44   22.84
   8  -2  10  150.55   25.64
  -9   2 -10   11.73   12.37
   9  -2  10   -1.14   17.13
   9  -2  10   22.53   13.92
   7   1 -10  309.42   30.83
   7   1 -10  333.65   35.31
   7   1 -10  327.35   35.57
  -7  -1  10  353.56   38.17
   6   1 -10   -2.04   12.09
   6   1 -10    3.37   13.99
   6   1 -10   -4.51   12.19
  -6  -1  10    0.67   13.18
   5   1 -10  498.33   34.39
   5   1 -10  520.05   34.99
   5   1 -10  520.58   40.44
  -5  -1  10  424.24   40.28
  -5  -1  10  425.04   37.66
   4   1 -10   -3.45    6.45
   4   1 -10   13.14   10.79
   4   1 -10   -4.67    7.66
  -4  -1  10   -1.08   10.72
  -4  -1  10    5.46    9.80
  -4  -1  10  -10.99   10.41
   3   1 -10  909.78   54.15
   3   1 -10  860.01   52.56
   3   1 -10  916.75   52.51
   3   1 -10  927.11   54.27
  -3  -1  10  896.78   54.78
  -3  -1  10  958.33   52.34
  -3  -1  10  869.04   54.63
  -3  -1  10  918.24   50.45
   2   1 -10   12.92   10.01
   2   1 -10    1.98    6.62
   2   1 -10   -4.44    6.04
   2   1 -10   -2.81    6.45
  -2  -1  10    4.89    6.59
  -2  -1  10   -3.24    7.10
  -2  -1  10   -3.12    6.01
  -2  -1  10  -13.50    8.34
   1   1 -10  918.98   50.05
   1   1 -10  929.17   51.39
   1   1 -10  916.42   53.17
   1   1 -10  875.95   52.48
  -1  -1  10  919.80   50.11
  -1  -1  10  837.84   49.73
   0   1 -10   17.82    9.22
   0   1 -10    4.06    7.35
   0   1 -10   11.85    8.14
   0   1 -10   22.34    9.91
   0  -1  10    6.23    7.09
   0  -1  10   13.67    8.13
   0  -1  10   16.04    4.60
  -1   1 -10  902.41   54.38
  -1   1 -10  984.49   52.13
  -1   1 -10  943.54   53.75
  -1   1 -10 1011.63   55.78
   1  -1  10  926.35   54.00
   1  -1  10 1030.58   54.25
  -2   1 -10   -3.95    5.39
  -2   1 -10   -2.87    6.01
  -2   1 -10    6.05    7.42
  -2   1 -10   -5.79    5.39
   2  -1  10    0.71    7.27
   2  -1  10    0.29    5.88
   2  -1  10    0.83    4.56
   2  -1  10    0.33    2.06
  -3   1 -10  688.50   37.23
  -3   1 -10  712.97   41.24
  -3   1 -10  696.75   42.60
  -3   1 -10  777.83   44.18
  -3   1 -10  718.00   38.93
   3  -1  10  773.62   40.24
   3  -1  10  658.15   43.55
   3  -1  10  727.68   43.63
  -4   1 -10   -5.52    8.95
  -4   1 -10   18.64    5.12
  -4   1 -10   13.58    7.21
  -4   1 -10    9.93    5.97
  -4   1 -10   11.22    9.87
   4  -1  10   20.08    7.91
   4  -1  10    6.17    7.11
   4  -1  10    7.71    9.52
  -5   1 -10  532.46   30.34
  -5   1 -10  556.29   34.17
  -5   1 -10  497.19   30.24
  -5   1 -10  513.17   34.33
   5  -1  10  466.25   34.20
   5  -1  10  490.10   34.69
   5  -1  10  460.82   31.42
  -6   1 -10    1.93    6.13
  -6   1 -10   14.24    8.22
  -6   1 -10   -1.47    9.90
   6  -1  10    8.08   11.74
   6  -1  10    9.62    9.66
   6  -1  10    5.44    6.70
  -7   1 -10  367.85   27.44
   7  -1  10  269.67   26.23
   7  -1  10  353.61   32.57
   7  -1  10  273.58   31.88
  -8   1 -10    8.78   11.18
   8  -1  10  -13.25    9.70
   8  -1  10    0.49   14.69
  -9   1 -10  119.42   19.26
   9  -1  10  127.82   22.50
   9  -1  10  127.79   18.91
 -10   1 -10   14.09   11.99
  10  -1  10  -12.75   18.98
   7   0 -10   13.20   16.01
   7   0 -10    1.14   12.74
   7   0 -10    2.34   15.06
  -7   0  10    2.15   15.38
   6   0 -10  387.11   34.96
   6   0 -10  452.93   37.39
   6   0 -10  390.45   33.16
  -6   0  10  406.69   37.50
   5   0 -10   -0.31    7.99
   5   0 -10  -15.93   10.73
   5   0 -10    0.69   12.20
  -5   0  10    0.53   15.02
  -5   0  10   -5.42   12.09
   4   0 -10  996.65   61.52
   4   0 -10  978.48   61.01
   4   0 -10 1045.56   59.95
  -4   0  10 1141.75   64.92
  -4   0  10 1181.31   64.72
   3   0 -10    4.90    9.52
   3   0 -10   -5.49    9.35
   3   0 -10    3.50    9.94
   3   0 -10   -5.00    8.22
  -3   0  10    6.57    8.42
  -3   0  10   10.78    7.32
  -3   0  10    4.47    6.12
  -3   0  10   -3.31    9.56
   2   0 -10  941.43   55.53
   2   0 -10  956.70   54.79
   2   0 -10  964.07   53.72
   2   0 -10  993.17   55.05
  -2   0  10  892.83   51.58
  -2   0  10  946.34   56.41
  -2   0  10 1018.16   52.31
  -2   0  10  997.60   57.48
   1   0 -10    6.59    7.30
   1   0 -10    7.72    8.31
   1   0 -10   -1.43    5.96
   1   0 -10    6.03    8.00
  -1   0  10  -10.20    4.87
  -1   0  10    3.86    6.84
  -1   0  10    3.50    5.60
  -1   0  10   -2.32    4.40
   0   0 -10 1147.20   62.26
   0   0 -10 1176.66   65.07
   0   0 -10 1140.19   64.47
   0   0 -10 1158.64   62.13
   0   0  10 1129.28   59.42
   0   0  10 1190.49   61.75
   0   0  10 1175.62   62.69
  -1   0 -10   -1.34    5.76
  -1   0 -10   -0.83    5.82
  -1   0 -10    3.18    8.14
  -1   0 -10   -2.44    8.24
   1   0  10   -1.48    6.50
   1   0  10   -3.99    5.63
   1   0  10    1.87    5.06
  -2   0 -10 1012.22   55.80
  -2   0 -10  942.07   55.92
  -2   0 -10 1008.32   53.13
   2   0  10 1051.38   55.22
   2   0  10  995.66   52.41
   2   0  10  929.01   55.78
  -3   0 -10    1.12    6.17
  -3   0 -10   -0.75    4.62
  -3   0 -10    0.07    8.51
  -3   0 -10   -5.04    4.77
   3   0  10   -0.25    7.22
   3   0  10    5.26    6.35
  -4   0 -10  709.49   38.62
  -4   0 -10  741.39   43.82
  -4   0 -10  703.38   37.39
  -4   0 -10  687.26   42.17
   4   0  10  643.20   42.44
   4   0  10  664.73   42.66
  -5   0 -10    6.69    4.28
  -5   0 -10    7.27    7.33
  -5   0 -10   -2.99    8.59
   5   0  10    0.14    6.94
   5   0  10   -0.15    7.64
   5   0  10    6.90    6.02
  -6   0 -10  308.58   23.20
  -6   0 -10  328.73   25.70
  -6   0 -10  317.52   27.22
   6   0  10  300.14   24.90
   6   0  10  280.29   29.45
   6   0  10  316.66   30.34
  -7   0 -10   22.12    9.88
  -7   0 -10  -14.28    9.04
   7   0  10    1.40   10.90
   7   0  10   -6.28   12.24
  -8   0 -10  241.34   22.83
   8   0  10  243.66   29.96
   8   0  10  136.48   29.26
  -9   0 -10    5.63   12.61
   9   0  10  -10.26   11.20
 -10   0 -10  114.89   21.35
  10   0  10   99.50   21.50
  10   0  10   89.16   25.70
   7  -1 -10  288.64   32.84
   7  -1 -10  289.20   28.51
   7  -1 -10  353.50   33.88
  -7   1  10  330.10   36.11
   6  -1 -10    0.04   12.22
   6  -1 -10    5.84   14.25
   6  -1 -10   -6.91   12.11
  -6   1  10  -11.91   14.73
   5  -1 -10  420.61   36.28
   5  -1 -10  451.41   35.89
   5  -1 -10  482.66   36.80
  -5   1  10  489.81   40.73
  -5   1  10  453.29   41.35
   4  -1 -10   30.02   12.86
   4  -1 -10    6.85    9.68
   4  -1 -10   20.27   12.14
   4  -1 -10  -23.00    8.27
  -4   1  10   -1.29    7.94
  -4   1  10  -11.11   11.91
   3  -1 -10  895.82   53.20
   3  -1 -10  850.20   54.84
   3  -1 -10 1006.50   54.66
   3  -1 -10  910.33   52.99
  -3   1  10  909.83   56.55
  -3   1  10 1002.64   57.44
   2  -1 -10   -4.52    8.57
   2  -1 -10   -3.94    8.24
   2  -1 -10   -2.28    6.10
  -2   1  10   -9.06    5.02
  -2   1  10    2.42    5.65
  -2   1  10   -0.37    4.36
  -2   1  10   -1.47    7.29
  -2   1  10  -12.91    6.26
   1  -1 -10  977.45   54.01
   1  -1 -10  861.07   50.86
   1  -1 -10  906.02   53.88
   1  -1 -10  864.29   50.75
  -1   1  10  961.51   48.47
  -1   1  10  939.18   49.92
  -1   1  10  907.08   54.14
  -1   1  10  922.99   48.94
   0  -1 -10   18.38    8.07
   0  -1 -10   25.65    9.64
   0  -1 -10   32.82    7.80
   0  -1 -10   23.76    7.70
   0   1  10   25.81    7.82
   0   1  10    9.43    7.53
   0   1  10    2.12    5.36
   0   1  10   18.81    6.48
  -1  -1 -10  993.04   54.89
  -1  -1 -10  993.08   55.96
  -1  -1 -10  928.60   52.74
  -1  -1 -10  978.15   52.49
   1   1  10 1013.37   54.69
   1   1  10  999.80   52.58
   1   1  10  957.71   51.85
  -2  -1 -10   -4.53    4.26
  -2  -1 -10  -11.59    5.25
  -2  -1 -10    3.44    3.91
  -2  -1 -10    3.53    7.43
  -2  -1 -10   -2.39    6.84
   2   1  10    2.08    5.83
   2   1  10   14.09    6.12
   2   1  10   -0.37    7.24
  -3  -1 -10  778.60   44.04
  -3  -1 -10  733.67   40.45
  -3  -1 -10  716.44   40.58
  -3  -1 -10  701.41   44.40
   3   1  10  781.33   45.37
   3   1  10  713.22   42.99
   3   1  10  774.79   41.80
  -4  -1 -10    7.42    8.94
  -4  -1 -10    0.31    4.71
  -4  -1 -10   25.87    7.11
   4   1  10   23.71    8.29
   4   1  10   18.23    8.50
   4   1  10   24.08    9.79
  -5  -1 -10  488.41   33.71
  -5  -1 -10  484.28   31.82
  -5  -1 -10  509.42   33.86
  -5  -1 -10  515.52   29.04
   5   1  10  526.41   33.16
   5   1  10  586.77   36.95
   5   1  10  555.04   36.37
  -6  -1 -10    8.59    7.49
  -6  -1 -10   -5.51    8.34
  -6  -1 -10    3.98    8.75
   6   1  10   20.76   10.10
   6   1  10  -11.38   11.07
   6   1  10    9.86    9.01
  -7  -1 -10  373.35   23.94
  -7  -1 -10  331.74   27.43
  -7  -1 -10  249.96   24.35
   7   1  10  311.94   27.80
   7   1  10  269.82   29.94
   7   1  10  226.11   29.16
  -8  -1 -10   11.28   11.00
   8   1  10   19.88   10.83
   8   1  10   10.75   11.96
   8   1  10   -6.24   19.26
  -9  -1 -10   97.21   18.66
   9   1  10  100.98   19.85
   9   1  10  114.34   22.11
 -10  -1 -10    7.96   13.88
  10   1  10   12.25   15.79
  10   1  10    2.07   14.75
   7  -2 -10   -7.09   11.54
   7  -2 -10   -2.43   10.65
  -7   2  10   -4.17   16.76
   6  -2 -10  365.22   34.97
   6  -2 -10  314.19   29.88
   6  -2 -10  331.10   30.90
  -6   2  10  355.93   36.78
   5  -2 -10   -9.02   10.71
   5  -2 -10    2.00   12.20
   5  -2 -10   -7.33    9.64
  -5   2  10  -17.75    8.87
  -5   2  10   -1.10    9.90
   4  -2 -10  711.18   42.76
   4  -2 -10  712.33   43.22
   4  -2 -10  759.80   45.52
   4  -2 -10  720.39   44.92
  -4   2  10  697.84   48.65
  -4   2  10  637.72   46.93
   3  -2 -10    3.11    7.88
   3  -2 -10    3.13    6.53
   3  -2 -10   11.92    7.96
   3  -2 -10   -5.77    6.22
  -3   2  10   -0.86    7.72
  -3   2  10    4.86    9.29
  -3   2  10   -5.73    6.45
   2  -2 -10  851.29   50.18
   2  -2 -10  882.88   48.49
   2  -2 -10  810.63   47.54
  -2   2  10  756.14   50.55
  -2   2  10  815.55   45.66
  -2   2  10  863.87   51.18
   1  -2 -10   -0.20    5.87
   1  -2 -10   -1.48    6.14
   1  -2 -10   -3.27    6.92
  -1   2  10  -15.74    9.17
  -1   2  10    1.54    6.19
  -1   2  10    5.05    5.44
   0  -2 -10  856.64   44.10
   0  -2 -10  821.18   45.23
   0  -2 -10  786.40   46.70
   0  -2 -10  760.16   45.80
   0   2  10  773.69   47.96
   0   2  10  852.45   43.60
   0   2  10  730.40   43.66
   0   2  10  749.98   40.66
  -1  -2 -10    6.85    3.60
  -1  -2 -10    6.43    5.19
  -1  -2 -10   -7.41    6.57
  -1  -2 -10    9.91    8.72
  -1  -2 -10    1.64    6.85
   1   2  10    8.35    5.84
   1   2  10   13.89    7.78
   1   2  10  -10.46    4.60
  -2  -2 -10 1015.26   54.57
  -2  -2 -10 1206.35   57.09
  -2  -2 -10  997.80   56.43
  -2  -2 -10  981.28   58.89
  -2  -2 -10 1048.50   57.30
   2   2  10 1022.21   55.96
   2   2  10 1055.38   56.16
   2   2  10 1049.94   58.46
  -3  -2 -10   11.50    6.29
  -3  -2 -10   26.45   10.72
  -3  -2 -10   -7.86    6.82
  -3  -2 -10    6.12    6.98
   3   2  10    0.28    4.69
   3   2  10    8.50    7.61
   3   2  10    1.58    8.93
  -4  -2 -10  506.15   34.37
  -4  -2 -10  534.77   32.54
  -4  -2 -10  448.82   32.92
  -4  -2 -10  580.20   31.49
   4   2  10  581.47   35.28
   4   2  10  554.86   37.20
   4   2  10  583.40   33.28
  -5  -2 -10    0.06    7.96
  -5  -2 -10   19.45    8.82
  -5  -2 -10   11.94    9.64
  -5  -2 -10    9.89    5.82
   5   2  10    2.19    8.24
   5   2  10    3.69   10.56
   5   2  10    0.24    6.78
  -6  -2 -10  421.92   29.57
  -6  -2 -10  454.48   31.70
  -6  -2 -10  379.47   29.26
   6   2  10  453.02   38.77
   6   2  10  486.65   31.28
   6   2  10  401.91   31.57
  -7  -2 -10   -3.07    7.06
  -7  -2 -10   -2.85   11.07
  -7  -2 -10   -0.92    9.58
   7   2  10   -0.99   12.90
   7   2  10    1.32   14.63
   7   2  10    9.61   11.28
  -8  -2 -10  142.04   19.39
  -8  -2 -10  135.12   21.33
  -8  -2 -10  166.92   21.29
   8   2  10  191.19   23.16
   8   2  10  186.91   25.91
  -9  -2 -10   11.88   10.48
   9   2  10  -16.95   12.97
   9   2  10   -3.84   12.55
  10   2  10   58.32   16.42
   7  -3 -10  315.91   34.25
   7  -3 -10  288.03   30.13
  -7   3  10  275.67   35.10
   6  -3 -10   10.19   11.48
   6  -3 -10  -10.75   11.77
  -6   3  10    8.59   16.19
   5  -3 -10  529.08   42.16
   5  -3 -10  513.99   35.59
  -5   3  10  568.05   46.76
   4  -3 -10   17.02   10.94
   4  -3 -10    1.37    7.34
   4  -3 -10    4.09   10.99
   4  -3 -10  -11.28   10.53
  -4   3  10   12.45   11.45
  -4   3  10    5.10   13.18
   3  -3 -10  916.41   54.57
   3  -3 -10  944.12   52.87
   3  -3 -10  956.10   53.90
  -3   3  10  878.20   56.24
  -3   3  10  835.25   50.85
  -3   3  10  976.18   56.78
   2  -3 -10   -6.58    5.34
   2  -3 -10    3.33    9.74
   2  -3 -10   -2.51    8.54
  -2   3  10   -6.29    7.47
  -2   3  10    0.41    6.75
  -2   3  10  -12.88    6.54
   1  -3 -10  969.64   54.08
   1  -3 -10  923.31   55.18
   1  -3 -10  963.53   56.35
  -1   3  10 1062.11   58.87
  -1   3  10 1007.75   54.04
   0  -3 -10    9.68    4.22
   0  -3 -10   11.49    8.02
   0  -3 -10    1.74    6.53
   0  -3 -10   11.83    6.88
   0   3  10    1.05    5.65
   0   3  10   -2.76    7.19
   0   3  10    8.49    7.38
  -1  -3 -10  895.50   50.29
  -1  -3 -10  940.94   53.38
  -1  -3 -10  856.99   47.89
  -1  -3 -10  967.95   48.24
  -1  -3 -10  866.50   50.42
   1   3  10  981.85   50.58
   1   3  10  874.17   50.50
   1   3  10  864.88   52.95
  -2  -3 -10    2.29    5.90
  -2  -3 -10   -2.25    6.21
  -2  -3 -10    3.73    7.14
  -2  -3 -10   -3.24    6.31
  -2  -3 -10   -0.08    6.38
   2   3  10   -0.28    7.95
   2   3  10   -5.25    6.74
  -3  -3 -10  795.60   42.35
  -3  -3 -10  781.25   42.36
  -3  -3 -10  665.40   40.60
   3   3  10  744.22   42.26
   3   3  10  716.32   42.25
   3   3  10  666.72   44.12
  -4  -3 -10    3.38    6.83
  -4  -3 -10    2.60    7.53
  -4  -3 -10    2.87    6.84
  -4  -3 -10    5.42    7.78
   4   3  10   -2.56    7.78
   4   3  10   -2.28    8.25
   4   3  10   -2.20    7.41
  -5  -3 -10  600.27   32.68
  -5  -3 -10  521.83   34.29
  -5  -3 -10  535.85   37.89
  -5  -3 -10  569.45   35.45
   5   3  10  553.38   35.89
   5   3  10  553.10   39.39
  -6  -3 -10    3.36    9.25
  -6  -3 -10    2.41    7.98
  -6  -3 -10    1.67    8.51
   6   3  10   15.27   11.06
   6   3  10   -2.49   12.91
  -7  -3 -10  262.24   26.49
  -7  -3 -10  239.39   23.29
  -7  -3 -10  186.85   21.48
   7   3  10  220.91   26.19
   7   3  10  218.16   24.26
  -8  -3 -10   12.52   13.20
  -8  -3 -10   -1.71   13.06
  -8  -3 -10    7.76   10.74
   8   3  10    7.03   13.67
   8   3  10  -17.71   15.38
  -9  -3 -10   85.49   18.41
  -9  -3 -10   84.49   20.44
   9   3  10  110.84   23.41
   9   3  10   81.13   16.81
   7  -4 -10   31.13   14.89
   7  -4 -10   11.67   16.20
  -7   4  10  -24.00   17.93
   6  -4 -10  369.54   34.80
   6  -4 -10  308.10   30.76
  -6   4  10  293.66   35.59
   5  -4 -10    7.46   10.22
   5  -4 -10    3.93    9.35
  -5   4  10    2.74   15.12
   4  -4 -10  800.72   46.04
   4  -4 -10  637.92   44.24
   4  -4 -10  686.36   44.59
  -4   4  10  766.38   50.25
  -4   4  10  668.72   42.92
  -4   4  10  659.60   47.01
   3  -4 -10   -4.27    8.97
   3  -4 -10    3.42    7.44
   3  -4 -10  -20.32    8.91
  -3   4  10    9.50    9.21
  -3   4  10    3.17    9.25
  -3   4  10    9.91   12.73
   2  -4 -10  733.78   43.54
   2  -4 -10  734.21   45.68
   2  -4 -10  672.87   43.55
  -2   4  10  724.58   47.19
  -2   4  10  798.33   43.87
  -2   4  10  764.22   47.85
   1  -4 -10   -0.27    6.83
   1  -4 -10   -3.02    8.27
   1  -4 -10    9.15    4.99
   1  -4 -10   10.04    7.31
  -1   4  10    0.74    7.43
  -1   4  10   -0.97    8.18
  -1   4  10   10.46   11.65
   0  -4 -10  879.93   50.48
   0  -4 -10  858.89   46.64
   0  -4 -10  886.25   49.76
   0  -4 -10  834.67   45.80
   0   4  10  857.27   47.41
   0   4  10  824.46   47.99
   0   4  10  857.25   52.66
  -1  -4 -10  -17.37    6.95
  -1  -4 -10    4.31    6.75
  -1  -4 -10    7.83    4.79
  -1  -4 -10   10.07    6.97
  -1  -4 -10    1.79    6.41
   1   4  10    7.30    7.32
   1   4  10    2.74    7.64
   1   4  10   -6.07    7.23
  -2  -4 -10  692.45   40.58
  -2  -4 -10  698.74   40.83
  -2  -4 -10  805.38   44.92
   2   4  10  732.32   44.22
   2   4  10  692.40   41.51
   2   4  10  688.88   42.94
  -3  -4 -10   -1.96    7.41
  -3  -4 -10   -8.49    6.75
   3   4  10    9.84    9.75
   3   4  10    8.65    8.78
   3   4  10    3.53   10.09
  -4  -4 -10  648.99   43.06
  -4  -4 -10  627.70   37.19
  -4  -4 -10  623.07   39.09
   4   4  10  655.48   42.85
   4   4  10  647.88   39.14
  -5  -4 -10   -2.70    9.17
  -5  -4 -10   -0.58   11.32
  -5  -4 -10    3.62    6.80
   5   4  10  -10.43    9.40
   5   4  10   10.36   13.23
  -6  -4 -10  319.60   28.63
  -6  -4 -10  329.64   31.83
  -6  -4 -10  305.33   25.34
   6   4  10  353.09   30.21
   6   4  10  347.88   34.20
  -7  -4 -10   -9.97    8.59
  -7  -4 -10    3.93    8.98
   7   4  10  -24.96   14.78
   7   4  10   -1.58   11.93
  -8  -4 -10  126.01   20.08
  -8  -4 -10   83.79   18.53
   8   4  10  122.96   20.56
   8   4  10  101.07   21.10
  -9  -4 -10   -7.19   17.23
  -9  -4 -10  -21.97   13.30
   9   4  10   11.19   15.59
   9   4  10   -8.20   18.61
   6  -5 -10  -10.21   11.34
   6  -5 -10   -4.76    9.79
  -6   5  10   19.31   19.69
   5  -5 -10  361.75   33.85
   5  -5 -10  426.98   34.93
  -5   5  10  310.56   31.34
  -5   5  10  370.22   37.44
   4  -5 -10    0.61    8.58
   4  -5 -10   -2.04   10.53
   4  -5 -10   -9.94   10.73
  -4   5  10  -12.91   13.27
  -4   5  10   15.98   15.87
  -4   5  10    2.55   10.99
   3  -5 -10  526.07   36.67
   3  -5 -10  544.01   37.64
   3  -5 -10  598.75   37.18
  -3   5  10  531.95   39.46
  -3   5  10  575.74   41.34
  -3   5  10  521.32   35.97
   2  -5 -10    0.35    6.54
   2  -5 -10    4.36    8.58
   2  -5 -10   -1.94   10.01
   2  -5 -10   -4.49    5.73
  -2   5  10   -2.55    8.72
  -2   5  10   10.18    9.69
  -2   5  10   -0.47   12.20
   1  -5 -10  551.32   36.66
   1  -5 -10  521.10   32.87
   1  -5 -10  544.58   35.28
   1  -5 -10  535.79   31.92
  -1   5  10  520.21   38.47
  -1   5  10  569.25   38.34
  -1   5  10  604.99   35.92
   0  -5 -10    3.48    5.87
   0  -5 -10   -2.13    9.62
   0  -5 -10   -0.12    6.90
   0  -5 -10    0.30    9.48
   0   5  10   -5.50    6.74
   0   5  10   11.16    9.23
   0   5  10   -4.50   10.42
  -1  -5 -10  759.52   45.84
  -1  -5 -10  877.47   50.08
   1   5  10  816.32   48.01
   1   5  10  918.15   51.03
   1   5  10  771.30   46.90
  -2  -5 -10   -5.44   10.43
  -2  -5 -10    6.30    7.71
  -2  -5 -10    3.20    6.02
   2   5  10   -9.62    8.11
   2   5  10   -5.49    6.24
   2   5  10   -0.86    7.17
  -3  -5 -10  693.63   41.87
  -3  -5 -10  638.84   38.60
   3   5  10  761.68   45.16
   3   5  10  665.02   42.35
   3   5  10  715.51   44.25
  -4  -5 -10   12.18    9.77
  -4  -5 -10   11.49    9.60
  -4  -5 -10    9.88    7.24
   4   5  10    9.79   12.79
   4   5  10   13.60    9.63
   4   5  10    7.63   10.31
  -5  -5 -10  339.38   32.51
  -5  -5 -10  455.85   33.48
   5   5  10  344.94   29.53
   5   5  10  361.11   34.50
   5   5  10  286.52   27.48
  -6  -5 -10   -4.89   13.24
  -6  -5 -10   -0.14   10.50
   6   5  10    9.13    9.30
   6   5  10    6.05    8.70
   6   5  10    1.39   14.99
  -7  -5 -10  232.51   28.01
  -7  -5 -10  246.89   24.88
   7   5  10  182.77   24.54
   7   5  10  189.90   28.33
  -8  -5 -10   -3.24   13.51
  -8  -5 -10   11.40   16.73
   8   5  10   -2.44   10.02
   8   5  10   -6.27   19.19
  -9  -5 -10  113.95   21.93
  -9  -5 -10   98.57   25.79
   9   5  10  113.35   22.41
   9   5  10   75.37   24.67
   6  -6 -10  216.18   26.83
   6  -6 -10  228.29   28.07
  -6   6  10  315.43   35.73
   5  -6 -10   11.54   14.92
   5  -6 -10   15.79   11.08
  -5   6  10    5.74   13.94
  -5   6  10    4.17   16.31
   4  -6 -10  533.94   37.54
   4  -6 -10  609.19   44.35
   4  -6 -10  557.79   44.30
  -4   6  10  568.54   42.35
  -4   6  10  533.87   42.44
   3  -6 -10   -4.59    9.60
   3  -6 -10   -8.70    8.04
   3  -6 -10   12.17    8.09
   3  -6 -10    7.44    8.87
  -3   6  10    6.70   14.00
  -3   6  10    6.85   11.73
  -3   6  10   -7.81    8.84
   2  -6 -10  650.59   40.62
   2  -6 -10  614.17   41.80
   2  -6 -10  672.77   39.73
   2  -6 -10  594.80   36.92
  -2   6  10  632.36   40.75
  -2   6  10  669.74   45.95
  -2   6  10  605.19   43.90
   1  -6 -10   -1.83    7.02
   1  -6 -10  -16.53   10.09
   1  -6 -10   13.24   10.50
   1  -6 -10   -9.45    6.56
  -1   6  10   15.73   10.78
  -1   6  10    3.75    8.63
  -1   6  10    1.80   11.97
   0  -6 -10  658.73   38.00
   0  -6 -10  646.40   35.77
   0  -6 -10  570.24   39.33
   0   6  10  608.59   39.46
   0   6  10  591.83   41.01
  -1  -6 -10    2.72    9.53
  -1  -6 -10    4.44    7.30
  -1  -6 -10    4.47    8.82
   1   6  10    5.88   11.00
   1   6  10    5.87    8.15
   1   6  10    5.04    7.36
  -2  -6 -10  808.34   46.45
  -2  -6 -10  843.74   48.20
  -2  -6 -10  740.89   49.59
   2   6  10  876.33   49.10
   2   6  10  842.10   50.98
   2   6  10  783.73   48.68
  -3  -6 -10   19.03   10.80
   3   6  10    1.39   10.52
   3   6  10    6.90   10.30
   3   6  10   10.04   10.99
  -4  -6 -10  520.46   34.75
  -4  -6 -10  500.73   37.08
   4   6  10  478.49   40.48
   4   6  10  420.42   36.68
   4   6  10  520.19   34.84
  -5  -6 -10  -15.29   12.36
  -5  -6 -10    6.05   11.67
   5   6  10   -4.59    9.04
   5   6  10   20.94   10.10
   5   6  10  -12.51   10.48
  -6  -6 -10  256.41   28.59
  -6  -6 -10  187.49   23.80
   6   6  10  241.07   27.14
   6   6  10  235.89   30.40
  -7  -6 -10   -1.45   16.62
  -7  -6 -10    4.98   10.01
   7   6  10    2.16   10.11
   7   6  10   -6.59   11.36
  -8  -6 -10  129.29   25.73
  -8  -6 -10  128.68   22.51
   8   6  10   91.79   20.89
   8   6  10   86.20   24.76
   5  -7 -10  319.71   31.92
   5  -7 -10  215.67   28.47
  -5   7  10  307.37   32.03
  -5   7  10  298.11   34.38
   4  -7 -10   14.24   10.89
   4  -7 -10    9.60   11.27
  -4   7  10   -3.43    9.51
  -4   7  10   -5.33   11.29
   3  -7 -10  486.16   40.72
   3  -7 -10  473.56   37.94
   3  -7 -10  532.15   33.34
  -3   7  10  495.67   44.49
  -3   7  10  516.80   40.99
  -3   7  10  485.84   47.68
   2  -7 -10  -20.32   10.93
   2  -7 -10   -3.70    9.54
   2  -7 -10   15.56   10.55
   2  -7 -10   11.98   10.88
  -2   7  10    7.17    9.97
  -2   7  10  -10.94   13.51
  -2   7  10  -12.19   10.89
   1  -7 -10  657.37   39.94
   1  -7 -10  567.66   36.86
   1  -7 -10  568.03   37.32
  -1   7  10  670.27   45.00
  -1   7  10  627.51   40.70
  -1   7  10  597.70   42.51
   0  -7 -10   -2.60    9.56
   0  -7 -10    3.68   10.39
   0  -7 -10    6.19    9.04
   0   7  10    5.42   10.97
   0   7  10   -4.19    8.23
  -1  -7 -10  641.19   38.45
  -1  -7 -10  545.12   38.34
  -1  -7 -10  557.67   37.08
   1   7  10  608.39   39.52
   1   7  10  564.65   40.77
  -2  -7 -10   -2.63    9.94
  -2  -7 -10    3.69   11.22
  -2  -7 -10    8.87    9.89
   2   7  10    2.37    9.67
   2   7  10    6.68   11.64
   2   7  10   10.08   11.87
  -3  -7 -10  453.72   35.13
   3   7  10  478.46   32.25
   3   7  10  406.61   35.26
   3   7  10  417.10   35.90
  -4  -7 -10  -15.14    9.69
  -4  -7 -10   -5.98    9.82
   4   7  10    1.61   10.13
   4   7  10   -6.21   11.62
   4   7  10   -6.73    8.49
  -5  -7 -10  363.02   34.92
  -5  -7 -10  324.70   30.30
   5   7  10  331.27   32.02
   5   7  10  336.27   33.94
  -6  -7 -10   -8.96   15.37
  -6  -7 -10   -2.71   13.32
   6   7  10   14.93   12.86
   6   7  10   20.04   15.03
  -7  -7 -10  134.84   20.61
  -7  -7 -10  129.20   23.22
   7   7  10  123.57   25.71
   7   7  10  114.52   21.50
  -8  -7 -10   -4.31   15.26
  -8  -7 -10  -33.70   16.61
   8   7  10   -1.00   14.14
   8   7  10   12.77   16.94
   4  -8 -10  268.24   30.02
   4  -8 -10  312.68   30.49
  -4   8  10  237.52   32.76
  -4   8  10  361.01   35.02
   3  -8 -10   -3.69   11.44
   3  -8 -10   -1.19   11.63
   3  -8 -10    9.35   14.44
  -3   8  10    3.25   13.00
  -3   8  10  -18.93   15.09
   2  -8 -10  272.32   26.10
   2  -8 -10  333.61   28.29
  -2   8  10  282.09   30.75
  -2   8  10  356.88   32.08
  -2   8  10  311.63   32.47
   1  -8 -10   23.91   13.14
   1  -8 -10   23.34   11.47
  -1   8  10   -7.60    9.20
  -1   8  10   24.12   13.47
  -1   8  10   24.88   11.51
   0  -8 -10  429.58   32.62
   0  -8 -10  512.15   33.15
   0  -8 -10  423.07   36.36
   0   8  10  401.30   37.24
   0   8  10  485.85   40.75
   0   8  10  579.87   41.10
  -1  -8 -10    4.92   11.24
  -1  -8 -10   -6.39   10.59
  -1  -8 -10    2.30   11.58
   1   8  10  -17.10   11.60
   1   8  10   -6.40   11.10
  -2  -8 -10  486.66   34.99
  -2  -8 -10  521.98   35.49
  -2  -8 -10  423.27   36.07
   2   8  10  503.91   35.13
   2   8  10  477.10   38.47
  -3  -8 -10   -1.52   11.62
   3   8  10   -7.90   12.33
   3   8  10  -11.06   10.19
  -4  -8 -10  308.77   30.95
  -4  -8 -10  301.94   35.17
   4   8  10  314.92   32.00
   4   8  10  299.97   28.22
   4   8  10  313.74   31.51
  -5  -8 -10   -3.90   16.73
  -5  -8 -10   10.92   13.71
   5   8  10   -2.57   14.09
   5   8  10   22.17   12.88
  -6  -8 -10  169.44   27.10
  -6  -8 -10  169.48   25.41
   6   8  10  159.09   24.79
   6   8  10  160.13   24.70
  -7  -8 -10   -8.91   14.33
  -7  -8 -10   -9.12   10.43
   7   8  10  -20.59   15.88
   7   8  10    8.30   13.92
   3  -9 -10  395.47   36.46
   3  -9 -10  432.61   35.35
  -3   9  10  361.50   40.13
  -3   9  10  337.01   36.34
   2  -9 -10    4.39   12.34
  -2   9  10    9.44   10.40
  -2   9  10  -11.12   11.37
   1  -9 -10  438.07   34.24
   1  -9 -10  381.66   35.31
  -1   9  10  332.06   34.35
  -1   9  10  421.53   38.56
  -1   9  10  448.60   36.71
   0  -9 -10   11.75   11.98
   0  -9 -10   28.87   15.26
   0   9  10    2.74   14.88
   0   9  10   24.68   11.43
   0   9  10   14.91   14.95
  -1  -9 -10  285.71   28.72
  -1  -9 -10  360.18   32.41
  -1  -9 -10  323.96   29.47
   1   9  10  322.55   32.15
   1   9  10  344.73   33.31
  -2  -9 -10    6.36    9.98
  -2  -9 -10   -1.63   11.77
  -2  -9 -10   -2.88   12.03
   2   9  10   10.91   11.11
   2   9  10   -6.20   12.81
  -3  -9 -10  348.17   33.20
   3   9  10  366.88   32.26
   3   9  10  305.51   31.54
  -4  -9 -10   -8.11   12.39
  -4  -9 -10   20.47   11.51
   4   9  10  -17.51   12.72
  -5  -9 -10  217.87   32.80
  -5  -9 -10  244.57   28.85
   5   9  10  170.70   24.55
  -6  -9 -10   -2.56   16.06
  -6  -9 -10  -12.90   12.88
   6   9  10  -10.91   11.08
   2 -10 -10  254.82   27.77
  -2  10  10  248.73   33.85
  -2  10  10  363.79   34.90
   1 -10 -10   37.33   14.99
   1 -10 -10   -6.79   15.41
  -1  10  10    0.63   12.18
  -1  10  10   17.43   16.39
   0 -10 -10  259.05   31.51
   0 -10 -10  311.16   30.34
   0  10  10  296.28   31.48
   0  10  10  293.69   30.89
  -1 -10 -10   -0.85   14.76
  -1 -10 -10   -3.63   15.33
   1  10  10    0.84   15.27
   1  10  10  -21.89   13.49
  -2 -10 -10  238.84   28.10
  -2 -10 -10  209.78   33.90
   2  10  10  237.40   26.84
   2  10  10  257.49   29.34
  -3 -10 -10    3.86   14.02
  -3 -10 -10    0.06   15.28
   3  10  10   16.23   16.08
  -4 -10 -10  201.88   27.80
  -4 -10 -10  210.11   30.48
   4  10  10  176.56   24.86
   0  10 -11   -0.39   14.81
   0  10 -11   -3.97   15.39
   0  10 -11   10.34   17.47
   0 -10  11   19.08   18.37
  -1  10 -11  217.54   27.23
  -1  10 -11  221.04   28.46
  -1  10 -11  206.73   27.70
   1 -10  11  218.62   30.98
  -2  10 -11    1.11   14.72
  -2  10 -11   -6.97   14.49
  -2  10 -11   16.10   17.01
   2 -10  11    1.05   12.55
  -3  10 -11  180.04   25.67
  -3  10 -11  209.76   27.04
   3 -10  11  217.02   30.68
   2   9 -11  277.16   32.82
   2   9 -11  380.19   37.08
  -2  -9  11  321.71   35.84
   1   9 -11   -3.45   10.09
   1   9 -11   -2.39   13.69
   1   9 -11    3.33   15.11
  -1  -9  11    6.76   15.42
   0   9 -11  335.71   34.41
   0   9 -11  410.71   35.67
   0   9 -11  340.13   35.37
   0  -9  11  338.54   35.15
  -1   9 -11   -6.34   12.82
  -1   9 -11   -1.30    9.23
  -1   9 -11   -3.39    9.60
   1  -9  11    1.31   11.36
   1  -9  11    6.92   15.89
  -2   9 -11  270.46   28.73
  -2   9 -11  252.29   27.82
  -2   9 -11  283.63   31.91
   2  -9  11  203.74   29.21
  -3   9 -11   -8.29    9.67
  -3   9 -11    7.32   14.79
   3  -9  11   -1.19   12.37
  -4   9 -11  185.86   26.32
  -4   9 -11  220.71   29.94
   4  -9  11  222.47   32.07
  -5   9 -11   -0.40   10.30
  -5   9 -11  -12.90   11.66
   5  -9  11    8.99   14.37
   3   8 -11  297.02   33.43
   3   8 -11  300.21   32.65
  -3  -8  11  404.73   38.85
   2   8 -11    2.57   13.86
   2   8 -11  -10.31   13.79
   2   8 -11   14.00   11.41
  -2  -8  11   -1.89   15.11
   1   8 -11  418.38   39.07
   1   8 -11  525.20   42.19
   1   8 -11  470.71   40.06
  -1  -8  11  483.87   41.33
   0   8 -11    4.87   12.93
   0   8 -11   22.32   13.68
   0   8 -11    9.17   14.70
   0  -8  11   16.94   12.98
  -1   8 -11  348.16   32.46
  -1   8 -11  337.03   31.22
  -1   8 -11  288.35   29.94
   1  -8  11  305.64   30.29
   1  -8  11  279.31   33.01
  -2   8 -11    7.51   12.73
  -2   8 -11    8.19   13.76
  -2   8 -11    8.06   13.05
   2  -8  11    7.80   14.36
  -3   8 -11  270.87   28.62
  -3   8 -11  228.73   27.54
   3  -8  11  273.70   32.68
  -4   8 -11   -3.44    8.97
  -4   8 -11   -1.74   14.46
   4  -8  11    6.35   11.51
  -5   8 -11  183.98   24.84
  -5   8 -11  153.24   22.41
   5  -8  11  188.48   28.32
  -6   8 -11   -3.51   15.01
  -6   8 -11   25.84   15.52
   6  -8  11   26.85   20.61
   4   7 -11  287.20   31.08
   4   7 -11  285.43   32.06
   4   7 -11  284.92   33.02
  -4  -7  11  329.54   32.54
  -4  -7  11  291.75   33.72
   3   7 -11    4.00   14.08
   3   7 -11    2.24   15.72
   3   7 -11   31.91   14.64
  -3  -7  11   12.51   13.08
  -3  -7  11    5.00   10.25
   2   7 -11  501.79   41.45
   2   7 -11  513.61   41.62
   2   7 -11  533.55   43.89
  -2  -7  11  503.21   42.44
   1   7 -11   16.63   12.83
   1   7 -11   18.87   10.44
   1   7 -11   19.15   13.82
  -1  -7  11   11.67   12.29
  -1  -7  11    7.50   12.53
   0   7 -11  464.28   38.84
   0   7 -11  477.56   34.39
   0   7 -11  494.93   39.56
   0  -7  11  521.59   45.25
   0  -7  11  435.59   39.42
   0  -7  11  454.94   34.22
  -1   7 -11    8.21   10.63
  -1   7 -11    5.59    9.21
  -1   7 -11  -10.95   11.99
  -1   7 -11   -7.96   11.57
   1  -7  11    7.72   11.84
   1  -7  11   12.07   13.45
   1  -7  11    5.77   10.24
  -2   7 -11  456.34   38.71
  -2   7 -11  392.06   34.84
  -2   7 -11  472.05   31.08
  -2   7 -11  436.27   31.81
   2  -7  11  362.42   38.60
   2  -7  11  472.36   40.80
  -3   7 -11   -3.64    9.13
  -3   7 -11   -5.43   10.49
  -3   7 -11   -5.00    8.20
   3  -7  11   -7.06   11.91
   3  -7  11    0.68   12.33
  -4   7 -11  271.80   30.10
  -4   7 -11  228.05   25.54
   4  -7  11  214.44   28.19
  -5   7 -11   14.87   11.61
  -5   7 -11   -2.35   11.73
   5  -7  11   -4.01   15.24
  -6   7 -11  187.82   23.07
  -6   7 -11  148.47   25.44
   6  -7  11  128.36   23.04
   6  -7  11  180.74   22.05
  -7   7 -11    7.54   16.71
  -7   7 -11    0.14   13.75
   7  -7  11   -9.64   13.54
   7  -7  11   -4.49   12.65
   5   6 -11  281.59   30.31
   5   6 -11  222.12   29.93
  -5  -6  11  228.05   29.91
  -5  -6  11  209.77   28.43
   4   6 -11   -6.32   10.13
   4   6 -11   15.83   14.72
  -4  -6  11    4.26   13.66
  -4  -6  11    0.82   13.89
   3   6 -11  533.20   44.09
   3   6 -11  494.65   38.18
   3   6 -11  609.94   48.55
  -3  -6  11  595.46   50.75
  -3  -6  11  624.92   40.28
  -3  -6  11  625.25   43.07
   2   6 -11   -0.84   10.41
   2   6 -11  -26.60    9.89
   2   6 -11   25.39   13.49
  -2  -6  11    3.57   10.58
  -2  -6  11  -17.87    8.98
  -2  -6  11   25.14   16.48
   1   6 -11  684.51   43.49
   1   6 -11  693.25   44.54
   1   6 -11  699.60   44.71
  -1  -6  11  577.98   44.75
  -1  -6  11  664.59   43.25
   0   6 -11  -15.01    9.11
   0   6 -11   -9.32   11.16
   0   6 -11    4.57    8.54
   0   6 -11   -5.15    9.79
   0  -6  11   -3.66    8.59
   0  -6  11   -1.78   11.41
   0  -6  11   -2.31   13.33
  -1   6 -11  649.97   41.96
  -1   6 -11  596.23   39.95
  -1   6 -11  598.64   41.29
  -1   6 -11  637.82   39.99
   1  -6  11  604.39   39.53
   1  -6  11  674.05   46.13
   1  -6  11  609.88   43.67
  -2   6 -11   25.70   10.48
  -2   6 -11    5.67   10.73
  -2   6 -11   38.17   14.07
   2  -6  11   -5.04   12.90
   2  -6  11    0.40    8.63
  -3   6 -11  394.12   35.32
  -3   6 -11  420.01   32.88
  -3   6 -11  392.18   27.81
   3  -6  11  324.98   33.05
   3  -6  11  365.10   37.48
  -4   6 -11    0.15    9.60
  -4   6 -11   -2.94   11.03
  -4   6 -11   21.36    9.44
   4  -6  11   13.53   10.03
   4  -6  11    3.19   16.34
  -5   6 -11  221.49   24.02
  -5   6 -11  219.70   27.50
   5  -6  11  219.65   29.04
   5  -6  11  252.87   23.22
  -6   6 -11   -0.82   10.80
  -6   6 -11   12.64   14.38
   6  -6  11   -3.19   11.24
   6  -6  11   -1.44   10.45
  -7   6 -11  117.09   18.43
  -7   6 -11  123.02   21.40
   7  -6  11  110.02   19.12
   7  -6  11  136.56   23.71
  -8   6 -11   16.44   13.76
   8  -6  11   23.84   19.70
   8  -6  11   13.65   15.76
   5   5 -11   -0.59   10.10
   5   5 -11    0.23   16.46
   5   5 -11    1.42   11.58
  -5  -5  11    4.33   14.74
  -5  -5  11  -17.31   13.56
   4   5 -11  411.53   36.44
   4   5 -11  408.11   37.99
   4   5 -11  377.68   34.60
  -4  -5  11  311.44   36.21
  -4  -5  11  417.94   36.73
  -4  -5  11  368.54   34.57
   3   5 -11    6.02   11.82
   3   5 -11   -0.32    9.37
   3   5 -11    3.57   12.66
  -3  -5  11    6.17   10.68
  -3  -5  11   -4.69   11.72
  -3  -5  11    4.33   14.37
  -3  -5  11    6.26   11.59
  -3  -5  11    6.23   10.27
   2   5 -11  584.27   39.52
   2   5 -11  564.69   40.66
   2   5 -11  543.74   38.56
   2   5 -11  558.27   40.58
  -2  -5  11  634.02   39.36
  -2  -5  11  633.90   44.08
  -2  -5  11  625.75   40.43
  -2  -5  11  603.71   38.71
   1   5 -11    0.63   10.26
   1   5 -11  -10.44    7.70
   1   5 -11   -6.02    6.78
   1   5 -11    7.24    8.22
  -1  -5  11   -4.24   11.41
  -1  -5  11  -10.68    7.84
  -1  -5  11   -6.26    7.14
  -1  -5  11   13.65    9.57
  -1  -5  11   -3.53   10.14
   0   5 -11  588.99   42.32
   0   5 -11  682.32   41.60
   0   5 -11  618.58   41.36
   0   5 -11  739.52   45.20
   0  -5  11  714.75   39.11
   0  -5  11  649.23   40.69
   0  -5  11  668.90   44.38
   0  -5  11  630.92   42.95
  -1   5 -11   30.23   10.87
  -1   5 -11   24.15   12.88
  -1   5 -11   21.64   11.78
   1  -5  11   28.61   11.12
   1  -5  11    9.86    9.34
   1  -5  11   54.89   13.02
  -2   5 -11  539.01   36.86
  -2   5 -11  620.12   37.70
  -2   5 -11  597.10   39.25
   2  -5  11  565.74   39.43
   2  -5  11  558.32   40.24
  -3   5 -11    4.87    7.62
  -3   5 -11   -2.63    8.92
  -3   5 -11   -2.28    8.36
   3  -5  11   -7.56   12.60
   3  -5  11   -7.73   10.69
  -4   5 -11  388.74   31.07
  -4   5 -11  375.22   35.17
  -4   5 -11  464.04   30.42
   4  -5  11  378.65   26.46
   4  -5  11  368.76   37.27
   4  -5  11  377.95   34.97
  -5   5 -11   13.87    8.54
  -5   5 -11    3.45    9.07
  -5   5 -11   -0.87    9.87
   5  -5  11   -1.44   13.27
   5  -5  11  -21.17   14.53
   5  -5  11   -6.56    8.16
  -6   5 -11  161.04   22.47
  -6   5 -11  155.77   19.24
  -6   5 -11  174.93   19.78
   6  -5  11  143.78   24.60
   6  -5  11  176.14   19.20
  -7   5 -11    8.17   10.38
  -7   5 -11    5.03   10.80
  -7   5 -11    6.02   14.24
   7  -5  11    7.12   13.82
   7  -5  11   -5.25   11.30
  -8   5 -11   99.05   17.32
  -8   5 -11  146.04   24.43
   8  -5  11   93.52   19.45
   8  -5  11   78.60   19.56
   6   4 -11  -11.93   17.46
   6   4 -11    0.28   12.95
  -6  -4  11   17.10   12.83
   5   4 -11  410.65   39.32
   5   4 -11  346.68   32.70
   5   4 -11  443.99   38.70
  -5  -4  11  305.22   34.13
  -5  -4  11  345.08   35.28
   4   4 -11   -3.50    7.93
   4   4 -11   -7.75   12.56
   4   4 -11   -7.15    8.99
  -4  -4  11   -8.07   12.70
  -4  -4  11    7.06   12.65
  -4  -4  11   17.38   13.46
  -4  -4  11   -9.98   11.46
   3   4 -11  725.15   47.16
   3   4 -11  704.43   43.75
   3   4 -11  668.03   45.21
  -3  -4  11  633.77   43.77
  -3  -4  11  655.39   45.85
  -3  -4  11  646.86   43.56
  -3  -4  11  715.25   44.82
   2   4 -11   -3.29   10.25
   2   4 -11    6.44    8.02
   2   4 -11   -4.04    7.27
   2   4 -11    1.55    8.75
   2   4 -11   -3.33    8.44
   2   4 -11   -2.02    7.86
   2   4 -11   16.08   11.75
  -2  -4  11   -9.49    8.18
  -2  -4  11  -17.29    8.32
  -2  -4  11  -10.06    6.01
  -2  -4  11    3.21   10.05
  -2  -4  11   -7.67   10.69
   1   4 -11  822.71   48.98
   1   4 -11  780.98   47.14
   1   4 -11  742.38   44.66
   1   4 -11  748.08   47.64
   1   4 -11  748.77   46.55
  -1  -4  11  749.48   45.70
  -1  -4  11  703.50   47.32
  -1  -4  11  821.30   47.56
  -1  -4  11  804.92   49.40
   0   4 -11   36.40    8.50
   0   4 -11   33.98   12.76
   0   4 -11    9.30    8.43
   0   4 -11   24.15   10.79
   0  -4  11    2.54   10.60
   0  -4  11   20.78    8.14
   0  -4  11    6.31   11.58
  -1   4 -11  686.45   43.46
  -1   4 -11  746.99   42.53
  -1   4 -11  582.96   40.65
   1  -4  11  674.38   38.68
   1  -4  11  629.39   42.93
   1  -4  11  636.26   42.66
  -2   4 -11    9.65    8.13
  -2   4 -11    7.19    7.10
  -2   4 -11   22.48   10.23
   2  -4  11    4.35   11.06
   2  -4  11    0.94   10.48
  -3   4 -11  609.59   38.61
  -3   4 -11  604.70   40.85
  -3   4 -11  716.98   40.71
   3  -4  11  604.42   41.36
   3  -4  11  648.54   36.50
   3  -4  11  573.22   42.85
  -4   4 -11   -2.38    8.75
  -4   4 -11    2.66    8.09
  -4   4 -11   -0.17    6.54
   4  -4  11   -4.40   10.18
   4  -4  11    1.00    9.13
  -5   4 -11  345.59   31.79
  -5   4 -11  312.34   26.95
  -5   4 -11  306.39   25.84
   5  -4  11  310.77   31.41
   5  -4  11  262.33   30.38
   5  -4  11  302.08   25.48
  -6   4 -11   -5.10    7.15
  -6   4 -11   -4.30   10.31
  -6   4 -11   22.84   13.73
  -6   4 -11    6.81    9.18
   6  -4  11   -0.65   11.42
   6  -4  11    8.13    9.91
   6  -4  11   11.27   11.14
  -7   4 -11  189.82   23.15
  -7   4 -11  146.07   17.94
  -7   4 -11  174.55   22.83
   7  -4  11  230.49   30.29
   7  -4  11  184.84   22.55
  -8   4 -11    7.00   12.31
  -8   4 -11    6.97   11.67
   8  -4  11  -13.64   15.43
   8  -4  11  -11.67    8.72
  -9   4 -11   53.76   16.18
  -9   4 -11   70.44   18.15
   9  -4  11   29.15   17.06
   9  -4  11   28.11   16.71
   6   3 -11  389.04   40.22
   6   3 -11  403.54   38.68
  -6  -3  11  391.02   40.00
   5   3 -11   -3.59   10.76
   5   3 -11   -4.80    8.40
   5   3 -11   21.60   15.44
  -5  -3  11    3.61   11.20
   4   3 -11  575.62   46.27
   4   3 -11  632.62   40.31
   4   3 -11  640.58   41.12
  -4  -3  11  626.24   42.48
  -4  -3  11  576.64   42.14
  -4  -3  11  591.46   42.01
  -4  -3  11  524.36   40.01
   3   3 -11   -1.52   11.39
   3   3 -11   21.38   11.36
   3   3 -11    2.17    8.70
  -3  -3  11    4.04   11.99
  -3  -3  11   -2.57    8.19
  -3  -3  11  -13.46    8.50
  -3  -3  11   -4.72    9.04
   2   3 -11  929.40   56.70
   2   3 -11  955.17   58.24
   2   3 -11  854.05   54.43
   2   3 -11  900.93   57.07
   2   3 -11  982.46   54.04
  -2  -3  11  952.64   56.38
  -2  -3  11  892.07   56.22
  -2  -3  11  935.29   56.54
  -2  -3  11 1058.91   55.86
   1   3 -11   -4.13    6.30
   1   3 -11   -7.09   10.67
   1   3 -11   -4.06    6.86
   1   3 -11    2.20    8.46
   1   3 -11  -10.94    8.94
  -1  -3  11  -14.47    8.47
  -1  -3  11  -13.16    7.68
  -1  -3  11    5.84    9.44
   0   3 -11  768.15   47.42
   0   3 -11  699.19   46.96
   0   3 -11  796.09   45.01
   0   3 -11  806.04   46.56
   0  -3  11  754.28   46.75
   0  -3  11  849.66   48.37
   0  -3  11  768.45   44.47
  -1   3 -11    1.42    6.86
  -1   3 -11   -5.50    5.81
  -1   3 -11   -9.16    8.50
  -1   3 -11    1.65    7.16
   1  -3  11  -10.54    8.73
   1  -3  11    7.55    9.71
   1  -3  11    2.92    6.24
  -2   3 -11  771.10   44.79
  -2   3 -11  718.55   46.39
  -2   3 -11  730.93   41.44
  -2   3 -11  732.54   43.85
   2  -3  11  749.55   46.73
   2  -3  11  809.26   46.70
   2  -3  11  674.15   42.02
  -3   3 -11   35.61    9.72
  -3   3 -11   38.30   10.99
  -3   3 -11   37.56   10.63
   3  -3  11   47.05   13.65
   3  -3  11   35.35    8.22
   3  -3  11   31.67   11.00
  -4   3 -11  461.93   34.88
  -4   3 -11  543.05   33.89
  -4   3 -11  571.25   34.74
   4  -3  11  511.23   38.02
   4  -3  11  466.34   36.95
   4  -3  11  555.98   32.61
  -5   3 -11   -5.13    5.70
  -5   3 -11    4.92    7.92
  -5   3 -11    6.77   11.33
  -5   3 -11   -0.81   10.30
   5  -3  11   -6.33    7.69
   5  -3  11   -4.46    7.95
   5  -3  11   -4.08   12.25
  -6   3 -11  300.91   27.62
  -6   3 -11  291.73   29.93
  -6   3 -11  284.83   22.75
  -6   3 -11  333.65   25.66
   6  -3  11  309.00   32.35
   6  -3  11  244.64   30.90
   6  -3  11  330.26   26.97
  -7   3 -11   -9.05    7.88
  -7   3 -11   -3.39   10.73
  -7   3 -11   16.83   10.57
   7  -3  11   -6.55    8.90
   7  -3  11   -0.63   10.17
  -8   3 -11   96.18   18.47
  -8   3 -11   73.24   15.07
  -8   3 -11   67.69   18.52
   8  -3  11   67.84   17.81
   8  -3  11   75.05   15.10
  -9   3 -11   15.63   13.25
  -9   3 -11  -10.04   12.27
   9  -3  11   12.73   14.56
   9  -3  11  -16.29   17.80
   6   2 -11   13.69   16.98
   6   2 -11   -8.37    8.90
   6   2 -11   -4.16   10.77
  -6  -2  11   26.15   17.40
   5   2 -11  297.57   29.56
   5   2 -11  403.12   34.40
   5   2 -11  297.86   29.16
  -5  -2  11  260.53   29.35
   4   2 -11   -5.66   11.73
   4   2 -11    4.49   12.88
   4   2 -11    0.34    7.88
  -4  -2  11   -0.89   11.51
  -4  -2  11  -16.18   12.22
   3   2 -11  795.42   49.27
   3   2 -11  731.19   45.56
   3   2 -11  822.65   48.02
   3   2 -11  787.85   48.60
  -3  -2  11  760.77   47.29
  -3  -2  11  717.29   49.22
  -3  -2  11  816.13   49.55
  -3  -2  11  735.27   45.37
   2   2 -11   -8.88    7.40
   2   2 -11   -1.06    6.76
   2   2 -11    3.89    7.91
   2   2 -11  -10.16    9.91
   2   2 -11   -1.98    7.38
  -2  -2  11   -6.96   10.37
  -2  -2  11    7.18    9.51
  -2  -2  11    9.93    8.27
  -2  -2  11   -2.33    6.96
   1   2 -11  942.83   52.37
   1   2 -11  771.18   46.91
   1   2 -11  773.65   49.93
   1   2 -11  820.90   48.35
  -1  -2  11  759.91   50.35
  -1  -2  11  908.04   49.27
  -1  -2  11  826.36   48.46
   0   2 -11   13.37    9.40
   0   2 -11   -4.01    6.13
   0   2 -11    3.26    7.75
   0   2 -11    1.12    9.61
   0  -2  11   -5.00    7.77
   0  -2  11    5.75    6.44
  -1   2 -11  819.02   45.79
  -1   2 -11  682.49   41.97
  -1   2 -11  697.42   43.59
  -1   2 -11  788.16   46.62
   1  -2  11  786.20   45.35
   1  -2  11  683.35   44.23
   1  -2  11  772.77   40.86
  -2   2 -11    8.73    7.64
  -2   2 -11   -5.26    5.55
  -2   2 -11    7.40    9.53
  -2   2 -11    4.20    6.46
   2  -2  11    6.30    6.05
   2  -2  11   -6.76    8.53
   2  -2  11    3.33    6.59
  -3   2 -11  640.03   41.11
  -3   2 -11  672.24   44.45
  -3   2 -11  764.12   44.77
  -3   2 -11  672.32   39.15
   3  -2  11  739.93   40.16
   3  -2  11  789.21   46.23
   3  -2  11  737.25   45.36
  -4   2 -11   -1.80    9.93
  -4   2 -11    4.20    5.13
  -4   2 -11   13.47    8.48
  -4   2 -11   -4.72    9.21
  -4   2 -11    1.46    4.41
   4  -2  11    6.05   11.03
   4  -2  11    6.54    8.34
   4  -2  11   11.87    8.06
  -5   2 -11  461.77   26.93
  -5   2 -11  404.88   35.18
  -5   2 -11  476.11   33.08
  -5   2 -11  416.28   28.91
   5  -2  11  446.66   38.32
   5  -2  11  465.77   29.72
   5  -2  11  393.53   36.52
  -6   2 -11    4.95   11.03
  -6   2 -11   20.71   12.98
  -6   2 -11   11.64    8.91
  -6   2 -11    9.14    7.58
   6  -2  11    9.16   12.60
   6  -2  11   -2.02   13.67
   6  -2  11   -6.65    9.42
  -7   2 -11  187.39   18.63
  -7   2 -11  188.62   22.85
  -7   2 -11  163.20   21.28
   7  -2  11  168.21   20.63
   7  -2  11  210.78   26.32
   7  -2  11  138.15   24.53
  -8   2 -11   -7.38   10.53
  -8   2 -11   -8.72   12.50
   8  -2  11  -13.39   12.08
   8  -2  11  -13.70   15.33
  -9   2 -11   83.68   16.58
   9  -2  11   96.48   19.01
   9  -2  11   47.39   18.28
   7   1 -11    5.09   15.60
   6   1 -11  472.38   39.77
   6   1 -11  368.51   33.59
   6   1 -11  328.83   34.13
  -6  -1  11  367.48   37.53
   5   1 -11    2.17    9.07
   5   1 -11    3.17   13.44
   5   1 -11    1.05   10.11
  -5  -1  11   14.34   14.19
   4   1 -11  609.49   40.96
   4   1 -11  548.32   40.20
   4   1 -11  592.33   39.16
  -4  -1  11  638.83   42.84
  -4  -1  11  522.30   45.33
   3   1 -11   11.68    7.58
   3   1 -11   -4.31   10.73
   3   1 -11    4.88   10.47
   3   1 -11   -0.03    8.00
  -3  -1  11   11.52    9.98
  -3  -1  11  -19.72    9.75
   2   1 -11  878.23   51.40
   2   1 -11  896.26   51.87
   2   1 -11  857.93   53.68
  -2  -1  11  824.39   50.06
  -2  -1  11  953.93   55.23
  -2  -1  11  937.96   50.32
  -2  -1  11  874.58   54.05
   1   1 -11    0.39   10.25
   1   1 -11    4.62    8.72
   1   1 -11   -4.92    5.85
   1   1 -11    2.90    6.97
  -1  -1  11    4.60    7.58
  -1  -1  11  -16.15    6.02
   0   1 -11  821.56   51.28
   0   1 -11  867.92   51.72
   0   1 -11  925.99   49.71
   0   1 -11  865.59   48.21
   0  -1  11  810.58   48.63
   0  -1  11  868.33   49.67
  -1   1 -11    8.89    7.94
  -1   1 -11    5.73    7.22
  -1   1 -11   12.91    9.91
   1  -1  11   10.08    8.65
   1  -1  11    1.23    4.76
   1  -1  11    5.98    5.18
   1  -1  11    9.92    7.60
  -2   1 -11  873.80   49.04
  -2   1 -11  876.04   51.47
  -2   1 -11  866.26   47.07
  -2   1 -11  859.84   51.52
   2  -1  11  839.87   50.48
   2  -1  11  855.52   50.18
  -3   1 -11   -0.77    7.29
  -3   1 -11   -0.34    6.60
  -3   1 -11   25.42    7.33
  -3   1 -11   17.92    8.48
   3  -1  11    6.85    6.49
   3  -1  11    6.09    7.31
   3  -1  11   21.78   10.45
  -4   1 -11  531.98   29.06
  -4   1 -11  500.41   35.44
  -4   1 -11  517.05   32.04
  -4   1 -11  480.43   29.01
  -4   1 -11  508.26   34.18
   4  -1  11  534.04   31.72
   4  -1  11  501.90   35.68
   4  -1  11  538.39   36.88
  -5   1 -11    3.88    8.43
  -5   1 -11   28.76   10.14
  -5   1 -11   22.75    7.76
  -5   1 -11   14.43    8.01
   5  -1  11   19.00   12.14
   5  -1  11   15.16    7.16
   5  -1  11   28.75   13.50
  -6   1 -11  340.12   29.00
  -6   1 -11  309.70   24.15
  -6   1 -11  320.40   28.70
   6  -1  11  255.22   28.62
   6  -1  11  293.99   29.96
   6  -1  11  312.17   26.51
  -7   1 -11    5.64    8.94
  -7   1 -11    0.18   10.85
   7  -1  11  -18.68    8.47
   7  -1  11   21.85   16.02
   7  -1  11   -3.51    7.29
  -8   1 -11  151.80   20.75
  -8   1 -11  155.98   20.25
   8  -1  11  174.13   21.97
   8  -1  11  170.15   26.80
  -9   1 -11   -3.90   12.32
  -9   1 -11   -7.64   10.94
   9  -1  11   -1.90   17.06
   7   0 -11  286.45   33.70
   7   0 -11  306.13   31.30
   6   0 -11    8.44   14.45
   6   0 -11    1.66   16.08
   6   0 -11    1.93   13.54
  -6   0  11    4.56   15.70
   5   0 -11  443.47   35.62
   5   0 -11  457.40   37.51
   5   0 -11  370.08   35.16
  -5   0  11  491.62   40.96
   4   0 -11    3.89   12.43
   4   0 -11    1.27   10.45
   4   0 -11   -1.33   11.29
  -4   0  11    2.26   10.20
  -4   0  11   -5.64   12.30
   3   0 -11 1039.17   59.06
   3   0 -11 1033.26   58.20
   3   0 -11 1009.85   57.52
   3   0 -11  879.96   55.30
  -3   0  11  882.53   58.17
  -3   0  11 1076.53   61.90
   2   0 -11   -0.97    6.53
   2   0 -11   -0.51    6.54
   2   0 -11    3.67    7.53
  -2   0  11    1.76   10.21
  -2   0  11    0.08    5.56
  -2   0  11    3.60   11.84
   1   0 -11 1247.82   68.86
   1   0 -11 1185.98   68.53
   1   0 -11 1097.40   65.22
   1   0 -11 1191.89   65.91
  -1   0  11 1204.64   63.89
  -1   0  11 1273.52   70.01
  -1   0  11 1237.56   65.02
   0   0 -11    5.44    7.55
   0   0 -11  -12.12    8.62
   0   0 -11    5.75    8.10
   0   0 -11   -3.36    8.96
   0   0  11   -3.17    4.65
   0   0  11    3.70    6.89
   0   0  11  -15.75    5.48
  -1   0 -11  702.06   46.33
  -1   0 -11  813.16   46.83
  -1   0 -11  771.55   43.81
   1   0  11  791.04   42.25
   1   0  11  772.21   45.97
   1   0  11  822.45   44.90
  -2   0 -11   -9.44    5.80
  -2   0 -11    6.35    6.69
  -2   0 -11   -4.10    9.15
   2   0  11   -8.95    7.35
   2   0  11   -0.94    8.44
   2   0  11   10.98    6.63
  -3   0 -11  626.62   39.71
  -3   0 -11  637.20   36.43
  -3   0 -11  589.42   34.12
  -3   0 -11  684.39   42.01
   3   0  11  702.48   40.37
   3   0  11  751.14   42.84
   3   0  11  625.70   36.98
  -4   0 -11  -11.83    5.24
  -4   0 -11   -8.03    5.10
  -4   0 -11    1.08    9.71
  -4   0 -11    8.45    5.60
   4   0  11  -12.31    8.25
   4   0  11   -0.86    7.65
  -5   0 -11  590.33   37.68
  -5   0 -11  493.59   31.01
  -5   0 -11  501.08   33.80
   5   0  11  453.41   34.88
   5   0  11  521.37   36.34
  -6   0 -11    8.34   10.96
  -6   0 -11   -1.71    8.97
   6   0  11   -6.22   12.08
   6   0  11   10.43    9.75
  -7   0 -11  335.45   26.92
  -7   0 -11  316.26   29.41
   7   0  11  308.24   33.78
   7   0  11  232.34   30.10
  -8   0 -11   23.25   11.57
  -8   0 -11  -18.15   11.54
   8   0  11  -19.33   14.76
  -9   0 -11   75.93   17.23
  -9   0 -11   32.44   16.06
   9   0  11   47.74   14.66
   9   0  11   70.98   22.59
   6  -1 -11  375.26   35.50
   6  -1 -11  402.50   35.17
   6  -1 -11  416.10   37.12
  -6   1  11  405.96   39.41
   5  -1 -11    7.06    9.44
   5  -1 -11    8.55   12.45
   5  -1 -11    9.22   10.91
  -5   1  11    6.01   14.70
   4  -1 -11  540.67   39.65
   4  -1 -11  544.72   38.47
   4  -1 -11  533.69   37.27
   4  -1 -11  577.88   36.18
  -4   1  11  547.35   46.38
  -4   1  11  537.69   39.33
   3  -1 -11   11.10    9.61
   3  -1 -11    3.70   10.09
   3  -1 -11  -10.74    7.42
   3  -1 -11   12.38    8.46
  -3   1  11   -1.07    8.92
  -3   1  11   -6.13   12.13
   2  -1 -11  838.12   51.18
   2  -1 -11  911.52   53.84
   2  -1 -11  997.16   53.12
  -2   1  11  851.54   55.08
  -2   1  11  899.29   54.99
   1  -1 -11   -1.89    8.15
   1  -1 -11   -0.94    9.05
   1  -1 -11  -13.35    5.61
  -1   1  11   12.15    7.17
  -1   1  11   19.45   11.59
   0  -1 -11  782.64   50.04
   0  -1 -11  889.81   48.88
   0  -1 -11  804.45   49.97
   0  -1 -11  900.90   48.21
   0   1  11  884.24   48.25
   0   1  11  790.31   51.73
   0   1  11  835.18   45.73
   0   1  11  886.31   46.07
  -1  -1 -11   11.32    8.19
  -1  -1 -11    6.95    9.04
  -1  -1 -11    2.63   10.27
  -1  -1 -11   13.86    7.08
   1   1  11    8.61    5.89
   1   1  11    6.09    6.65
   1   1  11   15.06    7.88
  -2  -1 -11  704.27   46.28
  -2  -1 -11  791.29   40.97
  -2  -1 -11  843.96   45.54
  -2  -1 -11  766.88   47.47
  -2  -1 -11  793.17   48.40
   2   1  11  881.47   46.49
   2   1  11  826.63   44.79
   2   1  11  887.21   48.64
  -3  -1 -11   19.42    7.14
  -3  -1 -11   17.23    6.04
  -3  -1 -11    2.58    8.48
  -3  -1 -11   16.36    9.09
   3   1  11   11.11    7.90
   3   1  11    9.61    9.74
   3   1  11    9.71    8.24
  -4  -1 -11  465.12   34.42
  -4  -1 -11  538.98   30.00
  -4  -1 -11  492.97   30.18
  -4  -1 -11  550.08   34.50
   4   1  11  481.80   33.95
   4   1  11  515.19   36.25
   4   1  11  519.95   32.13
  -5  -1 -11   30.30    6.62
  -5  -1 -11   25.25   10.71
  -5  -1 -11   12.76    8.12
   5   1  11    7.86    9.47
   5   1  11   -7.72    7.87
   5   1  11   25.33   12.19
  -6  -1 -11  289.22   24.61
  -6  -1 -11  318.51   27.97
  -6  -1 -11  325.18   27.61
   6   1  11  283.79   29.55
   6   1  11  321.73   27.06
   6   1  11  259.22   28.79
  -7  -1 -11   -7.66    9.83
  -7  -1 -11    3.65   10.88
  -7  -1 -11   -7.97    9.46
   7   1  11   -2.11   14.41
   7   1  11   -3.88   13.63
   7   1  11   21.51   11.60
  -8  -1 -11  165.65   22.69
  -8  -1 -11  194.73   22.19
   8   1  11  170.31   22.90
   8   1  11  175.02   27.04
  -9  -1 -11   36.74   16.13
  -9  -1 -11    3.01   13.85
   9   1  11   -2.36   14.17
   9   1  11   -0.70   18.22
   6  -2 -11    0.34   15.32
   6  -2 -11  -21.40   12.51
  -6   2  11  -28.92    9.71
   5  -2 -11  296.91   28.26
   5  -2 -11  339.00   31.02
   5  -2 -11  354.14   29.88
  -5   2  11  305.70   34.46
   4  -2 -11   -3.03    8.52
   4  -2 -11   -6.22    7.18
   4  -2 -11  -14.33   11.43
   4  -2 -11   -1.54    8.08
  -4   2  11   -4.53   13.04
  -4   2  11    3.49   14.06
   3  -2 -11  821.90   47.98
   3  -2 -11  784.17   45.92
   3  -2 -11  712.75   45.08
  -3   2  11  688.06   48.77
  -3   2  11  745.76   48.86
   2  -2 -11   -8.04    8.11
   2  -2 -11    5.05    8.04
   2  -2 -11   -7.43    9.07
  -2   2  11    3.70    8.78
  -2   2  11    2.14    8.81
   1  -2 -11  905.40   49.41
   1  -2 -11  796.52   50.04
   1  -2 -11  850.22   48.17
  -1   2  11  831.35   45.95
  -1   2  11  817.66   51.55
  -1   2  11  827.90   46.54
   0  -2 -11   -6.47    6.70
   0  -2 -11    0.35    7.16
   0  -2 -11   21.00    9.39
   0  -2 -11    6.46    9.04
   0   2  11    1.35    6.38
   0   2  11   -0.56    7.28
   0   2  11   -6.25    5.85
  -1  -2 -11  752.05   44.17
  -1  -2 -11  877.05   46.97
  -1  -2 -11  798.82   47.46
  -1  -2 -11  780.80   42.97
   1   2  11  759.24   45.13
   1   2  11  732.86   47.55
   1   2  11  764.91   43.62
  -2  -2 -11   -4.76    6.43
  -2  -2 -11   -5.95    7.71
  -2  -2 -11   -2.33    4.81
  -2  -2 -11    4.49    7.21
   2   2  11    3.68    6.44
   2   2  11   -2.59    8.58
   2   2  11    0.51    6.97
  -3  -2 -11  695.87   44.30
  -3  -2 -11  673.54   41.25
  -3  -2 -11  653.96   39.11
  -3  -2 -11  715.40   38.63
   3   2  11  701.96   40.64
   3   2  11  723.69   43.64
   3   2  11  634.09   39.73
  -4  -2 -11   -0.42    6.29
  -4  -2 -11    8.94    8.25
  -4  -2 -11    2.37    5.32
  -4  -2 -11    5.90    7.60
   4   2  11   -0.90    8.21
   4   2  11    5.90    8.88
   4   2  11   21.19   12.13
  -5  -2 -11  424.16   28.09
  -5  -2 -11  382.21   28.70
  -5  -2 -11  429.59   25.06
   5   2  11  402.59   27.83
   5   2  11  420.55   31.19
   5   2  11  384.52   34.51
  -6  -2 -11    6.26   11.08
  -6  -2 -11   -7.14    9.09
  -6  -2 -11   10.72    9.88
   6   2  11    1.09   11.96
   6   2  11    1.19   12.46
   6   2  11    4.76   10.99
  -7  -2 -11  234.66   23.52
  -7  -2 -11  147.42   19.50
  -7  -2 -11  175.63   22.42
   7   2  11  179.95   25.97
   7   2  11  179.60   22.17
   7   2  11  176.94   24.22
  -8  -2 -11    4.44   12.79
  -8  -2 -11   -3.63   12.60
  -8  -2 -11   13.51   12.00
   8   2  11   -9.58   13.16
   8   2  11   -7.36   11.37
  -9  -2 -11   81.47   19.19
  -9  -2 -11   92.84   17.38
   9   2  11  113.35   25.42
   9   2  11   95.48   18.37
   6  -3 -11  407.00   38.02
   6  -3 -11  331.35   32.92
  -6   3  11  348.13   37.29
   5  -3 -11   -1.17   13.43
   5  -3 -11    2.23    9.18
  -5   3  11   -5.84   10.90
   4  -3 -11  564.80   40.07
   4  -3 -11  512.77   36.54
   4  -3 -11  561.81   39.26
  -4   3  11  589.65   41.50
   3  -3 -11    0.38    7.52
   3  -3 -11   10.56   12.30
   3  -3 -11    6.08    9.72
  -3   3  11   -0.81    9.13
  -3   3  11  -12.59    7.87
   2  -3 -11 1008.12   60.05
   2  -3 -11 1103.19   58.40
   2  -3 -11  989.95   57.38
  -2   3  11 1019.79   56.11
  -2   3  11  995.34   61.22
  -2   3  11  943.83   61.80
   1  -3 -11  -12.78    7.03
   1  -3 -11    3.25    7.32
   1  -3 -11    4.43    6.66
  -1   3  11   -4.23    7.55
  -1   3  11    0.00    7.17
   0  -3 -11  795.20   44.41
   0  -3 -11  805.79   46.86
   0  -3 -11  796.13   48.35
   0   3  11  804.62   45.32
   0   3  11  762.53   44.43
   0   3  11  818.10   50.66
  -1  -3 -11   -8.27    7.55
  -1  -3 -11   -9.40    7.15
  -1  -3 -11    2.13    5.45
  -1  -3 -11   -3.71    9.88
  -1  -3 -11   -7.99    4.24
   1   3  11   -9.80    6.76
   1   3  11    0.00    7.08
   1   3  11   -1.49   10.22
  -2  -3 -11  702.67   45.41
  -2  -3 -11  652.64   42.86
  -2  -3 -11  753.58   40.93
  -2  -3 -11  730.37   43.16
   2   3  11  823.52   45.60
   2   3  11  791.91   43.59
   2   3  11  736.65   47.06
  -3  -3 -11   46.49   10.27
  -3  -3 -11   37.72   10.04
  -3  -3 -11   17.52   11.87
  -3  -3 -11   24.92    9.44
   3   3  11   24.29    9.75
   3   3  11   35.70    9.78
   3   3  11   35.81   12.52
  -4  -3 -11  525.20   34.02
  -4  -3 -11  558.64   34.27
  -4  -3 -11  523.18   32.15
   4   3  11  540.47   36.49
   4   3  11  541.84   34.50
   4   3  11  512.88   34.46
  -5  -3 -11   10.00    8.73
  -5  -3 -11    3.20    8.02
  -5  -3 -11   -9.46    8.78
  -5  -3 -11    8.33    6.35
   5   3  11    6.02   10.02
   5   3  11    6.29    9.11
  -6  -3 -11  315.48   27.29
  -6  -3 -11  277.66   29.02
  -6  -3 -11  311.70   26.91
   6   3  11  288.54   27.49
   6   3  11  334.66   33.38
  -7  -3 -11  -11.78    9.82
  -7  -3 -11    5.78   10.80
  -7  -3 -11    5.29   12.43
   7   3  11   17.01   10.36
   7   3  11    0.61   15.59
  -8  -3 -11  111.76   19.11
  -8  -3 -11   79.03   19.34
   8   3  11   75.16   19.24
   8   3  11   98.84   17.25
  -9  -3 -11   16.20   15.22
   9   3  11    0.55   20.55
   9   3  11   -1.83   14.95
   6  -4 -11    9.78   16.07
   6  -4 -11  -13.48   15.17
  -6   4  11    3.24   13.94
   5  -4 -11  374.33   32.57
   5  -4 -11  315.65   30.35
  -5   4  11  273.21   34.63
   4  -4 -11   10.12    9.67
   4  -4 -11   -1.96    9.35
   4  -4 -11   -0.74   11.70
  -4   4  11   -1.99   15.19
   3  -4 -11  655.35   41.78
   3  -4 -11  723.71   44.43
   3  -4 -11  657.93   42.15
  -3   4  11  671.79   47.49
  -3   4  11  593.04   40.25
  -3   4  11  671.70   47.34
   2  -4 -11   -7.55    7.07
   2  -4 -11   -7.86    6.95
   2  -4 -11   11.30    9.69
  -2   4  11    1.64    9.75
  -2   4  11    4.97    9.37
  -2   4  11   -0.86    8.49
   1  -4 -11  845.57   47.27
   1  -4 -11  819.07   48.71
   1  -4 -11  881.14   51.50
  -1   4  11  813.46   53.03
  -1   4  11  816.53   53.11
  -1   4  11  786.66   47.71
   0  -4 -11   13.17   11.38
   0  -4 -11  -15.62    8.34
   0  -4 -11   21.10    7.86
   0  -4 -11   13.77    5.97
   0   4  11   22.51   10.29
   0   4  11    7.81    8.16
   0   4  11    8.40    8.92
  -1  -4 -11  725.11   43.61
  -1  -4 -11  660.57   37.05
  -1  -4 -11  669.66   40.01
  -1  -4 -11  619.90   36.45
   1   4  11  613.05   39.63
   1   4  11  663.19   44.06
   1   4  11  700.92   40.69
  -2  -4 -11   27.84   10.43
  -2  -4 -11   12.88    7.51
  -2  -4 -11   -1.74    7.41
  -2  -4 -11    0.11    7.65
   2   4  11    3.03    8.88
   2   4  11   13.21   10.08
   2   4  11   10.29   10.49
  -3  -4 -11  623.34   37.89
  -3  -4 -11  586.97   37.20
  -3  -4 -11  581.75   40.26
  -3  -4 -11  633.71   37.24
   3   4  11  646.26   41.68
   3   4  11  614.11   38.01
   3   4  11  643.26   40.95
  -4  -4 -11   -2.47    8.65
  -4  -4 -11   11.32    8.63
  -4  -4 -11   -8.54    6.75
   4   4  11   -1.29   11.70
   4   4  11    5.99    7.57
  -5  -4 -11  335.11   27.55
  -5  -4 -11  233.61   23.39
  -5  -4 -11  331.95   31.51
   5   4  11  315.80   30.80
   5   4  11  321.72   28.13
  -6  -4 -11  -20.55   11.90
  -6  -4 -11   13.19    9.33
  -6  -4 -11   -3.47    8.42
   6   4  11    0.20   11.52
   6   4  11    2.24   10.89
  -7  -4 -11  169.93   24.99
  -7  -4 -11  169.06   20.11
   7   4  11  151.33   23.78
   7   4  11  155.38   20.63
  -8  -4 -11    7.62   13.86
  -8  -4 -11   -8.76   15.63
   8   4  11  -14.38   17.41
   8   4  11    2.37   13.66
  -9  -4 -11   62.31   18.97
  -9  -4 -11   10.25   20.19
   9   4  11   98.22   23.28
   9   4  11   46.84   15.22
   5  -5 -11    3.99   15.31
   5  -5 -11  -19.02   14.23
  -5   5  11   -6.28   17.22
   4  -5 -11  367.03   32.78
   4  -5 -11  372.48   33.60
   4  -5 -11  363.98   33.64
  -4   5  11  390.86   37.85
   3  -5 -11    3.35   11.14
   3  -5 -11   -8.06   10.15
   3  -5 -11   -1.31    9.20
  -3   5  11   -0.11   15.68
  -3   5  11    3.27   15.04
  -3   5  11   -4.13    9.64
   2  -5 -11  657.46   40.94
   2  -5 -11  594.48   38.84
   2  -5 -11  591.94   37.57
  -2   5  11  572.80   41.64
  -2   5  11  516.47   40.60
  -2   5  11  624.66   38.60
   1  -5 -11   -4.50    9.87
   1  -5 -11   -0.64    7.28
   1  -5 -11    4.71    8.66
   1  -5 -11    4.75    6.57
  -1   5  11   -1.64    8.03
  -1   5  11   -0.96    9.01
  -1   5  11   -3.18   12.21
   0  -5 -11  719.87   39.81
   0  -5 -11  716.55   39.24
   0  -5 -11  698.00   43.89
   0  -5 -11  725.99   43.92
   0   5  11  656.73   42.26
   0   5  11  610.87   45.57
  -1  -5 -11   21.42   10.13
  -1  -5 -11   18.41    9.03
  -1  -5 -11   22.40    8.82
   1   5  11    8.28    9.16
   1   5  11   32.54    9.31
   1   5  11   16.14   10.67
  -2  -5 -11  526.36   35.29
  -2  -5 -11  622.66   40.44
   2   5  11  576.13   40.29
   2   5  11  583.63   38.40
   2   5  11  633.89   38.37
  -3  -5 -11    2.21    6.61
  -3  -5 -11   -7.45    8.11
  -3  -5 -11  -11.73   11.46
   3   5  11   16.96   12.03
   3   5  11   -8.30    7.29
   3   5  11   -4.61    7.51
  -4  -5 -11  384.93   31.58
   4   5  11  403.63   29.35
   4   5  11  372.63   31.56
   4   5  11  381.65   34.22
  -5  -5 -11   10.09   10.83
  -5  -5 -11    1.48    9.80
   5   5  11   14.50   10.42
   5   5  11   -6.02   13.46
   5   5  11   -0.16   11.80
  -6  -5 -11  207.52   23.96
  -6  -5 -11  220.28   27.36
   6   5  11  173.88   22.25
   6   5  11  157.93   22.69
   6   5  11  187.32   25.66
  -7  -5 -11   -7.73   14.87
  -7  -5 -11   -3.26   11.81
   7   5  11  -20.59   12.67
   7   5  11    2.04   13.23
  -8  -5 -11  103.90   20.35
  -8  -5 -11   78.16   22.08
   8   5  11   91.07   22.18
   8   5  11   78.68   20.44
   5  -6 -11  275.34   29.68
   5  -6 -11  212.81   28.39
  -5   6  11  284.04   33.62
   4  -6 -11   14.77   14.55
   4  -6 -11   23.33   11.84
  -4   6  11    3.27   17.13
  -4   6  11   -3.37   13.18
   3  -6 -11  572.14   44.42
   3  -6 -11  675.09   41.19
   3  -6 -11  564.88   40.39
  -3   6  11  590.62   40.92
  -3   6  11  591.38   50.16
   2  -6 -11   13.74    9.76
   2  -6 -11   15.45   13.01
   2  -6 -11    4.14   11.22
  -2   6  11    9.27   11.60
  -2   6  11   10.36   11.36
  -2   6  11   -2.35   14.04
   1  -6 -11  658.74   38.81
   1  -6 -11  570.15   41.53
   1  -6 -11  785.65   44.75
   1  -6 -11  663.40   38.00
  -1   6  11  634.94   44.31
  -1   6  11  595.19   41.23
  -1   6  11  664.26   45.75
   0  -6 -11    1.21    7.69
   0  -6 -11   -1.40    8.38
   0  -6 -11   -3.28    8.35
   0   6  11   -5.89    9.64
   0   6  11   -2.30    8.62
  -1  -6 -11  651.35   38.73
  -1  -6 -11  607.24   40.17
   1   6  11  554.35   38.61
   1   6  11  667.35   41.14
   1   6  11  678.72   43.03
  -2  -6 -11    0.15   11.88
  -2  -6 -11    5.43   10.12
   2   6  11   14.05   11.54
   2   6  11   10.93   11.08
   2   6  11   -9.07   13.53
  -3  -6 -11  385.96   34.91
  -3  -6 -11  433.91   33.17
   3   6  11  402.46   34.54
   3   6  11  366.63   32.95
   3   6  11  419.55   35.35
  -4  -6 -11    5.39   10.41
  -4  -6 -11   22.84   11.96
   4   6  11    3.38   13.30
   4   6  11    5.43   11.44
   4   6  11    9.38   12.02
  -5  -6 -11  248.14   26.93
  -5  -6 -11  243.35   29.69
   5   6  11  290.86   29.15
   5   6  11  309.43   28.42
   5   6  11  215.64   29.08
  -6  -6 -11    2.27   15.85
  -6  -6 -11   -2.35   13.41
   6   6  11   -1.86   11.91
   6   6  11    2.94   10.05
  -7  -6 -11  134.91   21.38
  -7  -6 -11  135.80   23.15
   7   6  11  100.70   25.35
   7   6  11  113.94   22.43
  -8  -6 -11   -9.37   18.18
  -8  -6 -11  -12.76   14.46
   8   6  11  -13.39   18.21
   8   6  11   -2.30   11.57
   4  -7 -11  314.48   33.68
   4  -7 -11  380.64   34.20
  -4   7  11  326.60   33.39
  -4   7  11  336.75   38.30
   3  -7 -11   18.88   15.06
   3  -7 -11    1.96   12.72
  -3   7  11   13.18   14.22
  -3   7  11    9.93   17.21
   2  -7 -11  517.99   42.25
   2  -7 -11  579.18   34.32
   2  -7 -11  475.05   39.18
   2  -7 -11  493.34   35.95
  -2   7  11  565.63   46.91
  -2   7  11  551.85   42.66
   1  -7 -11   17.54   11.56
   1  -7 -11   -0.30   12.57
   1  -7 -11   15.63   10.78
  -1   7  11   14.65   10.45
  -1   7  11   17.68   15.46
  -1   7  11    9.87   14.38
   0  -7 -11  543.91   34.13
   0  -7 -11  496.03   35.77
   0   7  11  560.66   36.93
   0   7  11  460.58   41.01
   0   7  11  437.27   40.27
  -1  -7 -11    9.39   11.32
  -1  -7 -11   -5.90   10.37
   1   7  11   -5.07    8.88
   1   7  11   19.99   12.71
  -2  -7 -11  453.30   31.70
  -2  -7 -11  492.85   38.01
   2   7  11  395.58   34.49
   2   7  11  358.25   34.30
   2   7  11  502.77   36.10
  -3  -7 -11   -5.42   12.71
  -3  -7 -11  -18.49    9.70
   3   7  11   -3.92   12.01
   3   7  11  -12.05   11.35
   3   7  11    7.11   11.91
  -4  -7 -11  244.67   26.25
   4   7  11  273.81   28.85
   4   7  11  235.82   28.18
   4   7  11  240.04   25.73
  -5  -7 -11   17.89   16.96
  -5  -7 -11   -4.55   12.67
   5   7  11   12.12   16.31
   5   7  11  -12.58    8.71
  -6  -7 -11  133.10   25.55
  -6  -7 -11  160.84   23.71
   6   7  11  169.13   22.35
   6   7  11  131.24   26.06
  -7  -7 -11   -1.14   18.37
  -7  -7 -11   34.29   17.67
   7   7  11    8.52   14.37
   7   7  11   -9.25   11.06
   3  -8 -11  310.85   30.55
   3  -8 -11  286.09   31.74
  -3   8  11  308.74   36.94
  -3   8  11  262.33   30.72
   2  -8 -11   -7.75   14.81
   2  -8 -11    2.12   12.11
  -2   8  11  -10.45   16.52
  -2   8  11    8.15   13.30
   1  -8 -11  505.98   41.30
   1  -8 -11  486.24   33.07
  -1   8  11  450.35   38.97
  -1   8  11  464.90   42.91
   0  -8 -11   16.58   13.03
   0  -8 -11    3.16   11.47
   0   8  11   18.27   12.32
   0   8  11    8.99   14.37
   0   8  11   20.47   14.63
  -1  -8 -11  263.60   27.34
  -1  -8 -11  259.74   26.87
  -1  -8 -11  281.23   26.59
   1   8  11  319.09   32.04
   1   8  11  305.83   29.96
  -2  -8 -11    4.17   11.80
  -2  -8 -11   22.70   10.96
   2   8  11    7.33   13.90
   2   8  11   11.53   10.17
  -3  -8 -11  255.81   27.07
  -3  -8 -11  311.21   29.13
   3   8  11  283.03   29.62
   3   8  11  240.31   27.08
  -4  -8 -11   -7.45   11.14
   4   8  11   14.61   13.67
   4   8  11   -7.29   12.23
   4   8  11    3.76   10.41
  -5  -8 -11  175.84   25.16
  -5  -8 -11  227.53   32.50
   5   8  11  201.21   28.88
   5   8  11  183.86   27.08
  -6  -8 -11  -13.58   12.00
  -6  -8 -11   20.38   14.95
   6   8  11   22.90   17.26
   6   8  11   18.97   18.61
   2  -9 -11  307.11   27.88
   2  -9 -11  336.60   34.12
  -2   9  11  285.80   34.91
  -2   9  11  290.60   31.89
   1  -9 -11   11.38   13.55
  -1   9  11  -17.30   10.49
  -1   9  11   -1.85   10.00
   0  -9 -11  392.16   33.72
   0   9  11  383.08   36.20
   0   9  11  361.13   36.99
  -1  -9 -11    1.69   12.30
  -1  -9 -11   15.86   13.08
   1   9  11  -14.98   14.04
   1   9  11   -0.62   13.95
  -2  -9 -11  243.39   26.73
  -2  -9 -11  220.28   26.01
   2   9  11  230.95   27.78
   2   9  11  236.03   28.18
  -3  -9 -11   10.58   14.40
  -3  -9 -11   -7.90   13.83
   3   9  11   -5.55   16.60
   3   9  11    2.01   14.89
  -4  -9 -11  141.02   23.77
   4   9  11  241.98   29.39
  -5  -9 -11    6.18   14.63
  -5  -9 -11   40.35   21.52
   5   9  11   17.69   13.47
   0 -10 -11    9.41   14.15
   0 -10 -11   -9.81   15.77
   0  10  11   18.62   12.44
   0  10  11  -24.16   16.13
  -1 -10 -11  229.96   27.26
   1  10  11  141.08   25.84
   1  10  11  203.30   27.15
  -2 -10 -11    0.48   14.72
   2  10  11   -3.85   15.92
   2  10  11   -9.97   15.88
  -3 -10 -11  271.34   30.83
  -3 -10 -11  220.26   28.91
   3  10  11  241.67   30.39
   1   9 -12  216.32   28.66
   1   9 -12  240.31   31.11
   1   9 -12  198.17   26.52
  -1  -9  12  246.09   31.54
   0   9 -12  -22.73   13.56
   0   9 -12  -11.89   15.77
   0   9 -12    6.77   15.71
   0  -9  12   16.26   13.80
  -1   9 -12  239.60   29.84
  -1   9 -12  270.21   30.97
  -1   9 -12  191.67   27.89
   1  -9  12  317.13   36.48
  -2   9 -12   12.12   15.06
  -2   9 -12    2.38   11.06
   2  -9  12   29.33   19.50
  -3   9 -12  226.18   27.35
  -3   9 -12  220.89   29.53
   3  -9  12  243.18   33.36
  -4   9 -12    8.00   16.58
  -4   9 -12    5.56   12.17
   4  -9  12  -24.14   16.71
   2   8 -12  278.42   30.07
   2   8 -12  290.87   31.47
  -2  -8  12  280.89   32.89
   1   8 -12   14.98   11.51
   1   8 -12   -1.99   14.27
   1   8 -12   33.85   14.57
  -1  -8  12   10.03   15.08
   0   8 -12  300.38   32.82
   0   8 -12  376.69   35.62
   0   8 -12  314.56   31.95
   0  -8  12  356.03   36.19
  -1   8 -12   -7.31   13.39
  -1   8 -12   -3.27   13.85
  -1   8 -12   -4.00    9.26
   1  -8  12   -0.71   10.67
  -2   8 -12  294.28   31.99
  -2   8 -12  226.81   27.80
   2  -8  12  256.28   33.37
  -3   8 -12  -16.54   14.51
  -3   8 -12   -3.80   13.27
   3  -8  12    4.05   11.93
  -4   8 -12  145.15   21.57
  -4   8 -12  191.80   26.03
   4  -8  12  198.91   27.68
  -5   8 -12    0.73   14.70
  -5   8 -12   16.72   15.91
   5  -8  12   -4.48   17.45
   3   7 -12  301.23   34.00
   3   7 -12  339.46   35.11
  -3  -7  12  364.50   37.06
   2   7 -12   10.37   16.63
   2   7 -12   20.81   11.79
   2   7 -12   21.70   15.27
  -2  -7  12   31.74   15.89
   1   7 -12  536.29   44.37
   1   7 -12  441.82   38.63
   1   7 -12  428.26   38.06
  -1  -7  12  419.99   39.03
  -1  -7  12  536.31   45.06
   0   7 -12  -14.56   11.11
   0   7 -12    2.08   10.21
   0   7 -12   16.16   10.31
   0  -7  12   -1.20   10.95
   0  -7  12  -15.93   12.61
  -1   7 -12  331.96   31.82
  -1   7 -12  405.74   32.79
  -1   7 -12  305.96   31.18
  -1   7 -12  350.78   34.53
   1  -7  12  421.26   39.81
  -2   7 -12  -11.33   12.11
  -2   7 -12   10.56   11.51
  -2   7 -12   12.42   12.79
   2  -7  12    1.01   14.13
  -3   7 -12  254.50   29.66
  -3   7 -12  244.87   24.08
  -3   7 -12  265.67   28.17
   3  -7  12  243.94   30.63
  -4   7 -12   -6.26    9.97
  -4   7 -12    5.17    9.92
   4  -7  12   -6.77    9.54
  -5   7 -12  235.55   28.79
  -5   7 -12  220.91   26.19
   5  -7  12  221.34   28.75
  -6   7 -12    4.90   13.43
  -6   7 -12    1.36   12.16
   6  -7  12   -5.96   16.90
   4   6 -12  304.36   36.06
   4   6 -12  348.37   34.64
  -4  -6  12  261.63   31.48
  -4  -6  12  323.78   34.98
   3   6 -12    0.60   14.17
   3   6 -12   12.14   14.37
  -3  -6  12   -7.51   13.55
  -3  -6  12  -17.69   12.72
   2   6 -12  506.43   41.20
   2   6 -12  525.64   43.46
   2   6 -12  497.40   41.43
  -2  -6  12  404.21   47.37
  -2  -6  12  487.97   40.93
   1   6 -12   -6.48    7.97
   1   6 -12    5.47   10.05
   1   6 -12   -4.23   12.09
  -1  -6  12   -0.33   10.01
  -1  -6  12   -3.52   10.07
  -1  -6  12    2.65   15.62
   0   6 -12  526.42   37.23
   0   6 -12  492.71   42.69
   0   6 -12  511.57   41.03
   0   6 -12  540.45   37.59
   0  -6  12  542.61   40.35
   0  -6  12  545.95   37.45
   0  -6  12  487.72   39.19
  -1   6 -12   21.76   12.99
  -1   6 -12   12.59   11.33
  -1   6 -12    2.08    9.03
   1  -6  12   -0.61   14.83
   1  -6  12   -5.54   12.75
  -2   6 -12  329.64   33.41
  -2   6 -12  492.16   37.88
  -2   6 -12  409.90   29.65
   2  -6  12  428.31   39.69
   2  -6  12  517.05   43.42
  -3   6 -12    7.50   10.41
  -3   6 -12  -11.35    8.49
  -3   6 -12   14.84   11.62
   3  -6  12    0.46   13.53
   3  -6  12    3.55   16.39
  -4   6 -12  238.87   24.91
  -4   6 -12  231.96   28.02
   4  -6  12  244.27   29.90
  -5   6 -12   -6.81   11.30
  -5   6 -12   22.15   15.82
   5  -6  12   33.65   14.09
  -6   6 -12  127.56   24.07
  -6   6 -12  211.49   23.77
   6  -6  12  150.20   27.30
   6  -6  12  168.95   22.57
  -7   6 -12  -25.98   13.06
  -7   6 -12    7.64   11.47
   7  -6  12   -6.61   13.51
   7  -6  12   -4.61   18.21
   5   5 -12  286.83   33.15
   5   5 -12  228.64   27.14
   5   5 -12  202.28   29.13
  -5  -5  12  159.92   27.42
  -5  -5  12  252.56   30.54
   4   5 -12    1.86   13.90
   4   5 -12   -0.88   11.12
  -4  -5  12    8.09   14.34
  -4  -5  12   15.87   15.16
   3   5 -12  341.94   33.68
   3   5 -12  342.87   36.43
  -3  -5  12  362.54   33.55
  -3  -5  12  359.36   37.10
  -3  -5  12  337.06   33.37
  -3  -5  12  428.64   35.92
   2   5 -12   -3.29   11.56
   2   5 -12    5.71   14.82
   2   5 -12    7.52   12.45
  -2  -5  12    0.54   11.82
  -2  -5  12    1.45   10.88
  -2  -5  12  -13.87    9.53
  -2  -5  12   17.69   15.73
   1   5 -12  609.81   39.46
   1   5 -12  614.78   41.13
   1   5 -12  535.13   39.77
  -1  -5  12  626.90   39.16
  -1  -5  12  518.47   39.84
  -1  -5  12  575.59   36.75
  -1  -5  12  583.30   41.00
  -1  -5  12  541.49   38.38
   0   5 -12    3.02   12.61
   0   5 -12   -8.92    9.71
   0   5 -12    9.11    9.24
   0  -5  12   16.01   13.93
   0  -5  12  -10.05    9.26
   0  -5  12   -7.24    8.48
   0  -5  12   19.64   13.33
  -1   5 -12  603.63   38.63
  -1   5 -12  507.34   38.20
  -1   5 -12  537.10   38.72
   1  -5  12  599.66   41.41
   1  -5  12  549.95   41.74
  -2   5 -12    6.24    9.26
  -2   5 -12   10.35    8.11
  -2   5 -12    5.68    8.23
   2  -5  12   -7.32   11.75
   2  -5  12   -6.16   11.81
  -3   5 -12  454.30   29.68
  -3   5 -12  377.77   34.05
  -3   5 -12  387.42   31.59
   3  -5  12  337.29   35.78
   3  -5  12  324.04   34.52
  -4   5 -12   -8.52    9.78
  -4   5 -12    2.74   12.85
  -4   5 -12    1.25    9.95
   4  -5  12   -4.99    8.00
   4  -5  12  -18.43   15.36
  -5   5 -12  213.30   22.99
  -5   5 -12  215.61   23.33
  -5   5 -12  192.66   24.95
   5  -5  12  207.32   24.23
   5  -5  12  215.76   28.44
  -6   5 -12   -0.20   10.64
  -6   5 -12   -6.67   10.78
  -6   5 -12   -5.14    9.29
   6  -5  12    3.26   11.82
   6  -5  12    1.93   11.26
  -7   5 -12  151.34   25.37
   7  -5  12  141.92   27.27
   7  -5  12  161.50   22.17
  -8   5 -12    7.28   17.93
   8  -5  12    2.44   12.43
   8  -5  12   -5.76   14.33
   5   4 -12    6.32   17.38
   5   4 -12   21.73   18.02
  -5  -4  12    2.26   16.07
   4   4 -12  388.63   37.33
   4   4 -12  360.71   34.21
  -4  -4  12  301.69   33.25
  -4  -4  12  357.75   34.68
   3   4 -12    2.10   14.62
   3   4 -12  -13.58   13.18
  -3  -4  12    1.43   11.19
  -3  -4  12   -0.34   11.06
  -3  -4  12    0.06   13.33
  -3  -4  12   -2.93    8.10
  -3  -4  12   13.71   11.47
  -3  -4  12    0.77   12.83
   2   4 -12  622.35   48.51
   2   4 -12  635.89   38.21
   2   4 -12  534.91   40.46
  -2  -4  12  539.51   38.74
  -2  -4  12  649.43   39.49
  -2  -4  12  567.03   40.30
  -2  -4  12  616.56   40.49
  -2  -4  12  575.20   40.18
  -2  -4  12  532.35   40.50
   1   4 -12   -4.11    7.75
   1   4 -12   25.63   12.81
   1   4 -12   27.62    9.47
   1   4 -12    7.76    9.82
  -1  -4  12   19.35   11.83
  -1  -4  12   17.26   11.13
  -1  -4  12   15.60   12.51
  -1  -4  12   12.91   11.64
   0   4 -12  813.01   51.17
   0   4 -12  788.38   50.20
   0   4 -12  799.99   47.82
   0   4 -12  819.51   53.11
   0  -4  12  864.80   48.55
   0  -4  12  911.52   53.61
   0  -4  12  819.67   52.15
  -1   4 -12   -4.64    7.30
  -1   4 -12    8.17    7.72
  -1   4 -12   -5.94    7.05
   1  -4  12   17.24   12.63
   1  -4  12    7.37    8.38
  -2   4 -12  469.83   34.09
  -2   4 -12  488.82   32.93
  -2   4 -12  514.52   35.14
   2  -4  12  445.98   34.23
   2  -4  12  494.14   36.99
  -3   4 -12    0.34    7.04
  -3   4 -12    4.63    9.91
  -3   4 -12    1.75    7.67
   3  -4  12   11.39   13.59
   3  -4  12  -14.57    6.95
  -4   4 -12  463.20   31.85
  -4   4 -12  426.43   34.75
  -4   4 -12  468.81   38.65
   4  -4  12  420.21   38.97
   4  -4  12  377.34   37.96
  -5   4 -12    5.59   10.47
  -5   4 -12   -5.86    9.18
  -5   4 -12   -1.88   11.97
   5  -4  12    7.43   15.27
   5  -4  12   12.03   11.31
   5  -4  12   12.65    8.95
  -6   4 -12  231.77   23.38
  -6   4 -12  222.34   24.11
  -6   4 -12  234.44   26.58
   6  -4  12  237.17   29.99
   6  -4  12  207.14   22.48
  -7   4 -12   -8.49    9.01
  -7   4 -12  -16.97   11.75
   7  -4  12    2.29   11.65
   7  -4  12   14.07   12.40
  -8   4 -12   74.57   18.40
   8  -4  12   95.08   19.75
   8  -4  12  119.29   25.86
   5   3 -12  402.58   37.90
   5   3 -12  305.93   35.45
   5   3 -12  373.84   33.93
  -5  -3  12  433.23   38.47
   4   3 -12  -11.38    9.74
   4   3 -12    4.89    9.07
   4   3 -12    1.23   13.97
  -4  -3  12   -5.94   15.02
  -4  -3  12  -18.35   12.25
  -4  -3  12   14.82   14.37
   3   3 -12  595.30   46.18
   3   3 -12  612.88   39.82
   3   3 -12  527.65   36.88
  -3  -3  12  572.97   39.75
  -3  -3  12  543.69   37.63
  -3  -3  12  596.66   40.77
   2   3 -12    8.09    9.60
   2   3 -12    8.14    7.67
   2   3 -12  -12.42    8.10
   2   3 -12   10.75    9.21
  -2  -3  12  -23.34    9.51
  -2  -3  12   -5.51   10.49
  -2  -3  12   -7.01   11.02
  -2  -3  12  -13.31    8.97
   1   3 -12  843.35   52.04
   1   3 -12  810.65   47.81
   1   3 -12  795.53   49.51
  -1  -3  12  812.36   47.87
  -1  -3  12  831.95   49.81
  -1  -3  12  752.23   48.99
  -1  -3  12  760.92   48.78
   0   3 -12   -1.40    7.61
   0   3 -12   -2.50    7.46
   0   3 -12  -12.05    7.89
   0   3 -12   -5.79    6.93
   0  -3  12    2.78    7.71
   0  -3  12    5.96    9.97
   0  -3  12   -5.19    9.47
  -1   3 -12  781.82   46.72
  -1   3 -12  771.43   46.62
  -1   3 -12  766.09   43.26
  -1   3 -12  699.90   47.71
   1  -3  12  749.05   46.67
   1  -3  12  723.49   46.26
  -2   3 -12    9.73    7.55
  -2   3 -12   14.12    8.36
  -2   3 -12    2.70    7.91
  -2   3 -12    3.50    7.62
   2  -3  12    4.39    8.05
   2  -3  12   -1.65   10.21
  -3   3 -12  689.11   43.53
  -3   3 -12  654.70   37.69
  -3   3 -12  642.60   41.69
  -3   3 -12  676.26   41.82
   3  -3  12  622.92   43.10
   3  -3  12  698.27   45.23
  -4   3 -12   -0.91    8.10
  -4   3 -12   20.38   12.09
  -4   3 -12   -0.47    8.63
   4  -3  12    2.39   12.26
   4  -3  12   -7.47    7.71
   4  -3  12   12.14   12.02
  -5   3 -12  347.27   28.13
  -5   3 -12  382.48   34.71
  -5   3 -12  348.53   30.79
   5  -3  12  268.44   31.09
   5  -3  12  346.33   34.76
   5  -3  12  356.71   28.01
  -6   3 -12   -0.08   12.93
  -6   3 -12    2.49    8.75
  -6   3 -12  -11.88   10.94
   6  -3  12   10.12   10.70
   6  -3  12  -16.10    9.25
   6  -3  12    3.27   11.67
  -7   3 -12  139.61   20.61
  -7   3 -12  121.34   16.22
  -7   3 -12  102.88   18.18
   7  -3  12  119.01   24.16
   7  -3  12  111.84   18.67
  -8   3 -12    3.69   11.54
  -8   3 -12   -3.70   14.31
  -8   3 -12   -3.72   10.41
   8  -3  12   10.47   13.34
   8  -3  12  -10.51   11.34
   6   2 -12  335.73   34.80
   6   2 -12  273.76   34.33
   6   2 -12  369.74   34.35
  -6  -2  12  280.46   35.65
   5   2 -12  -11.26   12.45
   5   2 -12   -1.96   10.58
   5   2 -12   -0.13   15.54
  -5  -2  12  -19.26   13.84
   4   2 -12  395.02   35.48
   4   2 -12  391.71   32.93
   4   2 -12  301.01   31.43
  -4  -2  12  315.12   38.68
  -4  -2  12  390.65   34.99
   3   2 -12   -7.62    8.75
   3   2 -12   10.83    8.69
   3   2 -12   18.13   13.80
   3   2 -12   16.40   12.86
  -3  -2  12   -0.26   11.60
  -3  -2  12   -9.26    8.18
   2   2 -12  797.21   45.65
   2   2 -12  643.73   44.18
   2   2 -12  728.32   43.54
  -2  -2  12  591.57   44.01
  -2  -2  12  647.03   41.85
  -2  -2  12  711.38   43.02
  -2  -2  12  750.37   46.81
   1   2 -12    2.63    8.59
   1   2 -12    6.13    9.42
   1   2 -12   -8.38    6.19
   1   2 -12   -5.79    7.05
  -1  -2  12   -5.48    7.77
  -1  -2  12   -4.13    7.47
  -1  -2  12   -9.19    8.00
   0   2 -12  740.12   45.06
   0   2 -12  757.65   49.01
   0   2 -12  734.85   47.32
   0  -2  12  824.54   47.02
   0  -2  12  752.72   43.78
   0  -2  12  804.71   47.38
  -1   2 -12   -3.27    7.66
  -1   2 -12    3.55    7.31
  -1   2 -12    3.22    9.49
  -1   2 -12   -6.65    7.69
   1  -2  12   14.04   10.27
   1  -2  12   13.88    9.36
  -2   2 -12  753.90   51.26
  -2   2 -12  875.35   52.21
  -2   2 -12  869.24   47.53
  -2   2 -12  834.15   50.03
   2  -2  12  813.11   50.96
   2  -2  12  943.91   53.06
  -3   2 -12    4.95    6.31
  -3   2 -12   -6.80   10.71
  -3   2 -12    0.26    7.62
  -3   2 -12    5.51    7.32
   3  -2  12   10.65    7.56
   3  -2  12    8.21   10.95
   3  -2  12    4.36   11.49
  -4   2 -12  450.84   26.42
  -4   2 -12  454.41   30.64
  -4   2 -12  381.88   34.59
  -4   2 -12  488.28   38.66
   4  -2  12  469.88   35.37
   4  -2  12  441.00   28.88
   4  -2  12  456.96   34.66
  -5   2 -12   12.02    9.42
  -5   2 -12   14.59   10.40
  -5   2 -12   -3.61    8.34
   5  -2  12   10.79   13.43
   5  -2  12    5.21   13.11
   5  -2  12   -9.29    8.13
  -6   2 -12  242.21   21.79
  -6   2 -12  273.45   27.45
  -6   2 -12  238.88   26.66
  -6   2 -12  257.50   20.84
   6  -2  12  227.32   26.93
   6  -2  12  248.23   23.23
   6  -2  12  261.64   29.19
  -7   2 -12   -3.81   12.77
  -7   2 -12    3.53    9.75
  -7   2 -12    2.36   10.61
   7  -2  12   -7.33   11.58
   7  -2  12   -0.13   10.49
  -8   2 -12   96.73   18.32
  -8   2 -12  132.24   17.70
  -8   2 -12   93.37   20.32
   8  -2  12  120.80   20.88
   8  -2  12   86.77   22.63
  -9   2 -12  -12.01   11.41
  -9   2 -12    3.45   17.36
  -9   2 -12    8.67   13.75
   9  -2  12   10.10   15.16
   9  -2  12   -9.29   14.22
   6   1 -12    4.54   16.98
   6   1 -12   -5.29   12.84
   6   1 -12   -2.02   11.02
   5   1 -12  324.83   32.25
   5   1 -12  351.50   35.64
   5   1 -12  477.21   39.27
  -5  -1  12  370.90   37.01
   4   1 -12    2.26   10.20
   4   1 -12  -22.59   10.40
   4   1 -12    0.11    8.72
  -4  -1  12  -11.33   12.49
   3   1 -12  551.03   37.34
   3   1 -12  574.10   39.25
   3   1 -12  510.26   38.02
   3   1 -12  535.63   37.32
  -3  -1  12  540.02   39.54
  -3  -1  12  578.53   39.34
   2   1 -12  -14.49   10.02
   2   1 -12    2.69    9.71
   2   1 -12    5.87    8.48
  -2  -1  12   10.26   11.88
  -2  -1  12   -2.11   11.89
  -2  -1  12    3.93    8.43
   1   1 -12  906.37   54.50
   1   1 -12  942.81   53.24
   1   1 -12  888.95   52.03
   1   1 -12  821.41   54.20
  -1  -1  12  927.23   56.21
  -1  -1  12  906.90   51.24
  -1  -1  12  915.57   56.25
  -1  -1  12  862.31   51.28
   0   1 -12   11.42    7.50
   0   1 -12    9.35    8.51
   0   1 -12   17.87   11.95
   0   1 -12    2.55    9.23
   0  -1  12   -8.24    8.04
   0  -1  12    9.80    8.37
  -1   1 -12  817.89   49.15
  -1   1 -12  876.93   46.72
  -1   1 -12  770.85   48.71
   1  -1  12  856.29   48.08
   1  -1  12  702.43   47.76
  -2   1 -12   -8.97    9.26
  -2   1 -12   -0.66    7.28
  -2   1 -12    0.32    6.77
   2  -1  12    3.98    9.78
   2  -1  12   -4.02    6.79
   2  -1  12   18.94    9.44
  -3   1 -12  615.44   41.68
  -3   1 -12  735.94   43.30
  -3   1 -12  678.72   38.02
   3  -1  12  739.59   43.77
   3  -1  12  584.12   41.47
  -4   1 -12   -2.13    7.17
  -4   1 -12   -8.52    9.79
  -4   1 -12   -1.55    5.19
   4  -1  12    5.85    8.33
   4  -1  12    1.70    8.10
  -5   1 -12  429.65   35.58
  -5   1 -12  429.12   26.42
  -5   1 -12  465.07   36.95
   5  -1  12  442.43   37.95
   5  -1  12  436.80   29.61
   5  -1  12  421.94   37.19
  -6   1 -12    7.53    9.38
  -6   1 -12  -10.70   10.77
  -6   1 -12   10.93    9.75
   6  -1  12    8.09   10.71
   6  -1  12    9.67   13.86
   6  -1  12    2.23    9.49
  -7   1 -12  196.89   21.02
  -7   1 -12  202.69   26.15
  -7   1 -12  216.61   25.90
   7  -1  12  167.77   24.28
  -8   1 -12    9.36   11.68
  -8   1 -12   -9.51   12.88
   8  -1  12    0.78   16.71
  -9   1 -12   69.01   17.10
  -9   1 -12   11.49   17.17
   9  -1  12   78.22   24.03
   6   0 -12  340.35   35.38
   6   0 -12  364.59   32.87
   6   0 -12  325.97   35.38
  -6   0  12  378.85   38.78
   5   0 -12   17.49   16.15
   5   0 -12   -3.29    9.80
   5   0 -12    2.97   14.12
  -5   0  12  -29.54   13.66
   4   0 -12  540.78   41.00
   4   0 -12  502.33   37.05
   4   0 -12  590.50   43.35
  -4   0  12  507.21   43.46
   3   0 -12   -0.61    8.96
   3   0 -12   -1.87    8.49
   3   0 -12   -9.54    7.74
  -3   0  12   13.44   13.69
  -3   0  12    6.44   13.92
   2   0 -12  810.64   50.44
   2   0 -12  816.79   50.94
   2   0 -12  868.10   53.64
  -2   0  12  806.65   53.48
  -2   0  12  972.88   56.00
   1   0 -12   -4.98    9.37
   1   0 -12    9.72    9.77
   1   0 -12  -10.38    6.69
   1   0 -12   -1.68   10.99
  -1   0  12   -8.96    7.41
  -1   0  12   -6.30   11.22
  -1   0  12   -1.90    8.54
   0   0 -12 1236.93   62.67
   0   0 -12 1105.71   61.81
   0   0 -12 1085.96   65.06
   0   0 -12 1056.50   63.54
   0   0  12 1063.53   60.26
   0   0  12 1160.00   62.40
  -1   0 -12   -4.08    7.12
  -1   0 -12   -0.27    5.44
  -1   0 -12   15.84   11.40
   1   0  12    6.12    6.73
   1   0  12    0.77    7.83
  -2   0 -12  665.34   40.61
  -2   0 -12  787.18   45.89
  -2   0 -12  694.15   44.79
   2   0  12  726.16   43.24
   2   0  12  711.09   40.55
   2   0  12  748.82   45.45
  -3   0 -12   -7.19    5.64
  -3   0 -12    9.56    8.01
  -3   0 -12   -2.20    7.61
   3   0  12    0.77    7.33
   3   0  12    1.71    8.72
   3   0  12   -5.50    6.69
  -4   0 -12  620.15   42.69
  -4   0 -12  593.47   40.02
  -4   0 -12  672.80   36.04
   4   0  12  635.23   43.11
   4   0  12  615.70   41.15
   4   0  12  638.88   38.13
  -5   0 -12   -5.83   10.18
  -5   0 -12   18.61   12.79
  -5   0 -12    3.72    8.03
   5   0  12    3.14   12.06
   5   0  12   10.91   12.08
  -6   0 -12  363.64   30.20
  -6   0 -12  297.04   30.50
  -6   0 -12  271.91   23.01
   6   0  12  262.56   30.23
   6   0  12  268.11   30.21
  -7   0 -12   15.79   13.63
  -7   0 -12   -0.12    9.34
   7   0  12   13.79   16.02
   7   0  12    4.40   12.00
  -8   0 -12  130.41   21.66
  -8   0 -12  112.65   18.44
   8   0  12  146.66   21.44
   8   0  12  115.16   24.25
  -9   0 -12   -8.42   12.88
  -9   0 -12   23.32   16.23
   9   0  12  -11.49   10.39
   9   0  12   -4.84   18.44
   6  -1 -12   -1.13   17.54
   6  -1 -12   18.41   12.45
  -6   1  12  -24.81   16.27
   5  -1 -12  361.47   33.86
   5  -1 -12  337.55   32.14
   5  -1 -12  427.31   37.80
  -5   1  12  402.11   39.14
   4  -1 -12   -9.87    7.96
   4  -1 -12   -9.09    8.48
   4  -1 -12   -5.49   13.37
   4  -1 -12    3.42   11.07
  -4   1  12    0.86   11.97
   3  -1 -12  503.66   37.07
   3  -1 -12  606.76   39.24
   3  -1 -12  536.95   39.06
  -3   1  12  616.40   43.20
  -3   1  12  647.97   50.64
   2  -1 -12    4.63    8.26
   2  -1 -12    5.37   11.68
   2  -1 -12    5.99   10.40
  -2   1  12   -8.62   11.98
  -2   1  12   -4.28   12.57
   1  -1 -12  971.06   54.22
   1  -1 -12 1009.50   54.94
   1  -1 -12  904.09   56.15
  -1   1  12  882.81   57.30
  -1   1  12  895.01   51.95
  -1   1  12  994.48   59.05
   0  -1 -12   12.22   11.17
   0  -1 -12    0.18   10.82
   0  -1 -12    5.78    8.54
   0  -1 -12   -4.21    8.91
   0   1  12    6.37   11.98
   0   1  12    8.39    7.79
  -1  -1 -12  818.62   46.60
  -1  -1 -12  784.11   49.14
  -1  -1 -12  808.33   45.39
  -1  -1 -12  837.60   49.32
   1   1  12  799.04   44.85
   1   1  12  791.94   47.23
   1   1  12  785.28   44.42
  -2  -1 -12    1.98    7.48
  -2  -1 -12    3.41   10.86
  -2  -1 -12    0.27    6.67
   2   1  12    3.32    6.53
   2   1  12    9.41    8.70
   2   1  12    5.55    7.80
  -3  -1 -12  688.85   44.44
  -3  -1 -12  678.76   40.14
  -3  -1 -12  725.52   43.93
   3   1  12  706.75   44.82
   3   1  12  708.66   42.89
   3   1  12  688.34   40.61
  -4  -1 -12    5.71   10.67
  -4  -1 -12   -4.46    6.51
  -4  -1 -12   -2.36    7.56
  -4  -1 -12    0.35    6.72
   4   1  12   -4.81   10.92
   4   1  12   14.64   11.69
   4   1  12   -5.24    8.14
  -5  -1 -12  409.77   35.13
  -5  -1 -12  364.93   32.67
  -5  -1 -12  443.37   28.33
   5   1  12  462.40   29.15
   5   1  12  436.42   37.11
   5   1  12  405.11   34.91
  -6  -1 -12   -0.70   10.53
  -6  -1 -12    0.61    8.60
   6   1  12    5.13   11.29
   6   1  12   -1.80    9.10
   6   1  12   -6.50   12.79
  -7  -1 -12  182.16   22.62
  -7  -1 -12  181.83   20.42
   7   1  12  138.67   25.56
   7   1  12  182.25   27.27
   7   1  12  243.74   25.21
  -8  -1 -12    6.84   12.54
  -8  -1 -12   -5.17   12.55
   8   1  12    3.12   17.08
   8   1  12  -10.65   13.39
  -9  -1 -12   61.18   18.43
  -9  -1 -12   32.13   16.16
   9   1  12   69.14   24.91
   9   1  12   42.47   17.37
   6  -2 -12  269.02   30.15
   6  -2 -12  379.88   35.39
  -6   2  12  330.73   38.35
   5  -2 -12    2.78   11.31
   5  -2 -12  -14.17    9.07
  -5   2  12  -12.57   14.75
   4  -2 -12  345.25   33.85
   4  -2 -12  348.81   32.23
   4  -2 -12  356.84   30.71
  -4   2  12  316.17   35.40
   3  -2 -12   -3.85   11.97
   3  -2 -12    1.94    8.06
   3  -2 -12   -6.41    7.62
  -3   2  12   -9.56    9.52
  -3   2  12    9.70   14.59
   2  -2 -12  630.21   42.19
   2  -2 -12  675.74   42.24
   2  -2 -12  668.87   44.92
  -2   2  12  655.94   46.48
  -2   2  12  739.39   48.31
   1  -2 -12   -5.47    7.03
   1  -2 -12    1.31    9.09
   1  -2 -12   -5.46    7.60
  -1   2  12  -14.51   11.33
  -1   2  12    2.24    9.62
   0  -2 -12  812.64   49.15
   0  -2 -12  808.89   50.42
   0  -2 -12  750.45   45.49
   0  -2 -12  886.08   47.48
   0   2  12  813.89   51.84
   0   2  12  829.70   45.69
   0   2  12  746.85   45.56
  -1  -2 -12  -12.22    8.79
  -1  -2 -12    4.80    7.23
  -1  -2 -12    0.50    8.68
  -1  -2 -12   -1.68    7.16
   1   2  12    4.06    8.71
   1   2  12   -3.39    7.28
   1   2  12    4.93    8.88
  -2  -2 -12  856.79   47.63
  -2  -2 -12  887.47   52.78
  -2  -2 -12  833.60   49.21
   2   2  12  741.96   47.31
   2   2  12  855.57   47.79
   2   2  12  912.39   50.83
  -3  -2 -12   12.74   12.35
  -3  -2 -12   -0.48    6.05
  -3  -2 -12   11.70    9.56
  -3  -2 -12    9.55    8.18
   3   2  12   -2.86    9.82
   3   2  12    7.68    8.23
   3   2  12   13.94    9.78
  -4  -2 -12  490.72   28.37
  -4  -2 -12  485.25   31.74
  -4  -2 -12  403.98   28.01
  -4  -2 -12  445.67   37.14
   4   2  12  472.85   34.92
   4   2  12  481.13   30.82
   4   2  12  373.15   30.37
  -5  -2 -12    2.15    7.91
  -5  -2 -12    1.15    9.40
  -5  -2 -12   -2.44    5.71
  -5  -2 -12    2.51    9.44
   5   2  12   -5.72   10.90
   5   2  12   13.12   10.28
   5   2  12    5.09    9.48
  -6  -2 -12  230.16   22.71
  -6  -2 -12  271.09   25.58
   6   2  12  258.02   26.24
   6   2  12  281.03   31.24
   6   2  12  222.25   27.07
  -7  -2 -12    8.38   14.35
  -7  -2 -12   -1.12   10.24
  -7  -2 -12   22.03   13.86
   7   2  12   -3.63   10.44
   7   2  12  -11.57   15.96
   7   2  12   14.23   13.15
  -8  -2 -12  136.98   20.61
  -8  -2 -12   95.51   18.63
   8   2  12  138.98   27.78
   8   2  12  114.81   20.41
  -9  -2 -12   -1.08   13.58
  -9  -2 -12   -1.06   15.67
   9   2  12  -21.17   18.70
   9   2  12    2.26   15.85
   5  -3 -12  448.92   40.07
   5  -3 -12  373.57   35.05
  -5   3  12  483.11   45.04
   4  -3 -12    1.10    9.20
   4  -3 -12   20.60   15.07
   4  -3 -12    6.28   13.04
  -4   3  12    3.43   11.71
   3  -3 -12  558.01   37.77
   3  -3 -12  521.32   37.67
   3  -3 -12  519.46   36.18
  -3   3  12  555.93   40.56
   2  -3 -12   -4.31   10.97
   2  -3 -12    8.59    8.84
   2  -3 -12    7.95   10.02
  -2   3  12    0.94   10.77
  -2   3  12    3.55   10.22
   1  -3 -12  923.52   48.96
   1  -3 -12  868.00   50.27
   1  -3 -12  748.63   51.25
  -1   3  12  795.68   49.26
  -1   3  12  764.35   53.29
  -1   3  12  844.72   54.61
   0  -3 -12   -3.41    6.17
   0  -3 -12    5.61    9.46
   0  -3 -12   16.97   11.76
   0   3  12   -7.41    7.13
   0   3  12   10.22   12.76
   0   3  12  -14.94    7.29
  -1  -3 -12  707.28   46.93
  -1  -3 -12  762.68   45.08
  -1  -3 -12  777.27   42.47
  -1  -3 -12  691.93   43.97
   1   3  12  809.18   50.23
   1   3  12  780.09   44.46
   1   3  12  760.39   44.89
  -2  -3 -12   -8.48    8.84
  -2  -3 -12    3.50    5.88
  -2  -3 -12    3.59    8.44
  -2  -3 -12    8.82   11.23
   2   3  12    4.61    9.01
   2   3  12    2.37    7.92
   2   3  12   16.93    9.04
  -3  -3 -12  609.23   40.08
  -3  -3 -12  720.82   40.06
  -3  -3 -12  718.34   38.32
  -3  -3 -12  623.45   44.11
   3   3  12  660.31   42.98
   3   3  12  595.57   39.73
  -4  -3 -12    1.65    8.62
  -4  -3 -12   19.99    8.62
  -4  -3 -12    5.13    9.39
  -4  -3 -12   -5.17    8.17
   4   3  12   -4.89    8.15
   4   3  12    9.34    9.94
  -5  -3 -12  362.49   29.26
  -5  -3 -12  356.17   29.45
  -5  -3 -12  342.08   24.37
   5   3  12  384.86   33.91
   5   3  12  350.18   30.58
  -6  -3 -12   22.00   11.21
  -6  -3 -12   15.79   10.71
  -6  -3 -12   -9.30   11.83
   6   3  12    9.39   11.01
   6   3  12    1.08   11.08
  -7  -3 -12  139.20   19.49
  -7  -3 -12  128.66   18.91
  -7  -3 -12  124.79   21.49
   7   3  12  151.34   20.57
   7   3  12  108.06   23.48
  -8  -3 -12  -10.02   15.51
  -8  -3 -12    4.25   12.46
   8   3  12    9.94   14.41
   8   3  12   -6.77   12.22
   5  -4 -12   13.66   12.43
   5  -4 -12  -15.67   14.20
  -5   4  12   -0.60   14.06
   4  -4 -12  373.56   33.51
   4  -4 -12  357.37   31.93
   4  -4 -12  330.46   33.39
  -4   4  12  335.74   37.78
   3  -4 -12   -1.30   11.75
   3  -4 -12    4.15   11.41
   3  -4 -12   -4.08    9.78
  -3   4  12  -18.71   13.47
   2  -4 -12  660.21   42.39
   2  -4 -12  598.91   42.49
   2  -4 -12  600.98   39.81
  -2   4  12  607.75   45.67
  -2   4  12  687.44   45.42
   1  -4 -12    4.85    7.53
   1  -4 -12    2.21   10.64
   1  -4 -12   10.70   12.74
  -1   4  12    4.82   13.57
  -1   4  12   -2.84    8.92
  -1   4  12   11.12    9.89
   0  -4 -12  808.17   49.66
   0  -4 -12  868.87   48.28
   0  -4 -12  795.92   45.02
   0   4  12  742.95   46.66
   0   4  12  768.73   50.92
  -1  -4 -12    4.10    6.00
  -1  -4 -12   27.55    9.26
  -1  -4 -12    1.36   11.53
   1   4  12    8.94    9.55
   1   4  12   -0.48    8.68
   1   4  12   -4.06    9.27
  -2  -4 -12  525.12   31.02
  -2  -4 -12  494.46   32.80
  -2  -4 -12  507.91   33.86
  -2  -4 -12  506.75   35.62
   2   4  12  522.82   37.89
   2   4  12  488.30   33.74
   2   4  12  503.70   34.74
  -3  -4 -12   -6.39    8.20
  -3  -4 -12  -11.17    7.83
  -3  -4 -12    5.79    8.36
  -3  -4 -12    3.11    6.79
   3   4  12   -4.27   10.82
   3   4  12    2.88    8.33
   3   4  12    7.69    7.73
  -4  -4 -12  402.92   29.89
  -4  -4 -12  425.25   29.97
  -4  -4 -12  468.23   31.67
  -4  -4 -12  476.62   39.69
   4   4  12  468.25   38.33
   4   4  12  495.28   36.69
   4   4  12  495.25   39.61
  -5  -4 -12   11.67   10.85
  -5  -4 -12   -5.45    8.11
  -5  -4 -12   10.93   10.26
   5   4  12    8.50   11.30
   5   4  12    8.86   11.42
  -6  -4 -12  220.14   23.93
  -6  -4 -12  227.01   25.49
   6   4  12  173.96   23.55
   6   4  12  206.06   26.78
  -7  -4 -12  -14.41   14.29
  -7  -4 -12    6.96   12.30
   7   4  12   -3.06   13.47
   7   4  12   16.15   14.04
  -8  -4 -12   64.48   21.30
  -8  -4 -12  137.99   21.55
   8   4  12   99.91   26.17
   8   4  12   66.46   19.80
   5  -5 -12  224.49   28.64
   5  -5 -12  237.72   26.96
  -5   5  12  201.37   32.88
   4  -5 -12  -14.25   12.50
   4  -5 -12   -8.58   14.04
   4  -5 -12  -14.15   13.74
  -4   5  12   -6.67   12.26
   3  -5 -12  339.57   30.32
   3  -5 -12  360.60   32.61
   3  -5 -12  335.43   32.00
  -3   5  12  289.29   35.18
   2  -5 -12    3.41   12.31
   2  -5 -12   12.73   11.03
   2  -5 -12  -12.23   11.36
  -2   5  12    2.55   10.60
  -2   5  12   14.28   11.84
   1  -5 -12  609.17   41.52
   1  -5 -12  597.37   39.23
   1  -5 -12  625.17   37.55
  -1   5  12  558.52   47.67
  -1   5  12  564.25   47.55
  -1   5  12  575.76   38.53
   0  -5 -12    8.21   12.05
   0  -5 -12    6.61   11.26
   0   5  12   13.34   10.79
   0   5  12    3.82   13.07
  -1  -5 -12  568.68   39.72
  -1  -5 -12  636.49   38.98
  -1  -5 -12  599.14   35.13
   1   5  12  576.53   38.40
   1   5  12  541.96   38.39
   1   5  12  720.33   44.72
  -2  -5 -12   -9.34   12.32
  -2  -5 -12   -9.50    9.69
  -2  -5 -12   -1.14    8.97
   2   5  12    9.34   10.30
   2   5  12    4.14   10.99
   2   5  12   11.62   12.88
  -3  -5 -12  402.34   36.06
  -3  -5 -12  385.50   30.72
  -3  -5 -12  415.31   28.64
   3   5  12  384.62   34.69
   3   5  12  492.51   37.12
   3   5  12  396.53   34.45
  -4  -5 -12   26.89   10.98
  -4  -5 -12   -4.45    9.67
  -4  -5 -12  -10.56    7.93
   4   5  12   -6.53   10.97
   4   5  12  -18.73   12.05
   4   5  12   14.63   12.34
  -5  -5 -12  209.50   23.39
  -5  -5 -12  243.67   23.18
   5   5  12  238.73   26.56
   5   5  12  243.76   28.87
   5   5  12  215.83   24.64
  -6  -5 -12   12.73   16.15
  -6  -5 -12    9.23   12.20
   6   5  12  -23.84   15.60
   6   5  12   -0.93   10.40
   6   5  12   22.56   12.44
  -7  -5 -12  144.78   25.32
  -7  -5 -12  149.09   21.85
   7   5  12  117.83   22.03
   7   5  12   86.87   24.95
  -8  -5 -12  -10.08   13.00
  -8  -5 -12   -3.48   14.07
   8   5  12  -33.93   18.26
   8   5  12    4.26   11.82
   4  -6 -12  292.53   30.36
   4  -6 -12  321.59   33.37
  -4   6  12  315.20   38.02
   3  -6 -12   -0.26   10.74
   3  -6 -12    0.20   11.85
   3  -6 -12   -6.18   12.56
  -3   6  12   -3.13   14.00
   2  -6 -12  576.12   39.53
   2  -6 -12  469.06   40.36
   2  -6 -12  532.12   37.37
  -2   6  12  544.72   42.17
  -2   6  12  592.05   47.85
   1  -6 -12   18.20   14.36
   1  -6 -12  -13.91   11.11
  -1   6  12  -13.94    9.89
  -1   6  12   -5.02   10.54
   0  -6 -12  553.63   33.49
   0  -6 -12  562.97   38.99
   0  -6 -12  580.82   39.62
   0   6  12  481.33   42.72
   0   6  12  543.84   37.40
  -1  -6 -12   -4.54    7.85
  -1  -6 -12   -1.00   10.85
  -1  -6 -12  -11.51   10.98
   1   6  12    1.86   10.83
   1   6  12   -2.19    9.17
  -2  -6 -12  454.94   36.87
  -2  -6 -12  460.99   31.71
  -2  -6 -12  536.33   41.61
   2   6  12  495.21   39.08
   2   6  12  427.92   33.54
   2   6  12  572.28   39.37
  -3  -6 -12  -14.06    9.75
  -3  -6 -12   -1.97   13.17
   3   6  12    8.01   12.42
   3   6  12   -7.09   12.24
   3   6  12    3.22    9.62
  -4  -6 -12  283.12   27.46
  -4  -6 -12  282.19   29.23
   4   6  12  273.95   31.54
   4   6  12  287.45   29.50
   4   6  12  312.47   30.43
  -5  -6 -12   20.34   12.97
   5   6  12    7.51   13.06
   5   6  12   17.02   12.78
   5   6  12   -7.73   14.83
  -6  -6 -12  218.66   25.54
  -6  -6 -12  174.84   28.98
   6   6  12  184.26   29.21
   6   6  12  179.96   25.47
  -7  -6 -12   19.62   15.75
  -7  -6 -12   23.51   18.49
   7   6  12    1.71   18.19
   7   6  12   -5.00   11.21
   3  -7 -12  268.30   29.56
   3  -7 -12  326.73   35.74
  -3   7  12  292.90   34.32
  -3   7  12  283.13   30.89
   2  -7 -12   -3.25   10.68
   2  -7 -12    3.44   12.76
  -2   7  12    8.21   10.43
  -2   7  12    4.64   12.86
   1  -7 -12  463.50   38.59
   1  -7 -12  475.68   39.25
  -1   7  12  524.43   40.22
  -1   7  12  461.71   42.40
   0  -7 -12    0.76   12.54
   0  -7 -12  -23.28   12.07
   0  -7 -12    1.71   10.56
   0   7  12   22.23   16.36
   0   7  12   16.16   10.44
  -1  -7 -12  378.38   31.91
  -1  -7 -12  335.67   28.26
  -1  -7 -12  315.38   31.40
   1   7  12  401.67   33.62
   1   7  12  337.55   34.16
  -2  -7 -12    7.70   11.84
  -2  -7 -12    3.76   12.94
   2   7  12    2.39   12.82
   2   7  12   16.07   14.37
  -3  -7 -12  276.82   30.10
  -3  -7 -12  293.32   27.87
   3   7  12  269.78   28.55
   3   7  12  268.55   27.75
   3   7  12  280.13   29.16
  -4  -7 -12  -13.88   11.92
  -4  -7 -12    1.16   10.24
   4   7  12   -6.47    9.31
   4   7  12   25.60   13.90
   4   7  12   -4.26   13.43
  -5  -7 -12  268.40   28.74
   5   7  12  221.22   27.43
   5   7  12  226.22   30.22
  -6  -7 -12   -5.51   18.11
  -6  -7 -12    9.77   14.99
   6   7  12  -14.13   17.16
   6   7  12   -4.94   14.35
   2  -8 -12  293.89   29.94
  -2   8  12  243.58   31.24
  -2   8  12  253.54   29.70
   1  -8 -12   -8.99    9.60
   1  -8 -12   -4.44   12.01
  -1   8  12   -0.35   13.52
  -1   8  12    3.88   17.13
   0  -8 -12  327.97   33.33
   0  -8 -12  350.01   32.82
   0  -8 -12  321.13   29.39
   0   8  12  398.68   37.49
   0   8  12  367.15   34.60
  -1  -8 -12  -12.87   12.31
  -1  -8 -12   32.06   13.02
   1   8  12  -10.51    9.08
   1   8  12   19.30   16.98
  -2  -8 -12  241.12   25.04
  -2  -8 -12  256.64   28.73
   2   8  12  269.60   30.85
  -3  -8 -12   23.01   14.64
  -3  -8 -12   -6.86   10.52
   3   8  12   -4.30   13.44
   3   8  12   36.22   16.07
  -4  -8 -12  125.12   23.94
  -4  -8 -12  190.59   25.34
   4   8  12  184.03   25.57
   4   8  12  135.67   22.72
   4   8  12  189.86   25.56
  -5  -8 -12   -0.90   13.86
   5   8  12  -10.88   16.30
   5   8  12   -9.76   11.02
   1  -9 -12  210.92   30.76
   1  -9 -12  243.26   29.81
  -1   9  12  236.67   29.75
  -1   9  12  262.83   33.79
   0  -9 -12   -1.16   14.37
   0  -9 -12   14.21   13.06
   0   9  12    4.89   17.47
   0   9  12   -6.90   15.24
  -1  -9 -12  253.62   26.93
   1   9  12  226.96   31.04
   1   9  12  256.97   28.81
  -2  -9 -12   18.48   15.66
  -2  -9 -12    0.15   13.25
   2   9  12  -10.51   15.61
   2   9  12    7.40   15.99
  -3  -9 -12  233.24   30.69
  -3  -9 -12  309.19   31.35
   3   9  12  294.63   32.49
   3   9  12  300.11   33.06
  -4  -9 -12    0.50   12.63
  -4  -9 -12   -3.78   14.37
   4   9  12   15.80   17.23
   1   8 -13  216.93   30.57
   1   8 -13  169.97   25.00
   1   8 -13  239.78   28.35
  -1  -8  13  235.36   32.93
   0   8 -13  -26.19   14.55
   0   8 -13    7.79   12.07
   0   8 -13   -0.01   14.39
   0  -8  13   15.41   13.64
  -1   8 -13  226.83   29.69
  -1   8 -13  277.27   29.96
   1  -8  13  214.07   31.57
  -2   8 -13    2.95   15.97
  -2   8 -13    0.26   14.73
   2  -8  13    6.61   13.40
  -3   8 -13  215.98   28.09
  -3   8 -13  201.02   25.36
   3  -8  13  237.42   31.02
  -4   8 -13   22.10   16.15
  -4   8 -13   30.97   18.19
   4  -8  13   19.57   14.97
   2   7 -13  215.33   29.76
   2   7 -13  304.42   33.18
  -2  -7  13  291.81   38.83
  -2  -7  13  278.22   33.35
   1   7 -13   -2.00   16.54
   1   7 -13   13.60   11.96
   1   7 -13    3.87   11.16
  -1  -7  13   15.23   16.36
   0   7 -13  280.46   32.27
   0   7 -13  272.91   29.52
   0  -7  13  334.27   35.90
  -1   7 -13   15.83   11.64
  -1   7 -13   -5.73   13.15
  -1   7 -13   -8.52   13.22
   1  -7  13    2.12   11.02
  -2   7 -13  277.24   31.46
  -2   7 -13  308.29   31.45
  -2   7 -13  325.55   29.86
   2  -7  13  256.26   31.10
  -3   7 -13   12.90   14.50
  -3   7 -13    1.52   15.55
  -3   7 -13   21.90   14.61
   3  -7  13    5.31   15.61
  -4   7 -13  258.02   29.85
  -4   7 -13  225.63   25.40
   4  -7  13  191.58   28.04
  -5   7 -13    6.30   11.92
  -5   7 -13    8.71   14.58
   5  -7  13   -9.97   11.38
   3   6 -13  267.72   30.70
  -3  -6  13  260.26   31.74
  -3  -6  13  272.83   31.70
   2   6 -13    0.64   10.58
  -2  -6  13    9.67   14.82
  -2  -6  13    4.36   11.03
   1   6 -13  338.42   33.18
   1   6 -13  391.30   37.18
  -1  -6  13  363.20   35.83
   0   6 -13   -5.21    8.51
   0   6 -13   -6.20   14.98
   0   6 -13  -13.18   12.43
   0  -6  13  -26.09   12.43
  -1   6 -13  337.79   31.57
  -1   6 -13  364.49   32.81
  -1   6 -13  342.02   34.75
   1  -6  13  359.95   35.18
  -2   6 -13   -7.56   11.10
  -2   6 -13    6.09   13.94
  -2   6 -13   -0.31   12.43
   2  -6  13   -9.18   13.10
  -3   6 -13  307.56   29.91
  -3   6 -13  253.55   30.05
  -3   6 -13  327.61   29.45
   3  -6  13  289.31   33.40
  -4   6 -13   16.00   13.55
  -4   6 -13   -1.96   14.61
  -4   6 -13    7.51   12.00
   4  -6  13    6.30   11.03
  -5   6 -13  192.73   23.30
  -5   6 -13  265.29   32.28
   5  -6  13  237.18   30.31
  -6   6 -13   -6.17   15.57
  -6   6 -13    5.27   10.76
   6  -6  13    7.18   18.00
   4   5 -13  236.98   32.74
  -4  -5  13  254.48   33.10
  -4  -5  13  244.22   30.57
  -3  -5  13   -6.97   12.69
  -3  -5  13  -12.27   12.74
  -3  -5  13  -16.20   12.20
   2   5 -13  312.74   30.08
  -2  -5  13  296.78   28.39
  -2  -5  13  235.53   27.60
  -2  -5  13  244.71   31.60
  -2  -5  13  350.34   33.12
  -2  -5  13  326.52   31.37
   1   5 -13    6.09    9.44
   1   5 -13   -5.36   10.61
   1   5 -13   10.17   13.15
  -1  -5  13    1.76   12.82
  -1  -5  13  -14.31   13.46
   0   5 -13  394.11   37.22
   0   5 -13  596.20   44.92
   0   5 -13  462.81   38.53
   0  -5  13  372.85   46.97
   0  -5  13  503.48   41.75
   0  -5  13  529.33   44.18
  -1   5 -13  -17.69   11.27
  -1   5 -13    2.93    8.78
  -1   5 -13    6.51   12.95
   1  -5  13    0.30    8.94
   1  -5  13   -1.39   12.98
  -2   5 -13  389.54   33.01
  -2   5 -13  362.50   35.14
  -2   5 -13  326.64   30.26
   2  -5  13  333.78   33.50
   2  -5  13  307.55   34.40
  -3   5 -13    6.72   12.15
  -3   5 -13    2.05   13.13
  -3   5 -13    2.23   11.23
   3  -5  13   -6.65    9.77
   3  -5  13   -3.66   14.86
  -4   5 -13  328.27   30.16
  -4   5 -13  331.74   30.48
  -4   5 -13  286.65   30.77
   4  -5  13  306.55   33.00
  -5   5 -13   -0.13   11.40
  -5   5 -13    4.31   12.22
  -5   5 -13   -7.69    9.07
   5  -5  13   -3.46   10.04
  -6   5 -13  178.43   25.32
  -6   5 -13  170.46   22.57
   6  -5  13  184.65   28.79
  -7   5 -13    3.02   19.07
   7  -5  13   30.18   15.16
   7  -5  13    4.99   13.48
   4   4 -13   -0.09   12.43
   4   4 -13   -8.83   15.35
  -4  -4  13   -2.39   15.11
  -4  -4  13  -11.21   10.42
  -3  -4  13  298.55   30.74
  -3  -4  13  263.27   31.78
  -3  -4  13  316.68   31.57
  -3  -4  13  290.57   30.60
   2   4 -13   -1.28    9.46
  -2  -4  13   -5.59   11.20
  -2  -4  13    3.52   13.43
  -2  -4  13   24.49   13.59
  -2  -4  13   -6.84   10.80
  -2  -4  13    3.54   12.34
   1   4 -13  482.09   40.46
   1   4 -13  481.87   35.08
   1   4 -13  385.65   33.95
   1   4 -13  459.06   37.90
  -1  -4  13  484.21   36.97
  -1  -4  13  521.50   35.00
  -1  -4  13  501.64   36.28
  -1  -4  13  435.31   38.09
   0   4 -13    5.89   11.65
   0   4 -13   12.08   10.51
   0   4 -13   -8.91   11.07
   0  -4  13   13.72    9.73
   0  -4  13    1.78   12.43
   0  -4  13   -3.20   11.10
  -1   4 -13  525.16   37.13
  -1   4 -13  417.89   36.87
  -1   4 -13  575.61   39.42
   1  -4  13  496.79   38.19
   1  -4  13  506.28   37.96
  -2   4 -13    9.31    9.11
  -2   4 -13  -17.55   10.02
  -2   4 -13    8.23   12.62
   2  -4  13   -6.54   13.22
   2  -4  13    7.10   12.19
  -3   4 -13  418.73   34.52
  -3   4 -13  397.63   32.99
  -3   4 -13  383.55   36.24
   3  -4  13  414.80   37.59
   3  -4  13  361.81   36.70
  -4   4 -13   -2.42   11.39
  -4   4 -13    8.02    9.79
  -4   4 -13   -9.08   10.90
   4  -4  13   -3.94   12.50
   4  -4  13  -11.07   14.36
  -5   4 -13  293.37   32.40
  -5   4 -13  253.30   27.61
  -5   4 -13  270.17   26.45
   5  -4  13  280.50   32.85
  -6   4 -13   -3.78   11.49
  -6   4 -13  -10.30   12.41
  -6   4 -13    9.00   11.21
   6  -4  13   -8.68   11.10
   6  -4  13  -10.30   12.08
  -7   4 -13  138.69   21.99
  -7   4 -13  138.70   25.38
   7  -4  13  180.47   28.02
   7  -4  13  126.75   21.40
   5   3 -13   -4.03   17.94
   5   3 -13   -0.26   12.36
  -5  -3  13   -5.10   16.74
   4   3 -13  397.57   36.61
   4   3 -13  347.45   33.40
   4   3 -13  445.40   40.46
  -4  -3  13  340.94   34.98
  -4  -3  13  393.53   37.38
   3   3 -13   23.35   15.56
   3   3 -13    2.36   11.69
  -3  -3  13   10.61   13.98
   2   3 -13  546.42   41.08
   2   3 -13  509.37   41.11
   2   3 -13  534.36   35.65
  -2  -3  13  425.56   37.19
  -2  -3  13  512.65   37.99
  -2  -3  13  414.18   39.12
   1   3 -13  -11.26   13.11
   1   3 -13  -19.20   10.95
   1   3 -13   11.39    8.54
  -1  -3  13  -24.35   12.09
  -1  -3  13    0.55   10.23
  -1  -3  13   -6.73   11.65
  -1  -3  13    0.91    9.86
   0   3 -13  644.33   40.80
   0   3 -13  710.46   45.89
   0   3 -13  735.02   46.20
   0  -3  13  701.00   44.99
   0  -3  13  633.16   44.03
  -1   3 -13    6.82    8.02
  -1   3 -13   -9.39   10.65
  -1   3 -13   -9.26    8.27
  -1   3 -13   -4.25    7.78
   1  -3  13   -3.45   10.73
   1  -3  13    2.15   11.66
  -2   3 -13  459.88   39.99
  -2   3 -13  465.85   33.98
  -2   3 -13  531.99   35.88
  -2   3 -13  505.13   32.22
   2  -3  13  566.38   38.70
   2  -3  13  538.61   38.03
  -3   3 -13  -13.63   10.39
  -3   3 -13   -3.27    8.68
  -3   3 -13    4.10   11.03
  -3   3 -13   -8.11    5.84
   3  -3  13    0.42   12.36
   3  -3  13  -17.28   11.58
  -4   3 -13  339.14   30.70
  -4   3 -13  369.50   33.10
  -4   3 -13  345.53   29.52
   4  -3  13  351.51   34.87
   4  -3  13  313.66   32.22
  -5   3 -13   17.46   11.10
  -5   3 -13   30.65   11.85
  -5   3 -13   -4.14    7.89
   5  -3  13    3.70   10.14
   5  -3  13    2.43   14.46
   5  -3  13    2.72   15.50
  -6   3 -13  288.60   28.23
  -6   3 -13  196.18   25.37
  -6   3 -13  211.71   22.53
   6  -3  13  221.03   23.74
   6  -3  13  191.83   27.90
  -7   3 -13    2.69   14.53
  -7   3 -13   -1.26   14.69
   7  -3  13    8.20   12.36
   7  -3  13  -16.30   11.24
  -8   3 -13   87.79   19.62
  -8   3 -13   76.21   20.20
   8  -3  13  102.27   20.62
   8  -3  13   63.21   19.35
   5   2 -13  329.45   30.61
   5   2 -13  213.31   31.09
   5   2 -13  318.47   34.11
  -5  -2  13  311.37   33.57
   4   2 -13  -14.07   14.03
   4   2 -13  -22.17   13.25
   4   2 -13  -11.73    8.04
  -4  -2  13    7.29   15.02
   3   2 -13  390.89   36.69
   3   2 -13  355.98   31.98
   3   2 -13  308.39   32.20
  -3  -2  13  393.11   36.72
   2   2 -13   11.16    9.32
   2   2 -13    7.32   12.37
   2   2 -13  -13.30   11.95
  -2  -2  13   -3.14    8.90
  -2  -2  13    0.59   13.51
  -2  -2  13    6.87   12.74
   1   2 -13  520.96   37.36
   1   2 -13  474.72   40.41
   1   2 -13  530.92   34.95
   1   2 -13  487.60   34.54
  -1  -2  13  484.36   41.75
  -1  -2  13  511.27   38.65
  -1  -2  13  531.37   35.20
   0   2 -13    5.78    9.09
   0   2 -13    1.73    6.93
   0   2 -13   -9.21   10.54
   0  -2  13   19.09   11.10
   0  -2  13   10.44   10.29
  -1   2 -13  688.27   40.94
  -1   2 -13  736.68   46.50
  -1   2 -13  686.14   46.13
   1  -2  13  687.51   44.05
   1  -2  13  670.71   43.75
  -2   2 -13   10.79   11.64
  -2   2 -13   -4.88    7.58
  -2   2 -13   -1.06    7.71
   2  -2  13   -7.97   10.28
   2  -2  13   -0.63   10.56
  -3   2 -13  479.23   38.97
  -3   2 -13  490.36   29.68
  -3   2 -13  537.27   34.28
  -3   2 -13  417.49   37.39
   3  -2  13  465.69   35.98
   3  -2  13  454.23   35.33
  -4   2 -13    1.13   12.51
  -4   2 -13  -15.59    9.51
  -4   2 -13    7.69    8.23
   4  -2  13   -7.93   11.97
   4  -2  13    1.59   12.29
  -5   2 -13  276.20   24.17
  -5   2 -13  262.82   27.13
  -5   2 -13  264.13   27.59
   5  -2  13  235.62   28.42
   5  -2  13  193.01   26.90
   5  -2  13  259.92   23.27
  -6   2 -13   -7.59    8.97
  -6   2 -13    6.04   10.13
   6  -2  13   -9.02   17.42
   6  -2  13   10.12   14.34
   6  -2  13    4.28   10.95
  -7   2 -13  183.89   25.17
  -7   2 -13  140.56   23.11
   7  -2  13  148.97   25.64
   7  -2  13  106.16   19.07
  -8   2 -13   -4.56   11.44
  -8   2 -13  -12.70   13.58
  -8   2 -13    8.33   15.92
   8  -2  13   -1.60   13.53
   8  -2  13  -31.10   15.51
   5   1 -13   -7.67   15.40
   5   1 -13   17.92   17.11
   5   1 -13    4.31   11.36
  -5  -1  13  -10.18   15.59
   4   1 -13  387.64   34.91
   4   1 -13  415.39   39.32
   4   1 -13  422.00   38.22
  -4  -1  13  443.61   40.84
   3   1 -13   -1.92   13.03
   3   1 -13   -8.84    7.80
   3   1 -13  -12.61   13.00
  -3  -1  13    5.37   14.36
   2   1 -13  509.21   42.11
   2   1 -13  441.50   32.33
   2   1 -13  514.46   34.39
  -2  -1  13  507.68   41.78
  -2  -1  13  432.24   41.14
   1   1 -13    2.48    8.63
   1   1 -13    4.55    9.60
   1   1 -13   -0.18   10.13
   1   1 -13   11.18    8.24
  -1  -1  13    4.53   10.17
  -1  -1  13   -2.23    8.56
  -1  -1  13   -9.29   11.12
   0   1 -13  656.09   44.51
   0   1 -13  646.29   43.32
   0   1 -13  668.67   41.38
   0  -1  13  680.25   42.17
  -1   1 -13   -8.60   10.66
  -1   1 -13    6.57    9.08
  -1   1 -13    4.34    9.41
   1  -1  13   -0.13    9.59
   1  -1  13    4.54    8.91
  -2   1 -13  559.73   34.71
  -2   1 -13  522.74   37.79
  -2   1 -13  566.71   38.01
   2  -1  13  587.08   37.36
   2  -1  13  545.49   38.57
  -3   1 -13    8.65   12.64
  -3   1 -13    8.57    7.44
  -3   1 -13   14.41    8.88
   3  -1  13   -2.61   10.24
   3  -1  13    4.99    8.98
  -4   1 -13  404.37   25.62
  -4   1 -13  400.36   34.13
  -4   1 -13  361.66   33.14
   4  -1  13  378.43   34.26
   4  -1  13  442.24   37.33
  -5   1 -13   -4.06   11.79
  -5   1 -13    3.16    9.38
   5  -1  13   -4.32   12.35
   5  -1  13    6.73   13.59
  -6   1 -13  202.26   24.50
  -6   1 -13  255.12   27.71
   6  -1  13  199.68   27.91
   6  -1  13  169.28   26.29
  -7   1 -13   -0.19   13.66
  -7   1 -13   22.15   12.18
  -7   1 -13  -21.51   14.06
   7  -1  13   -5.10   16.47
  -8   1 -13   91.90   18.36
  -8   1 -13   69.40   21.12
  -8   1 -13  102.78   21.31
   8  -1  13   78.12   23.62
   5   0 -13  357.43   34.74
   5   0 -13  438.89   36.97
   5   0 -13  360.29   35.12
  -5   0  13  351.60   38.84
   4   0 -13    1.32   14.96
   4   0 -13   10.61   10.15
  -4   0  13   -0.75   15.24
   3   0 -13  491.68   35.30
   3   0 -13  541.32   42.05
   3   0 -13  550.23   44.88
  -3   0  13  488.68   43.90
   2   0 -13   -1.77    8.66
   2   0 -13   -6.05    7.50
   2   0 -13    8.54   11.21
  -2   0  13  -13.97   13.65
  -2   0  13   13.97   13.21
   1   0 -13  711.62   44.84
   1   0 -13  587.52   43.21
   1   0 -13  692.78   41.86
   1   0 -13  658.35   42.17
  -1   0  13  746.63   48.39
  -1   0  13  637.08   46.28
  -1   0  13  673.14   41.24
   0   0 -13   -4.19    7.87
   0   0 -13   13.72    9.71
   0   0 -13   -1.01    8.84
   0   0 -13   -5.59   10.40
   0   0  13   -4.03    8.50
   0   0  13  -12.40   11.18
  -1   0 -13  645.78   42.90
  -1   0 -13  620.56   42.03
  -1   0 -13  628.79   38.74
   1   0  13  605.56   40.13
  -2   0 -13    3.74    8.51
  -2   0 -13   -0.55    7.93
  -2   0 -13   -8.72   10.92
   2   0  13    3.91   10.43
   2   0  13   -9.19    8.02
  -3   0 -13  529.42   34.03
  -3   0 -13  565.26   39.03
  -3   0 -13  540.94   37.60
   3   0  13  533.81   37.15
   3   0  13  612.30   35.23
   3   0  13  660.99   41.19
  -4   0 -13   -3.90    7.47
  -4   0 -13    2.83    6.29
  -4   0 -13  -10.75   11.10
   4   0  13   30.24   13.35
   4   0  13   -7.71   10.30
   4   0  13   -4.13    8.73
  -5   0 -13  421.36   36.50
  -5   0 -13  414.03   35.35
   5   0  13  319.47   32.52
   5   0  13  409.48   31.65
   5   0  13  430.38   36.92
  -6   0 -13   -2.17   12.16
  -6   0 -13    3.24   14.22
  -6   0 -13   -1.82    8.92
   6   0  13  -17.35   13.13
   6   0  13  -15.80   14.06
   6   0  13   -2.21    7.36
  -7   0 -13  125.33   22.07
  -7   0 -13  130.70   21.48
  -7   0 -13  140.54   18.34
   7   0  13   75.32   21.62
   7   0  13  149.31   19.54
  -8   0 -13   -5.78    9.64
  -8   0 -13    3.31   12.44
  -8   0 -13    2.65   13.96
   8   0  13    4.30   14.61
   8   0  13  -34.53   14.86
   5  -1 -13   16.76   17.03
   5  -1 -13   -0.99   15.06
  -5   1  13    6.98   17.97
   4  -1 -13  369.49   35.48
   4  -1 -13  323.89   33.87
   4  -1 -13  377.68   32.71
  -4   1  13  404.50   38.92
   3  -1 -13   -3.12   12.84
   3  -1 -13    3.82   12.29
   3  -1 -13    8.72   13.10
  -3   1  13   -5.09   10.21
   2  -1 -13  461.02   32.11
   2  -1 -13  403.14   36.45
   2  -1 -13  435.52   31.71
  -2   1  13  466.22   41.55
  -2   1  13  520.79   37.09
   1  -1 -13  -10.42    7.23
   1  -1 -13    0.69    7.88
   1  -1 -13   -6.32    8.67
  -1   1  13    5.00   10.02
  -1   1  13   -5.41   13.53
   0  -1 -13  779.25   47.78
   0  -1 -13  667.24   41.87
   0  -1 -13  721.09   42.52
   0  -1 -13  740.63   46.17
   0   1  13  657.01   41.91
   0   1  13  674.79   46.35
  -1  -1 -13   -3.12    8.62
  -1  -1 -13   11.44    9.82
  -1  -1 -13   15.89    9.07
   1   1  13    4.43    8.51
  -2  -1 -13  540.80   39.26
  -2  -1 -13  587.71   36.33
  -2  -1 -13  627.05   40.06
   2   1  13  600.51   36.01
   2   1  13  571.17   38.98
  -3  -1 -13   -0.42    7.48
  -3  -1 -13   13.52   11.66
  -3  -1 -13   -0.82   10.74
   3   1  13   -4.99   10.33
   3   1  13   -5.02    7.67
   3   1  13    2.38   10.68
  -4  -1 -13  474.73   36.66
  -4  -1 -13  477.46   37.79
  -4  -1 -13  405.42   26.35
   4   1  13  403.79   31.13
   4   1  13  400.55   28.72
   4   1  13  356.43   33.96
  -5  -1 -13   11.55    9.87
  -5  -1 -13    9.16   12.14
  -5  -1 -13    5.61    8.38
   5   1  13   -9.06   13.25
   5   1  13  -24.11   11.28
   5   1  13    9.52   10.63
  -6  -1 -13  155.03   22.55
  -6  -1 -13  203.04   26.39
  -6  -1 -13  230.08   21.64
   6   1  13  293.62   26.42
   6   1  13  197.95   24.83
   6   1  13  231.67   27.68
  -7  -1 -13   -5.17   10.29
  -7  -1 -13  -24.34   11.79
  -7  -1 -13   13.10   11.12
   7   1  13   -3.42   12.37
   7   1  13  -13.10   15.11
  -8  -1 -13  117.96   18.89
  -8  -1 -13   97.68   17.95
   8   1  13   75.74   19.13
   8   1  13   56.24   23.50
   5  -2 -13  357.46   32.67
   5  -2 -13  284.49   32.78
  -5   2  13  292.49   37.10
   4  -2 -13    4.47   10.81
   4  -2 -13   -2.71   14.39
   4  -2 -13  -12.07    9.37
  -4   2  13    6.48   16.33
   3  -2 -13  385.43   35.23
   3  -2 -13  425.36   35.47
   3  -2 -13  318.93   30.76
  -3   2  13  413.00   38.67
   2  -2 -13  -12.38   10.65
   2  -2 -13    0.68   12.89
   2  -2 -13    4.11    8.88
  -2   2  13   -4.86   13.56
   1  -2 -13  482.81   33.00
   1  -2 -13  486.94   35.51
   1  -2 -13  494.72   37.55
  -1   2  13  509.79   42.75
  -1   2  13  440.94   41.93
   0  -2 -13    8.83   10.62
   0  -2 -13   -4.30    7.79
   0  -2 -13  -11.45    7.05
   0  -2 -13   24.48   12.82
   0   2  13    7.39    9.52
   0   2  13   -9.64    7.66
  -1  -2 -13  725.58   42.86
  -1  -2 -13  632.02   43.40
  -1  -2 -13  682.93   45.09
  -1  -2 -13  760.12   40.72
   1   2  13  667.07   47.01
   1   2  13  652.76   42.27
  -2  -2 -13   16.61   11.65
  -2  -2 -13    0.89    8.29
  -2  -2 -13   -8.29    8.28
   2   2  13    7.55    8.55
   2   2  13    1.52    9.95
  -3  -2 -13  492.54   31.17
  -3  -2 -13  507.79   34.07
  -3  -2 -13  379.08   36.71
   3   2  13  458.16   31.21
   3   2  13  497.38   35.51
  -4  -2 -13   -3.63    6.79
  -4  -2 -13  -12.40    7.47
  -4  -2 -13    8.04    9.94
  -4  -2 -13    0.96    7.35
   4   2  13    0.98    8.72
   4   2  13    0.06    7.34
   4   2  13    0.86   16.52
  -5  -2 -13  258.74   23.43
  -5  -2 -13  321.74   30.62
  -5  -2 -13  263.46   26.52
   5   2  13  254.58   28.73
   5   2  13  270.74   25.97
   5   2  13  281.54   31.38
  -6  -2 -13  -14.59   10.22
  -6  -2 -13   -0.68    9.99
  -6  -2 -13    0.29    9.86
   6   2  13  -15.27   13.87
   6   2  13   -1.72   11.64
   6   2  13   11.55   16.42
  -7  -2 -13  156.05   19.20
  -7  -2 -13  131.08   20.57
   7   2  13   77.87   18.48
   7   2  13  104.16   21.58
  -8  -2 -13   -0.45   15.05
  -8  -2 -13    9.73   13.97
   8   2  13   -3.45   18.25
   8   2  13   -2.27   14.21
   5  -3 -13    6.95   17.71
   5  -3 -13   -5.29   11.05
  -5   3  13    4.70   19.35
   4  -3 -13  343.85   32.67
   4  -3 -13  357.64   33.82
   4  -3 -13  348.22   36.32
  -4   3  13  452.61   41.90
   3  -3 -13   -3.58   12.98
   3  -3 -13  -11.66   12.45
   3  -3 -13  -21.34   11.08
  -3   3  13    6.98   12.85
   2  -3 -13  421.47   34.69
   2  -3 -13  440.32   37.05
   2  -3 -13  467.93   38.71
  -2   3  13  568.93   45.66
   1  -3 -13   -8.19   11.71
   1  -3 -13   15.20   10.42
   1  -3 -13   -5.10    7.02
  -1   3  13    9.32   14.64
  -1   3  13    6.29   10.51
   0  -3 -13  697.03   46.32
   0  -3 -13  656.49   41.92
   0   3  13  686.79   48.05
  -1  -3 -13   14.96   13.04
  -1  -3 -13   -2.69    6.84
  -1  -3 -13   -1.17    7.45
   1   3  13    5.73    9.52
   1   3  13   -1.77    8.64
   1   3  13    1.89    9.72
  -2  -3 -13  527.09   35.54
  -2  -3 -13  545.95   39.45
  -2  -3 -13  473.84   34.02
   2   3  13  588.86   37.07
   2   3  13  547.81   34.64
   2   3  13  484.00   37.52
  -3  -3 -13    9.79   10.18
  -3  -3 -13    6.31   12.71
  -3  -3 -13    7.92    9.28
   3   3  13    1.85   10.23
   3   3  13  -22.96    9.76
   3   3  13   -0.27    8.77
  -4  -3 -13  359.57   28.15
  -4  -3 -13  404.12   35.74
  -4  -3 -13  422.07   26.69
  -4  -3 -13  369.26   30.99
   4   3  13  360.77   30.76
   4   3  13  350.74   34.07
  -5  -3 -13   -0.93    9.92
  -5  -3 -13   20.64   11.92
  -5  -3 -13   17.96   11.46
   5   3  13    4.60   11.07
   5   3  13   19.40   12.05
  -6  -3 -13  242.89   23.73
  -6  -3 -13  203.75   24.53
   6   3  13  213.00   27.53
   6   3  13  239.87   26.23
  -7  -3 -13    5.58   13.48
   7   3  13   -1.34   13.65
   7   3  13   32.37   20.62
  -8  -3 -13  116.47   20.27
   8   3  13   73.37   21.14
   8   3  13   63.66   19.48
   4  -4 -13  -18.52   14.04
   4  -4 -13   14.90   15.76
   4  -4 -13   -6.09   14.24
  -4   4  13   20.19   19.70
   3  -4 -13  400.23   33.99
   3  -4 -13  303.77   32.53
   3  -4 -13  294.04   30.11
  -3   4  13  329.29   36.62
   2  -4 -13   -1.65   11.34
   2  -4 -13    5.37    9.67
   2  -4 -13    8.09   13.85
  -2   4  13   11.12   12.01
   1  -4 -13  485.96   38.56
   1  -4 -13  506.46   34.20
   1  -4 -13  506.13   41.52
  -1   4  13  502.34   45.36
   0  -4 -13   -9.07    7.31
   0  -4 -13    8.27   12.52
   0   4  13    1.45   10.20
   0   4  13   -0.57   13.50
  -1  -4 -13  520.38   36.54
  -1  -4 -13  517.12   35.05
   1   4  13  412.48   37.50
   1   4  13  551.27   40.11
   1   4  13  495.60   33.74
  -2  -4 -13   -3.65   11.73
  -2  -4 -13   -0.74    9.64
  -2  -4 -13    3.33   10.18
   2   4  13   -3.06    9.99
   2   4  13   -9.96   12.03
   2   4  13    3.49   10.48
  -3  -4 -13  434.48   36.34
  -3  -4 -13  373.01   26.43
  -3  -4 -13  395.48   28.62
  -3  -4 -13  369.94   30.76
   3   4  13  390.02   32.30
   3   4  13  387.06   36.32
   3   4  13  462.21   37.09
  -4  -4 -13   -3.50   10.03
  -4  -4 -13    6.50   10.85
  -4  -4 -13   -8.28   10.06
  -4  -4 -13   11.92   14.18
   4   4  13   -1.12    8.82
   4   4  13  -17.64   12.03
   4   4  13    3.24   11.45
  -5  -4 -13  279.45   26.33
  -5  -4 -13  286.90   31.82
  -5  -4 -13  224.85   22.29
   5   4  13  249.12   28.52
   5   4  13  239.16   26.29
  -6  -4 -13   19.36   14.22
   6   4  13  -10.74   10.58
   6   4  13    1.24    9.86
  -7  -4 -13  129.51   20.78
  -7  -4 -13  205.87   29.03
   7   4  13  102.37   22.69
   7   4  13  136.70   23.46
   4  -5 -13  272.58   31.49
   4  -5 -13  261.94   29.86
   4  -5 -13  243.30   27.82
  -4   5  13  286.13   34.98
   3  -5 -13   18.39   12.40
   3  -5 -13    4.44   14.58
   3  -5 -13    5.61   14.41
  -3   5  13   -8.78   16.96
   2  -5 -13  366.66   32.29
   2  -5 -13  316.16   29.39
   2  -5 -13  331.12   32.73
  -2   5  13  384.18   37.74
   1  -5 -13   -6.23   12.43
   1  -5 -13  -12.85   13.14
  -1   5  13   -1.67   12.11
   0  -5 -13  484.49   37.34
   0  -5 -13  433.08   37.72
   0   5  13  471.76   42.83
   0   5  13  492.41   33.94
  -1  -5 -13   10.98    9.79
  -1  -5 -13  -11.53   12.23
   1   5  13   14.28   14.67
   1   5  13   -7.81   11.30
  -2  -5 -13  403.52   35.52
  -2  -5 -13  365.79   30.54
  -2  -5 -13  329.90   28.07
   2   5  13  360.82   34.11
   2   5  13  388.81   32.37
   2   5  13  381.66   32.42
  -3  -5 -13    8.23   10.98
  -3  -5 -13   -8.01   13.56
  -3  -5 -13    6.65   10.23
   3   5  13  -25.67   11.70
   3   5  13   13.85   13.37
   3   5  13   16.22   12.51
  -4  -5 -13  356.03   28.74
  -4  -5 -13  321.48   29.19
  -4  -5 -13  288.16   31.49
   4   5  13  331.13   32.02
   4   5  13  315.36   33.60
   4   5  13  392.47   34.63
  -5  -5 -13   -7.66   10.02
  -5  -5 -13   -4.70   10.79
  -5  -5 -13    7.21   11.54
   5   5  13   -4.70   15.81
   5   5  13   19.45   13.56
   5   5  13   11.42   10.78
  -6  -5 -13  151.69   21.92
   6   5  13  167.88   24.06
   6   5  13  161.33   23.51
   6   5  13  155.58   28.56
  -7  -5 -13  -12.43   18.25
  -7  -5 -13   13.56   14.39
   7   5  13  -20.58   19.21
   7   5  13    1.86   11.16
   3  -6 -13  274.75   31.37
   3  -6 -13  233.63   28.98
   3  -6 -13  292.07   30.65
  -3   6  13  296.82   35.46
   2  -6 -13    5.09   14.01
   2  -6 -13    2.37   15.25
  -2   6  13   -5.70   11.89
   1  -6 -13  364.64   32.38
   1  -6 -13  409.31   35.18
  -1   6  13  352.98   32.76
  -1   6  13  302.15   34.65
   0  -6 -13   -4.60   12.20
   0  -6 -13    4.58   13.01
   0   6  13    7.57   12.06
   0   6  13    1.46   12.19
  -1  -6 -13  452.74   37.85
  -1  -6 -13  468.76   40.34
   1   6  13  458.76   37.91
   1   6  13  451.95   41.83
  -2  -6 -13    2.67   12.32
  -2  -6 -13    4.82   10.55
  -2  -6 -13   -5.95   12.40
   2   6  13   12.95   15.73
   2   6  13   -0.40   13.31
  -3  -6 -13  263.47   24.80
  -3  -6 -13  292.50   31.87
  -3  -6 -13  283.15   28.19
   3   6  13  297.32   30.95
   3   6  13  301.85   29.30
   3   6  13  302.08   31.56
  -4  -6 -13   -1.86   11.52
  -4  -6 -13   14.74   12.31
  -4  -6 -13  -15.96    9.66
   4   6  13   -5.70    9.03
   4   6  13    9.41   15.20
   4   6  13    1.96   10.18
  -5  -6 -13  193.47   26.36
  -5  -6 -13  211.58   24.56
  -5  -6 -13  206.86   24.64
   5   6  13  224.47   27.85
   5   6  13  191.34   29.11
   5   6  13  218.60   26.52
  -6  -6 -13   -6.68   13.84
   6   6  13   -0.66   15.18
   6   6  13    5.27   19.17
   2  -7 -13  297.03   32.09
  -2   7  13  227.42   31.42
   1  -7 -13   15.01   14.84
   1  -7 -13    0.24   11.29
  -1   7  13   -9.45   13.29
  -1   7  13  -12.12   11.00
   0  -7 -13  302.48   30.78
   0  -7 -13  296.92   30.86
   0   7  13  280.45   30.13
   0   7  13  273.94   34.09
  -1  -7 -13   -3.23   13.82
  -1  -7 -13   15.05   11.23
   1   7  13    8.33   16.21
   1   7  13    9.22   13.80
  -2  -7 -13  291.22   26.73
  -2  -7 -13  327.11   32.70
  -2  -7 -13  328.07   30.10
   2   7  13  256.74   30.12
   2   7  13  332.23   35.19
  -3  -7 -13   -7.10   13.39
  -3  -7 -13   17.05   15.72
  -3  -7 -13   -2.61   11.17
   3   7  13   -7.13   14.35
   3   7  13   -3.07   16.31
   3   7  13  -12.68   14.15
  -4  -7 -13  204.53   26.36
  -4  -7 -13  202.87   24.18
   4   7  13  214.95   27.38
   4   7  13  223.27   27.91
   4   7  13  172.59   26.35
  -5  -7 -13   -1.05   14.09
  -5  -7 -13   17.10   13.56
   5   7  13  -14.88   16.27
   5   7  13    3.95   11.77
   1  -8 -13  193.63   25.06
  -1   8  13  182.02   30.79
  -1   8  13  173.44   25.61
   0  -8 -13   -7.64   14.57
   0  -8 -13   37.11   17.56
   0   8  13    0.28   14.68
   0   8  13   -4.81   17.97
  -1  -8 -13  262.31   26.83
  -1  -8 -13  243.53   28.80
  -1  -8 -13  211.77   26.98
   1   8  13  276.06   31.05
   1   8  13  222.79   31.20
  -2  -8 -13    2.92   12.13
  -2  -8 -13    4.79   15.25
  -2  -8 -13    2.98   14.45
   2   8  13  -15.99   15.57
   2   8  13   -2.81   11.41
  -3  -8 -13  216.77   26.90
  -3  -8 -13  272.96   31.42
   3   8  13  230.05   29.85
   3   8  13  277.64   31.72
  -4  -8 -13   -5.78   13.85
  -4  -8 -13  -10.25   17.00
   4   8  13   -7.29   10.88
   4   8  13   -3.31   16.94
   0   7 -14    2.17   11.77
   0   7 -14   -1.04   16.17
   0  -7  14   -0.35   16.84
  -1   7 -14  187.17   27.45
  -1   7 -14  217.95   30.06
  -1   7 -14  260.90   28.43
   1  -7  14  197.96   29.81
  -2   7 -14   -3.53   15.57
  -2   7 -14    5.59   15.05
  -2   7 -14  -12.54   13.69
   2  -7  14   18.99   18.12
  -3   7 -14  186.28   27.16
  -3   7 -14  210.64   27.92
   3  -7  14  216.30   29.36
  -4   7 -14    2.48   17.25
  -4   7 -14   12.28   11.97
   4  -7  14  -10.61   11.45
  -2  -6  14  288.99   34.28
   1   6 -14   -6.80   11.87
   1   6 -14   10.40   14.89
  -1  -6  14   -1.82   11.06
   0   6 -14  235.02   27.95
   0   6 -14  293.08   32.30
   0   6 -14  294.46   31.94
   0  -6  14  265.67   32.34
  -1   6 -14   19.31   13.17
  -1   6 -14  -10.24    9.54
  -1   6 -14   -4.46   13.43
   1  -6  14   19.70   16.23
  -2   6 -14  268.73   31.77
  -2   6 -14  326.21   32.76
  -2   6 -14  294.66   28.93
   2  -6  14  284.65   32.52
  -3   6 -14  -12.09    8.34
  -3   6 -14   -7.78    9.14
  -3   6 -14    9.50   15.15
   3  -6  14   -8.32   10.21
  -4   6 -14  222.48   26.92
  -4   6 -14  175.56   24.45
  -4   6 -14  258.91   31.00
   4  -6  14  222.03   29.41
  -5   6 -14   -2.36   11.25
  -5   6 -14   10.47   11.29
   5  -6  14    0.75   14.18
  -2  -5  14    2.47   13.84
  -2  -5  14   -5.16   13.95
   1   5 -14  280.06   31.23
   1   5 -14  242.08   29.64
   1   5 -14  265.73   28.71
  -1  -5  14  264.24   30.54
   0   5 -14   -4.18   13.10
   0   5 -14   -5.40    9.49
   0   5 -14    2.96   11.32
   0  -5  14    6.27   17.88
   0  -5  14   -2.24   13.28
  -1   5 -14  425.97   35.65
  -1   5 -14  438.80   36.18
  -1   5 -14  295.01   33.10
   1  -5  14  309.96   34.66
  -2   5 -14   17.69   11.19
  -2   5 -14  -19.81   11.26
  -2   5 -14    2.51   10.66
   2  -5  14   -4.11   14.19
  -3   5 -14  211.98   28.79
  -3   5 -14  246.65   27.30
  -3   5 -14  305.19   29.89
   3  -5  14  234.33   28.77
  -4   5 -14   -4.76   12.37
  -4   5 -14    3.62   13.15
  -4   5 -14   -7.03    9.31
   4  -5  14    3.93   11.13
  -5   5 -14  185.36   23.78
  -5   5 -14  152.90   26.27
  -5   5 -14  205.95   25.27
   5  -5  14  108.69   21.83
  -6   5 -14  -16.78   13.11
  -6   5 -14   -0.83   11.79
   6  -5  14    3.90   18.16
  -3  -4  14   -6.41   16.49
  -3  -4  14   -2.97   14.65
   2   4 -14  351.73   34.66
  -2  -4  14  311.99   35.29
  -2  -4  14  395.69   36.29
  -2  -4  14  415.62   34.80
   1   4 -14    2.70   11.96
   1   4 -14   -8.34   14.09
  -1  -4  14   -0.06   12.05
  -1  -4  14   12.63   15.76
   0   4 -14  356.19   33.89
   0   4 -14  322.66   32.04
   0   4 -14  303.18   30.68
   0  -4  14  326.21   31.83
   0  -4  14  438.75   35.76
   0  -4  14  358.91   35.81
  -1   4 -14   -8.57    8.62
  -1   4 -14   -5.50   11.79
  -1   4 -14  -11.11   12.26
   1  -4  14  -10.12   12.11
   1  -4  14   -7.90   14.47
  -2   4 -14  293.05   28.98
  -2   4 -14  274.48   29.41
  -2   4 -14  256.71   27.92
   2  -4  14  260.71   28.65
   2  -4  14  248.02   30.16
  -3   4 -14    2.25    9.28
  -3   4 -14   -6.92   12.87
  -3   4 -14   15.39   13.23
   3  -4  14    0.87   13.74
   3  -4  14    3.32   16.18
  -4   4 -14  264.65   27.72
  -4   4 -14  263.22   30.46
  -4   4 -14  247.55   27.70
   4  -4  14  315.70   34.50
  -5   4 -14    9.95   13.94
  -5   4 -14   25.68   16.24
  -5   4 -14    6.22   12.87
   5  -4  14   16.32   16.44
  -6   4 -14  132.86   22.65
  -6   4 -14  118.17   21.41
  -6   4 -14  131.47   19.90
   6  -4  14  111.08   24.83
  -7   4 -14   -5.92   16.28
  -7   4 -14    4.64   19.82
   7  -4  14    5.93   13.84
   4   3 -14   13.16   15.56
   3   3 -14  401.45   35.74
   3   3 -14  423.88   38.93
  -3  -3  14  354.03   37.44
   2   3 -14  -15.56   13.37
   2   3 -14   -7.17    8.19
  -2  -3  14    1.34   14.11
   1   3 -14  314.75   32.62
   1   3 -14  347.99   31.51
   1   3 -14  415.69   38.81
  -1  -3  14  443.73   35.27
  -1  -3  14  336.27   35.10
  -1  -3  14  448.09   39.53
   0   3 -14  -10.85    8.22
   0   3 -14   -6.73   10.72
   0   3 -14    1.14   14.14
   0  -3  14   -9.94    7.41
  -1   3 -14  371.62   31.16
  -1   3 -14  409.01   35.69
  -1   3 -14  333.47   35.36
   1  -3  14  449.84   36.77
   1  -3  14  417.88   36.58
  -2   3 -14    4.24    9.86
  -2   3 -14   -4.70    8.60
  -2   3 -14    0.86   11.69
  -2   3 -14    5.59   13.24
   2  -3  14   -2.66   11.82
   2  -3  14    1.39   13.28
  -3   3 -14  289.45   29.12
  -3   3 -14  236.63   28.63
  -3   3 -14  300.19   27.81
   3  -3  14  247.77   29.88
   3  -3  14  352.67   33.94
  -4   3 -14    4.26   13.12
  -4   3 -14   -8.81    9.26
  -4   3 -14   -5.64   11.09
   4  -3  14    7.04   15.47
   4  -3  14   -6.19   10.40
  -5   3 -14  191.03   25.47
  -5   3 -14  227.34   27.29
  -5   3 -14  206.58   23.32
   5  -3  14  243.02   28.87
  -6   3 -14   23.82   12.46
  -6   3 -14   -1.15   13.97
  -6   3 -14   -2.89   13.66
   6  -3  14    2.24   12.78
  -7   3 -14  111.75   24.18
  -7   3 -14   79.29   21.15
   7  -3  14  137.58   21.45
   7  -3  14  107.73   25.63
   4   2 -14  332.76   34.66
   4   2 -14  275.86   30.42
  -4  -2  14  339.52   36.10
   3   2 -14   22.60   16.42
   3   2 -14   32.91   14.49
   3   2 -14   -0.47   13.76
  -3  -2  14   15.22   14.91
   2   2 -14  366.54   35.44
   2   2 -14  418.05   35.02
   2   2 -14  391.68   33.27
  -2  -2  14  367.41   36.67
   1   2 -14   -1.23    8.11
   1   2 -14   -0.34   10.97
   1   2 -14    1.05   12.62
  -1  -2  14    2.53   15.16
  -1  -2  14    3.65   10.66
  -1  -2  14   21.20   14.64
   0   2 -14  364.66   34.33
   0   2 -14  440.25   36.96
   0   2 -14  333.56   30.06
   0  -2  14  380.36   33.29
  -1   2 -14   -1.96   11.96
  -1   2 -14    0.38    9.52
  -1   2 -14    6.44   10.30
   1  -2  14    3.36   11.76
  -2   2 -14  398.62   27.53
  -2   2 -14  344.28   32.53
  -2   2 -14  332.73   33.00
   2  -2  14  389.41   34.65
   2  -2  14  433.29   31.52
  -3   2 -14    9.30   10.00
  -3   2 -14   18.89   13.35
  -3   2 -14    9.18    8.62
   3  -2  14   -5.49   12.30
   3  -2  14   -9.26   12.17
  -4   2 -14  218.95   25.96
  -4   2 -14  232.91   27.19
   4  -2  14  144.42   23.72
   4  -2  14  210.82   25.85
  -5   2 -14   -6.43   12.98
  -5   2 -14    3.37   10.34
   5  -2  14   -2.53   10.34
   5  -2  14   -4.59   15.65
  -6   2 -14  138.39   23.03
  -6   2 -14  171.05   23.36
   6  -2  14  143.92   23.09
  -7   2 -14    3.28   16.50
  -7   2 -14   12.80   16.08
   7  -2  14  -17.14   12.17
   4   1 -14    9.82   11.62
   4   1 -14   17.83   16.88
  -4  -1  14   16.96   18.83
   3   1 -14  367.66   36.06
   3   1 -14  427.98   34.65
   3   1 -14  322.15   34.53
  -3  -1  14  392.22   39.22
   2   1 -14    7.26    9.24
   2   1 -14   -0.26    9.82
   2   1 -14   14.55   13.94
  -2  -1  14   14.64   15.01
   1   1 -14  398.60   33.39
   1   1 -14  339.94   33.23
   1   1 -14  398.91   35.06
   1   1 -14  336.50   29.28
  -1  -1  14  383.79   36.86
  -1  -1  14  272.33   36.54
   0   1 -14    6.42    9.50
   0   1 -14    5.41   11.80
   0   1 -14    1.60    9.38
   0  -1  14    6.05    9.98
  -1   1 -14  408.75   32.15
  -1   1 -14  460.73   38.83
  -1   1 -14  445.17   38.14
   1  -1  14  415.26   35.07
  -2   1 -14    2.77   12.82
  -2   1 -14   17.12   13.23
  -2   1 -14    2.04    9.12
   2  -1  14    7.42   12.29
  -3   1 -14  345.84   25.78
  -3   1 -14  352.32   31.84
  -3   1 -14  283.99   30.23
   3  -1  14  285.19   29.66
   3  -1  14  347.72   30.76
  -4   1 -14    0.93   13.20
  -4   1 -14   14.75   10.73
   4  -1  14   -7.38   12.35
   4  -1  14   19.11   14.06
  -5   1 -14  165.99   25.03
  -5   1 -14  262.05   28.41
   5  -1  14  218.78   25.10
   5  -1  14  215.94   26.58
   5  -1  14  142.99   24.34
  -6   1 -14    4.12   11.26
  -6   1 -14   18.18   15.05
   6  -1  14   -2.35   10.40
  -7   1 -14   85.75   18.25
  -7   1 -14  107.44   22.93
   7  -1  14  118.40   18.48
   7  -1  14   93.80   24.46
   4   0 -14  398.23   35.34
   4   0 -14  414.87   37.32
  -4   0  14  370.88   40.14
   3   0 -14    8.69   11.16
   3   0 -14    1.42   13.81
   3   0 -14  -10.85    9.60
  -3   0  14   -9.81   14.72
   2   0 -14  454.30   36.52
   2   0 -14  503.61   39.21
   2   0 -14  439.18   39.44
  -2   0  14  391.29   39.12
   1   0 -14   -6.10   11.20
   1   0 -14   -0.53   11.50
   1   0 -14   16.99   13.90
  -1   0  14   -3.20    9.67
   0   0 -14  491.67   31.60
   0   0 -14  392.27   37.48
   0   0 -14  428.19   37.17
   0   0  14  459.61   33.08
   0   0  14  460.39   41.49
  -1   0 -14   -1.05   12.08
  -1   0 -14    3.69   10.17
  -1   0 -14    6.94    9.15
   1   0  14    5.98   10.19
  -2   0 -14  348.64   31.36
  -2   0 -14  297.05   26.15
  -2   0 -14  299.49   30.63
   2   0  14  307.47   29.94
  -3   0 -14    0.91   11.81
  -3   0 -14    4.21   12.83
  -3   0 -14    0.52    8.56
   3   0  14    9.04   12.49
  -4   0 -14  325.82   30.10
  -4   0 -14  293.58   30.27
   4   0  14  274.98   28.69
   4   0  14  323.55   31.16
  -5   0 -14   27.64   15.21
  -5   0 -14  -15.26    8.95
   5   0  14    9.93   15.18
   5   0  14    6.11   11.10
   5   0  14    0.53   14.74
  -6   0 -14  178.96   24.70
  -6   0 -14  151.33   24.95
   6   0  14  129.65   20.80
   6   0  14  138.93   22.95
   6   0  14  136.77   24.77
  -7   0 -14  -17.77    9.72
  -7   0 -14   -5.69   14.20
   7   0  14    8.88   13.96
   7   0  14   14.48   19.37
  -8   0 -14   76.21   21.18
   8   0  14   89.64   21.76
   4  -1 -14  -16.12    9.92
   4  -1 -14   -8.97   15.23
  -4   1  14  -28.11   16.84
   3  -1 -14  382.56   36.71
   3  -1 -14  354.90   34.70
   3  -1 -14  422.70   35.21
  -3   1  14  379.09   38.83
   2  -1 -14   -5.26    9.46
   2  -1 -14   -4.87    8.70
   2  -1 -14   -0.03   12.36
  -2   1  14   18.13   17.34
   1  -1 -14  438.30   34.21
   1  -1 -14  425.30   33.93
   1  -1 -14  319.77   34.56
  -1   1  14  441.94   40.40
   0  -1 -14   11.63   11.17
   0  -1 -14   -2.12   12.49
   0  -1 -14    7.35   10.15
   0  -1 -14   -3.40   12.70
   0   1  14    3.00   10.56
  -1  -1 -14  398.98   36.67
  -1  -1 -14  367.89   31.80
  -1  -1 -14  384.24   35.12
   1   1  14  461.14   31.61
   1   1  14  483.28   40.94
  -2  -1 -14   -5.69    8.84
  -2  -1 -14   -4.21    7.52
  -2  -1 -14   -3.11    8.48
   2   1  14    0.31   10.89
  -3  -1 -14  362.94   27.33
  -3  -1 -14  387.74   33.58
  -3  -1 -14  299.72   30.29
   3   1  14  307.13   30.78
  -4  -1 -14    4.05   12.21
  -4  -1 -14   -1.38    9.29
  -4  -1 -14   -0.82    8.54
   4   1  14  -13.54    9.14
   4   1  14  -14.02   13.06
  -5  -1 -14  202.11   24.24
  -5  -1 -14  172.63   23.83
   5   1  14  184.91   22.08
   5   1  14  233.70   27.31
  -6  -1 -14    1.13   10.54
  -6  -1 -14   -3.59   12.46
   6   1  14   -4.20   16.57
   6   1  14   -6.75   12.19
   6   1  14    8.27   17.11
  -7  -1 -14   74.92   19.67
  -7  -1 -14  132.86   22.40
   7   1  14   86.28   20.90
   7   1  14  102.58   20.08
   4  -2 -14  295.63   31.19
   4  -2 -14  309.90   33.49
   4  -2 -14  275.97   29.39
  -4   2  14  299.26   34.88
   3  -2 -14  -10.02   14.59
   3  -2 -14    1.46   14.78
   3  -2 -14   15.40   14.54
  -3   2  14    3.11   13.51
   2  -2 -14  353.96   31.54
   2  -2 -14  369.25   36.19
   2  -2 -14  400.41   33.93
  -2   2  14  366.16   37.44
   1  -2 -14    5.70    8.91
   1  -2 -14    0.16   11.37
   1  -2 -14   -2.29    8.97
  -1   2  14    6.59   14.75
   0  -2 -14  403.73   37.65
   0  -2 -14  370.71   31.31
   0  -2 -14  460.93   34.71
   0   2  14  440.26   39.58
  -1  -2 -14    0.41    7.85
  -1  -2 -14   -9.24    7.35
  -1  -2 -14  -13.83   11.86
   1   2  14   -2.36   12.86
   1   2  14   -3.68    9.63
  -2  -2 -14  433.92   32.51
  -2  -2 -14  379.43   33.90
  -2  -2 -14  350.04   33.90
   2   2  14  419.74   39.72
   2   2  14  445.30   32.42
  -3  -2 -14    1.97    9.23
  -3  -2 -14   11.67    9.76
  -3  -2 -14   -4.38   11.32
   3   2  14    0.21    9.78
   3   2  14    8.51   13.02
  -4  -2 -14  145.90   21.36
  -4  -2 -14  189.07   18.55
  -4  -2 -14  181.34   21.12
   4   2  14  165.10   24.82
   4   2  14  186.34   24.37
  -5  -2 -14    3.82   10.86
  -5  -2 -14   -6.14   11.71
   5   2  14    7.56   15.29
   5   2  14   14.26   12.20
  -6  -2 -14  147.76   22.95
  -6  -2 -14  152.30   26.34
  -6  -2 -14  168.89   22.84
   6   2  14  119.30   20.41
   6   2  14  183.71   25.52
  -7  -2 -14    6.41   12.67
  -7  -2 -14   -0.20   14.18
  -7  -2 -14   -6.46   11.37
   7   2  14  -15.24   12.20
   7   2  14    0.39   14.28
   4  -3 -14  -10.78   15.03
   3  -3 -14  400.49   39.13
   3  -3 -14  376.78   36.09
   3  -3 -14  405.89   36.47
  -3   3  14  497.58   46.61
   2  -3 -14   -8.97   13.44
   2  -3 -14    2.86    9.61
   2  -3 -14    4.31   12.39
  -2   3  14    2.40   15.50
   1  -3 -14  414.58   38.02
   1  -3 -14  460.19   35.82
   1  -3 -14  387.08   32.05
  -1   3  14  354.52   38.26
   0  -3 -14   13.74   10.78
   0  -3 -14    0.80   11.62
   0   3  14    4.30   10.53
  -1  -3 -14  425.92   31.08
  -1  -3 -14  462.43   34.55
  -1  -3 -14  389.73   36.32
   1   3  14  410.31   39.26
  -2  -3 -14    4.11    8.55
  -2  -3 -14   -4.72    7.14
  -2  -3 -14    3.45    9.66
   2   3  14    2.04   11.36
   2   3  14    1.47   13.96
   2   3  14  -15.44    9.53
  -3  -3 -14  262.39   30.11
  -3  -3 -14  254.58   26.96
  -3  -3 -14  269.81   24.88
   3   3  14  307.90   31.13
   3   3  14  353.43   29.32
   3   3  14  265.97   28.61
  -4  -3 -14    6.94   10.53
  -4  -3 -14    6.69   10.07
  -4  -3 -14   -1.89   10.83
   4   3  14    2.05   11.80
   4   3  14   29.17   14.85
  -5  -3 -14  204.39   24.34
  -5  -3 -14  233.37   28.19
   5   3  14  242.98   26.45
   5   3  14  274.80   31.82
  -6  -3 -14   -6.42   11.08
  -6  -3 -14   -8.78   16.23
   6   3  14   -8.96   15.94
   6   3  14    5.00   14.22
  -7  -3 -14   81.75   19.73
  -7  -3 -14  109.30   20.06
   7   3  14  143.56   22.91
   7   3  14   82.35   24.97
   3  -4 -14   14.03   12.80
   3  -4 -14   -3.07   10.75
   3  -4 -14   -5.67   13.92
  -3   4  14    2.26   13.82
   2  -4 -14  345.37   32.83
   2  -4 -14  393.76   37.43
   2  -4 -14  348.06   34.47
  -2   4  14  462.72   43.47
   1  -4 -14   11.22   11.72
   1  -4 -14   -4.75    9.43
  -1   4  14   11.65   12.92
   0  -4 -14  316.94   31.14
   0  -4 -14  401.81   36.28
   0   4  14  381.36   36.81
  -1  -4 -14   23.18   12.97
  -1  -4 -14  -12.68   13.41
   1   4  14   -4.31   10.26
  -2  -4 -14  318.85   28.07
  -2  -4 -14  212.24   24.48
  -2  -4 -14  323.05   32.14
   2   4  14  304.22   28.18
   2   4  14  319.45   32.24
   2   4  14  258.06   27.89
  -3  -4 -14    1.88   10.47
  -3  -4 -14  -12.98    8.02
  -3  -4 -14   -2.15   10.04
   3   4  14   -2.45   11.10
   3   4  14    0.82   13.42
   3   4  14  -15.13   12.46
  -4  -4 -14  281.17   32.03
  -4  -4 -14  255.32   25.41
   4   4  14  236.49   29.75
   4   4  14  305.62   29.42
   4   4  14  328.31   32.11
  -5  -4 -14    1.23   16.82
  -5  -4 -14   -0.93   11.93
   5   4  14   -8.67   15.79
   5   4  14   25.20   15.56
   5   4  14   -1.96   13.95
  -6  -4 -14  116.86   21.80
  -6  -4 -14  178.23   22.05
   6   4  14  153.28   21.69
   6   4  14  183.43   27.31
  -7  -4 -14  -13.20   15.18
   7   4  14    8.52   17.35
   7   4  14  -18.47   13.64
   3  -5 -14  269.84   31.22
   2  -5 -14  -17.38   13.51
   2  -5 -14    2.35   15.57
  -2   5  14    1.37   17.48
   1  -5 -14  222.34   27.80
   1  -5 -14  318.25   32.60
  -1   5  14  251.57   30.64
   0  -5 -14   19.88   11.27
   0  -5 -14   -1.32   14.13
   0   5  14   12.62   12.97
  -1  -5 -14  332.74   30.83
  -1  -5 -14  320.91   32.12
   1   5  14  371.27   36.36
   1   5  14  321.33   30.41
  -2  -5 -14   14.21    9.68
  -2  -5 -14    8.24   10.62
   2   5  14  -21.80   13.24
   2   5  14   10.44   13.07
  -3  -5 -14  260.17   30.91
  -3  -5 -14  280.58   27.16
   3   5  14  244.99   28.21
   3   5  14  276.76   30.57
   3   5  14  269.30   30.11
  -4  -5 -14   20.62   12.38
  -4  -5 -14   17.25   12.62
   4   5  14    1.95   14.37
   4   5  14    9.80   14.25
   4   5  14    1.50   15.63
  -5  -5 -14  156.22   21.90
  -5  -5 -14  120.24   21.39
   5   5  14  180.87   25.15
   5   5  14  112.34   25.32
   5   5  14  118.91   22.06
  -6  -5 -14   28.39   16.66
  -6  -5 -14   -8.75   15.99
   6   5  14   -7.79   19.05
   6   5  14   22.88   16.74
   6   5  14   -0.16   16.37
   2  -6 -14  277.41   31.47
   2  -6 -14  334.17   33.40
  -2   6  14  258.43   33.48
   1  -6 -14    1.12   11.07
   1  -6 -14    1.47   15.89
  -1   6  14   -7.59   12.10
   0  -6 -14  211.37   27.05
   0  -6 -14  251.69   29.51
   0   6  14  247.73   32.28
  -1  -6 -14   -6.03   13.08
  -1  -6 -14   -4.97   10.61
   1   6  14    2.53   16.73
   1   6  14   -3.22   13.56
  -2  -6 -14  307.09   30.30
  -2  -6 -14  312.18   32.40
   2   6  14  283.45   32.25
   2   6  14  359.81   32.98
  -3  -6 -14   -1.31   14.75
  -3  -6 -14   -3.15   13.71
   3   6  14   34.18   17.41
   3   6  14    0.14   10.21
  -4  -6 -14  237.04   25.69
  -4  -6 -14  218.70   23.15
  -4  -6 -14  185.59   25.57
   4   6  14  178.45   26.06
   4   6  14  154.38   26.05
   4   6  14  279.51   31.31
  -5  -6 -14    6.43   15.24
  -5  -6 -14    4.53   12.22
   5   6  14   31.11   17.22
   5   6  14   -5.12   17.89
   5   6  14  -13.71   15.25
   0  -7 -14  -10.51   14.97
   0  -7 -14   12.94   15.29
   0   7  14  -22.08   17.08
   0   7  14    1.18   15.68
  -1  -7 -14  300.64   32.80
  -1  -7 -14  279.65   29.90
   1   7  14  286.93   31.44
   1   7  14  282.64   33.30
  -2  -7 -14    7.89   11.59
  -2  -7 -14   -4.78   11.81
   2   7  14    0.94   15.64
   2   7  14   16.06   18.04
  -3  -7 -14  172.76   27.17
  -3  -7 -14  176.95   25.36
   3   7  14  207.79   27.58
   3   7  14  239.64   30.93
  -4  -7 -14   -8.64   12.04
  -4  -7 -14  -10.78   14.35
  -4  -7 -14    1.43   11.71
   4   7  14   -2.13   15.59
   4   7  14    0.65   16.63
   4   7  14   15.70   19.27
   0   6 -15   -5.80   13.38
   0   6 -15   12.33   12.59
  -1   6 -15  305.73   31.47
  -1   6 -15  247.73   30.94
  -1   6 -15  268.69   34.08
   1  -6  15  248.54   32.64
  -2   6 -15    6.90   17.18
  -2   6 -15   29.55   16.78
  -2   6 -15   26.42   17.18
   2  -6  15   27.62   18.94
  -3   6 -15  155.37   25.08
  -3   6 -15  144.90   24.94
  -3   6 -15  215.72   26.92
   3  -6  15  169.77   28.77
   1   5 -15    7.52   12.10
   1   5 -15   12.54   13.97
  -1  -5  15    0.41   16.24
   0   5 -15  217.37   28.96
   0   5 -15  305.79   32.16
   0   5 -15  277.04   30.60
   0  -5  15  269.30   32.26
  -1   5 -15    4.64   15.26
  -1   5 -15   18.93   13.44
  -1   5 -15    5.54   11.93
   1  -5  15    9.70   16.50
  -2   5 -15  315.94   32.01
  -2   5 -15  195.87   29.01
  -2   5 -15  234.92   27.49
   2  -5  15  286.58   31.57
  -3   5 -15    7.09   11.25
  -3   5 -15   -6.39    9.90
  -3   5 -15    0.87   14.32
   3  -5  15  -10.78   14.82
  -4   5 -15  155.34   24.15
  -4   5 -15  177.60   27.78
  -4   5 -15  145.00   24.28
   4  -5  15  188.65   27.40
  -5   5 -15   16.83   15.92
  -5   5 -15    6.79   16.49
  -5   5 -15   -4.25   15.80
   5  -5  15   -1.94   13.53
  -2  -4  15    6.83   15.19
   1   4 -15  358.56   37.93
   1   4 -15  322.74   34.59
  -1  -4  15  361.34   37.35
  -1  -4  15  442.46   38.13
   0   4 -15   29.58   16.91
   0   4 -15  -19.55    9.78
   0  -4  15   22.20   15.59
  -1   4 -15  282.96   32.92
  -1   4 -15  251.66   30.27
   1  -4  15  283.81   30.58
  -2   4 -15   -4.19   13.18
  -2   4 -15    0.57    9.96
  -2   4 -15    7.03   15.80
   2  -4  15   -4.70   14.66
  -3   4 -15  237.83   26.63
  -3   4 -15  223.41   25.82
  -3   4 -15  161.31   25.24
   3  -4  15  196.76   26.54
  -4   4 -15  -10.54   12.50
  -4   4 -15   -3.96   16.03
  -4   4 -15   -6.33    9.74
   4  -4  15   22.56   17.67
  -5   4 -15  165.96   23.16
  -5   4 -15  146.82   24.44
  -5   4 -15  163.84   27.75
   5  -4  15  151.78   27.76
   2   3 -15  386.49   38.19
   2   3 -15  368.72   35.65
  -2  -3  15  478.10   43.33
   1   3 -15  -11.11   14.01
   1   3 -15    3.30   15.96
   1   3 -15   24.80   13.83
  -1  -3  15   15.47   16.54
   0   3 -15  339.59   36.61
   0   3 -15  325.67   30.94
   0   3 -15  343.42   34.63
   0  -3  15  388.84   35.50
  -1   3 -15   17.93   12.27
  -1   3 -15    7.90   16.55
  -1   3 -15   -9.87   13.86
   1  -3  15   18.89   13.85
  -2   3 -15  298.16   30.11
  -2   3 -15  258.77   30.11
  -2   3 -15  293.66   26.21
   2  -3  15  321.98   33.16
  -3   3 -15   15.54   15.12
  -3   3 -15   -8.10   13.14
   3  -3  15  -24.10   12.65
   3  -3  15    0.61   16.52
  -4   3 -15  164.60   25.25
  -4   3 -15  237.73   28.45
   4  -3  15  230.44   30.28
  -5   3 -15    3.98   16.50
  -5   3 -15   -3.42   10.80
   5  -3  15    9.78   12.81
  -6   3 -15  127.88   24.54
  -6   3 -15  206.08   27.54
   6  -3  15   88.00   20.91
   3   2 -15  305.91   34.89
   3   2 -15  371.31   33.70
  -3  -2  15  347.12   36.44
   2   2 -15  -27.75   13.30
   2   2 -15  -14.36   12.67
  -2  -2  15   24.03   17.20
   1   2 -15  300.13   33.92
   1   2 -15  325.55   33.45
   1   2 -15  387.79   32.64
  -1  -2  15  334.00   35.79
   0   2 -15   -2.20   11.84
   0   2 -15  -11.38   12.28
   0   2 -15    6.85   10.90
   0  -2  15    1.44   11.71
  -1   2 -15  390.49   37.21
  -1   2 -15  379.10   36.75
  -1   2 -15  414.51   32.17
   1  -2  15  352.27   34.52
  -2   2 -15   19.79   15.61
  -2   2 -15    0.35    9.99
  -2   2 -15    4.19   13.90
   2  -2  15  -10.29   12.20
  -3   2 -15  227.22   28.65
  -3   2 -15  237.68   27.01
   3  -2  15  215.65   28.90
  -4   2 -15   12.31   15.85
  -4   2 -15    9.10   10.67
   4  -2  15   -7.73   14.79
   4  -2  15   -8.82   10.15
  -5   2 -15  185.05   25.22
  -5   2 -15  161.49   23.60
   5  -2  15  169.65   25.15
  -6   2 -15   -4.56   15.39
  -6   2 -15   -2.22   16.25
   6  -2  15    8.82   18.32
   3   1 -15   12.67   15.44
   3   1 -15   20.40   16.82
   3   1 -15    7.55   17.20
  -3  -1  15   -1.05   12.92
   2   1 -15  355.77   35.46
   2   1 -15  387.30   34.00
   2   1 -15  429.97   40.25
  -2  -1  15  431.21   42.25
   1   1 -15   -9.49   13.52
   1   1 -15    4.91    9.52
  -1  -1  15  -14.58   15.07
   0   1 -15  316.82   33.82
   0   1 -15  441.77   37.25
   0   1 -15  347.53   30.98
   0  -1  15  352.80   36.32
   0  -1  15  360.59   32.52
  -1   1 -15  -17.57   11.93
  -1   1 -15    8.00   11.47
  -1   1 -15    6.42   11.44
   1  -1  15   -7.07   12.17
  -2   1 -15  362.08   28.59
  -2   1 -15  264.99   31.21
  -2   1 -15  289.99   30.80
   2  -1  15  363.81   34.06
  -3   1 -15    0.77    9.51
  -3   1 -15   17.00   15.15
  -3   1 -15   -3.70   13.95
   3  -1  15   14.16   11.40
  -4   1 -15  187.41   25.32
  -4   1 -15  177.87   23.91
   4  -1  15  246.39   29.71
  -5   1 -15   19.87   16.21
  -5   1 -15   -1.61   14.47
   5  -1  15   -7.25   10.79
  -6   1 -15  106.34   22.46
  -6   1 -15  150.62   25.23
   6  -1  15   95.98   24.47
  -7   1 -15    9.65   13.52
   7  -1  15    7.69   18.76
   3   0 -15  366.59   33.98
   3   0 -15  330.23   34.00
   3   0 -15  422.24   40.36
  -3   0  15  275.87   34.25
   2   0 -15   -7.43   13.68
   2   0 -15   -4.45   15.96
   2   0 -15   -5.35    9.23
  -2   0  15    3.40   11.70
   1   0 -15  484.42   37.74
   1   0 -15  420.18   35.26
   1   0 -15  368.67   38.38
  -1   0  15  487.60   43.31
   0   0 -15    9.90   14.36
   0   0 -15    4.46    9.41
   0   0 -15   -3.82    9.29
   0   0  15   15.09   16.51
  -1   0 -15  277.27   30.19
  -1   0 -15  278.28   29.23
  -1   0 -15  294.58   27.33
   1   0  15  339.67   34.74
   1   0  15  319.27   29.68
  -2   0 -15  -14.94    9.89
  -2   0 -15   -6.90   14.65
  -2   0 -15   -0.96   13.07
   2   0  15    7.25   12.88
  -3   0 -15  313.92   31.96
  -3   0 -15  325.76   32.47
  -3   0 -15  309.00   26.47
   3   0  15  318.82   32.47
  -4   0 -15    3.56   10.62
  -4   0 -15    9.74   10.10
   4   0  15   20.48   16.04
  -5   0 -15  167.22   23.35
  -5   0 -15  136.19   23.04
   5   0  15  125.81   22.31
  -6   0 -15    6.17   15.42
  -6   0 -15  -11.56   14.40
   6   0  15    4.97   17.53
  -7   0 -15   73.16   18.86
  -7   0 -15   85.99   21.56
   7   0  15  107.62   22.97
   7   0  15   66.85   19.36
   3  -1 -15  -24.89   14.66
   3  -1 -15  -11.89   15.34
   3  -1 -15   -9.61   11.41
  -3   1  15   -8.12   17.47
   2  -1 -15  384.38   35.73
   2  -1 -15  468.50   38.35
   2  -1 -15  444.61   41.00
  -2   1  15  343.36   40.26
   1  -1 -15    2.90   12.52
   1  -1 -15  -16.32   13.02
   1  -1 -15    5.37   12.64
  -1   1  15   -2.32   15.36
   0  -1 -15  324.63   29.78
   0  -1 -15  327.35   34.69
   0   1  15  401.75   37.96
  -1  -1 -15  -15.81   13.40
  -1  -1 -15   14.65   11.36
  -1  -1 -15    4.09    8.68
   1   1  15   15.62   12.73
   1   1  15    1.67   15.31
  -2  -1 -15  302.41   27.81
  -2  -1 -15  314.34   32.06
  -2  -1 -15  341.42   32.35
   2   1  15  345.71   32.30
  -3  -1 -15    5.62   10.84
  -3  -1 -15   10.87   13.82
  -3  -1 -15    7.87   13.02
   3   1  15    3.66   14.10
  -4  -1 -15  217.17   28.51
  -4  -1 -15  261.54   28.95
   4   1  15  249.52   30.39
  -5  -1 -15    3.84   15.53
  -5  -1 -15    7.92   13.93
   5   1  15   -6.53   15.53
  -6  -1 -15  138.73   23.53
  -6  -1 -15   99.82   20.55
   6   1  15  113.06   25.54
   6   1  15  100.46   20.05
  -7  -1 -15   -4.95   11.66
   7   1  15   18.17   16.52
   3  -2 -15  274.98   31.41
   3  -2 -15  303.30   35.57
   3  -2 -15  351.22   33.78
  -3   2  15  301.32   38.45
   2  -2 -15   -2.32   10.48
   2  -2 -15  -12.95   13.11
   2  -2 -15   -2.93   14.39
  -2   2  15   19.29   18.80
   1  -2 -15  357.07   34.88
   1  -2 -15  335.53   31.25
   1  -2 -15  413.43   33.77
  -1   2  15  352.99   36.94
   0  -2 -15   -4.35   11.74
   0  -2 -15   -0.81    9.86
   0   2  15    2.05   15.52
  -1  -2 -15  389.61   33.60
  -1  -2 -15  397.71   36.04
  -1  -2 -15  404.18   37.88
   1   2  15  504.32   43.76
  -2  -2 -15    3.67   13.67
  -2  -2 -15   -6.98   11.80
  -2  -2 -15   13.41   11.07
   2   2  15   -5.68   13.90
   2   2  15   -7.79   11.88
  -3  -2 -15  246.44   27.77
  -3  -2 -15  224.60   26.19
  -3  -2 -15  223.42   22.66
   3   2  15  204.21   26.82
  -4  -2 -15  -21.15   12.39
  -4  -2 -15   10.12   13.43
   4   2  15    7.65   15.09
  -5  -2 -15  136.39   24.42
  -5  -2 -15  163.62   22.87
   5   2  15  151.69   22.21
   5   2  15  129.20   22.67
  -6  -2 -15    6.14   12.54
  -6  -2 -15   16.46   14.94
   6   2  15  -13.55   14.18
   6   2  15  -22.50   16.21
   2  -3 -15  350.07   33.65
   2  -3 -15  362.93   34.98
   2  -3 -15  368.52   37.06
  -2   3  15  410.67   42.82
   1  -3 -15    3.01   10.55
   1  -3 -15    7.83   15.91
  -1   3  15   -2.06   11.88
   0  -3 -15  258.56   27.19
   0  -3 -15  345.70   34.95
   0   3  15  332.50   36.08
  -1  -3 -15   11.15   13.31
  -1  -3 -15    3.62   14.27
   1   3  15   -7.78   14.36
  -2  -3 -15  280.94   31.75
  -2  -3 -15  247.36   27.69
  -2  -3 -15  238.48   25.57
   2   3  15  308.82   33.47
   2   3  15  266.78   31.82
  -3  -3 -15    6.65   12.95
  -3  -3 -15   16.88   12.46
  -3  -3 -15   21.90   12.38
   3   3  15   20.01   15.24
   3   3  15   25.76   13.64
  -4  -3 -15  219.41   23.04
  -4  -3 -15  225.78   25.71
  -4  -3 -15  202.33   26.68
   4   3  15  255.73   30.91
   4   3  15  221.35   26.19
   4   3  15  182.15   27.18
  -5  -3 -15   -3.27   10.91
  -5  -3 -15    3.21   15.75
   5   3  15  -10.16   12.75
   5   3  15   -0.83   16.71
  -6  -3 -15  135.14   25.59
   6   3  15   97.96   25.95
   6   3  15  100.70   21.46
   2  -4 -15   -8.13   15.36
   2  -4 -15   14.12   16.32
  -2   4  15    2.56   15.24
   1  -4 -15  376.54   34.17
   1  -4 -15  294.94   32.55
  -1   4  15  312.34   36.90
   0  -4 -15  -18.71   12.61
   0  -4 -15    5.73   11.34
   0   4  15   -7.83   16.22
  -1  -4 -15  258.12   30.84
  -1  -4 -15  301.08   29.77
   1   4  15  341.11   36.94
  -2  -4 -15  -13.49    9.85
  -2  -4 -15   -8.22   12.33
   2   4  15   25.46   18.33
  -3  -4 -15  332.23   33.33
  -3  -4 -15  209.79   23.60
   3   4  15  163.51   29.76
   3   4  15  211.93   28.32
   3   4  15  224.30   28.29
  -4  -4 -15    1.07   15.80
  -4  -4 -15   14.15   12.29
   4   4  15   10.82   13.83
   4   4  15   24.73   17.67
   4   4  15  -12.45   15.46
  -5  -4 -15  135.65   25.71
   5   4  15  142.22   27.21
   5   4  15  116.45   22.27
   5   4  15  137.34   25.23
   1  -5 -15    2.82   12.02
   1  -5 -15    6.34   16.27
  -1   5  15   10.08   19.66
   0  -5 -15  225.16   27.83
   0  -5 -15  296.63   33.02
   0   5  15  310.35   36.80
  -1  -5 -15    1.52   16.04
  -1  -5 -15   15.00   15.18
   1   5  15    3.85   17.41
  -2  -5 -15  290.99   28.29
  -2  -5 -15  301.57   34.01
   2   5  15  292.92   33.53
  -3  -5 -15   -4.26   14.27
  -3  -5 -15   14.28   14.21
   3   5  15   -5.51   14.23
   3   5  15    7.52   16.41
  -4  -5 -15  169.40   24.59
  -4  -5 -15  151.21   21.78
   4   5  15  169.77   25.95
   4   5  15  153.18   27.36
   4   5  15  191.00   27.94
  -5  -5 -15   -1.21   11.90
   5   5  15   58.00   20.03
   5   5  15   -3.38   19.48
   5   5  15    5.22   16.15
  -1  -6 -15  296.52   31.46
  -1  -6 -15  256.25   31.53
   1   6  15  302.08   34.65
  -2  -6 -15    0.31   15.37
  -2  -6 -15   -4.79   15.94
   2   6  15   41.19   17.85
   2   6  15    4.90   17.10
  -3  -6 -15  162.09   24.47
  -3  -6 -15  151.37   23.53
   3   6  15  168.08   25.93
   3   6  15  178.36   26.36
   0   4 -16  210.72   30.96
  -1   4 -16   26.46   19.43
  -1   4 -16   -7.92   10.65
   1  -4  16   -9.69   16.11
  -2   4 -16  207.74   26.68
  -2   4 -16  231.18   30.11
   2  -4  16  231.85   31.65
  -3   4 -16    0.08   12.06
  -3   4 -16   -8.15   16.40
   3  -4  16   10.68   17.02
   0   3 -16  -20.08   15.76
   0   3 -16   -2.39   18.21
   0   3 -16    3.33    9.85
   0  -3  16   12.19   15.80
   0  -3  16   -1.21   11.34
  -1   3 -16  254.47   31.44
  -1   3 -16  291.42   32.52
  -1   3 -16  259.50   26.64
   1  -3  16  274.46   31.77
  -2   3 -16    3.80   16.84
  -2   3 -16   10.11   12.69
  -2   3 -16   10.87   11.95
   2  -3  16   28.70   17.27
  -3   3 -16  261.86   31.33
  -3   3 -16  252.76   29.13
   3  -3  16  234.05   29.68
  -4   3 -16    8.88   16.60
  -4   3 -16  -10.30   10.29
   4  -3  16   -2.22   16.67
   1   2 -16   20.43   13.76
   1   2 -16   24.01   14.99
  -1  -2  16    4.57   17.85
   0   2 -16  315.61   35.45
   0   2 -16  278.60   34.80
   0   2 -16  316.13   30.52
   0  -2  16  367.26   37.13
  -1   2 -16   35.43   14.29
  -1   2 -16   -3.08   16.95
  -1   2 -16    3.63   11.12
   1  -2  16   -7.82   14.51
  -2   2 -16  374.32   35.81
  -2   2 -16  248.03   25.88
  -2   2 -16  248.19   30.28
   2  -2  16  296.76   32.93
  -3   2 -16  -18.23   13.02
  -3   2 -16    3.60   16.53
   3  -2  16   -4.90   15.19
  -4   2 -16  144.41   25.35
  -4   2 -16  173.77   25.23
   4  -2  16  188.07   28.64
  -5   2 -16   14.31   17.27
  -5   2 -16   -4.26   12.32
   5  -2  16   11.04   18.77
   1   1 -16  409.05   34.56
   1   1 -16  326.66   37.00
  -1  -1  16  358.19   40.09
   0   1 -16   -6.84   11.00
   0   1 -16    2.95   13.24
   0   1 -16   -2.65   12.05
   0  -1  16   -9.08   10.60
  -1   1 -16  341.33   35.96
  -1   1 -16  336.25   35.56
  -1   1 -16  300.77   28.74
   1  -1  16  311.88   32.25
  -2   1 -16  -21.68   15.48
  -2   1 -16    8.92   12.12
  -2   1 -16    3.72   11.66
   2  -1  16   13.58   15.22
  -3   1 -16  215.54   27.84
  -3   1 -16  229.24   29.52
   3  -1  16  278.58   31.15
  -4   1 -16  -16.57   13.71
  -4   1 -16   19.89   16.69
   4  -1  16    7.74   16.37
  -5   1 -16  127.01   24.68
  -5   1 -16  137.68   22.67
   5  -1  16  183.33   29.25
   1   0 -16    6.35   16.39
   1   0 -16    2.81   14.16
  -1   0  16    6.28   13.63
   0   0 -16  375.73   37.12
   0   0 -16  386.05   37.28
   0   0 -16  404.85   35.32
   0   0  16  372.59   40.66
  -1   0 -16  -11.39   14.52
  -1   0 -16    3.09   12.32
  -1   0 -16    7.32   11.06
   1   0  16   -2.60   11.51
  -2   0 -16  287.62   32.77
  -2   0 -16  302.04   34.03
  -2   0 -16  295.39   28.25
   2   0  16  316.46   32.72
  -3   0 -16    2.58   16.10
  -3   0 -16   30.28   13.92
  -3   0 -16  -10.70   10.76
   3   0  16  -12.41   13.84
  -4   0 -16  216.32   28.88
  -4   0 -16  243.50   31.02
   4   0  16  220.79   30.01
  -5   0 -16  -13.82   14.66
  -5   0 -16    1.54   15.80
   5   0  16  -13.78   16.18
   1  -1 -16  317.97   32.31
   1  -1 -16  388.99   38.77
  -1   1  16  376.61   42.34
   0  -1 -16    2.06   12.14
   0  -1 -16   14.19   13.89
   0   1  16    2.19   12.80
  -1  -1 -16  309.52   33.67
  -1  -1 -16  332.22   34.50
  -1  -1 -16  391.16   32.43
   1   1  16  291.05   36.43
  -2  -1 -16  -14.70    9.62
  -2  -1 -16    0.12   12.13
  -2  -1 -16   11.00   16.21
   2   1  16   -8.66   14.10
   2   1  16   -4.85   14.63
  -3  -1 -16  290.06   26.30
  -3  -1 -16  292.93   31.64
  -3  -1 -16  219.65   30.66
   3   1  16  278.37   31.99
  -4  -1 -16   -2.19   16.77
  -4  -1 -16    9.33   11.63
   4   1  16   -2.50   15.83
  -5  -1 -16  154.82   27.03
  -5  -1 -16  157.44   25.64
   5   1  16  207.04   30.48
   1  -2 -16   -2.72   16.13
   1  -2 -16    1.41   13.58
  -1   2  16   -8.48   12.98
   0  -2 -16  412.92   35.94
   0  -2 -16  381.20   37.85
   0   2  16  411.92   43.48
  -1  -2 -16   -4.13    9.57
  -1  -2 -16    6.93   16.72
   1   2  16   15.02   18.85
  -2  -2 -16  307.87   32.88
  -2  -2 -16  304.92   29.24
  -2  -2 -16  284.13   32.12
   2   2  16  326.16   36.74
  -3  -2 -16   -1.80   12.49
  -3  -2 -16   -1.30   16.59
  -3  -2 -16    8.83   10.79
   3   2  16  -12.56   10.27
   3   2  16  -26.82   14.40
  -4  -2 -16  164.26   24.65
  -4  -2 -16  168.35   27.48
   4   2  16  197.38   28.21
  -5  -2 -16   21.83   16.45
  -5  -2 -16   -4.13   15.85
   5   2  16    8.40   18.03
   0  -3 -16    3.93   16.84
   0  -3 -16   -6.36   14.04
   0   3  16   11.98   19.27
  -1  -3 -16  296.75   34.95
  -1  -3 -16  269.16   27.09
   1   3  16  290.10   36.17
  -2  -3 -16   11.13   14.06
  -2  -3 -16  -19.80   14.07
  -2  -3 -16   10.42   12.75
   2   3  16   21.24   19.95
  -3  -3 -16  208.57   29.44
  -3  -3 -16  244.52   25.19
  -3  -3 -16  208.85   28.08
   3   3  16  217.67   29.13
   3   3  16  180.89   27.91
  -4  -3 -16   -0.08   17.40
   4   3  16    2.93   16.67
   4   3  16   21.32   18.51
  -1  -4 -16   -8.69   10.26
  -1  -4 -16   10.78   17.22
   1   4  16   -1.60   17.16
  -2  -4 -16  216.30   30.39
  -2  -4 -16  198.67   25.73
   2   4  16  253.02   33.70
  -3  -4 -16    2.16   17.03
  -3  -4 -16   -1.81   14.28
   3   4  16   12.92   14.03
  -2   1 -17  207.46   27.70
  -2   0 -17   11.51   12.82
  -2   0 -17  -10.34   13.52
   2   0  17    0.82   18.47
  -3   0 -17  218.74   30.38
  -2  -1 -17  206.48   29.15
   0   0   0    0.00    0.00


 _exptl_absorpt_process_details
)
 SADABS 2016/2: Krause, L., Herbst-Irmer, R., Sheldrick G.M. & Stalke D.,
 J. Appl. Cryst. 48 (2015) 3-10
)
 _exptl_absorpt_correction_type   multi-scan
 _exptl_absorpt_correction_T_max  0.7464
 _exptl_absorpt_correction_T_min  0.6361
 _exptl_special_details
)
 The following wavelength and cell were deduced by SADABS from the
 direction cosines etc. They are given here for emergency use only:
 CELL 0.71123    7.389    8.896   11.239   90.021   79.063   90.007
)

_computing_structure_solution     'SHELXT 2018/2 (Sheldrick, 2018)'
;
_shelx_hkl_checksum              5178
loop_
_space_group_symop_operation_xyz
'x, y, z'
'-x+1/2, y+1/2, -z+1/2'
'-x, -y, -z'
'x-1/2, -y-1/2, z-1/2'
loop_
_atom_site_label
_atom_site_type_symbol
_atom_site_fract_x
_atom_site_fract_y
_atom_site_fract_z
_atom_site_U_iso_or_equiv
_atom_site_adp_type
_atom_site_occupancy
_atom_site_site_symmetry_order
_atom_site_calc_flag
_atom_site_refinement_flags_posn
_atom_site_refinement_flags_adp
_atom_site_refinement_flags_occupancy
_atom_site_disorder_assembly
_atom_site_disorder_group
Tm1 Tm 0.0000 0.0000 0.0000 0.02104(6) Uani 1 2 d S . P . .
C1 C 0.147(3) -0.0049(11) 0.2464(8) 0.0430(19) Uani 0.5 1 d . U P A 1
H1 H 0.1665 -0.0846 0.3044 0.052 Uiso 0.5 1 calc R U P A 1
C2 C 0.303(2) 0.0122(13) 0.1906(12) 0.043(2) Uani 0.5 1 d . U P A 1
H2 H 0.4009 -0.0517 0.2291 0.051 Uiso 0.5 1 calc R U P A 1
C3 C 0.3577(14) 0.0912(14) 0.0992(12) 0.038(2) Uani 0.5 1 d . U P A 1
H3 H 0.4801 0.0623 0.0929 0.045 Uiso 0.5 1 calc R U P A 1
C4 C 0.2966(13) 0.1953(14) 0.0161(11) 0.033(2) Uani 0.5 1 d . U P A 1
H4 H 0.3912 0.2167 -0.0288 0.040 Uiso 0.5 1 calc R U P A 1
C5 C 0.1468(16) 0.2817(10) -0.0273(8) 0.0247(17) Uani 0.5 1 d . U P A 1
H5 H 0.1675 0.3396 -0.0951 0.030 Uiso 0.5 1 calc R U P A 1
C6 C -0.0347(11) 0.3126(8) -0.0019(6) 0.0196(15) Uani 0.5 1 d . U P A 1
H6 H -0.0958 0.3862 -0.0572 0.023 Uiso 0.5 1 calc R U P A 1
C7 C -0.1516(11) 0.2676(10) 0.0802(8) 0.0244(14) Uani 0.5 1 d . U P A 1
H7 H -0.2670 0.3193 0.0628 0.029 Uiso 0.5 1 calc R U P A 1
C8 C -0.1453(14) 0.1714(13) 0.1769(8) 0.0292(17) Uani 0.5 1 d . U P A 1
H8 H -0.2543 0.1842 0.2101 0.035 Uiso 0.5 1 calc R U P A 1
C9 C -0.037(2) 0.0639(12) 0.2415(8) 0.036(2) Uani 0.5 1 d . U P A 1
H9 H -0.0972 0.0202 0.3012 0.043 Uiso 0.5 1 calc R U P A 1
C10 C -0.2281(14) 0.0224(8) -0.2279(7) 0.0250(15) Uani 0.5 1 d . U P A 2
H10 H -0.2836 0.1054 -0.2753 0.030 Uiso 0.5 1 calc R U P A 2
C11 C -0.3432(10) -0.0337(11) -0.1524(10) 0.0242(17) Uani 0.5 1 d . U P A 2
H11 H -0.4597 0.0162 -0.1709 0.029 Uiso 0.5 1 calc R U P A 2
C12 C -0.3463(14) -0.1352(13) -0.0613(9) 0.0271(17) Uani 0.5 1 d . U P A 2
H12 H -0.4652 -0.1328 -0.0395 0.032 Uiso 0.5 1 calc R U P A 2
C13 C -0.2420(18) -0.2363(12) 0.0078(8) 0.032(2) Uani 0.5 1 d . U P A 2
H13 H -0.3082 -0.2775 0.0655 0.039 Uiso 0.5 1 calc R U P A 2
C14 C -0.0630(19) -0.3027(9) 0.0231(9) 0.035(2) Uani 0.5 1 d . U P A 2
H14 H -0.0417 -0.3712 0.0898 0.042 Uiso 0.5 1 calc R U P A 2
C15 C 0.0971(14) -0.2933(9) -0.0370(12) 0.038(2) Uani 0.5 1 d . U P A 2
H15 H 0.1903 -0.3621 0.0000 0.046 Uiso 0.5 1 calc R U P A 2
C16 C 0.1564(11) -0.2161(12) -0.1305(13) 0.037(2) Uani 0.5 1 d . U P A 2
H16 H 0.2738 -0.2538 -0.1406 0.045 Uiso 0.5 1 calc R U P A 2
C17 C 0.1017(12) -0.1054(15) -0.2115(11) 0.0351(19) Uani 0.5 1 d . U P A 2
H17 H 0.1981 -0.0839 -0.2549 0.042 Uiso 0.5 1 calc R U P A 2
C18 C -0.0492(15) -0.0116(12) -0.2531(6) 0.0285(14) Uani 0.5 1 d . U P A 2
H18 H -0.0257 0.0488 -0.3189 0.034 Uiso 0.5 1 calc R U P A 2
loop_
_atom_site_aniso_label
_atom_site_aniso_U_11
_atom_site_aniso_U_22
_atom_site_aniso_U_33
_atom_site_aniso_U_23
_atom_site_aniso_U_13
_atom_site_aniso_U_12
Tm1 0.02749(9) 0.01712(8) 0.01598(8) -0.00158(7) -0.00232(5) -0.00105(8)
C1 0.072(6) 0.032(4) 0.020(3) -0.003(3) -0.004(4) 0.006(5)
C2 0.050(6) 0.036(5) 0.034(5) -0.002(4) -0.013(3) 0.015(4)
C3 0.028(4) 0.038(6) 0.042(6) -0.013(4) -0.006(4) 0.007(4)
C4 0.022(4) 0.040(6) 0.040(6) -0.016(4) 0.010(4) -0.003(3)
C5 0.029(4) 0.026(4) 0.024(3) -0.006(3) 0.017(3) -0.009(3)
C6 0.022(4) 0.015(3) 0.022(3) 0.000(2) 0.007(3) -0.002(2)
C7 0.023(3) 0.025(4) 0.028(4) -0.008(3) 0.012(3) -0.003(3)
C8 0.037(4) 0.033(5) 0.022(4) -0.007(3) 0.017(3) -0.012(3)
C9 0.067(6) 0.027(4) 0.016(3) -0.002(3) 0.014(4) -0.005(4)
C10 0.032(4) 0.023(4) 0.017(3) 0.000(2) -0.003(2) 0.000(2)
C11 0.018(2) 0.031(4) 0.024(4) -0.011(3) 0.003(2) -0.002(2)
C12 0.026(4) 0.032(5) 0.024(4) -0.005(3) 0.007(3) -0.010(3)
C13 0.045(6) 0.030(5) 0.020(3) 0.003(3) 0.001(4) -0.009(3)
C14 0.056(6) 0.020(3) 0.024(4) -0.001(3) -0.006(4) 0.001(4)
C15 0.019(5) 0.022(3) 0.063(6) -0.010(4) -0.017(3) -0.004(3)
C16 0.024(3) 0.027(4) 0.057(6) -0.019(3) 0.000(4) 0.003(3)
C17 0.027(4) 0.039(5) 0.040(5) -0.019(3) 0.009(3) -0.004(3)
C18 0.041(4) 0.033(4) 0.014(2) -0.005(3) 0.011(3) -0.012(3)
loop_
_atom_type_symbol
_atom_type_description
_atom_type_scat_dispersion_real
_atom_type_scat_dispersion_imag
_atom_type_scat_source
C C 0.0033 0.0016 'International Tables Vol C Tables 4.2.6.8 and 6.1.1.4'
H H 0.0000 0.0000 'International Tables Vol C Tables 4.2.6.8 and 6.1.1.4'
Tm Tm -0.3139 5.2483 'International Tables Vol C Tables 4.2.6.8 and 6.1.1.4'
loop_
_geom_angle_atom_site_label_1
_geom_angle_atom_site_label_2
_geom_angle_atom_site_label_3
_geom_angle
_geom_angle_site_symmetry_1
_geom_angle_site_symmetry_3
C14 Tm1 C14 180.0 . 3
C14 Tm1 C15 31.0(5) . .
C14 Tm1 C15 149.0(5) 3 .
C14 Tm1 C15 149.0(5) . 3
C14 Tm1 C15 31.0(5) 3 3
C15 Tm1 C15 180.0 . 3
C5 Tm1 C5 180.0 3 .
C14 Tm1 C13 150.0(3) . 3
C14 Tm1 C13 30.0(3) 3 3
C15 Tm1 C13 121.7(4) . 3
C15 Tm1 C13 58.3(4) 3 3
C14 Tm1 C13 30.0(3) . .
C14 Tm1 C13 150.0(3) 3 .
C15 Tm1 C13 58.3(4) . .
C15 Tm1 C13 121.7(4) 3 .
C13 Tm1 C13 180.0 3 .
C5 Tm1 C4 151.6(3) 3 .
C5 Tm1 C4 28.4(3) . .
C5 Tm1 C4 28.4(3) 3 3
C5 Tm1 C4 151.6(3) . 3
C4 Tm1 C4 180.0 . 3
C5 Tm1 C1 87.9(3) 3 .
C5 Tm1 C1 92.1(3) . .
C4 Tm1 C1 77.9(4) . .
C4 Tm1 C1 102.1(4) 3 .
C5 Tm1 C1 92.1(3) 3 3
C5 Tm1 C1 87.9(3) . 3
C4 Tm1 C1 102.1(4) . 3
C4 Tm1 C1 77.9(4) 3 3
C1 Tm1 C1 180.0 . 3
C2 C1 C9 139.0(9) . .
C2 C1 Tm1 75.8(5) . .
C9 C1 Tm1 76.9(5) . .
C2 C1 H1 110.5 . .
C9 C1 H1 110.5 . .
Tm1 C1 H1 132.2 . .
C3 C2 C1 139.9(9) . .
C3 C2 Tm1 75.6(6) . .
C1 C2 Tm1 74.6(6) . .
C3 C2 H2 110.0 . .
C1 C2 H2 110.0 . .
Tm1 C2 H2 138.7 . .
C4 C3 C2 140.9(10) . .
C4 C3 Tm1 75.6(5) . .
C2 C3 Tm1 76.1(6) . .
C4 C3 H3 109.6 . .
C2 C3 H3 109.6 . .
Tm1 C3 H3 136.9 . .
C3 C4 C5 142.2(9) . .
C3 C4 Tm1 76.7(6) . .
C5 C4 Tm1 75.6(5) . .
C3 C4 H4 108.9 . .
C5 C4 H4 108.9 . .
Tm1 C4 H4 137.5 . .
C4 C5 C6 139.2(8) . .
C4 C5 Tm1 76.0(5) . .
C6 C5 Tm1 75.7(4) . .
C4 C5 H5 110.4 . .
C6 C5 H5 110.4 . .
Tm1 C5 H5 134.5 . .
C7 C6 C5 140.0(8) . .
C7 C6 Tm1 77.5(4) . .
C5 C6 Tm1 74.1(5) . .
C7 C6 H6 110.0 . .
C5 C6 H6 110.0 . .
Tm1 C6 H6 135.9 . .
C8 C7 C6 138.3(8) . .
C8 C7 Tm1 76.9(5) . .
C6 C7 Tm1 73.1(4) . .
C8 C7 H7 110.9 . .
C6 C7 H7 110.9 . .
Tm1 C7 H7 136.5 . .
C9 C8 C7 141.6(9) . .
C9 C8 Tm1 74.8(5) . .
C7 C8 Tm1 75.2(5) . .
C9 C8 H8 109.2 . .
C7 C8 H8 109.2 . .
Tm1 C8 H8 141.9 . .
C8 C9 C1 138.7(9) . .
C8 C9 Tm1 77.5(5) . .
C1 C9 Tm1 72.5(5) . .
C8 C9 H9 110.7 . .
C1 C9 H9 110.7 . .
Tm1 C9 H9 137.1 . .
C11 C10 C18 137.0(8) . .
C11 C10 Tm1 75.5(4) . .
C18 C10 Tm1 75.4(4) . .
C11 C10 H10 111.5 . .
C18 C10 H10 111.5 . .
Tm1 C10 H10 133.3 . .
C12 C11 C10 141.8(8) . .
C12 C11 Tm1 75.7(5) . .
C10 C11 Tm1 75.5(4) . .
C12 C11 H11 109.1 . .
C10 C11 H11 109.1 . .
Tm1 C11 H11 139.4 . .
C13 C12 C11 142.3(9) . .
C13 C12 Tm1 75.3(5) . .
C11 C12 Tm1 75.9(5) . .
C13 C12 H12 108.9 . .
C11 C12 H12 108.9 . .
Tm1 C12 H12 140.4 . .
C12 C13 C14 140.2(9) . .
C12 C13 Tm1 77.0(5) . .
C14 C13 Tm1 74.3(5) . .
C12 C13 H13 109.9 . .
C14 C13 H13 109.9 . .
Tm1 C13 H13 136.7 . .
C13 C14 C15 136.7(8) . .
C13 C14 Tm1 75.7(5) . .
C15 C14 Tm1 74.7(5) . .
C13 C14 H14 111.7 . .
C15 C14 H14 111.7 . .
Tm1 C14 H14 133.7 . .
C16 C15 C14 140.3(8) . .
C16 C15 Tm1 77.0(5) . .
C14 C15 Tm1 74.3(5) . .
C16 C15 H15 109.9 . .
C14 C15 H15 109.9 . .
Tm1 C15 H15 136.6 . .
C17 C16 C15 140.4(8) . .
C17 C16 Tm1 75.6(5) . .
C15 C16 Tm1 73.9(5) . .
C17 C16 H16 109.8 . .
C15 C16 H16 109.8 . .
Tm1 C16 H16 141.0 . .
C16 C17 C18 141.1(9) . .
C16 C17 Tm1 76.4(6) . .
C18 C17 Tm1 76.0(4) . .
C16 C17 H17 109.5 . .
C18 C17 H17 109.5 . .
Tm1 C17 H17 135.6 . .
C17 C18 C10 139.9(8) . .
C17 C18 Tm1 75.0(5) . .
C10 C18 Tm1 74.9(4) . .
C17 C18 H18 110.1 . .
C10 C18 H18 110.1 . .
Tm1 C18 H18 139.3 . .
loop_
_geom_bond_atom_site_label_1
_geom_bond_atom_site_label_2
_geom_bond_distance
_geom_bond_site_symmetry_2
Tm1 C14 2.736(8) .
Tm1 C14 2.736(8) 3
Tm1 C15 2.741(8) .
Tm1 C15 2.741(8) 3
Tm1 C5 2.753(7) 3
Tm1 C5 2.754(7) .
Tm1 C13 2.755(9) 3
Tm1 C13 2.755(9) .
Tm1 C4 2.757(9) .
Tm1 C4 2.757(9) 3
Tm1 C1 2.760(8) .
Tm1 C1 2.760(8) 3
C1 C2 1.41(2) .
C1 C9 1.47(2) .
C1 H1 0.9500 .
C2 C3 1.358(18) .
C2 H2 0.9500 .
C3 C4 1.323(14) .
C3 H3 0.9500 .
C4 C5 1.352(13) .
C4 H4 0.9500 .
C5 C6 1.440(12) .
C5 H5 0.9500 .
C6 C7 1.426(10) .
C6 H6 0.9500 .
C7 C8 1.369(11) .
C7 H7 0.9500 .
C8 C9 1.357(13) .
C8 H8 0.9500 .
C9 H9 0.9500 .
C10 C11 1.393(12) .
C10 C18 1.426(13) .
C10 H10 0.9500 .
C11 C12 1.361(12) .
C11 H11 0.9500 .
C12 C13 1.325(12) .
C12 H12 0.9500 .
C13 C14 1.420(15) .
C13 H13 0.9500 .
C14 C15 1.46(2) .
C14 H14 0.9500 .
C15 C16 1.386(16) .
C15 H15 0.9500 .
C16 C17 1.342(14) .
C16 H16 0.9500 .
C17 C18 1.392(13) .
C17 H17 0.9500 .
C18 H18 0.9500 .
loop_
_geom_torsion_atom_site_label_1
_geom_torsion_atom_site_label_2
_geom_torsion_atom_site_label_3
_geom_torsion_atom_site_label_4
_geom_torsion
C9 C1 C2 C3 -7(2)
Tm1 C1 C2 C3 43.2(13)
C9 C1 C2 Tm1 -49.8(12)
C1 C2 C3 C4 2(2)
Tm1 C2 C3 C4 44.7(14)
C1 C2 C3 Tm1 -42.9(13)
C2 C3 C4 C5 -1(2)
Tm1 C3 C4 C5 43.9(13)
C2 C3 C4 Tm1 -44.9(14)
C3 C4 C5 C6 3(2)
Tm1 C4 C5 C6 47.4(10)
C3 C4 C5 Tm1 -44.2(13)
C4 C5 C6 C7 -1.1(18)
Tm1 C5 C6 C7 46.3(10)
C4 C5 C6 Tm1 -47.4(10)
C5 C6 C7 C8 0.5(18)
Tm1 C6 C7 C8 45.9(10)
C5 C6 C7 Tm1 -45.4(10)
C6 C7 C8 C9 -5(2)
Tm1 C7 C8 C9 39.7(12)
C6 C7 C8 Tm1 -44.8(10)
C7 C8 C9 C1 4(2)
Tm1 C8 C9 C1 44.1(11)
C7 C8 C9 Tm1 -39.8(12)
C2 C1 C9 C8 4(2)
Tm1 C1 C9 C8 -45.4(12)
C2 C1 C9 Tm1 49.5(12)
C18 C10 C11 C12 6.4(18)
Tm1 C10 C11 C12 -42.3(11)
C18 C10 C11 Tm1 48.7(9)
C10 C11 C12 C13 1(2)
Tm1 C11 C12 C13 -41.1(13)
C10 C11 C12 Tm1 42.2(11)
C11 C12 C13 C14 -3(2)
Tm1 C12 C13 C14 -44.7(12)
C11 C12 C13 Tm1 41.2(13)
C12 C13 C14 C15 -3(2)
Tm1 C13 C14 C15 -48.2(10)
C12 C13 C14 Tm1 45.4(12)
C13 C14 C15 C16 3.0(19)
Tm1 C14 C15 C16 -45.4(11)
C13 C14 C15 Tm1 48.5(10)
C14 C15 C16 C17 4(2)
Tm1 C15 C16 C17 -40.9(12)
C14 C15 C16 Tm1 44.8(11)
C15 C16 C17 C18 -5(2)
Tm1 C16 C17 C18 -46.0(12)
C15 C16 C17 Tm1 40.5(12)
C16 C17 C18 C10 4(2)
Tm1 C17 C18 C10 -42.5(10)
C16 C17 C18 Tm1 46.1(12)
C11 C10 C18 C17 -6.2(17)
Tm1 C10 C18 C17 42.5(10)
C11 C10 C18 Tm1 -48.7(9)
