#------------------------------------------------------------------------------
#$Date: 2019-11-26 07:05:48 +0200 (Tue, 26 Nov 2019) $
#$Revision: 242907 $
#$URL: file:///home/coder/svn-repositories/cod/cif/4/13/30/4133060.cif $
#------------------------------------------------------------------------------
#
# This file is available in the Crystallography Open Database (COD),
# http://www.crystallography.net/
#
# All data on this site have been placed in the public domain by the
# contributors.
#
data_4133060
loop_
_publ_author_name
'Hua, Xiu-Ni'
'Liao, Wei-Qiang'
'Tang, Yuan-Yuan'
'Li, Peng-Fei'
'Shi, Ping-Ping'
'Zhao, Dewei'
'Xiong, Ren-Gen'
_publ_section_title
;
 A Room-Temperature Hybrid Lead Iodide Perovskite Ferroelectric.
;
_journal_issue                   38
_journal_name_full               'Journal of the American Chemical Society'
_journal_page_first              12296
_journal_page_last               12302
_journal_paper_doi               10.1021/jacs.8b08286
_journal_volume                  140
_journal_year                    2018
_chemical_formula_moiety         '[(BrCH2)(CH3)3N)], PbI3'
_chemical_formula_sum            'C4 H11 Br I3 N Pb'
_chemical_formula_weight         740.94
_space_group_crystal_system      hexagonal
_space_group_IT_number           194
_space_group_name_Hall           '-P 6c 2c'
_space_group_name_H-M_alt        'P 63/m m c'
_atom_sites_solution_hydrogens   difmap
_audit_creation_method           SHELXL-2014/7
_cell_angle_alpha                90
_cell_angle_beta                 90
_cell_angle_gamma                120
_cell_formula_units_Z            2
_cell_length_a                   10.0802(5)
_cell_length_b                   10.0802(5)
_cell_length_c                   8.0696(5)
_cell_measurement_reflns_used    1114
_cell_measurement_temperature    298(2)
_cell_measurement_theta_max      24.3310
_cell_measurement_theta_min      3.4170
_cell_volume                     710.10(7)
_computing_structure_refinement  'SHELXL-2014/7 (Sheldrick, 2014)'
_diffrn_ambient_temperature      298(2)
_diffrn_measured_fraction_theta_full 0.996
_diffrn_measured_fraction_theta_max 0.996
_diffrn_measurement_device_type  'XtaLAB Synergy R, DW system, HyPix'
_diffrn_radiation_type           MoK\a
_diffrn_radiation_wavelength     0.71073
_diffrn_reflns_av_R_equivalents  0.0231
_diffrn_reflns_av_unetI/netI     0.0140
_diffrn_reflns_Laue_measured_fraction_full 0.996
_diffrn_reflns_Laue_measured_fraction_max 0.996
_diffrn_reflns_limit_h_max       9
_diffrn_reflns_limit_h_min       -11
_diffrn_reflns_limit_k_max       11
_diffrn_reflns_limit_k_min       -11
_diffrn_reflns_limit_l_max       8
_diffrn_reflns_limit_l_min       -9
_diffrn_reflns_number            2788
_diffrn_reflns_point_group_measured_fraction_full 0.996
_diffrn_reflns_point_group_measured_fraction_max 0.996
_diffrn_reflns_theta_full        24.988
_diffrn_reflns_theta_max         24.988
_diffrn_reflns_theta_min         2.333
_exptl_absorpt_coefficient_mu    21.169
_exptl_absorpt_correction_T_max  0.014
_exptl_absorpt_correction_T_min  0.009
_exptl_absorpt_correction_type   multi-scan
_exptl_crystal_colour            'light yellow'
_exptl_crystal_density_diffrn    3.465
_exptl_crystal_description       block
_exptl_crystal_F_000             636
_exptl_crystal_size_max          0.24
_exptl_crystal_size_mid          0.22
_exptl_crystal_size_min          0.20
_refine_diff_density_max         0.794
_refine_diff_density_min         -0.972
_refine_diff_density_rms         0.167
_refine_ls_extinction_method     none
_refine_ls_goodness_of_fit_ref   1.055
_refine_ls_hydrogen_treatment    constr
_refine_ls_matrix_type           full
_refine_ls_number_parameters     21
_refine_ls_number_reflns         266
_refine_ls_number_restraints     16
_refine_ls_restrained_S_all      1.035
_refine_ls_R_factor_all          0.0549
_refine_ls_R_factor_gt           0.0486
_refine_ls_shift/su_max          0.000
_refine_ls_shift/su_mean         0.000
_refine_ls_structure_factor_coef Fsqd
_refine_ls_weighting_details
'w=1/[\s^2^(Fo^2^)+(0.1141P)^2^+1.8916P] where P=(Fo^2^+2Fc^2^)/3'
_refine_ls_weighting_scheme      calc
_refine_ls_wR_factor_gt          0.1600
_refine_ls_wR_factor_ref         0.1686
_reflns_Friedel_coverage         0.000
_reflns_number_gt                226
_reflns_number_total             266
_reflns_threshold_expression     'I > 2\s(I)'
_cod_data_source_file            ja8b08286_si_005.cif
_cod_data_source_block           P63MMC1
_cod_depositor_comments
;
The following automatic conversions were performed:

data item '_exptl_absorpt_correction_type' value 'Multi-scan' was
changed to 'multi-scan' in accordance with the
/home/saulius/struct/COD-crude-data/automatic-downloads/DataCite-retrospective/ACS/depositions/lib/dictionaries/cif_core.dic
dictionary named 'cif_core.dic' version 2.4.2 last updated on
2011-04-26.

Automatic conversion script
Id: cif_fix_values 6909 2019-04-08 15:41:33Z antanas 
;
_cod_original_cell_volume        710.10(8)
_cod_database_code               4133060
_shelx_shelxl_version_number     2014/7
_shelx_space_group_comment
;
The symmetry employed for this shelxl refinement is uniquely defined
by the following loop, which should always be used as a source of
symmetry information in preference to the above space-group names.
They are only intended as comments.
;
_shelx_res_file
;

    P63MMC1.res created by SHELXL-2014/7


TITL P63MMC1 in P6(3)/mmc
CELL 0.71073  10.0802  10.0802   8.0696  90.000  90.000 120.000
ZERR    2.00   0.0005   0.0005   0.0005   0.000   0.000   0.000
LATT 1
SYMM -Y, X-Y, Z
SYMM -X+Y, -X, Z
SYMM -X, -Y, 0.5+Z
SYMM Y, -X+Y, 0.5+Z
SYMM X-Y, X, 0.5+Z
SYMM Y, X, -Z
SYMM X-Y, -Y, -Z
SYMM -X, -X+Y, -Z
SYMM -Y, -X, 0.5-Z
SYMM -X+Y, Y, 0.5-Z
SYMM X, X-Y, 0.5-Z
SFAC C  H  N  Br I  Pb
UNIT 8 22 2 2 6 2
L.S. 4
OMIT  0   1   1
OMIT 0 50
ACTA
isor br1
simu n1 c1
delu n1 c1
BOND
dfix 1.8 0.02 Br1 C1
dfix 1.65 0.02 n1 c1
dfix 2.55 0.02 br1 n1
TEMP 25
FMAP 2
PLAN 20
WGHT    0.114100    1.891600
FVAR       0.37564
N1    3    0.666667    0.333333    0.750000    10.08333    0.18407    0.18407 =
         0.18100    0.00000    0.00000    0.09203
C1    1    0.817526    0.408763    0.874007    10.33333    0.21348    0.23312 =
         0.17476   -0.00667   -0.01333    0.10674
AFIX   3
H1A   2    0.898766    0.505230    0.836847    10.66667   -1.20000
H1B   2    0.856073    0.339510    0.895577    10.25000   -1.20000
AFIX   0
BR1   4    0.712612    0.425225    1.044869    10.08333    0.25066    0.18229 =
         0.26784   -0.02247   -0.01124    0.09115
PB1   6    1.000000    1.000000    0.000000    10.08333    0.11456    0.11456 =
         0.06769    0.00000    0.00000    0.05728
I1    5    0.855981    0.711961    0.250000    10.25000    0.17891    0.10881 =
         0.12233    0.00000    0.00000    0.05441

HKLF 4

REM  P63MMC1 in P6(3)/mmc
REM R1 =  0.0486 for     226 Fo > 4sig(Fo)  and  0.0549 for all     266 data
REM     21 parameters refined using     16 restraints

END

WGHT      0.0919      1.9249

REM Highest difference peak  0.794,  deepest hole -0.972,  1-sigma level  0.167
Q1    1   0.9600  0.4800  0.7500  10.25000  0.05    0.79
Q2    1   0.7075  0.3537  1.0160  10.50000  0.05    0.56
Q3    1   0.7847  0.3924  1.2500  10.25000  0.05    0.46
Q4    1   0.7568  0.2432  0.7500  10.25000  0.05    0.37
Q5    1   0.8014  0.6028  0.2500  10.25000  0.05    0.33
Q6    1   0.6667  0.3333  0.8569  10.16667  0.05    0.28
Q7    1   0.8698  0.7396  0.1399  10.50000  0.05    0.27
Q8    1   1.0323  1.0646  0.2500  10.25000  0.05    0.27
Q9    1   0.9617  0.9234  0.2500  10.25000  0.05    0.26
Q10   1   1.0927  0.6310  0.7500  10.50000  0.05    0.24
Q11   1   0.9854  0.8457  0.2500  10.50000  0.05    0.23
Q12   1   0.9422  0.7693  0.1805  11.00000  0.05    0.23
Q13   1   1.0330  0.8044  0.2500  10.50000  0.05    0.21
Q14   1   0.8798  0.5824  1.1055  11.00000  0.05    0.14
Q15   1   0.7710  0.2290  0.9556  10.50000  0.05    0.14
Q16   1   0.8366  0.1634  0.9971  10.50000  0.05    0.12
Q17   1   1.0308  1.0617  0.1136  10.50000  0.05    0.12
Q18   1   0.9971  0.2940  0.9379  11.00000  0.05    0.10
Q19   1   1.0000  0.3345  1.0000  10.50000  0.05    0.09
Q20   1   0.8970  0.2972  0.9835  11.00000  0.05    0.09
;
_shelx_res_checksum              65861
_shelx_hkl_file
;
   0   0 -10    4.86    5.24
   0   0  -9   -1.12    4.23
   0   0  -8  261.55   11.20
   0   0  -7    2.26    3.10
   0   0  -6   17.85    3.23
   0   0  -5   -1.96    1.80
   0   0  -4 7641.14  188.62
   0   0  -3    0.20    1.00
   0   0  -2 1322.66   33.53
   0   0  -2 1380.47   34.11
   0   0  -1    7.69    0.64
   0   0   1   -0.25    0.38
   0   0   1    0.39    0.32
   0   0   2 1354.21   33.79
   0   0   3    0.35    0.96
   0   0   4 7676.82  188.31
   0   0   5   -1.68    1.97
   0   0   5   -0.95    1.62
   0   0   6   18.34    2.56
   0   0   6   15.55    2.91
   0   0   7   -0.36    2.78
   0   0   7    1.31    2.38
  -1   1 -10   15.28    5.13
  -1   0 -10    3.59    5.13
   0   1 -10    9.49    5.16
   0  -1  -9    2.26    4.26
  -1   1  -9    7.85    4.38
   0   1  -9   -1.10    3.89
   1   0  -9   -0.56    4.19
  -1   0  -9    6.70    4.44
   0  -1  -8  111.19    7.10
  -1   0  -8  119.82    7.44
   1   0  -8  101.63    7.12
   0   1  -8  109.40    7.17
   1  -1  -8  120.24    7.35
  -1   1  -8  114.39    7.29
   1  -1  -7   -2.62    2.85
   0   1  -7    0.46    2.87
   1   0  -7   -2.65    3.07
  -1   0  -7    0.46    2.98
   0  -1  -7    3.55    2.98
  -1   1  -7   -1.36    2.85
  -1   0  -6  138.46    6.84
   1  -1  -6  128.33    6.57
   1   0  -6  125.64    6.51
   0   1  -6  146.15    6.96
  -1   1  -6  143.27    6.89
   0  -1  -6  127.58    6.70
   1   0  -5   64.70    4.15
  -1   0  -5   67.04    3.60
  -1   1  -5   64.79    4.31
   0   1  -5   60.81    4.11
   1  -1  -5   66.12    4.08
   0  -1  -5   73.40    4.32
  -1   0  -5   72.45    4.48
   0   1  -4 1926.28   49.35
  -1   1  -4 1937.91   49.28
   0  -1  -4 1925.75   49.09
  -1   0  -4 1919.44   49.20
  -1   0  -4 1891.69   48.25
   1   0  -4 1919.49   49.10
   1  -1  -4 1853.78   48.90
   0   1  -3   89.77    4.09
  -1   1  -3   91.26    4.03
   1   0  -3  107.07    4.15
  -1   0  -3   90.97    4.02
   0  -1  -3  104.40    4.02
  -1   0  -3   94.73    3.58
   1  -1  -3  101.09    3.93
  -1   0  -2  313.46    8.12
  -1   1  -2  292.39    8.51
   0  -1  -2  279.85    8.30
   0   1  -2  283.94    8.63
   1   0  -2  311.60    8.51
  -1   0  -2  291.18    8.41
  -1   0  -1   46.31    1.65
  -1   1  -1   44.70    1.56
  -1   1  -1   46.71    1.78
   1  -1   0 5020.65  122.39
  -1   1   1   44.54    1.55
   1  -1   1   44.26    1.73
   0  -1   1   47.02    1.92
   0  -1   2  316.15    8.81
   1  -1   2  286.57    8.51
  -1   0   2  303.11    8.46
   0   1   2  279.79    8.18
   0   1   2  299.55    8.08
  -1   1   2  295.49    8.05
  -1   1   3   92.18    3.48
   1   0   3   90.91    3.83
  -1   0   3   91.86    3.96
   0   1   3  102.78    3.60
   0  -1   3   92.53    4.09
   0   1   3   95.75    3.78
   0   1   4 1861.63   48.08
  -1   0   4 1932.29   48.11
  -1   1   4 1864.25   48.02
   0   1   4 1947.59   48.69
   1   0   4 1926.51   48.78
  -1   1   4 1917.24   48.58
   0   1   5   61.21    3.48
   0   1   5   63.38    3.83
  -1   1   5   67.88    3.52
  -1   1   5   70.13    3.94
   1   0   5   67.10    4.05
  -1   0   5   65.08    3.52
   0   1   6  140.38    5.73
  -1   0   6  135.53    6.45
   1   0   6  132.36    6.36
   1  -1   6  131.75    6.48
   0   1   6  137.61    6.23
  -1   0   6  138.28    5.80
  -1   1   6  131.95    5.73
  -1   1   6  145.78    6.40
   0  -1   7   -0.39    2.89
  -1   0   7    7.37    2.79
   1   0   7    0.36    2.69
   1  -1   7   -0.39    2.72
   0   1   7    1.36    2.58
  -1   1   7    2.13    2.50
   0   1   7   -1.31    2.45
  -1   1   7    1.73    2.66
  -1   0   7    1.85    2.74
  -1   2 -10   23.03    5.71
  -1  -1 -10   16.86    5.53
  -2   1 -10   20.73    5.42
  -1   2  -9   -2.74    4.01
  -2   1  -9    3.86    4.32
  -1  -1  -9   -0.56    4.23
   1   1  -9   -1.10    4.18
  -2   1  -8   61.93    5.72
  -1   2  -8   56.05    5.52
  -1  -1  -8   75.94    6.06
   1   1  -8   57.34    5.59
  -1   2  -7    0.45    3.14
  -1  -1  -7    3.23    3.12
   1   1  -7    2.22    3.01
  -2   1  -7    2.70    2.96
  -1  -1  -6  604.16   18.22
   1   1  -6  551.96   17.80
  -2   1  -6  581.36   17.88
  -1   2  -6  570.76   18.08
  -1  -1  -6  556.12   16.56
   1  -2  -5   -0.83    1.80
  -2   1  -5    0.96    1.95
  -1  -1  -5   -1.48    1.76
   1   1  -5   -0.98    1.97
  -2   1  -5    0.85    1.81
  -1  -1  -5   -1.62    2.00
  -1   2  -5   -0.33    2.07
  -1  -1  -4  481.91   13.51
  -2   1  -4  464.53   14.24
  -1  -1  -4  500.46   14.49
  -2   1  -4  504.35   13.62
  -1   2  -4  486.45   14.54
   1   1  -4  452.95   14.36
  -1  -1  -3    0.72    1.13
  -1  -1  -3    0.89    0.95
  -2   1  -3    1.42    1.08
  -2   1  -3    1.28    1.10
  -1   2  -3    0.42    1.25
  -2   1  -2 5310.26  129.13
  -2   1  -2 5270.22  129.45
  -1  -1  -2 5227.49  129.42
  -1  -1  -1    0.23    0.36
   2  -1  -1    0.50    0.56
   1  -2   0 1920.12   48.19
   2  -1   0 2014.29   48.53
  -1  -1   0 1981.12   48.20
  -2   1   0 1999.56   48.55
   1  -2   1    0.50    0.61
  -1  -1   1    0.79    0.68
  -1   2   2 5278.17  128.69
  -1   2   2 5247.24  128.76
  -1  -1   2 5200.30  129.44
   1   1   2 5255.58  128.74
   1  -2   2 5293.75  129.50
   1  -2   3   -0.43    1.30
   1   1   3    1.58    1.07
  -1   2   3   -0.85    1.00
  -1   2   3    0.80    0.96
  -1  -1   3    1.23    1.43
   2  -1   4  471.66   14.30
   2  -1   4  468.72   13.52
   1  -2   4  510.55   14.80
  -2   1   4  483.34   13.64
   1   1   4  532.13   14.11
  -1   2   4  499.14   13.88
   1  -2   4  467.02   13.50
  -1   2   4  480.41   13.55
  -1  -1   4  489.30   14.60
  -1   2   5    3.99    1.79
   2  -1   5    1.15    1.95
  -2   1   5    3.02    1.89
   2  -1   5    1.93    1.76
  -1   2   5   -0.40    1.72
   1   1   5    4.23    1.88
  -1  -1   5    0.64    2.02
   1  -2   5    0.19    1.72
  -1  -1   5    1.22    1.86
  -1  -1   6  555.48   16.37
   1  -2   6  581.10   16.32
  -2   1   6  562.80   16.43
   2  -1   6  559.76   16.28
  -1   2   6  557.85   16.26
  -1   2   6  570.68   16.78
   1   1   6  584.58   17.00
   2  -1   6  551.09   17.26
  -2   1   6  555.91   16.85
  -2   1   7   -0.28    2.61
  -2   1   7    0.36    2.74
   1   1   7    3.33    2.75
   2  -1   7    0.38    2.88
   1  -2   7    0.54    2.51
  -1  -1   7    2.23    2.59
  -1   2   7    1.96    2.56
   2  -1   7   -0.78    2.62
  -1   2   7   -2.95    2.59
   1   1   8   52.06    4.83
  -2   0 -10   14.14    5.64
  -2   2 -10   28.61    5.51
   0   2 -10   19.14    5.31
  -2   2  -9    2.16    3.82
  -2   0  -9    2.27    4.34
   0   2  -9    1.62    4.05
  -2   0  -8   25.11    4.61
   0  -2  -8   28.50    4.64
  -2   2  -8   32.14    4.71
   0   2  -8   26.30    4.40
  -2   2  -7   60.27    5.16
   0  -2  -7   56.63    4.77
   0   2  -7   71.57    5.30
  -2   0  -7   78.30    5.57
  -2   0  -6  508.23   15.32
  -2   0  -6  554.34   17.00
  -2   2  -6  535.01   16.63
   0   2  -6  528.20   16.82
   0  -2  -6  505.62   16.27
   2   0  -6  508.11   16.46
  -2   0  -5  339.47   11.26
   2   0  -5  300.48   10.67
  -2   0  -5  318.78   10.00
  -2   2  -5  319.43   10.95
   0   2  -5  316.30   11.07
   0  -2  -5  324.28   10.68
   0  -2  -4   93.03    4.19
  -2   2  -4  103.00    4.61
  -2   0  -4   93.05    4.45
  -2   0  -4   88.83    3.86
  -2   0  -3 2055.27   51.43
  -2   0  -3 2043.37   51.91
   0  -2  -3 2062.36   51.68
  -2   2  -3 2075.93   52.10
  -2   2  -2 4870.56  117.84
  -2   0  -2 4723.88  117.49
   2  -2  -1 5199.20  127.34
   0   2   0   32.90    1.15
  -2   0   0   31.32    1.36
   2  -2   0   29.80    1.34
   2  -2   1 5163.28  125.82
  -2   2   1 5236.04  125.83
   0  -2   1 4948.44  126.49
   0   2   2 4695.31  117.69
   0  -2   2 4811.75  118.69
   2  -2   2 4813.67  117.64
  -2   0   2 4837.37  118.14
  -2   2   2 4875.92  117.68
  -2   2   3 2062.32   51.60
   2  -2   3 2061.55   51.58
  -2   2   3 2037.59   51.76
   0   2   3 2083.07   51.80
   2   0   3 2069.44   51.92
  -2   0   3 2073.19   52.24
   0  -2   3 2112.91   52.86
  -2   2   4  102.54    4.05
  -2   2   4   96.37    4.22
   0  -2   4  104.13    5.04
  -2   0   4   91.36    4.52
   2   0   4  101.22    4.42
   0   2   4  102.37    4.23
   2  -2   4   97.62    3.99
  -2   0   5  320.71   10.13
  -2   2   5  327.26   10.41
   2  -2   5  333.21   10.05
   2   0   5  327.13   10.68
   0   2   5  327.40   10.43
  -2   2   5  319.94    9.97
   0  -2   5  320.32   11.27
   2   0   6  505.88   15.71
   0   2   6  508.14   15.40
  -2   0   6  526.84   15.34
   2  -2   6  525.15   15.07
   0  -2   6  515.85   16.67
   2  -2   6  497.14   16.34
  -2   2   6  509.00   15.48
  -2   2   6  524.78   15.15
  -2   0   7   72.02    4.69
   2  -2   7   65.71    5.19
  -2   2   7   76.04    4.85
   2   0   7   65.52    4.81
   0   2   7   75.87    4.81
   2  -2   7   76.49    4.38
  -2   2   7   69.60    4.57
   0   2   8   38.79    4.38
  -3   2 -10    5.67    5.02
  -2  -1 -10    9.40    5.04
  -1   3 -10   10.33    5.19
   1   2 -10   12.26    5.33
  -3   1 -10    7.53    5.04
  -2   3 -10   13.83    4.96
  -3   1  -9    6.48    4.22
  -3   2  -9    5.84    4.18
  -2  -1  -9    1.11    4.39
  -2   3  -9    3.20    3.95
   1   2  -9   -1.63    4.15
  -1  -2  -9   -3.80    4.51
  -1   3  -9    6.01    4.38
  -3   1  -8   48.99    5.18
  -2  -1  -8   39.64    4.30
  -1   3  -8   53.17    5.37
   1   2  -8   53.80    5.52
  -2   3  -8   57.61    5.52
  -3   2  -8   48.03    5.19
  -1  -2  -8   42.95    5.22
  -2  -1  -8   44.55    5.22
  -3   1  -7   10.33    3.46
  -3   2  -7    6.76    3.14
   1   2  -7    0.89    3.07
  -2   3  -7    5.32    3.18
  -2  -1  -7   10.49    3.54
  -1  -2  -7    7.29    3.09
   2   1  -7    8.40    3.28
  -2  -1  -7    6.21    2.76
  -1   3  -7    9.43    3.28
  -2  -1  -6  278.57    9.66
  -3   1  -6  289.91    9.86
  -3   1  -6  317.66   10.99
   1  -3  -6  275.91    9.73
  -2   3  -6  297.00   10.88
  -1   3  -6  289.86   10.99
  -3   2  -6  310.32   10.94
   2   1  -6  265.08   10.67
  -1  -2  -6  310.40   10.91
  -2  -1  -6  283.08   10.86
  -3   2  -5  132.51    5.89
  -2  -1  -5  113.52    5.10
  -1  -2  -5  128.57    5.94
  -2  -1  -5  132.45    6.16
   1  -3  -5  126.62    5.22
  -2   3  -5  125.46    5.98
  -3   1  -5  123.86    5.79
  -3   1  -5  125.07    5.24
   1  -3  -4  366.52   10.69
  -1  -2  -4  375.36   11.36
  -3   1  -4  367.42   10.74
   2  -3  -4  364.30   10.67
  -2  -1  -4  371.99   11.52
  -3   2  -4  363.45   10.76
  -3   1  -4  358.48   11.19
  -2  -1  -4  364.05   10.67
  -3   2  -4  369.46   11.30
  -2   3  -4  363.11   11.60
   1  -3  -3  351.72    9.96
   2  -3  -3  346.39    9.89
  -2  -1  -3  363.41   10.03
  -1  -2  -3  353.26   10.23
  -3   2  -3  356.14    9.95
  -3   1  -3  352.37    9.96
  -2  -1  -3  347.93   10.36
  -3   2  -3  343.84   10.38
  -3   1  -3  354.11   10.35
   1   2  -2 2332.40   57.38
  -3   1  -2 2314.66   56.96
  -2  -1  -2 2276.48   56.73
  -3   2  -2 2260.78   56.64
  -3   2  -2 2276.03   57.12
   2  -3  -2 2286.28   56.59
  -1  -2  -2 2263.31   56.61
   1  -3  -2 2312.83   56.69
  -3   1  -2 2298.63   56.69
   3  -2  -2 2311.41   57.29
   1   2  -1 1137.57   28.02
   2   1  -1 1103.26   27.86
   2  -3  -1 1118.70   27.94
  -1   3  -1 1113.72   28.16
  -3   2  -1 1111.69   27.59
   2  -3  -1 1092.44   27.56
   3  -2  -1 1131.91   28.19
  -1   3   0  571.06   14.43
  -1  -2   0  603.45   14.71
  -1  -2   0  589.07   14.45
  -2   3   0  564.94   14.78
  -2  -1   0  568.88   14.82
   3  -2   0  587.58   15.10
  -3   1   0  582.86   15.15
  -2  -1   1 1099.14   27.51
  -1  -2   1 1087.30   27.75
  -3   1   1 1078.59   27.63
   1   2   2 2296.39   56.18
  -1  -2   2 2279.06   57.51
   1  -3   2 2296.64   57.44
  -2  -1   2 2242.72   57.16
   1  -3   3  354.21   11.09
   1   2   3  335.26    9.78
  -1   3   3  351.58    9.84
  -2  -1   3  346.65   10.72
  -1  -2   3  352.96   11.06
  -2   3   3  361.56    9.93
   2  -3   3  353.42    9.85
  -3   1   3  364.83   10.34
   3  -2   3  347.55    9.82
   2  -3   3  353.79   10.86
   2   1   3  362.60    9.89
  -3   2   3  344.43    9.90
  -2   3   3  348.79    9.86
  -2   3   4  365.40   10.64
  -2  -1   4  361.34   11.57
  -1   3   4  361.16   10.64
   2   1   4  369.84   10.79
   1   2   4  367.12   10.74
  -3   2   4  373.39   10.67
   1  -3   4  347.22   11.86
   2  -3   4  359.85   10.59
  -2   3   4  372.48   10.77
  -3   1   4  357.44   11.09
  -1  -2   4  378.99   11.98
   2  -3   4  345.50   11.73
   3  -2   4  363.74   10.55
  -2   3   5  129.90    5.36
  -3   2   5  122.47    5.48
  -2   3   5  127.01    5.19
   2   1   5  120.47    5.39
   3  -1   5  127.47    5.68
  -1  -2   5  121.93    6.21
  -1   3   5  129.00    5.32
   1   2   5  141.12    5.48
   2  -3   5  117.67    6.11
   3  -2   5  129.16    5.12
  -2  -1   5  115.41    5.80
   1  -3   5  145.67    6.63
   1  -3   5  137.56    5.31
   2  -3   5  119.39    5.11
   3  -2   5  128.00    5.95
  -3   1   5  124.59    5.34
  -3   2   5  138.46    5.34
   3  -2   6  302.40   10.83
  -3   2   6  287.20   10.13
  -3   1   6  302.61    9.90
   2  -3   6  299.87    9.69
  -2   3   6  295.96    9.73
  -3   2   6  291.50    9.83
   3  -2   6  298.80    9.71
   2   1   6  279.57    9.91
  -2   3   6  272.97    9.76
  -2  -1   6  274.75   10.63
   1  -3   6  273.94    9.68
   3  -1   6  286.31   10.31
  -1  -2   6  295.01   11.11
   1   2   6  310.11   10.08
   1  -3   6  343.06   11.62
  -1   3   6  293.60    9.93
   1  -3   7    9.73    2.93
  -2  -1   7    4.63    2.72
  -2   3   7    9.02    2.77
  -3   1   7    6.77    2.97
  -1   3   7    5.80    2.47
   2   1   7    9.41    2.88
   1   2   7    9.79    2.99
  -2  -1   7    5.73    3.01
  -3   1   7    4.04    2.88
   1  -3   7   -0.90    3.17
  -1  -2   7    5.18    3.39
  -3   2   7   12.03    3.02
   3  -1   7    6.60    3.01
  -2   3   7    5.64    2.65
   3  -2   7    3.57    3.10
   3  -2   7    7.29    2.67
  -3   2   7    5.02    2.81
   2  -3   7    3.16    2.59
  -1   3   8   46.53    4.42
   2   1   8   46.62    4.48
   1   2   8   55.00    4.69
   0   3 -10    5.72    4.85
  -3   3 -10   -1.12    4.59
  -3   0 -10    4.71    5.48
   0   3  -9    1.61    4.26
  -3   0  -9    1.65    4.31
  -3   3  -9    5.26    4.19
  -3   3  -8   36.71    4.88
   0   3  -8   39.69    5.26
  -3   0  -8   37.25    5.03
   0  -3  -7    6.92    2.87
  -3   0  -7   17.96    3.77
  -3   0  -7    9.91    2.91
  -3   3  -7    9.35    3.12
  -3   0  -6  325.42   10.95
  -3   0  -6  362.32   12.33
   0  -3  -6  337.34   11.06
  -3   3  -6  346.54   12.12
  -3   3  -5  115.70    5.47
  -3   0  -5  122.44    5.74
  -3   0  -5  105.68    4.76
   0  -3  -5  109.87    4.84
  -3   0  -4  236.64    7.65
  -3   3  -4  236.36    8.27
  -3   0  -4  255.25    8.29
  -3   0  -3  566.32   15.32
   0   3  -3  537.50   16.00
  -3   0  -3  568.19   15.09
  -3   3  -3  558.65   15.67
   3   0  -2 2928.89   74.69
  -3   3  -2 2981.71   74.77
  -3   0  -2 3029.70   74.34
   0   3  -2 3038.55   75.04
   3  -3  -2 3075.02   74.81
   0   3  -1 1062.16   26.94
   3  -3  -1 1054.04   26.87
   3  -3   0  415.20   11.58
   0   3   0  443.71   11.26
  -3   0   0  451.69   11.68
   0  -3   1 1055.79   27.26
   3  -3   1 1071.05   26.33
  -3   0   1 1080.11   27.12
  -3   3   1 1060.29   26.33
   0  -3   2 2976.14   75.45
  -3   3   2 3008.89   74.22
   0   3   2 3035.70   74.03
   3  -3   2 3014.10   74.17
  -3   3   3  536.27   14.54
   0   3   3  541.50   14.51
   3  -3   3  553.65   14.53
   0  -3   3  552.75   16.01
  -3   0   3  539.67   15.24
   0  -3   4  243.74    9.17
   0   3   4  247.19    7.79
  -3   3   4  243.26    7.91
   3  -3   4  246.72    7.68
  -3   0   4  247.78    8.43
  -3   3   4  249.13    7.80
   0  -3   5  129.20    6.28
   3  -3   5  112.69    4.68
  -3   0   5   90.56    5.16
   3   0   5  103.56    4.94
  -3   3   5  110.39    4.77
   0   3   5  109.98    4.82
  -3   3   5  120.02    5.05
  -3   3   6  337.93   11.27
   3  -3   6  345.19   10.86
   0  -3   6  349.93   12.59
   0   3   6  361.94   11.21
  -3   3   6  347.29   11.11
  -3   0   6  334.72   11.12
  -3   0   6  339.48   11.78
   3   0   6  334.20   11.43
   0  -3   6  349.56   11.06
   3   0   7   11.43    2.96
  -3   3   7   11.99    2.97
   0   3   7   10.54    2.83
  -3   3   7   14.33    3.12
   3  -3   7   11.95    3.71
   3  -3   7   14.92    2.99
  -3   0   7   15.73    3.24
   0  -3   7   15.04    2.91
   0   3   8   37.73    4.10
  -2  -2 -10    0.57    5.09
  -4   2 -10   11.72    5.41
  -2  -2  -9   -1.06    4.33
  -4   2  -9    2.61    3.99
  -2   4  -9    2.67    4.32
  -2   4  -8   79.91    6.51
  -2  -2  -8   76.96    5.31
  -4   2  -8   90.81    6.32
  -2  -2  -8   86.18    6.51
  -4   2  -7   -4.16    3.32
  -2  -2  -7    1.32    3.04
  -2  -2  -7   -1.19    2.74
  -2   4  -7   -1.34    3.43
  -4   2  -6   17.10    3.07
  -4   2  -6   13.82    2.77
   2  -4  -6   20.62    2.97
  -2  -2  -6   14.22    3.28
  -2  -2  -6   16.64    2.70
  -4   2  -5    1.45    1.95
  -2  -2  -5    0.22    1.83
  -4   2  -5    2.02    2.12
   2  -4  -5    1.52    1.90
  -2  -2  -5   -0.31    2.16
  -4   2  -4 1796.89   47.08
  -2  -2  -4 1875.29   47.30
  -4   2  -4 1843.24   46.59
   2  -4  -4 1848.53   46.54
  -2  -2  -4 1864.93   46.62
   2   2  -4 1763.10   47.40
   4  -2  -3   -1.87    1.56
   2  -4  -3    2.67    1.21
  -2  -2  -3    1.18    1.17
   2   2  -3    0.82    1.24
  -4   2  -3    0.69    1.18
  -4   2  -3    1.68    1.21
  -4   2  -2   49.39    2.14
  -2  -2  -2   47.45    2.05
   4  -2  -2   47.40    2.64
  -2   4  -2   51.39    2.69
   2  -4  -2   48.51    2.15
   2   2  -1   -0.49    0.60
   4  -2  -1    0.39    1.14
  -2   4  -1    0.12    0.73
   2  -4  -1    1.17    0.68
  -2  -2   0 6433.04  156.31
   4  -2   0 6595.36  156.96
  -2  -2   0 6215.65  156.36
  -2   4   0 6381.55  156.28
  -4   2   0 6525.53  157.05
  -4   2   1    0.28    0.97
  -2  -2   1    0.38    0.96
  -2  -2   2   50.99    2.91
  -2   4   3   -0.12    0.81
   2  -4   3    2.74    1.73
  -2  -2   3    2.47    1.57
  -2   4   4 1826.63   45.83
  -2  -2   4 1758.53   47.28
   2  -4   4 1791.71   47.43
   2   2   4 1826.87   45.64
   2  -4   5    0.81    1.91
   2  -4   5   -1.90    2.53
   2   2   5   -0.60    1.63
  -2   4   5   -2.73    2.01
  -2  -2   5   -1.45    2.54
  -4   2   5    1.75    1.96
  -4   2   6   15.75    2.88
  -4   2   6   15.24    2.96
   2  -4   6   12.08    3.27
  -2   4   6   17.83    2.55
   2   2   6   19.57    2.70
  -2  -2   6   18.32    3.47
   2  -4   6   15.40    2.62
   2   2   7    0.29    2.67
  -2   4   7    5.03    2.82
   2  -4   7   -1.34    2.68
  -4   2   7    2.34    2.79
  -2   4   8   82.44    5.47
   2   2   8   84.08    5.59
  -3  -1 -10    6.90    5.36
  -4   3 -10   11.09    4.89
  -4   1 -10    7.34    5.15
  -3  -1  -9   -1.11    4.60
  -4   1  -9    3.71    4.31
  -4   3  -9    8.30    4.37
  -3   4  -9   -0.53    4.25
  -1   4  -9    3.83    4.22
  -4   1  -8   53.19    5.44
  -3   4  -8   43.70    5.19
  -3  -1  -8   40.72    4.27
  -3  -1  -8   47.81    5.58
  -4   3  -8   42.65    5.08
  -4   1  -7   -3.08    3.11
  -1  -3  -7   -2.35    2.69
  -4   1  -7    0.84    3.19
  -3  -1  -7    1.36    3.20
   1  -4  -7    0.61    2.85
  -3  -1  -7   -3.00    2.83
  -3   4  -7   -1.73    3.12
  -4   3  -7    0.42    3.09
  -3  -1  -6   89.12    4.75
  -3   4  -6   95.14    5.72
  -4   1  -6   90.14    4.82
   1   3  -6   89.53    5.88
  -4   1  -6   78.61    5.19
   1  -4  -6   92.09    4.92
  -3  -1  -6   88.77    5.76
  -1  -3  -6  101.83    5.32
  -4   3  -6  103.25    5.69
  -1  -3  -5    1.79    1.87
  -3  -1  -5   -0.44    1.85
   1  -4  -5    2.86    1.95
  -4   1  -5    3.15    2.08
  -3   4  -5    2.28    2.26
  -4   1  -5    1.77    2.04
  -3  -1  -5   -1.27    2.24
  -4   3  -5    5.40    2.31
   1   3  -5    6.61    2.44
  -4   1  -4  663.58   18.09
   1   3  -4  663.57   19.19
  -4   1  -4  654.85   18.50
  -1   4  -4  697.26   19.33
  -3  -1  -4  694.70   18.80
  -4   3  -4  650.52   18.74
   1  -4  -4  656.77   18.12
  -1  -3  -4  636.09   18.08
  -3  -1  -4  680.46   18.16
   4  -3  -3    0.21    1.50
  -1   4  -3   -0.24    1.45
  -3  -1  -3   -0.16    1.14
  -4   1  -3   -0.17    1.17
  -4   3  -3    1.49    1.17
  -1  -3  -3    0.22    0.84
   3  -4  -3    0.12    1.05
  -4   3  -3    1.41    1.25
  -4   1  -3    1.56    1.21
   1   3  -3   -0.23    1.55
   3  -4  -2  357.07   10.12
   3   1  -2  371.42   10.12
   1   3  -2  345.43   10.27
   4  -3  -2  352.93   10.28
  -1   4  -2  335.82   10.31
  -3  -1  -2  375.06    9.62
  -4   3  -2  342.38    9.51
   3  -4  -2  336.65    9.43
   1   3  -1    4.83    0.86
  -1   4  -1    1.61    0.91
   3  -4  -1    2.55    0.92
   3   1  -1    2.25    0.80
   1  -4  -1    3.07    0.63
   1   3  -1    5.57    0.63
   4  -3  -1    3.75    1.11
  -4   3  -1    4.01    0.63
  -4   1  -1    2.35    0.96
   3  -4  -1    3.20    0.58
  -1  -3   0 2229.10   54.97
  -1   4   0 2217.03   55.11
  -3   4   0 2259.41   55.26
  -4   1   0 2226.50   55.64
  -3  -1   0 2227.99   55.29
  -1  -3   1    3.70    1.18
  -4   1   1    1.14    0.99
   3  -4   2  341.69    9.30
  -4   3   2  342.15    9.39
  -3  -1   2  352.84   10.12
  -1  -3   2  348.38   10.70
   1  -4   2  345.65   10.48
  -1  -3   3    0.56    1.75
   1   3   3   -0.09    0.83
   3  -4   3    1.21    1.14
   1  -4   3    0.28    1.67
  -1   4   3    1.08    0.93
  -4   3   3    0.77    1.25
  -3  -1   3   -0.66    1.46
   1  -4   4  681.12   19.93
  -4   3   4  670.42   18.45
   4  -3   4  660.82   18.01
  -4   1   4  663.27   18.74
   3  -4   4  682.43   18.12
  -3   4   4  670.89   18.17
  -1  -3   4  693.20   20.02
   1   3   4  683.21   17.94
  -3  -1   4  639.21   19.13
  -1   4   4  669.16   18.03
  -4   3   4  660.07   18.19
  -3   4   4  679.61   18.22
  -4   3   5    3.12    1.89
  -3  -1   5    7.82    2.55
   3  -4   5    2.82    2.46
   1   3   5    5.64    1.85
   1  -4   5    5.50    2.89
  -1   4   5    3.80    1.84
  -4   3   5    3.51    2.05
  -1  -3   5    0.77    2.70
   4  -3   5    2.47    1.76
   3  -4   5    3.85    1.89
  -4   1   5    5.53    2.28
  -3   4   5    3.95    1.97
  -3   4   5    6.49    2.12
  -4   1   6   89.82    4.94
   3   1   6   93.83    4.86
   3  -4   6   91.67    5.79
  -4   3   6   94.74    5.13
  -1   4   6   85.23    4.61
  -3   4   6   90.71    4.81
  -3  -1   6   93.05    5.58
  -1  -3   6  101.27    6.17
   3  -4   6   95.95    4.88
   1  -4   6   89.33    4.86
   4  -3   6   89.70    4.70
  -3   4   6   81.67    4.76
   1  -4   6  104.29    6.26
   1   3   6   95.73    4.68
  -4   3   6   88.00    4.83
   1   3   7    2.80    2.52
   1  -4   7   -0.55    2.69
  -4   1   7    2.41    2.79
  -1   4   7    2.84    2.48
  -3   4   7   -0.30    2.45
   3  -4   7    1.32    2.81
   3   1   7    2.99    2.54
  -4   3   7   -3.34    2.96
  -4   3   7    2.57    2.83
   4  -3   7   -0.79    2.72
  -3   4   7    0.57    2.75
   3   1   8   48.23    4.52
   1   3   8   54.06    4.49
  -1   4   8   49.37    4.42
  -4   0 -10   13.77    5.57
  -4   0  -9    2.15    4.45
  -4   4  -9    2.61    4.14
  -4   4  -8   19.28    4.26
  -4   0  -8   18.29    3.83
   0  -4  -8   18.06    3.82
  -4   0  -7   15.79    3.74
  -4   0  -7   13.02    3.06
   0  -4  -7    7.10    3.16
  -4   4  -7   13.36    3.53
   0   4  -7   18.69    3.84
  -4   4  -6  201.69    8.45
   0  -4  -6  204.32    7.78
  -4   0  -6  210.92    8.53
  -4   0  -6  187.46    7.57
   0   4  -6  223.37    9.14
   0  -4  -5   86.64    4.26
   0   4  -5   73.91    4.86
  -4   0  -5   86.79    4.63
  -4   0  -5   80.72    4.23
  -4   4  -5   84.32    4.81
  -4   0  -4  173.32    6.13
   0  -4  -4  181.81    6.17
  -4   4  -4  160.94    6.57
   0   4  -4  155.31    6.82
  -4   0  -4  175.35    6.33
   4   0  -3  454.39   12.88
   0   4  -3  428.18   13.14
  -4   0  -3  442.07   12.48
   4  -4  -3  438.46   12.96
  -4   4  -3  439.42   13.01
   4   0  -2 1579.13   39.52
   0   4  -2 1546.47   39.75
   4  -4  -2 1536.14   39.58
   4   0  -1  790.44   20.44
   0   4  -1  772.04   20.41
   4  -4  -1  788.80   20.55
  -4   0  -1  777.65   20.54
  -4   4  -1  788.98   20.52
  -4   4   0  240.85    7.01
  -4   0   0  239.22    7.09
   0   4   0  229.30    6.46
  -4   4   1  790.60   20.93
   0  -4   1  797.09   20.97
  -4   0   1  822.54   21.09
   0  -4   2 1540.32   39.79
   0   4   2 1531.51   37.81
  -4   4   2 1535.67   38.19
   4  -4   2 1535.14   38.14
   4  -4   3  429.01   11.82
  -4   4   3  433.85   11.95
  -4   0   3  455.33   12.80
   0  -4   3  443.83   13.70
   0   4   3  429.36   11.68
  -4   0   4  181.92    6.99
   4  -4   4  179.87    6.11
  -4   4   4  185.55    6.28
   0  -4   4  196.10    7.94
   0   4   4  180.16    5.99
  -4   4   5   77.89    4.10
   4  -4   5   79.70    3.93
  -4   0   5   76.08    4.63
   0   4   5   78.71    3.82
   0  -4   5   75.53    5.30
  -4   4   5   83.06    4.12
   0   4   6  207.48    7.60
   0  -4   6  217.79    9.63
  -4   0   6  219.63    8.72
   4  -4   6  206.10    7.62
  -4   4   6  207.49    7.74
  -4   4   6  212.38    7.93
   0   4   7   12.39    2.81
  -4   4   7   12.02    3.25
   4  -4   7   18.85    3.18
  -4   4   7   14.39    3.19
   0   4   8   20.60    3.70
  -3  -2 -10   -4.49    5.53
  -5   2 -10    7.16    4.73
  -3  -2  -9    3.04    3.79
  -5   3  -9    1.01    4.27
  -5   2  -9   -6.13    4.38
  -3   5  -9   -0.54    4.30
  -3  -2  -9    3.67    4.29
   2   3  -8   40.50    5.30
  -3   5  -8   48.73    5.39
  -3  -2  -8   49.42    4.93
  -5   3  -8   49.51    5.44
  -2  -3  -8   50.35    5.30
  -5   2  -8   50.26    5.26
  -3  -2  -8   43.72    5.33
   2  -5  -7    0.63    3.01
  -2  -3  -7    3.09    3.08
  -5   2  -7    5.73    3.20
   2   3  -7    3.11    3.30
  -3  -2  -7    5.20    3.60
  -5   2  -7    0.94    2.97
  -5   3  -7    3.31    3.37
  -3  -2  -7   -4.54    3.01
  -2  -3  -6   15.03    2.99
   2   3  -6   15.26    3.34
  -5   2  -6   25.16    3.32
   2  -5  -6   18.36    2.89
  -3  -2  -6   18.98    3.07
  -3  -2  -6   26.01    3.54
  -5   3  -6   17.94    3.07
  -5   2  -6   17.33    3.09
   2   3  -5   -1.00    2.48
  -3  -2  -5    1.64    2.13
  -5   3  -5    2.55    2.22
  -2  -3  -5    0.26    1.97
   2  -5  -5    4.09    2.19
   3  -5  -5    4.39    2.21
  -5   2  -5   -1.62    2.23
  -2   5  -5    1.07    2.50
  -5   3  -5    1.49    2.22
  -5   2  -5    3.17    2.29
  -3  -2  -5    2.46    2.37
  -5   3  -4 1017.10   26.43
   5  -3  -4  997.27   27.23
  -3  -2  -4  981.10   26.91
  -2  -3  -4  999.00   26.38
   2  -5  -4 1026.94   26.38
  -5   3  -4 1004.15   27.03
  -2   5  -4  971.19   27.46
  -5   2  -4  957.49   26.83
   2   3  -4  980.65   27.19
   3  -5  -4 1018.54   26.27
  -5   2  -4 1004.48   26.32
  -3   5  -3   15.03    2.12
  -2   5  -3   14.27    2.11
   5  -3  -3   16.99    2.13
   2   3  -3   11.27    1.80
  -5   3  -3    9.87    1.59
   3  -5  -3   12.91    1.58
  -5   3  -3   14.80    1.97
  -5   2  -3   13.98    1.86
  -3  -2  -3   14.85    1.63
   2  -5  -3   10.73    1.65
  -5   2  -3   10.50    1.64
  -2  -3  -3   13.90    1.42
   3   2  -2    8.81    1.31
   5  -3  -2   13.01    1.71
  -2  -3  -2    9.78    0.78
  -3   5  -2   13.55    1.57
  -3  -2  -2    8.22    0.97
   2  -5  -2    9.41    1.28
   3  -5  -2    7.72    1.31
   2   3  -2    9.27    1.21
   3  -5  -2   12.84    1.27
  -2   5  -2   10.03    1.64
  -5   3  -2   12.13    1.25
   5  -3  -1   21.22    1.94
  -3   5  -1   15.54    1.32
  -2   5  -1   19.35    1.63
   3   2  -1   21.57    1.44
  -2   5  -1   18.14    1.15
  -3  -2  -1   17.90    1.38
   3  -5  -1   18.18    1.47
  -5   2  -1   15.12    1.74
   2  -5  -1   16.82    1.22
   2   3  -1   20.20    1.15
  -2   5   0 3295.71   80.99
  -2  -3   0 3285.60   81.05
  -3  -2   0 3315.48   81.35
  -5   2   0 3331.07   82.04
  -2  -3   0 3297.53   81.36
  -3   5   0 3312.74   81.30
  -5   2   1   15.53    1.72
  -3  -2   1   19.21    1.61
  -3  -2   2   11.26    1.74
  -2  -3   2    8.92    1.86
  -3  -2   3    9.93    2.26
  -2  -3   3   11.73    2.52
   3  -5   4 1012.55   26.12
   2  -5   4  960.91   27.86
  -2  -3   4 1011.22   28.12
  -3  -2   4  976.29   27.66
  -2   5   4  968.86   25.98
  -3   5   4  999.69   26.09
  -5   2   4 1038.74   26.82
  -5   3   4 1003.45   26.30
  -5   3   5    3.05    2.16
  -5   3   5   -0.66    2.17
   2   3   5    0.16    1.48
  -2   5   5   -0.40    1.84
   3  -5   5    2.40    2.03
   3  -5   5    1.91    2.65
  -3  -2   5    3.29    2.73
  -2  -3   5    2.42    2.91
  -3   5   5    1.69    1.86
   2  -5   6   19.53    2.94
   2   3   6   23.13    2.71
   3  -5   6   18.01    3.81
   2  -5   6   16.74    3.83
   3  -5   6   17.13    2.80
  -3   5   6   21.78    2.84
  -2  -3   6   14.37    3.62
  -5   2   6   15.71    2.95
  -3  -2   6   22.89    3.82
  -5   3   6   25.62    3.32
  -2   5   6   20.55    2.66
  -5   3   6   24.72    3.21
   3  -5   7    2.94    2.61
  -5   3   7   -0.30    3.21
   2   3   7    3.35    2.59
  -2   5   7    1.41    2.70
  -3   5   7    4.93    2.95
  -2   5   8   57.71    4.63
   2   3   8   59.87    4.55
  -4  -1 -10    5.12    5.27
  -5   1 -10   13.33    5.56
   1   4  -9   -2.14    4.47
  -4  -1  -9   -6.54    3.76
  -1  -4  -9   -1.93    3.98
  -5   4  -9   -2.04    4.32
  -4   5  -9   -3.73    4.13
  -5   1  -9    0.52    4.51
  -4  -1  -9   -1.62    4.47
  -4   5  -8   17.38    4.26
   1   4  -8   13.75    4.40
   1  -5  -8   16.69    3.80
  -4  -1  -8   14.50    3.90
  -1  -4  -8   14.57    3.80
  -5   4  -8   17.42    4.13
  -5   1  -8   15.26    4.66
  -5   1  -8   12.74    3.87
  -4  -1  -8   14.83    4.65
  -1   5  -8   13.16    4.50
  -5   4  -7   -0.84    3.19
   1  -5  -7    3.15    3.00
  -5   1  -7    0.63    2.96
  -4   5  -7    5.80    3.47
  -1  -4  -7    6.15    3.18
  -5   1  -7    3.74    3.16
   1   4  -7   12.05    3.77
  -4  -1  -7    2.45    3.13
  -4  -1  -7    7.08    3.66
  -1   5  -7    2.77    3.49
  -4   5  -6   95.99    5.81
  -1  -4  -6  104.09    5.37
   1   4  -6  109.99    6.20
  -5   1  -6  100.98    5.25
   1  -5  -6   89.88    5.20
  -4  -1  -6  101.83    5.31
  -4  -1  -6  115.95    6.21
  -5   1  -6  117.26    5.95
  -5   4  -6  106.55    5.85
  -1   5  -6  112.82    6.39
  -5   4  -5   35.38    3.44
  -1   5  -5   33.21    3.68
   1   4  -5   44.23    3.88
  -4  -1  -5   38.43    3.25
  -4  -1  -5   43.48    3.69
   1  -5  -5   31.81    3.04
  -1  -4  -5   35.19    3.14
  -5   1  -5   34.97    3.31
  -5   1  -5   33.54    3.09
   5  -4  -4  154.72    6.72
   5  -1  -4  168.90    6.80
  -5   4  -4  172.63    6.67
  -1   5  -4  158.88    6.87
  -5   1  -4  159.20    6.01
  -1  -4  -4  169.02    6.23
  -4  -1  -4  172.85    6.35
  -5   1  -4  161.11    6.24
   1   4  -4  168.77    6.91
  -4  -1  -4  181.45    6.36
   1  -5  -4  172.73    6.19
   4  -5  -3  136.40    5.48
   4   1  -3  136.15    5.38
   5  -4  -3  135.16    5.61
   5  -1  -3  147.75    5.69
   1   4  -3  152.63    5.87
  -4  -1  -3  136.38    4.95
  -5   4  -3  137.48    5.55
  -5   1  -3  144.57    5.27
  -1   5  -3  129.13    5.69
   4  -5  -2  610.00   17.28
   4   1  -2  626.60   17.22
   1   4  -2  620.43   17.44
  -1   5  -2  627.93   17.71
   5  -1  -2  622.36   17.56
   5  -4  -2  620.85   17.62
  -5   4  -1  354.16    9.24
   1  -5  -1  362.50    9.25
   1   4  -1  354.18    9.15
   1   4  -1  370.46    9.92
   4  -5  -1  365.33   10.29
   4   1  -1  360.30   10.13
   5  -4  -1  354.20   10.52
   5  -1  -1  350.31   10.41
   4  -5  -1  360.74    9.19
  -4   5  -1  348.50   10.17
  -4  -1  -1  369.26   10.28
  -5   1  -1  369.55   10.61
  -1   5  -1  365.55   10.25
  -1  -4   0  397.95   10.19
  -5   1   0  395.20   11.26
  -4  -1   0  393.23   10.95
  -4   5   0  379.57   10.89
  -1   5   0  395.00   10.62
  -4   5   1  364.12   10.31
  -4  -1   1  370.04   10.45
   4  -5   1  362.24    9.33
  -5   1   1  358.81   10.69
  -5   4   1  367.89    9.33
  -1  -4   1  353.79   10.57
  -5   4   2  611.53   15.90
  -4  -1   2  616.83   16.89
   4  -5   2  604.67   15.85
  -1  -4   2  612.61   17.52
   1  -5   2  640.23   17.25
   4  -5   3  146.35    4.82
  -4  -1   3  141.12    5.74
  -5   4   3  144.50    4.90
  -1  -4   3  141.22    6.35
   1  -5   3  135.07    6.30
  -1   5   3  140.16    4.52
   1  -5   4  162.65    7.52
  -5   4   4  164.15    5.98
  -4  -1   4  172.04    7.09
  -1   5   4  190.79    5.84
  -1  -4   4  179.75    7.88
  -5   1   4  185.14    6.87
   1   4   4  166.03    5.41
   4  -5   4  162.18    5.87
   4  -5   5   43.34    3.04
  -5   4   5   40.20    3.16
  -1   5   5   35.96    2.75
  -4   5   5   38.56    3.11
  -5   4   5   44.31    3.30
  -1  -4   5   32.31    4.38
   1  -5   5   39.62    4.24
   1   4   5   41.39    2.65
  -4  -1   5   37.03    3.87
  -5   1   5   40.16    3.63
   1  -5   6   92.21    6.62
   1   4   6  107.24    4.78
  -1  -4   6  126.22    7.12
   4  -5   6  113.15    5.25
  -5   4   6  109.06    5.39
  -1   5   6  103.79    4.90
  -4   5   6  101.74    5.26
  -5   4   6  109.72    5.49
  -4  -1   6   96.81    5.92
  -5   1   6  114.38    5.96
   1   4   7    3.75    2.45
  -1   5   7    0.26    2.35
   4  -5   7    2.63    2.82
  -5   4   7    3.20    3.05
  -4   5   7    5.84    3.10
   1   4   8   12.23    3.31
  -1   5   8   17.84    3.46
  -5   0 -10   10.11    5.60
   0   5  -9    1.61    4.54
  -5   0  -9    2.34    3.79
   0  -5  -9   -2.36    3.99
  -5   5  -9   -3.63    4.26
  -5   0  -9    2.11    4.83
  -5   0  -8    9.19    3.62
  -5   5  -8   16.44    4.38
  -5   0  -8   10.06    4.44
   0  -5  -8   10.32    3.75
   0   5  -8   14.71    4.65
  -5   0  -7    6.92    3.11
   0  -5  -7    9.49    3.23
  -5   5  -7    4.81    3.24
   0   5  -7   10.14    3.68
  -5   0  -7   11.34    3.48
   0   5  -6  128.28    6.94
  -5   5  -6  116.19    6.47
  -5   0  -6  120.08    5.80
   0  -5  -6  114.77    5.83
  -5   0  -6  115.69    6.25
  -5   0  -5   50.02    3.77
   0  -5  -5   50.13    3.56
   0   5  -5   53.83    4.42
  -5   5  -5   52.90    4.13
  -5   0  -5   49.23    3.66
   5  -5  -4   39.95    3.37
   5   0  -4   38.88    3.18
  -5   0  -4   33.45    2.82
  -5   5  -4   31.11    3.09
   0   5  -4   39.89    3.47
  -5   0  -4   34.77    2.72
   0  -5  -4   30.96    2.79
   5  -5  -3  200.73    7.37
   0   5  -3  230.23    7.79
  -5   0  -3  209.01    6.94
   5   0  -3  210.35    7.44
   5  -5  -2  999.04   26.71
   5   0  -2 1023.74   26.60
   0   5  -2 1018.49   26.77
   0   5  -1  458.69   12.35
   5  -5  -1  434.43   12.67
   5   0  -1  443.17   12.52
  -5   0  -1  436.77   12.71
  -5   5  -1  455.35   12.69
  -5   5   0   40.65    2.35
   0   5   0   35.88    1.72
  -5   0   0   34.63    2.30
  -5   5   1  442.79   12.66
  -5   0   1  456.28   12.80
   0  -5   2  958.16   25.99
  -5   5   3  215.33    6.48
   5  -5   3  208.15    6.30
   0   5   3  206.14    5.86
   0  -5   3  208.57    8.21
  -5   0   3  205.80    7.36
   0  -5   4   43.78    4.17
   0   5   4   36.44    2.13
  -5   5   4   33.24    2.54
  -5   0   4   37.38    3.21
   5  -5   4   36.20    2.56
   5  -5   5   57.83    3.42
  -5   0   5   53.93    4.17
  -5   5   5   48.96    3.42
   0   5   5   51.55    2.94
   0  -5   5   52.82    5.01
  -5   5   5   44.07    3.38
  -5   5   6  129.56    5.95
  -5   5   6  128.75    5.96
   0  -5   6  146.48    7.94
   5  -5   6  137.65    5.75
   0   5   6  124.79    5.33
   0   5   7    7.06    2.69
   5  -5   7    9.46    2.95
  -5   5   7    6.41    3.08
   0   5   8   12.73    3.20
  -3  -3  -9    0.99    4.29
  -6   3  -9   -3.02    4.16
  -3  -3  -9    1.17    4.16
  -3  -3  -8   12.80    4.18
  -3  -3  -8    9.22    3.60
  -6   3  -8    9.83    4.06
  -3  -3  -7    4.27    3.19
  -3  -3  -7    2.26    3.06
  -6   3  -7    0.41    3.09
  -3   6  -7    0.46    3.64
   3  -6  -6   51.37    4.13
  -6   3  -6   53.76    4.43
  -3  -3  -6   55.10    4.20
  -3  -3  -6   59.22    4.38
  -3   6  -6   45.61    4.67
  -6   3  -6   51.04    4.30
   3  -6  -5    0.69    2.20
  -6   3  -5    0.31    2.34
   6  -3  -5    3.10    2.74
  -3   6  -5   -0.74    2.50
  -3  -3  -5    0.27    2.08
  -3  -3  -5   -0.26    2.29
  -6   3  -5   -0.24    2.23
   6  -3  -4  135.82    6.23
  -3  -3  -4  150.67    5.66
  -6   3  -4  140.56    5.55
  -3   6  -4  136.93    6.43
   3  -6  -4  138.78    5.40
   6  -3  -3   -1.20    2.00
   3  -6  -3   -1.33    1.64
  -3  -3  -3   -0.56    1.27
  -6   3  -3    0.16    1.48
   3   3  -3   -0.82    1.66
  -3   6  -3   -0.52    2.05
   3  -6  -3    0.60    1.54
   3  -6  -2  267.32    7.94
  -3   6  -2  265.99    8.67
  -6   3  -2  273.42    7.83
   6  -3  -2  280.55    8.82
   3   3  -2  257.27    7.76
  -3  -3  -2  260.61    7.38
   3  -6  -2  279.74    7.83
  -3   6  -1    1.24    0.92
   6  -3  -1    0.96    1.47
  -3  -3  -1   -0.21    0.89
  -6   3  -1   -0.63    1.39
  -3   6  -1    3.48    1.29
   3  -6  -1    0.76    0.99
   3   3  -1    0.94    0.90
  -6   3   0  407.51   11.77
  -3  -3   0  403.51   10.84
  -3   6   0  407.46   10.78
  -3  -3   0  382.93   11.01
  -6   3   1   -1.21    1.34
  -3  -3   1    0.18    1.39
  -3  -3   2  307.97   10.07
  -3  -3   3    0.30    2.35
  -3   6   4  147.77    5.26
  -3  -3   4  137.40    6.90
   3  -6   5    2.48    2.13
  -6   3   5    4.64    2.57
  -3  -3   5   -1.69    3.05
  -3   6   5    0.20    1.82
  -3   6   6   49.60    3.69
  -6   3   6   63.09    4.26
  -3  -3   6   51.83    5.17
   3  -6   6   63.05    4.20
  -3   6   7    1.10    2.71
  -4  -2  -9   -0.52    4.57
  -2   6  -9    2.21    4.57
  -6   4  -9   -3.58    4.35
  -6   2  -9   -3.51    4.42
  -4   6  -9    2.74    4.56
  -4  -2  -9   -0.39    3.77
  -6   4  -8   12.41    4.08
   2  -6  -8    8.69    3.81
  -6   2  -8    6.91    4.10
  -4  -2  -8    9.27    3.83
  -2   6  -8   15.53    4.74
  -4  -2  -8   11.11    4.30
   2   4  -7   -0.45    3.44
  -6   2  -7    2.29    3.22
   2  -6  -7    1.62    3.14
  -6   2  -7    2.43    3.10
  -4  -2  -7    2.59    3.15
  -6   4  -7   -3.36    3.17
  -2   6  -7    8.56    3.99
  -4  -2  -7    1.72    3.35
  -6   4  -6   82.89    5.29
  -6   2  -6   86.69    5.30
  -4  -2  -6   79.64    4.81
  -4  -2  -6   91.60    5.70
  -6   2  -6   77.58    4.75
   2   4  -6   82.14    5.55
  -2   6  -6   87.48    5.85
   2  -6  -6   79.12    4.89
   2   4  -5   22.64    3.20
  -2   6  -5   19.82    3.26
  -6   2  -5   12.22    2.46
   2  -6  -5   14.07    2.58
   6  -4  -5   10.53    2.92
  -4  -2  -5   12.58    2.73
  -6   4  -5    7.45    2.60
  -6   2  -5   11.57    2.61
  -4  -2  -5   12.85    2.74
   4  -6  -4   71.96    4.38
   4   2  -4   83.19    4.32
   6  -4  -4   72.49    4.53
  -6   4  -4   68.77    3.79
  -6   2  -4   74.75    4.19
  -2   6  -4   72.79    4.60
  -6   2  -4   82.40    4.06
   4  -6  -4   82.92    3.77
   2  -6  -4   73.40    3.90
   2   4  -4   74.74    4.37
  -4   6  -4   71.42    4.46
  -4  -2  -4   71.66    3.93
  -6   4  -4   79.92    4.48
   4  -6  -3   33.54    2.69
   4   2  -3   36.07    2.71
  -6   4  -3   35.83    2.93
   4  -6  -3   40.36    2.39
   6  -4  -3   37.20    3.13
  -4  -2  -3   42.42    2.49
   2  -6  -3   38.92    2.67
  -6   4  -3   35.28    2.47
   2   4  -3   42.48    2.92
  -6   2  -3   42.29    2.67
  -4   6  -3   42.40    3.23
  -2   6  -3   39.48    3.10
   2   4  -2  535.64   14.17
  -4   6  -2  542.56   15.39
  -6   4  -2  538.87   14.29
   4  -6  -2  527.61   14.17
   4  -6  -2  552.10   14.94
   4   2  -2  534.23   14.74
   6  -4  -2  545.47   15.47
   2  -6  -2  540.33   14.38
  -2   6  -2  557.60   15.48
  -4  -2  -2  542.37   14.20
  -2   6  -1   98.56    3.91
  -6   4  -1   89.53    3.00
   4  -6  -1   95.86    2.99
  -2   6  -1   93.01    2.99
  -2  -4  -1   94.82    2.99
  -4   6  -1   87.50    3.58
  -4  -2  -1   93.87    3.67
  -6   2  -1   86.97    4.14
   4  -6  -1   95.72    3.72
   2  -6  -1   91.69    3.02
   4   2  -1   87.93    3.51
   2   4  -1   91.15    2.92
   6  -4  -1   89.27    4.08
  -2   6   0  140.00    4.64
  -4  -2   0  135.82    4.66
  -2  -4   0  133.76    4.38
  -6   2   0  138.81    5.28
  -4   6   0  140.08    4.68
  -6   2   1   89.20    4.11
  -2  -4   1   84.59    4.04
  -2  -4   2  530.48   15.99
  -4  -2   2  554.20   15.67
   4  -6   3   39.40    2.44
  -6   4   3   39.50    2.53
  -4  -2   3   43.74    3.43
  -2  -4   3   37.48    3.74
  -6   4   4   68.72    3.75
  -2  -4   4   73.02    5.10
  -2   6   4   67.14    3.24
  -4  -2   4   84.49    4.93
   4  -6   4   79.50    3.69
   2  -6   4   77.12    5.01
  -4   6   5   13.26    2.33
  -6   2   5   16.91    2.83
  -6   4   5   13.40    2.58
  -2   6   5    9.50    2.02
   2  -6   5   10.20    3.41
   4  -6   5   12.56    2.41
  -6   4   5   12.14    2.56
  -2  -4   5   15.52    3.94
  -4  -2   5   14.33    3.20
   2  -6   6   81.14    6.26
   4  -6   6   76.76    4.52
  -2  -4   6   94.91    6.56
  -6   4   6   81.20    4.89
  -4  -2   6   92.89    5.94
  -4   6   6   79.74    4.59
  -2   6   6   78.59    4.28
  -2   6   7    0.27    2.61
  -4   6   7    0.89    2.91
  -6   4   7    1.48    3.08
   4  -6   7    3.44    3.04
   2   4   7    1.71    2.35
   2   4   8   14.36    3.03
  -2   6   8    8.62    3.17
  -6   1 -10    4.40    5.20
  -6   1  -9    1.99    4.18
   1   5  -9    6.94    4.67
  -6   1  -9    4.10    4.54
   1  -6  -9    0.40    4.22
  -1  -5  -9    2.79    4.08
  -5  -1  -9    4.36    4.22
  -6   5  -9   -0.52    4.41
  -5   6  -9    0.53    4.70
  -5  -1  -9    3.19    4.82
  -1   6  -9   -2.80    4.55
   1   5  -8    7.87    4.21
   1  -6  -8    9.17    3.81
  -1  -5  -8   11.25    3.88
  -5  -1  -8    9.41    3.62
  -6   5  -8   11.77    4.45
  -5   6  -8   10.99    4.29
  -6   1  -8   11.56    4.17
  -6   1  -8   10.58    4.01
  -5  -1  -8    9.79    4.20
  -1   6  -8   10.28    4.30
   1   5  -7    2.23    3.71
   1  -6  -7   -0.65    3.10
  -5  -1  -7   -0.66    3.13
  -1  -5  -7   -1.64    3.17
  -6   5  -7   -0.87    3.42
  -6   1  -7   -0.41    3.50
  -5   6  -7   -1.37    3.36
  -5  -1  -7    4.70    3.61
  -6   1  -7   -0.33    3.19
  -1   6  -7   -2.35    3.49
  -6   1  -6   67.13    4.85
   1  -6  -6   67.94    4.86
  -5  -1  -6   77.11    5.21
  -5  -1  -6   72.57    4.73
  -1  -5  -6   76.26    4.84
  -1   6  -6   81.86    5.89
   1   5  -6   88.61    5.71
  -6   5  -6   77.70    5.21
  -6   1  -6   83.86    4.87
  -6   5  -5    9.80    2.89
  -6   1  -5    1.44    2.40
   6  -5  -5    0.73    2.82
   6  -1  -5   -2.68    2.83
  -5  -1  -5    3.51    2.37
  -6   1  -5   -0.25    2.44
   1  -6  -5    3.21    2.27
  -1   6  -5   -1.12    2.72
   5   1  -5    3.26    2.54
   5  -6  -5   -3.17    3.23
  -5  -1  -5   -0.52    2.49
  -1  -5  -5    3.08    2.55
   1   5  -5   -0.71    2.75
   5  -6  -4   67.59    4.31
   5   1  -4   71.63    4.15
   6  -5  -4   69.06    4.42
   6  -1  -4   72.69    4.32
  -6   1  -4   62.26    3.85
  -5  -1  -4   69.71    3.87
  -1   6  -4   66.99    4.41
   1  -6  -4   76.37    3.95
   1   5  -4   83.41    4.65
  -6   5  -4   74.08    4.47
  -6   1  -4   80.60    4.11
   5  -6  -3    3.31    1.80
   5   1  -3    4.27    1.82
   6  -5  -3    2.20    1.98
   6  -1  -3    0.93    1.90
  -5  -1  -3    1.00    1.34
  -1   6  -3    1.06    1.97
   1   5  -3    2.42    1.84
   1  -6  -2  516.43   14.16
   1   5  -2  546.29   14.01
  -1   6  -2  543.59   15.47
   5  -6  -2  549.01   15.28
   5   1  -2  554.37   15.11
   6  -5  -2  549.23   15.55
   6  -1  -2  548.22   15.43
   1   5  -2  532.98   15.09
  -6   5  -2  565.13   15.78
  -6   1  -2  536.96   15.62
   1   5  -1    9.67    1.24
   6  -5  -1    6.11    1.75
  -5  -1  -1    9.77    1.64
   5  -6  -1    6.45    1.73
   6  -1  -1    6.37    1.70
  -5   6  -1    6.70    1.52
  -6   5  -1    8.11    1.69
  -6   1  -1   12.37    1.98
   5   1  -1    4.08    1.52
  -1   6  -1   10.99    1.63
  -5   6   0  116.61    4.31
  -5  -1   0  109.56    4.29
  -6   5   0   99.82    4.42
  -6   1   0  115.76    4.57
  -1   6   0  103.94    3.74
  -1  -5   1    7.12    1.57
  -5  -1   1    9.30    1.64
  -5   6   1    9.25    1.71
  -6   5   1    7.41    1.70
  -6   1   1    9.15    1.83
  -1   6   1    5.70    0.95
  -1  -5   2  551.75   15.91
   5  -6   2  526.83   13.84
  -6   5   2  541.26   13.92
  -5  -1   3    5.05    1.94
  -6   5   3    3.98    1.50
   1  -6   3    6.75    2.38
  -1  -5   3    2.71    2.54
  -1   6   3    1.90    0.95
   5  -6   3    4.99    1.49
  -5  -1   4   61.10    4.32
  -1  -5   4   78.67    5.32
   5  -6   4   73.72    3.52
  -1   6   4   78.94    3.11
  -6   1   4   74.44    4.25
  -6   5   4   64.65    3.53
   1  -6   4   64.49    5.10
  -6   1   5    2.53    2.51
  -5   6   5    4.28    2.00
   1   5   5    1.80    1.34
   1  -6   5    0.93    3.62
  -5  -1   5    1.78    2.96
  -1   6   5   12.55    1.95
  -1  -5   5   -0.92    3.78
   5  -6   5    1.91    2.11
  -6   5   5    4.68    2.28
   1   5   6   80.76    3.82
  -1   6   6   73.45    4.09
   5  -6   6   78.73    4.48
  -6   5   6   85.49    4.86
  -5   6   6   75.08    4.69
  -1  -5   6   75.17    6.34
   1   5   7    3.60    2.35
  -1   6   7   -1.21    2.48
   5  -6   7    4.46    3.14
  -6   5   7    2.37    3.16
   1   5   8    9.98    2.96
  -1   6   8   15.55    3.16
  -6   0 -10   -0.56    5.47
   0   6  -9   -2.16    4.63
   0  -6  -9   -0.41    4.59
  -6   0  -9   -1.22    4.01
  -6   0  -9    0.53    5.31
   0   6  -8   17.66    4.77
  -6   0  -8    9.64    4.26
   0  -6  -8   18.23    4.37
  -6   6  -8    7.57    4.46
  -6   0  -8   15.90    4.46
  -6   0  -7    3.97    3.37
   0  -6  -7   -1.32    3.18
  -6   6  -7    4.04    3.51
  -6   0  -7    3.79    3.59
   0   6  -7    5.61    3.78
  -6   0  -6   17.13    3.31
  -6   0  -6   15.31    3.09
   0  -6  -6   20.02    3.35
  -6   6  -6   17.68    3.65
   0   6  -6   13.29    3.73
  -6   6  -5   -0.35    2.73
  -6   0  -5   -1.14    2.52
   6  -6  -5    0.73    3.04
   6   0  -5   -2.24    2.83
  -6   0  -5   -0.27    2.69
   0  -6  -5   -1.04    2.54
   0   6  -5   -1.09    3.02
   6  -6  -4  144.04    6.49
   6   0  -4  142.16    6.16
  -6   0  -4  143.98    5.84
   0   6  -4  141.49    6.53
   6  -6  -3    2.23    2.10
   6   0  -3   -0.23    1.91
  -6   0  -3    1.74    1.49
   0   6  -3    2.58    2.04
   0   6  -2   55.44    3.21
   6  -6  -2   56.86    3.53
   6   0  -2   63.78    3.46
  -6   6  -2   52.91    3.51
  -6   0  -2   51.60    3.43
   6  -6  -1    0.40    1.62
  -6   6  -1    0.82    1.60
  -6   0  -1    0.42    1.71
   6   0  -1    0.54    1.53
   0   6  -1    0.29    1.21
  -6   6   0  350.95   10.85
  -6   0   0  371.32   10.96
   0   6   0  367.31    9.79
  -6   6   1   -0.20    1.68
  -6   0   1    0.21    1.68
   0  -6   2   67.76    3.87
  -6   0   3    2.29    2.03
   0  -6   3    0.35    2.44
   0   6   4  140.09    4.30
  -6   0   4  144.25    6.34
   0  -6   4  139.23    7.26
   0  -6   5   -3.34    3.75
   0   6   5    0.63    1.54
  -6   0   5   -3.12    3.01
   6  -6   5   -0.74    2.08
  -6   6   6   18.89    3.21
   0   6   6   16.81    2.26
   6  -6   6   20.34    3.00
   6  -6   7    3.92    3.03
   0   6   7    2.09    2.33
   0   6   8   15.15    3.13
  -7   3  -9   -0.51    4.56
  -7   4  -9   -3.12    4.83
  -4  -3  -8    9.83    4.47
  -7   3  -8    7.53    4.02
  -4  -3  -8    4.85    3.76
  -7   4  -8    2.40    3.98
  -4   7  -8    6.21    4.10
  -3   7  -8   11.71    4.52
  -7   3  -7    3.33    3.49
  -7   4  -7   -1.71    3.61
  -7   3  -7   -1.01    3.44
  -4  -3  -7    0.69    3.30
  -4   7  -7   -1.45    3.64
  -3   7  -7   -0.48    3.79
   3  -7  -7    2.96    3.40
  -4  -3  -7    3.98    3.38
  -7   3  -6   63.41    5.00
   3  -7  -6   66.28    4.69
  -7   4  -6   60.64    5.08
  -4   7  -6   63.05    5.18
  -4  -3  -6   72.16    4.98
  -3  -4  -6   59.21    4.06
  -4  -3  -6   68.32    4.98
  -7   3  -6   67.36    4.93
  -3   7  -6   51.13    4.94
  -3  -4  -5    9.04    1.97
  -7   4  -5    7.01    2.60
  -7   4  -5    5.19    2.93
  -7   3  -5    7.93    2.69
   3  -7  -5    8.56    2.74
  -7   3  -5   10.04    2.66
  -3   7  -5    5.90    2.95
  -4   7  -5    7.98    3.17
  -4  -3  -5    9.93    2.62
   4  -7  -5    6.49    2.44
  -4  -3  -5    4.63    2.64
  -3  -4  -4   15.04    1.65
   7  -4  -4   20.33    2.93
   4  -7  -4   20.21    2.43
  -4  -3  -4   19.58    2.42
  -7   3  -4   14.84    2.64
  -7   4  -4   18.10    2.97
  -7   4  -4   22.78    2.67
  -4   7  -4   23.00    3.13
  -3   7  -4   25.62    3.18
   4  -7  -4   15.13    2.79
  -7   3  -4   22.24    2.55
   3  -7  -4   22.46    2.60
   4   3  -4   22.06    2.69
   3  -7  -3   41.45    2.79
   3   4  -3   38.94    2.52
   4  -7  -3   44.97    2.96
   4   3  -3   35.88    2.64
  -4   7  -3   41.78    3.40
  -3   7  -3   38.32    3.36
  -7   4  -3   37.33    2.63
  -4  -3  -3   37.53    2.42
   4  -7  -3   33.96    2.50
  -7   3  -3   34.54    2.69
   3  -7  -3   40.28    2.71
   7  -4  -3   34.99    3.26
  -4  -3  -2  466.33   12.72
  -4   7  -2  483.91   14.20
   3  -7  -2  479.42   13.18
   3   4  -2  479.93   12.99
  -7   4  -2  492.49   13.12
   4  -7  -2  487.44   13.05
   4  -7  -2  488.38   13.58
   4   3  -2  470.29   13.29
   7  -4  -2  516.14   14.52
  -7   3  -2  473.26   14.57
  -4  -3  -2  480.03   13.45
  -4   7  -2  471.54   13.43
  -3   7  -2  504.21   14.33
  -4   7  -1   64.87    3.46
  -3   7  -1   75.22    3.67
  -3   7  -1   73.28    2.85
  -3  -4  -1   66.28    2.80
  -4   7  -1   76.18    3.23
  -4  -3  -1   73.09    3.18
  -7   3  -1   76.97    4.01
   7  -4  -1   75.88    4.00
   4  -7  -1   79.42    3.29
  -4  -3   0   19.33    1.74
  -4  -3   0   20.16    1.81
  -7   3   0   18.54    2.31
  -3  -4   0   19.88    1.79
  -4   7   0   17.52    1.72
  -7   3   1   76.78    4.03
  -3  -4   1   72.42    3.89
  -4  -3   1   74.97    3.78
  -3  -4   2  503.24   15.18
  -4  -3   2  486.55   14.79
  -3  -4   3   37.51    3.96
  -4  -3   3   37.89    3.85
  -3   7   4   23.39    2.06
   4  -7   4   20.22    2.38
  -7   4   4   23.93    2.68
  -3  -4   4   25.00    3.87
  -4  -3   4   25.18    3.46
  -4   7   5    6.12    2.08
   4  -7   5    5.36    2.52
  -7   4   5    8.92    2.63
  -3  -4   5    6.12    3.75
  -4  -3   5    6.47    3.39
  -3   7   5    9.57    2.10
   3  -7   6   55.70    4.26
  -7   3   6   60.79    4.49
  -7   4   6   69.51    4.49
  -3   7   6   60.85    3.92
  -4   7   6   61.41    3.98
   4  -7   6   65.99    4.31
  -3   7   7    3.16    2.61
  -4   7   7    3.70    2.88
  -7   2  -9   -0.50    4.67
   2  -7  -8   -0.75    3.90
  -5  -2  -8    4.13    3.89
  -2  -5  -8   10.49    3.89
  -7   5  -8    6.42    3.97
  -7   2  -8    7.01    4.16
  -2   7  -8    1.59    4.32
  -5  -2  -8    1.94    4.58
  -7   2  -8   -0.38    4.04
   2   5  -7    5.32    3.77
  -7   5  -7    9.31    3.75
  -7   2  -7    4.91    3.47
   2  -7  -7    3.34    3.31
  -7   2  -7    8.01    3.70
  -5  -2  -7   -0.35    3.43
  -2  -5  -7    7.21    3.73
  -5  -2  -7    6.08    3.84
  -2   7  -7    2.93    3.90
   2   5  -6   41.65    4.59
  -7   5  -6   36.26    4.36
   5  -7  -6   32.54    4.67
   5   2  -6   36.59    4.32
  -7   2  -6   40.98    3.92
   2  -7  -6   44.82    4.21
  -7   2  -6   41.44    4.22
  -5   7  -6   33.42    4.53
  -5  -2  -6   51.17    4.38
  -5  -2  -6   42.19    4.39
  -2   7  -6   39.99    4.71
  -2  -5  -6   37.91    4.17
   2   5  -5   17.24    3.23
  -5  -2  -5   18.19    3.06
   2  -7  -5   20.66    3.10
  -7   5  -5   20.50    3.37
  -7   2  -5   20.44    3.10
  -5   7  -5   25.01    3.61
   5  -7  -5   14.45    3.54
   5   2  -5   21.98    3.29
  -7   2  -5   20.10    3.23
  -2   7  -5   22.75    3.64
  -5  -2  -5   17.33    3.21
  -2  -5  -5   18.82    3.39
   2   5  -4   21.52    3.07
   7  -5  -4   26.67    3.34
   7  -2  -4   26.12    3.06
  -7   5  -4   30.88    3.44
  -5   7  -4   30.14    3.45
  -5  -2  -4   30.38    2.69
  -2   7  -4   31.68    3.50
  -7   2  -4   27.57    2.81
  -7   2  -4   29.57    2.97
   2  -7  -4   28.24    2.80
   5  -7  -4   25.70    3.10
   5   2  -4   33.43    3.13
   2  -7  -3   86.85    3.94
   2   5  -3  100.57    3.81
  -5   7  -3   84.15    4.74
  -5  -2  -3   90.89    3.87
   5  -7  -3   98.14    4.61
   5   2  -3   90.03    4.38
  -2   7  -3   91.67    4.90
   7  -5  -3   88.70    4.86
   7  -2  -3   89.10    4.75
  -7   2  -2  260.03    8.76
  -7   5  -2  242.82    7.03
  -5   7  -2  238.59    8.21
  -2   7  -2  222.14    8.11
   2  -7  -2  246.97    7.03
   2   5  -2  238.24    6.81
   5  -7  -2  250.26    7.96
   5   2  -2  242.34    7.77
   7  -5  -2  237.61    8.45
  -5   7  -2  239.97    7.95
  -5  -2  -2  239.78    7.95
   5  -7  -2  233.59    6.83
   7  -2  -2  244.98    8.39
  -2   7  -1  173.30    4.81
  -2  -5  -1  171.79    4.84
  -7   5  -1  178.15    4.91
   5  -7  -1  168.68    4.78
  -2   7  -1  170.78    6.10
  -5   7  -1  182.91    5.99
  -5  -2  -1  174.85    6.05
  -7   2  -1  170.44    6.58
   7  -5  -1  174.45    6.49
   7  -2  -1  173.71    6.47
   5  -7  -1  173.32    6.08
   5   2  -1  167.44    5.80
  -5   7   0   48.95    2.73
  -5  -2   0   44.30    2.72
  -2  -5   0   44.18    1.76
  -2   7   0   46.47    2.54
  -7   2   0   48.07    3.17
  -7   5   0   42.88    1.43
   5  -7   0   42.92    1.46
  -7   2   1  185.00    6.65
  -2  -5   1  157.27    6.06
  -2  -5   2  233.76    8.70
  -7   5   2  239.98    6.88
   5  -7   2  234.87    6.77
  -5  -2   2  234.76    8.22
   5  -7   3   88.00    3.66
  -7   5   3   99.39    3.89
  -2   7   3   84.40    3.23
  -2  -5   3   83.43    5.28
  -5  -2   3   93.00    5.03
  -7   5   4   35.87    2.78
  -2   7   4   27.72    2.09
   5  -7   4   27.35    2.62
  -2  -5   4   28.32    4.01
  -5  -2   4   25.32    3.52
  -5   7   5   18.59    2.63
  -2  -5   5   16.10    4.40
   5  -7   5   19.53    2.72
  -2   7   5   18.04    2.25
  -5  -2   5   18.42    4.00
  -2   7   6   40.14    3.18
  -7   5   6   36.52    3.76
  -5   7   6   38.69    3.49
  -7   5   7    6.15    3.29
  -2   7   7    4.90    2.63
  -2   7   8    4.64    2.99
   1  -7  -9    0.83    4.37
  -7   1  -9    4.05    5.00
   1   6  -8    6.38    4.28
  -7   1  -8   13.10    4.30
   1  -7  -8    9.42    4.22
  -6  -1  -8   19.42    4.54
  -1  -6  -8    3.41    3.88
  -6   7  -8    5.20    4.57
  -7   6  -8    8.13    4.34
  -7   1  -8    9.31    4.25
  -6  -1  -8    8.87    4.58
  -1   7  -8    9.91    4.82
   1   6  -7   -2.68    3.50
  -7   1  -7    0.34    3.40
   1  -7  -7    0.68    3.31
  -6  -1  -7    1.04    3.16
  -7   1  -7    3.28    3.74
  -1  -6  -7    1.38    3.56
  -6  -1  -7    1.71    3.59
  -7   6  -7    1.37    3.72
  -1   7  -7    5.23    4.11
   1   6  -6   10.37    3.47
  -7   1  -6    3.52    2.96
  -7   6  -6    7.41    3.25
  -7   1  -6    8.68    3.23
   1  -7  -6   11.46    3.26
  -6  -1  -6    8.10    3.29
  -6  -1  -6   13.01    3.39
  -1  -6  -6   14.41    3.35
  -1   7  -6   13.74    3.88
   1   6  -5   12.85    3.11
  -7   6  -5    4.08    2.88
  -7   1  -5    3.61    2.38
  -6  -1  -5   10.56    2.74
  -7   1  -5    3.45    2.68
  -1   7  -5    6.09    3.03
   6  -7  -5    6.44    3.32
   6   1  -5    5.21    2.69
  -6  -1  -5   11.29    3.11
  -1  -6  -5    1.43    2.83
   1  -7  -5    3.73    2.74
  -7   6  -4   99.10    5.69
   6  -7  -4  104.13    5.62
   6   1  -4  113.76    5.32
  -6  -1  -4   98.21    4.88
   7  -6  -4   94.57    5.40
   7  -1  -4  112.06    5.60
  -1   7  -4  114.18    5.87
   1   6  -4   93.88    5.47
  -7   1  -4  110.55    5.01
   1  -7  -4  119.32    5.12
  -7   1  -4  113.20    5.28
   1   6  -3   15.70    2.40
  -7   6  -3   17.61    2.67
  -6   7  -3   18.23    2.66
   6  -7  -3   14.12    2.50
   6   1  -3   14.73    2.45
  -6  -1  -3   15.01    2.05
   7  -6  -3   17.91    2.81
   7  -1  -3   17.77    2.76
  -1   7  -3   17.62    2.70
   1   6  -2   16.16    1.92
  -7   6  -2   14.90    2.57
  -6   7  -2   16.99    2.42
  -7   1  -2   17.62    2.58
   1  -7  -2   16.17    1.25
   1   6  -2   18.06    1.10
  -6  -1  -2   12.90    2.28
   6   1  -2   18.85    2.48
   7  -6  -2   18.16    2.65
   7  -1  -2   18.67    2.54
  -1   7  -2   17.11    2.32
   6  -7  -2   14.21    2.33
  -1   7  -1   39.11    2.67
  -6   7  -1   44.18    2.94
  -6  -1  -1   40.87    2.84
  -7   6  -1   34.44    2.96
  -7   1  -1   44.14    3.20
   7  -6  -1   43.28    3.10
   7  -1  -1   35.34    2.83
   6  -7  -1   43.08    2.96
   1   6  -1   39.57    2.10
  -6   7   0  311.29    9.40
  -6  -1   0  306.87    9.45
  -7   6   0  312.98    9.76
  -7   1   0  292.00    9.74
  -1   7   0  288.40    8.60
  -6   7   1   38.22    2.91
  -6  -1   1   34.02    2.86
  -7   6   1   37.24    3.10
  -7   1   1   39.69    3.10
  -1   7   1   36.67    1.84
  -1   7   2   22.66    1.17
  -1   7   2   19.24    1.05
  -6  -1   3   15.76    2.69
  -1  -6   3   16.55    3.24
  -1   7   3   11.14    1.14
   6  -7   3   13.72    1.64
  -7   6   3   14.13    1.75
   1  -7   4  105.24    6.47
  -1  -6   4  118.98    6.90
  -1   7   4  101.77    3.76
   6  -7   4   97.00    4.27
  -7   6   4  106.42    4.49
  -6  -1   4  123.76    5.97
  -7   1   4  115.91    5.66
   1  -7   5    6.43    4.07
  -1  -6   5    2.49    3.83
  -1   7   5    4.32    1.70
   6  -7   5    6.19    2.37
  -7   6   5    6.39    2.45
  -6  -1   5    7.19    3.49
  -1   7   6    7.25    2.15
   6  -7   6   11.21    2.70
  -7   6   6    7.63    2.96
  -1   7   7   -2.52    2.45
   6  -7   7    1.55    3.22
  -7   6   7   -0.59    3.16
  -7   0  -9   -1.06    4.88
   0   7  -8    9.98    4.92
  -7   0  -8   16.59    4.58
   0  -7  -8    9.63    4.22
  -7   7  -8    6.77    4.64
  -7   0  -8   10.92    4.98
  -7   7  -7    2.83    3.53
  -7   0  -7   -1.42    3.69
   0  -7  -7    1.42    3.77
  -7   0  -7   -7.68    4.02
   0   7  -7   -5.58    3.91
  -7   7  -6    6.81    3.60
  -7   0  -6    2.49    2.97
  -7   0  -6    5.09    3.19
   0  -7  -6    4.43    3.21
   0   7  -6    2.93    3.49
  -7   0  -5   -3.55    2.67
  -7   0  -5    2.88    2.90
   0  -7  -5    0.57    2.75
   0   7  -5    0.36    2.92
  -7   0  -4  131.75    5.86
   7  -7  -4  145.95    6.61
   7   0  -4  147.33    6.59
   0   7  -4  137.01    6.58
  -7   0  -3    1.70    2.18
  -7   7  -3    0.33    2.52
   7  -7  -3    0.55    2.30
   7   0  -3   -1.29    2.12
   0   7  -3   -1.55    2.16
  -7   7  -2    2.48    2.21
   7  -7  -2    0.25    1.99
  -7   0  -2   -0.83    2.07
   7   0  -2    2.77    2.12
   0   7  -2    3.45    1.88
  -7   7  -1    0.96    1.77
  -7   0  -1   -0.75    1.92
   0   7  -1    0.85    1.44
  -7   7   0  426.09   12.32
  -7   0   0  411.77   12.36
   0   7   0  389.34   10.56
  -7   7   1   -0.72    2.14
  -7   0   1   -3.50    2.19
  -7   0   3   -1.13    2.42
   0  -7   3    2.43    2.53
   0  -7   4  132.41    7.61
  -7   0   4  142.77    6.69
   0   7   5    0.31    0.99
   0  -7   5    0.51    4.03
   0   7   6    3.69    1.59
  -8   4  -8    6.36    4.38
  -4  -4  -8    7.73    4.43
  -4   8  -8    8.56    4.62
  -8   4  -7    0.45    3.61
  -4  -4  -7    3.72    3.64
  -4   8  -7    1.00    3.95
  -4  -4  -6    6.82    2.73
   4  -8  -6   19.02    3.54
  -8   4  -6   14.56    3.74
   4   4  -6    8.13    3.31
  -8   4  -6   11.30    3.67
  -4   8  -6   13.84    4.07
  -4  -4  -6   13.64    3.69
  -4  -4  -5    1.26    1.87
   4  -8  -5    1.49    2.64
  -8   4  -5    0.37    2.85
  -8   4  -5    2.84    2.80
   4  -8  -5   -2.05    3.13
   4   4  -5   -1.82    2.59
  -4   8  -5    1.63    3.22
   4   4  -4   39.86    3.06
  -8   4  -4   54.39    4.21
  -8   4  -4   37.38    3.22
   4  -8  -4   47.85    3.29
  -4  -4  -4   34.19    2.20
  -4   8  -4   47.34    4.12
   4  -8  -4   31.41    3.25
   4  -8  -3    1.17    1.90
   4   4  -3    1.51    1.67
  -4   8  -3   -1.21    2.15
  -8   4  -3   -3.53    2.83
  -8   4  -3    0.88    1.81
   4  -8  -3    1.02    1.83
   8  -4  -3    0.60    2.39
  -4   8  -2   45.20    3.49
  -8   4  -2   53.65    2.85
   4  -8  -2   51.87    2.88
   4  -8  -2   50.41    2.91
  -4   8  -2   48.96    2.77
   8  -4  -2   46.29    3.74
   4   4  -2   55.95    2.83
  -8   4  -2   58.52    4.23
  -4  -4  -2   50.31    2.83
  -4   8  -1   -1.43    1.31
  -4  -4  -1    1.71    1.28
  -4   8  -1   -1.49    1.83
   8  -4  -1   -0.99    1.97
  -8   4  -1    0.28    2.12
  -4  -4  -1   -1.15    1.27
  -8   4   0   93.34    4.76
  -4  -4   0   88.91    3.95
  -8   4   1   -1.66    2.27
  -4  -4   1    0.72    2.04
  -4  -4   2   54.44    4.12
  -4  -4   3    0.37    2.70
  -4  -4   4   37.79    4.57
  -4   8   5   -0.60    2.02
   4  -8   5    0.21    2.42
  -4  -4   5   -0.49    3.77
  -8   4   5    3.48    2.67
   4  -8   6   12.45    3.03
  -8   4   6    9.54    3.10
  -4   8   6   12.50    2.71
  -4   8   7   -0.81    2.69
  -8   3  -9   -1.55    5.07
   3  -8  -8    1.88    4.36
  -5  -3  -8    9.00    4.35
  -8   5  -8   13.18    4.94
  -8   3  -8    4.77    4.01
  -5   8  -8    3.19    4.54
  -3   8  -8    1.64    4.66
  -8   3  -7    1.03    3.72
   3  -8  -7    1.02    3.47
  -8   5  -7    5.08    3.70
  -8   3  -7    1.28    3.52
  -5   8  -7   -3.00    3.97
  -5  -3  -7   -0.75    3.77
  -3   8  -7    4.53    4.32
  -5  -3  -7    0.82    3.86
  -8   3  -6   14.84    3.41
   3  -8  -6   17.18    3.55
  -8   5  -6   13.47    3.80
  -8   3  -6   16.96    3.90
   5   3  -6   14.43    3.69
  -5   8  -6   16.53    3.85
  -3   8  -6   31.73    4.45
  -5  -3  -6   13.90    3.71
  -5  -3  -6   14.04    4.02
  -8   5  -5   -3.07    3.10
  -8   3  -5    2.78    2.82
  -5   8  -5    5.13    3.12
  -8   3  -5    0.52    2.65
   3  -8  -5    3.95    2.73
  -3   8  -5    2.89    3.13
  -5  -3  -5    1.41    2.51
   5  -8  -5    3.12    2.90
   5   3  -5    1.67    2.63
   5  -8  -4   36.04    3.32
   3   5  -4   36.32    2.84
  -8   5  -4   34.40    3.23
   5  -8  -4   35.82    3.01
  -8   3  -4   45.39    3.92
   5   3  -4   41.53    3.26
  -5  -3  -4   41.61    3.21
  -8   3  -4   36.22    3.18
   3  -8  -4   37.06    3.11
  -8   5  -4   32.95    3.83
  -5   8  -4   36.70    3.87
  -3   8  -4   38.83    4.15
   3  -8  -4   31.69    3.21
   3  -8  -3    5.64    1.71
  -8   3  -3    4.45    2.71
   3   5  -3    4.63    1.50
  -8   5  -3    6.35    1.92
   5  -8  -3    3.85    1.78
  -5   8  -3    4.47    2.46
   5  -8  -3    6.51    2.29
  -5  -3  -3    4.80    1.70
   5   3  -3    2.95    1.87
  -3   8  -3    8.50    2.57
   8  -5  -3    2.11    2.41
  -8   3  -3    4.97    1.94
   3  -8  -3    7.75    2.09
  -5  -3  -2   70.80    2.96
  -5   8  -2   75.39    4.26
  -8   5  -2   69.52    3.15
  -3   8  -2   81.09    4.34
   5  -8  -2   74.31    3.08
  -3   8  -2   80.90    3.16
   3  -8  -2   78.36    3.20
  -5   8  -2   75.72    3.76
   5  -8  -2   81.76    3.95
  -3  -5  -2   67.84    3.02
  -8   3  -2   74.45    4.64
  -5  -3  -2   65.10    3.67
   8  -5  -2   79.28    4.51
   5   3  -2   74.86    3.64
   3   5  -2   71.09    2.99
  -5   8  -1   15.91    2.02
  -5  -3  -1   16.55    2.00
   8  -5  -1   14.28    2.52
  -3   8  -1   14.95    2.17
  -3   8  -1   11.78    1.36
  -8   5  -1   14.46    1.42
  -8   3  -1   10.76    2.40
   5  -8  -1   14.17    1.39
  -3  -5  -1   13.08    1.35
  -5   8   0   75.68    3.54
  -5  -3   0   75.88    3.71
  -3   8   0   72.38    3.49
  -3  -5   0   71.52    2.89
  -8   3   0   72.39    4.16
  -5  -3   0   67.74    3.31
  -3  -5   1    7.04    2.06
  -8   3   1   13.70    2.62
  -5  -3   1   10.49    2.16
  -3  -5   2   76.45    4.71
  -5  -3   2   73.10    4.54
   5  -8   3    4.89    1.76
  -8   5   3    7.40    1.86
  -3  -5   3    4.60    2.94
  -5  -3   3    0.34    2.81
  -3   8   4   33.40    2.42
   5  -8   4   31.61    2.64
  -8   5   4   28.04    2.87
  -3  -5   4   39.91    4.67
  -5  -3   4   32.64    3.93
  -5   8   5    3.84    2.24
   5  -8   5    2.64    2.34
  -3  -5   5   -2.03    4.33
  -5  -3   5    1.32    3.41
  -8   5   5    3.56    2.36
  -3   8   5   -1.81    2.02
   5  -8   6   14.26    3.13
  -8   5   6   20.01    3.45
  -3   8   6   23.10    2.81
  -5   8   6   12.34    2.96
  -3   8   7   -1.49    2.66
  -8   2  -9   -4.57    4.96
  -8   2  -8   -0.76    4.03
   2  -8  -8    3.85    4.33
  -6  -2  -8    6.08    4.50
  -2  -6  -8   11.61    4.53
  -8   6  -8    9.93    4.75
  -8   2  -8    2.82    4.12
  -2   8  -8   -2.13    4.52
  -8   2  -7   -2.41    3.58
   2  -8  -7    1.04    3.59
  -8   6  -7    4.31    3.93
  -8   2  -7    0.42    3.60
  -6   8  -7    6.86    4.18
  -6  -2  -7   -1.88    3.59
  -2  -6  -7    2.59    4.08
  -6  -2  -7    4.05    3.97
  -2   8  -7    0.99    4.35
  -8   2  -6   16.99    3.71
  -8   6  -6   10.42    3.87
  -6   8  -6   15.69    3.94
  -8   2  -6    8.50    3.25
   2  -8  -6    7.48    3.52
  -6  -2  -6   12.57    3.97
  -2   8  -6   16.18    4.49
  -6  -2  -6   19.50    4.14
  -2  -6  -6    8.92    3.44
  -6  -2  -5   -0.66    3.29
  -2  -6  -5   -0.32    3.10
   6  -8  -5   -1.05    3.14
   6   2  -5   -1.46    2.77
  -8   6  -5   -1.20    3.26
  -8   2  -5    0.33    2.87
  -6   8  -5   -2.32    3.11
  -6  -2  -5   -0.31    2.79
  -8   2  -5    2.66    2.87
   2  -8  -5    1.35    2.81
  -2   8  -5    7.48    3.37
   2  -8  -4   39.12    3.26
   2   6  -4   35.58    2.82
  -8   2  -4   41.48    3.67
  -6  -2  -4   43.40    3.36
   6  -8  -4   35.32    3.83
   6   2  -4   38.39    3.52
   2  -8  -4   50.16    3.74
  -8   6  -4   32.25    3.93
  -6   8  -4   35.88    3.80
  -2   8  -4   41.90    4.23
  -8   2  -4   32.28    3.21
   8  -2  -3   -0.29    2.32
   2  -8  -3   -1.36    1.47
   2   6  -3    0.45    1.30
  -6  -2  -3    1.07    1.63
  -6   8  -3    0.30    2.24
  -6   8  -3   -1.92    2.33
  -8   6  -3    2.24    2.76
  -8   2  -3    1.99    2.45
  -2   8  -3    0.90    2.52
   6  -8  -3    3.78    2.42
   6   2  -3    2.69    2.16
   8  -6  -3    4.56    2.66
  -6  -2  -3    1.70    1.92
  -6   8  -2   55.64    3.62
  -2   8  -2   54.17    3.68
  -2   8  -2   56.92    2.23
  -2  -6  -2   52.97    2.22
  -6   8  -2   58.83    3.72
  -6  -2  -2   66.27    3.90
  -8   6  -2   57.00    4.20
  -8   2  -2   57.38    4.21
   6  -8  -2   58.34    3.75
   8  -6  -2   61.39    4.01
   8  -2  -2   66.20    4.09
   2  -8  -2   55.64    2.29
   6   2  -2   64.62    3.53
  -6   8  -1    3.04    1.80
  -6  -2  -1    2.08    1.87
  -2   8  -1    2.94    1.80
  -8   6  -1    3.06    2.25
  -8   2  -1    2.57    2.17
  -6   8   0   85.23    4.20
  -6  -2   0   95.77    4.30
  -8   6   0   91.77    4.67
  -8   2   0   90.00    4.71
  -2   8   0   86.62    3.71
  -2  -6   1    2.02    1.53
  -2   8   1    3.43    1.35
  -8   6   1    4.78    2.26
  -8   2   1    2.30    2.21
  -2  -6   2   49.58    3.82
   6  -8   2   56.03    2.20
  -8   6   2   55.26    2.24
  -6  -2   2   58.22    3.86
  -2   8   3    2.10    1.10
  -2  -6   3    1.87    2.92
   6  -8   3   -0.33    1.47
  -8   6   3    2.20    1.64
  -6  -2   3    3.14    2.86
   6  -8   4   37.34    2.81
  -8   6   4   36.72    2.95
  -2   8   4   36.71    2.31
  -6  -2   4   35.37    4.07
  -2  -6   4   30.65    4.63
  -2  -6   5    0.52    4.11
   6  -8   5   -0.38    2.19
  -2   8   5    0.76    1.78
  -8   6   5   -0.21    2.33
  -2   8   6   12.18    2.34
   6  -8   6   12.35    2.99
  -8   6   6   14.14    3.21
  -8   1  -9    1.02    4.90
   1   7  -8   13.59    4.98
  -8   1  -8    5.05    4.32
   1  -8  -8    0.39    4.22
  -7  -1  -8    5.28    4.32
  -1  -7  -8    5.62    4.72
  -8   1  -8   -3.33    4.51
  -1   8  -8   -0.52    4.64
   1   7  -7    5.29    3.99
  -8   1  -7    0.35    3.85
  -8   7  -7    2.94    4.05
   1  -8  -7    0.35    3.57
  -8   1  -7    1.66    4.25
  -7  -1  -7    5.27    3.95
  -1  -7  -7    6.28    3.74
  -7  -1  -7   -4.01    4.27
  -1   8  -7    2.86    4.55
   1   7  -6    6.28    3.52
  -8   7  -6    8.46    4.04
  -8   1  -6    8.30    3.31
  -7  -1  -6    9.85    3.75
  -8   1  -6    3.80    3.38
   1  -8  -6    4.16    3.32
  -7  -1  -6   11.91    3.63
  -1  -7  -6    5.50    3.61
  -1   8  -6    9.85    3.79
   1   7  -5    6.18    3.01
  -8   7  -5    3.67    3.41
  -8   1  -5    0.95    2.78
  -7   8  -5   -1.57    3.30
  -7  -1  -5    3.97    2.80
  -8   1  -5    2.02    2.91
   1  -8  -5    3.20    3.05
  -1   8  -5    4.95    3.37
  -7  -1  -5    9.43    3.41
  -1  -7  -5    6.64    3.19
  -8   1  -4   35.77    3.57
   1   7  -4   37.28    3.68
  -8   1  -4   39.09    3.42
  -8   7  -4   39.54    4.16
  -7  -1  -4   38.12    3.33
   7  -8  -4   38.70    4.00
   7   1  -4   36.89    3.67
  -1   8  -4   36.12    3.95
  -7   8  -4   42.66    3.99
   1   7  -3    4.00    1.19
   1   7  -3    4.38    2.12
   7  -8  -3    7.89    2.69
  -7  -1  -3    1.13    2.54
   7   1  -3    2.04    2.45
   8  -7  -3    1.54    2.80
   8  -1  -3   -0.29    2.53
  -7  -1  -3    4.39    1.96
  -7   8  -3    1.90    2.67
  -8   7  -3    4.88    3.22
  -8   1  -3   -1.63    2.63
  -1   8  -3    2.22    2.43
  -7   8  -3    5.12    2.84
   1  -8  -3    1.60    1.32
   1   7  -2   15.59    1.99
  -7   8  -2   10.94    2.64
  -7  -1  -2   12.63    2.69
   8  -7  -2   12.27    2.68
  -8   7  -2   11.08    2.78
   7  -8  -2   11.44    2.46
   8  -1  -2   13.16    2.60
  -8   1  -2    6.65    2.65
   7   1  -2   11.07    2.23
  -1   8  -2   13.64    2.46
  -7   8  -1    4.77    2.06
  -7  -1  -1    9.11    2.20
  -8   7  -1    9.93    2.43
  -8   1  -1    6.61    2.34
  -1   8  -1    5.69    1.84
  -7   8   0   93.37    4.74
  -7  -1   0  104.80    4.88
  -8   7   0   96.16    5.02
  -8   1   0   89.55    4.82
  -1   8   0   98.70    3.75
  -8   7   1    3.89    2.42
  -8   1   1    3.43    2.40
  -1   8   1    7.25    1.04
  -1  -7   2   14.21    2.39
  -7  -1   3    3.31    2.57
  -1  -7   3    9.14    3.05
  -1  -7   4   42.70    4.99
  -7  -1   4   37.50    4.32
  -1  -7   5    2.09    3.87
  -1   8   5    0.08    1.30
  -1   8   6    5.85    1.89
   0   8  -8    3.44    4.84
   0   8  -7   -4.49    3.78
  -8   8  -7   -3.48    4.38
  -8   0  -7    5.57    3.97
   0  -8  -7    3.70    4.15
  -8   0  -7   -1.31    4.12
  -8   0  -6    9.58    3.57
  -8   0  -6    6.52    3.50
   0  -8  -6    4.43    3.68
   0   8  -6    1.65    3.58
  -8   0  -5   -0.62    2.74
  -8   0  -5    5.68    3.34
   0  -8  -5    1.87    3.03
   0   8  -5   -0.36    3.19
  -8   8  -4    4.05    3.86
  -8   0  -4    9.56    2.66
  -8   0  -4   10.81    2.79
   0   8  -4   10.60    2.99
  -8   0  -3    1.61    2.81
   8  -8  -3    4.39    2.82
   8   0  -3    6.30    2.85
   0  -8  -3    1.62    1.14
   0   8  -3    2.54    0.88
   0   8  -3    6.38    2.52
  -8   8  -3   -1.10    3.18
  -8   8  -2   23.36    3.28
  -8   0  -2   20.53    3.23
   8  -8  -2   23.79    3.11
   8   0  -2   24.52    2.97
   0   8  -2   24.82    2.62
  -8   8  -1    6.35    2.46
  -8   0  -1    5.44    2.45
   0   8  -1    1.98    1.36
  -8   8   0   20.10    2.93
  -8   0   0   20.08    2.91
  -8   8   1   -0.84    2.46
  -8   0   1    2.03    2.29
  -8   0   3    4.62    2.73
   0  -8   4    8.67    3.87
   0  -8   5    2.61    4.05
  -9   5  -8    0.52    4.31
  -9   4  -8    0.50    4.67
  -9   4  -7    3.43    4.00
   4  -9  -7   -0.34    3.83
  -9   5  -7    6.24    4.46
  -9   4  -7   -0.46    3.94
  -5   9  -7    1.02    4.09
  -4   9  -7    3.06    4.29
  -5  -4  -7    1.23    4.28
  -9   4  -6    3.96    3.26
   4  -9  -6   -1.20    3.28
  -9   5  -6    8.47    4.13
  -9   4  -6    4.64    3.69
   4  -9  -6   -0.87    3.90
   4   5  -6    6.87    3.38
  -5   9  -6   -1.41    3.59
  -4   9  -6    2.37    3.92
  -5  -4  -6    0.39    3.65
   5  -9  -5   -1.64    3.04
   5   4  -5    1.29    2.60
  -9   5  -5    6.24    2.86
   5  -9  -5    0.24    2.75
  -9   5  -5    0.84    3.41
  -9   4  -5   -3.55    3.28
  -9   4  -5   -2.64    2.89
   4  -9  -5   -2.61    2.90
  -5   9  -5    2.49    3.17
  -4   9  -5    3.43    3.63
   4  -9  -5    1.90    2.94
   4   5  -5    2.15    2.57
  -5  -4  -5   -0.93    2.18
  -9   4  -4   55.83    4.76
  -9   5  -4   51.10    3.80
   5  -9  -4   50.39    3.67
   4  -9  -4   45.20    3.64
   4   5  -4   54.16    3.50
  -5   9  -4   55.93    4.61
  -4   9  -4   57.96    4.94
   5  -9  -4   48.08    3.84
  -9   4  -4   46.10    3.69
   5   4  -4   51.93    3.63
   4  -9  -4   47.95    3.75
  -5  -4  -4   48.72    2.76
  -9   4  -4   49.28    4.74
   4   5  -3    4.37    1.84
   5  -9  -3    1.57    2.05
  -5  -4  -3   -1.65    1.90
   5   4  -3   -1.74    1.94
  -9   4  -3    1.17    2.96
  -5   9  -3    0.95    2.51
  -4  -5  -3   -1.36    1.68
  -9   5  -3    3.67    2.07
  -5   9  -3    2.08    1.95
  -4   9  -3   -1.62    2.81
   5  -9  -3    2.77    1.87
  -5  -4  -3    1.95    1.16
  -4   9  -3    0.50    1.57
  -9   4  -3    4.08    2.16
   4  -9  -3    2.67    2.23
   4  -9  -3    0.38    1.93
   5   4  -2    4.47    1.84
  -9   4  -2    4.27    2.88
  -5   9  -2    3.03    2.30
  -5  -4  -2    2.21    1.23
  -4   9  -2    0.83    2.13
  -4   9  -2    1.97    1.57
   9  -5  -2    4.23    2.54
   5  -9  -2    2.85    1.86
  -9   5  -2    3.29    1.66
  -4  -5  -2    3.26    1.48
   5  -9  -2    3.67    1.62
  -5   9  -2    1.43    1.66
  -5  -4  -2    1.65    1.72
  -5  -4  -2    0.38    1.05
  -9   4  -2    2.44    1.72
  -5  -4  -1    2.86    1.60
  -5   9  -1    4.30    2.07
  -4   9  -1    1.87    2.02
  -9   4  -1    8.99    2.74
  -4   9  -1    1.17    1.42
  -4  -5  -1    2.00    1.56
  -5  -4  -1    0.79    1.40
  -9   5  -1    2.73    1.30
  -5   9  -1    3.51    1.78
   5  -9  -1    3.91    1.39
  -4   9   0  127.33    5.24
  -9   4   0  136.98    6.20
  -4  -5   0  130.11    4.85
  -5  -4   0  135.40    5.36
  -4  -5   1    1.78    2.29
  -9   4   1   -1.60    2.70
  -5  -4   1   -1.56    2.63
  -4  -5   2    2.02    2.64
  -5  -4   2    5.80    2.80
  -4  -5   3    4.09    3.10
  -5  -4   3    3.40    3.22
   5  -9   4   46.85    3.21
  -9   5   4   44.92    3.27
  -4   9   4   48.16    2.98
  -4  -5   4   49.89    5.58
  -5  -4   4   51.87    5.25
  -5   9   5    2.08    2.22
   5  -9   5    3.56    2.51
  -9   5   5    3.55    2.67
  -4  -5   5   -0.52    4.37
  -4   9   5    3.12    2.15
   5  -9   6    2.40    2.85
  -9   5   6   -0.51    2.93
  -4   9   6    3.39    2.54
  -5   9   6    2.69    2.60
  -9   3  -8    3.38    4.47
   3  -9  -8    6.18    4.53
  -9   3  -8   -1.44    4.57
  -9   3  -7    2.73    3.71
   3  -9  -7    1.75    3.80
  -9   6  -7    5.00    4.35
  -9   3  -7    1.31    3.76
  -6   9  -7   -1.01    4.18
  -6  -3  -7    4.95    4.42
  -3  -6  -7    1.21    3.93
  -3   9  -7    4.61    4.75
  -9   6  -6   -1.39    3.94
  -9   3  -6    5.18    3.40
   3   6  -6    2.70    2.84
  -9   3  -6    7.90    3.35
   3  -9  -6    4.99    3.63
  -6   9  -6    1.37    3.77
  -3   9  -6    2.76    3.71
  -6  -3  -6    9.36    3.93
  -3  -6  -6    3.42    3.79
   6  -9  -5   -2.08    3.39
   6   3  -5   -0.57    2.79
  -9   6  -5    6.95    3.63
  -9   3  -5    3.65    3.13
  -6   9  -5    1.23    3.29
  -9   3  -5    7.72    2.90
   3  -9  -5    5.79    3.02
   3  -9  -5    0.31    3.22
  -3   9  -5    1.25    3.32
   3   6  -5    2.43    2.49
  -6  -3  -5    4.94    3.10
  -9   3  -4   17.10    3.58
   3  -9  -4   17.71    2.60
   3   6  -4   15.24    2.36
  -9   3  -4   22.19    3.54
  -9   6  -4   14.91    3.58
  -6   9  -4   16.57    3.57
   6  -9  -4   15.29    3.11
   6   3  -4   15.59    2.94
  -6  -3  -4   25.19    3.02
  -3   9  -4   19.07    3.77
  -9   6  -4   23.97    4.32
  -9   3  -4   15.01    2.96
   3  -9  -4   21.52    3.09
   3  -9  -3    8.67    2.57
   3   6  -3    8.07    1.73
  -9   6  -3    7.84    3.53
  -9   3  -3    3.79    3.03
  -6   9  -3    3.54    2.39
   6  -9  -3    5.95    2.54
  -6  -3  -3    4.36    2.19
   6   3  -3    4.49    2.38
  -6   9  -3    7.02    2.75
  -6  -3  -3    4.65    1.87
  -3  -6  -3    8.09    1.63
  -3   9  -3    5.86    1.53
  -3   9  -3    8.94    2.98
   3  -9  -3    4.81    1.72
  -9   3  -3    8.14    2.32
  -9   6  -2   14.99    3.21
  -9   3  -2   15.24    3.27
  -3   9  -2   14.89    1.52
  -3  -6  -2   11.96    1.39
   6  -9  -2    9.42    1.48
  -6  -3  -2   18.75    1.76
  -6   9  -2   15.78    2.66
   6   3  -2   15.63    2.37
  -3   9  -2   13.47    2.71
  -6   9  -2   11.24    2.37
   6  -9  -2   10.17    2.30
  -6  -3  -2   16.18    2.42
   9  -3  -2   12.34    2.78
  -6   9  -1   21.44    2.54
  -9   6  -1   18.68    1.33
  -6  -3  -1   14.78    2.29
   6  -9  -1   16.78    1.22
  -9   6  -1   19.24    2.99
  -9   3  -1   20.88    3.07
  -3   9  -1   16.59    2.53
  -6   9   0   47.37    3.21
  -6  -3   0   48.09    3.33
  -9   6   0   37.97    3.75
  -9   3   0   48.94    3.91
  -3   9   0   41.69    2.89
  -6  -3   0   38.38    2.80
  -6  -3   1   17.07    2.58
   6  -9   1   18.14    1.30
  -9   6   1   18.55    1.19
  -3   9   1   17.54    2.02
  -3  -6   1   18.74    2.40
  -9   6   1   25.28    3.34
  -9   3   1   14.29    3.09
   6  -9   2   12.99    1.57
  -9   6   2   15.83    1.60
  -3  -6   2    7.67    2.70
  -6  -3   2   11.64    2.79
   6  -9   3    7.33    1.86
  -9   6   3    9.25    1.90
  -3  -6   3    6.32    3.31
  -6  -3   3    3.49    3.03
  -3  -6   4   21.61    4.20
   6  -9   4   19.73    2.35
  -9   6   4   19.21    2.60
  -6  -3   4   15.43    4.13
  -3   9   4   19.29    2.06
  -3  -6   5    8.03    4.46
   6  -9   5    3.74    2.51
  -9   6   5    0.85    2.46
  -3   9   5    0.84    1.95
   6  -9   6    9.35    3.08
  -3   9   6    3.33    2.23
  -9   2  -8    7.98    4.39
   2  -9  -8    3.15    4.50
  -9   2  -8    1.42    4.49
  -9   2  -7   -1.04    3.97
   2  -9  -7   -1.79    4.20
  -9   7  -7    5.68    4.49
  -9   2  -7    0.85    3.83
  -7   9  -7   -0.50    4.22
  -7  -2  -7   -1.23    4.52
  -2  -7  -7    2.00    4.07
  -2   9  -7    0.99    4.59
  -9   7  -6   12.79    4.43
  -9   2  -6    2.27    3.52
  -7   9  -6    5.89    3.79
  -9   2  -6    9.35    3.70
   2  -9  -6    8.07    3.75
  -7  -2  -6    8.25    4.20
  -2   9  -6   15.73    4.47
  -7  -2  -6    4.30    3.99
  -2  -7  -6    7.56    4.15
  -9   7  -5    7.46    3.79
  -9   2  -5    0.68    2.99
  -7   9  -5    5.28    3.67
   2   7  -5    2.55    2.24
  -7  -2  -5    2.31    2.91
  -9   2  -5    3.90    2.91
   2  -9  -5    1.16    2.95
  -2   9  -5   -0.40    3.67
   2   7  -4    5.61    1.82
  -7  -2  -4    2.08    2.35
  -9   2  -4    6.48    2.81
  -9   7  -4   12.37    3.74
  -7   9  -4    8.04    3.08
  -7  -2  -4    1.53    2.51
  -9   7  -4    2.95    3.80
   7  -9  -4    5.12    2.87
  -2   9  -4    4.50    2.82
   7   2  -4    5.86    2.90
  -7   9  -4    1.11    3.11
  -9   2  -4    2.97    2.51
  -9   2  -4    0.72    2.83
   2  -9  -4    8.04    3.00
   2  -9  -4    4.79    1.99
   2   7  -3   11.28    1.46
  -7  -2  -3    8.56    2.11
  -7   9  -3   12.59    3.11
  -2  -7  -3    8.14    1.35
   7  -9  -3    8.36    2.89
   7   2  -3   16.24    2.80
  -2   9  -3   10.13    1.44
  -2   9  -3   10.43    2.94
  -7   9  -3    4.23    2.79
  -9   7  -3    6.74    3.54
  -9   2  -3    5.96    2.93
  -7  -2  -3    5.31    2.46
   2  -9  -3    6.91    1.49
  -9   2  -2   29.94    3.95
   7  -9  -2   35.63    3.43
  -7   9  -2   36.08    3.37
  -7   9  -2   32.95    3.40
   7   2  -2   42.50    3.35
  -2   9  -2   33.90    3.31
  -7  -2  -2   32.63    3.34
  -9   7  -2   35.48    4.06
  -7   9  -1   22.09    2.82
  -7  -2  -1   17.31    2.64
  -9   7  -1   17.70    3.19
  -9   2  -1   13.96    3.05
  -2   9  -1   17.34    2.42
  -9   7   0    3.03    2.49
  -9   2   0    8.39    2.85
  -2   9   0    8.26    1.64
  -7   9   0    6.55    2.38
  -7  -2   0   10.61    2.61
  -7  -2   1   10.57    2.36
  -2   9   1   17.02    1.70
  -9   7   1   14.75    2.99
  -9   2   1   13.17    2.99
  -7  -2   2   30.68    3.34
  -2   9   2   36.57    1.97
  -2  -7   2   35.16    3.43
  -2   9   3    9.69    1.27
  -2  -7   3    5.70    3.09
  -2   9   3    6.50    1.19
  -7  -2   3    6.31    3.06
  -2  -7   4    1.40    3.84
  -2   9   4    1.82    1.34
   7  -9   4    1.22    1.82
  -7  -2   4    1.14    3.42
  -9   7   4    5.29    1.96
  -2  -7   5    5.42    4.09
  -2   9   5    2.49    1.66
   7  -9   5    1.06    2.27
   7  -9   6    3.26    2.87
   1   8  -7   -5.17    4.35
  -9   1  -7    0.37    3.79
   1  -9  -7    1.88    4.40
  -9   1  -7    1.27    3.91
  -8  -1  -7   -6.89    4.51
  -1  -8  -7    8.31    4.55
  -1   9  -7   -0.95    4.47
   1   8  -6    8.45    3.73
  -9   8  -6   11.06    4.34
  -9   1  -6   13.37    3.89
  -8   9  -6    6.00    4.14
  -8  -1  -6    8.83    4.16
  -9   1  -6    4.65    3.80
   1  -9  -6    5.08    3.94
  -8  -1  -6    6.94    4.15
  -1  -8  -6   15.33    4.63
  -1   9  -6    4.24    4.36
  -8  -1  -5    1.09    3.68
  -1  -8  -5   -0.35    3.58
   1   8  -5   -0.33    2.85
  -9   8  -5    4.46    3.60
   1   8  -5    2.74    2.21
  -9   1  -5    1.30    2.87
  -8   9  -5   -0.84    3.26
  -8  -1  -5   -0.65    3.08
  -9   1  -5   -2.46    3.20
   1  -9  -5   -4.38    3.38
  -1   9  -5   -0.37    3.33
   1   8  -4    3.08    2.71
  -8  -1  -4    4.45    2.60
  -9   1  -4    3.15    2.39
  -8   9  -4    2.29    3.06
  -8  -1  -4    1.58    2.44
  -9   8  -4    8.00    4.13
  -1   9  -4    4.23    2.99
  -8   9  -4   -0.43    3.86
  -9   1  -4    0.69    2.85
   1   8  -4    2.56    1.56
   1   8  -3    3.09    2.31
  -8  -1  -3   -1.72    1.86
  -8   9  -3   -1.77    2.83
  -8   9  -3    0.71    3.18
  -9   8  -3    1.26    3.54
  -8  -1  -3   -1.60    2.94
  -9   1  -3    5.86    3.14
  -1   9  -3    1.10    2.56
   8  -9  -3    0.95    2.81
   8   1  -3    5.87    2.77
  -8   9  -2   45.39    3.99
  -1   9  -2   34.32    3.32
  -9   8  -2   42.10    4.41
  -8  -1  -2   34.31    3.75
  -9   1  -2   37.47    3.98
  -8   9  -1    3.29    2.42
  -8  -1  -1   -0.28    2.43
  -9   8  -1   -2.53    2.49
  -9   1  -1    0.98    2.75
  -1   9  -1    1.34    1.81
  -8   9   0    4.54    2.62
  -8  -1   0    4.07    2.68
  -1   9   0    4.13    1.34
  -9   8   0   -0.31    2.47
  -9   1   0    0.64    2.52
  -9   8   1    1.56    2.69
  -9   1   1    1.30    2.64
  -8  -1   2   35.39    3.61
  -8  -1   3   -1.61    2.92
  -1  -8   4    0.90    3.49
   0   9  -7    1.31    4.16
  -9   0  -7    3.15    4.39
   0  -9  -7    0.39    4.38
   0   9  -6    6.28    4.21
  -9   0  -6    5.40    3.72
  -9   0  -6   11.04    4.52
   0  -9  -6    4.01    4.24
   0   9  -5    5.17    3.42
  -9   0  -5    0.30    2.43
  -9   0  -5    6.13    3.10
  -9   0  -5    0.69    3.75
   0  -9  -5    3.06    3.61
  -9   9  -5   -2.86    5.14
   0   9  -4    4.45    2.83
  -9   9  -4    6.33    3.98
  -9   0  -4   -2.01    2.60
  -9   0  -4   -4.15    2.61
  -9   9  -4    0.84    3.32
   0   9  -4    1.59    1.26
   0   9  -3    3.38    2.52
  -9   9  -3    1.21    3.27
  -9   0  -3    0.36    2.92
  -9   9  -3    5.77    3.24
   0   9  -2   21.04    2.64
  -9   9  -2   32.30    3.88
  -9   0  -2   28.80    3.82
   0   9  -1    4.02    1.47
  -9   9  -1    3.75    2.68
  -9   0  -1    7.46    3.08
  -9   9   0   -0.64    2.83
  -9   0   0    6.25    3.00
 -10   5  -7    5.43    4.57
  -5  10  -7   -4.18    4.92
 -10   5  -6    1.18    3.19
   5 -10  -6   -4.39    3.38
 -10   5  -6   -0.93    3.85
  -5  10  -6   -0.98    4.23
  -5  -5  -6    7.67    4.37
   5   5  -5    0.98    2.41
 -10   5  -5    2.35    2.89
   5 -10  -5   -0.76    2.98
 -10   5  -5    2.66    3.49
 -10   5  -5   -2.37    3.97
  -5  10  -5    2.19    3.81
  -5  -5  -4    8.41    2.19
 -10   5  -4   12.05    3.95
  -5  10  -4    6.80    2.46
 -10   5  -4   11.67    3.95
 -10   5  -4   10.86    2.85
   5 -10  -4   13.67    2.84
  -5  10  -4   14.35    3.86
   5 -10  -4    8.25    2.75
   5   5  -4    8.34    2.51
   5 -10  -3    3.85    2.33
  -5  10  -3   -0.38    2.00
  -5  -5  -3    2.78    2.03
 -10   5  -3   -2.21    3.55
   5   5  -3    2.41    2.09
  -5  10  -3    2.04    2.98
 -10   5  -3    3.09    2.33
   5 -10  -3    2.19    2.25
  -5  10  -2    3.90    1.92
  -5  -5  -2    3.90    1.87
  -5  10  -2    0.60    2.51
 -10   5  -2    4.14    1.80
   5 -10  -2    2.34    1.87
 -10   5  -2    7.11    3.20
 -10   5  -1    2.16    2.69
  -5  10  -1   -2.10    2.27
  -5  10  -1    0.33    1.80
  -5  -5  -1   -0.50    1.75
 -10   5   0   24.04    3.65
  -5  10   0   29.57    2.83
  -5  -5   0   23.06    2.69
 -10   5   1   -0.35    2.80
  -5  -5   1    0.58    2.62
  -5  -5   2    2.55    3.03
  -5  -5   3    2.13    3.57
  -5  -5   4   11.58    4.36
  -5  10   5    1.82    2.25
   5 -10   5    2.63    2.78
 -10   4  -7   -4.35    3.74
   4 -10  -7   -1.75    4.01
 -10   6  -7    2.09    4.70
 -10   4  -7    0.93    4.29
  -6  10  -7   -3.14    4.31
  -4  10  -7   -1.05    4.93
 -10   4  -6    0.60    3.38
   4 -10  -6    3.47    3.72
 -10   6  -6    2.47    3.99
 -10   4  -6    2.60    3.64
  -6  10  -6    1.43    4.04
  -4  10  -6    6.21    4.49
  -6  -4  -6    9.88    4.41
   4   6  -5    3.25    2.56
 -10   4  -5   -5.97    3.46
 -10   4  -5    3.28    3.67
 -10   6  -5    2.82    3.91
   6 -10  -5   -4.11    3.47
   6   4  -5   -0.55    2.75
 -10   4  -5    2.88    2.96
   4 -10  -5    6.30    3.21
  -6  10  -5   -0.85    3.59
  -4  10  -5   -1.76    3.56
   6   4  -4    6.13    2.74
 -10   4  -4    9.17    3.48
 -10   6  -4    9.22    3.84
 -10   4  -4    5.23    3.37
  -6  -4  -4    5.16    2.24
  -6  10  -4    1.52    3.22
  -4  10  -4    6.65    3.21
 -10   4  -4    6.12    2.64
   4 -10  -4    7.94    2.90
  -4  10  -4    5.84    2.10
   4   6  -4    9.45    2.35
  -6  10  -4    5.80    2.74
   6 -10  -4    5.26    2.79
  -4  -6  -3    1.38    1.63
   6 -10  -3    3.55    2.62
   4   6  -3    4.25    1.84
  -6  10  -3   -0.93    2.25
   4 -10  -3    2.48    1.99
  -6  -4  -3    0.72    2.31
 -10   6  -3    0.66    2.10
   6 -10  -3    0.87    1.98
   6   4  -3    0.22    2.35
  -6  10  -3    0.34    2.85
 -10   4  -3    1.71    3.38
  -4  10  -3   -1.02    3.02
  -6  -4  -3    4.34    1.92
 -10   4  -3   -0.58    2.12
   4 -10  -3    5.06    2.43
  -4  10  -3   -0.15    1.71
  -6  -4  -2    4.96    1.52
  -6  10  -2    9.39    2.31
  -6  -4  -2    8.51    2.18
  -6  10  -2    5.46    2.85
 -10   6  -2    9.08    1.87
  -6  -4  -2   12.24    1.85
   6 -10  -2    9.10    1.72
  -4  10  -2    9.67    2.75
 -10   4  -2    7.86    3.08
  -4  10  -2    7.59    1.74
  -4  -6  -2    6.97    1.63
 -10   4  -1    2.17    2.88
  -6  10  -1    7.03    2.53
  -4  10  -1    1.26    2.39
 -10   6  -1    0.18    1.32
   6 -10  -1    0.57    1.26
  -6  10  -1    2.11    2.21
  -6  -4  -1   -0.21    2.00
  -6  -4  -1    2.58    1.72
  -4  10   0   15.09    2.49
 -10   6   0   16.54    1.35
  -6  -4   0   11.92    2.46
   6 -10   0   17.30    1.49
 -10   4   0   19.77    3.38
  -4  10   1    1.87    1.86
  -4  -6   1    0.22    2.24
 -10   4   1   -0.35    2.81
  -6  -4   1    1.66    2.56
 -10   6   2    7.90    1.68
  -4  -6   2    8.08    3.13
  -6  -4   2   10.74    3.29
   6 -10   3    1.10    1.95
 -10   6   3    1.43    1.84
  -4  -6   3   -0.85    3.65
  -6  -4   3   -1.54    3.14
  -4  10   4    6.77    1.87
   6 -10   4    9.22    2.49
  -4  -6   4    5.92    3.97
  -6  -4   4   10.59    4.09
  -6  10   5    1.33    2.28
   6 -10   5    1.20    2.58
  -4  10   5   -2.72    2.28
   3 -10  -8    1.97    4.71
 -10   3  -7    3.06    3.84
   3 -10  -7   -1.82    4.13
 -10   3  -7   -4.40    4.19
  -3  10  -7   -6.64    4.61
 -10   7  -6    4.60    4.30
 -10   3  -6    2.01    3.79
 -10   3  -6    3.62    3.46
   3 -10  -6    6.51    3.80
  -7  10  -6    3.27    4.06
  -3  10  -6    6.56    4.30
  -7  -3  -6    2.17    4.61
  -3  -7  -6    8.59    4.27
 -10   7  -5   -2.32    4.51
 -10   3  -5   -1.17    3.16
 -10   7  -5    5.81    4.09
 -10   3  -5   -1.87    3.54
  -7  10  -5   -1.27    3.82
 -10   3  -5   -1.08    3.05
   3 -10  -5    3.78    3.14
  -3  10  -5    0.83    3.50
 -10   7  -4    6.36    4.27
 -10   3  -4    3.71    3.43
   7 -10  -4    7.16    3.19
  -3  10  -4    2.11    1.68
   7   3  -4    2.22    2.80
  -7  10  -4    4.28    3.11
 -10   3  -4    3.79    3.15
 -10   7  -4    2.72    3.57
  -7  10  -4    4.56    3.30
  -7  -3  -4    4.49    3.08
  -7  -3  -4    0.26    2.24
  -3  10  -4    4.09    3.22
 -10   3  -4    4.32    2.67
   3 -10  -4    5.54    2.87
   3   7  -4    1.60    1.94
 -10   3  -3    3.60    2.41
  -7  10  -3    1.39    2.52
  -7  -3  -3    1.94    2.47
 -10   7  -3   -1.40    3.65
 -10   3  -3   -2.93    3.37
  -3  10  -3    0.60    1.40
   7 -10  -3   -2.00    2.64
  -7  10  -3    3.08    3.15
  -7  -3  -3    2.30    2.23
  -3  -7  -3    1.88    1.35
  -3  10  -3    3.61    2.98
   7   3  -3    2.71    2.43
  -7  -3  -2   27.68    2.29
  -7  10  -2   15.77    2.84
  -7  10  -2   25.16    3.47
  -7  -3  -2   19.34    2.80
  -3  10  -2   17.87    3.19
 -10   7  -2   26.29    4.12
 -10   3  -2   18.85    3.67
 -10   7  -1    3.58    3.05
 -10   3  -1    2.19    3.01
  -3  10  -1    4.84    2.40
  -7  10  -1    1.46    2.44
  -7  -3  -1    0.25    2.24
  -7  -3   0    6.90    2.09
  -3  10   0    4.17    1.98
 -10   7   0    3.79    2.87
 -10   3   0    6.34    2.84
  -7  -3   1    3.52    2.42
  -3  10   1    0.93    1.68
 -10   7   1    2.42    2.79
 -10   3   1    3.17    2.85
  -3  -7   2   13.51    3.24
  -3  10   2   20.42    2.02
  -7  -3   2   18.87    3.25
  -3  10   3    0.71    1.30
  -3  10   3    2.14    1.50
  -3  -7   3    1.20    3.29
   7 -10   3    2.35    1.61
  -7  -3   3    0.36    3.21
  -3  -7   4    6.33    3.98
   7 -10   4    4.36    2.13
  -3  10   4    2.94    1.66
   7 -10   5   -0.72    2.43
 -10   2  -7   -0.35    4.01
   2 -10  -7    0.74    4.28
 -10   2  -7    2.55    3.81
  -2  10  -7   -2.41    4.64
 -10   8  -6    5.18    4.71
 -10   2  -6    0.76    3.61
  -8  10  -6    2.36    4.15
 -10   2  -6   10.18    3.88
   2 -10  -6    1.36    3.95
  -2  10  -6    3.08    4.26
  -8  -2  -6    4.25    4.35
  -2  -8  -6    1.61    4.41
  -8  -2  -5    2.07    2.32
 -10   8  -5   -0.62    5.04
 -10   2  -5    1.07    2.94
 -10   8  -5    0.97    4.17
 -10   2  -5    2.40    3.08
  -8  10  -5    1.72    3.63
  -8  10  -5   -4.67    4.41
 -10   2  -5   -1.45    3.06
   2 -10  -5   -1.86    3.25
  -2  10  -5    5.92    3.72
   2   8  -4    1.59    1.58
 -10   2  -4    2.49    2.83
 -10   8  -4    9.65    4.09
  -8  10  -4    0.39    3.08
  -8  -2  -4   -1.43    2.93
  -2  10  -4    1.04    3.35
  -8  10  -4    0.39    3.63
 -10   8  -4    2.75    4.63
 -10   2  -4   -0.39    2.96
  -2  10  -4    2.49    1.46
 -10   2  -4    1.85    2.85
  -8  -2  -4   -0.30    2.54
   2 -10  -4    3.38    3.03
  -8  10  -3    4.23    3.23
   8 -10  -3    3.17    2.95
  -8  -2  -3   -0.31    2.60
 -10   8  -3    0.93    3.67
 -10   2  -3   -0.40    3.06
   8   2  -3   -0.28    2.68
  -8  -2  -3    2.00    2.25
  -8  10  -3    3.29    3.12
  -2  10  -3    5.93    3.01
  -8  10  -2   16.13    3.46
  -8  10  -2   14.05    3.02
  -8  -2  -2   13.92    3.05
 -10   8  -2   14.68    3.60
 -10   2  -2   13.69    3.49
  -2  10  -2   11.45    2.75
  -8  -2  -1    2.84    2.51
 -10   8  -1   -0.35    2.81
 -10   2  -1    5.11    3.17
  -2  10  -1    0.98    2.09
  -8  10  -1   -1.38    2.65
  -8  10   0    3.42    2.72
  -8  -2   0    1.46    2.65
  -2  10   0    2.34    1.82
 -10   8   0    4.20    2.88
 -10   2   0    3.96    3.07
  -8  -2   1   -0.75    2.30
 -10   8   1    4.54    3.21
 -10   2   1    4.30    3.08
  -2  10   1   -0.84    1.35
  -8  -2   2    9.93    2.93
  -2  -8   3   -3.66    3.08
  -8  -2   3   -2.78    3.37
  -1  10  -7   -1.35    4.69
 -10   9  -6   -8.07    5.98
  -9  -1  -6    2.24    2.19
 -10   1  -6    4.88    3.80
 -10   1  -6   -0.30    2.71
 -10   1  -6    1.39    3.77
   1 -10  -6    9.73    4.30
  -9  -1  -6   10.07    4.87
  -1  -9  -6    4.76    4.44
  -9  10  -6    0.59    5.29
  -1  10  -6    4.93    4.25
  -9  -1  -5    0.80    3.94
  -1  -9  -5   -1.13    4.14
 -10   9  -5   10.00    5.56
 -10   1  -5    4.95    3.22
  -9  10  -5   -0.53    4.84
  -9  10  -5   -0.45    3.72
 -10   1  -5   -2.00    2.75
  -9  -1  -5    0.29    2.59
 -10   1  -5    1.31    3.72
   1 -10  -5    3.38    3.85
  -1  10  -5   -0.73    3.63
 -10   1  -4    0.58    2.74
  -9  10  -4    6.68    3.69
  -9  -1  -4    2.27    2.84
  -9  10  -4   -0.46    3.69
 -10   9  -4    2.19    4.64
  -9  -1  -4    4.64    3.09
 -10   1  -4    4.14    3.05
  -1  10  -4    3.47    3.18
  -9  -1  -3    2.04    2.12
  -9  10  -3    1.97    3.25
  -9  10  -3   -0.38    3.36
  -9  -1  -3    5.55    3.03
  -1  10  -3   -0.79    2.63
 -10   9  -3    5.44    3.96
 -10   1  -3    4.71    3.30
  -9  10  -2    7.28    3.33
  -9  10  -2    8.37    3.19
  -9  -1  -2    6.43    3.27
 -10   9  -2   12.79    3.71
 -10   1  -2    4.99    3.42
  -1  10  -2    5.18    2.41
  -9  10  -1    2.20    2.82
  -9  -1  -1    3.90    2.92
 -10   9  -1    1.76    2.92
 -10   1  -1    2.94    3.12
  -1  10  -1    2.62    1.74
  -1  10   0    3.87    1.13
  -9  10   0    3.22    3.07
  -9  -1   0   -1.99    2.92
 -10   9   0    2.51    2.97
 -10   1   0    6.30    3.37
   0  10  -7    0.83    4.34
   0  10  -6    6.36    4.06
 -10   0  -6   -1.11    2.60
   0 -10  -6    1.56    4.50
 -10  10  -6    0.66    5.84
   0  10  -5    1.97    3.55
 -10  10  -5   -5.83    4.34
 -10  10  -5    3.65    5.21
 -10   0  -5   -0.64    2.68
 -10   0  -5   -2.62    4.16
   0 -10  -5    1.83    4.10
   0  10  -4    6.09    3.22
 -10  10  -4   -1.55    4.67
 -10   0  -4   -0.36    3.32
 -10   0  -4    1.99    2.89
 -10  10  -4    1.84    3.74
   0  10  -3    0.66    2.38
 -10   0  -3    1.64    2.37
 -10  10  -3    9.84    3.89
 -10  10  -3    7.37    3.78
 -10   0  -3    4.60    3.24
 -10  10  -2    1.89    3.62
 -10   0  -2    0.76    3.04
 -10  10  -1    2.84    3.20
 -10   0  -1    2.58    3.19
 -10  10   0    2.86    3.29
 -10   0   0    7.78    3.52
   5 -11  -6    2.44    3.74
 -11   6  -6    4.11    4.85
 -11   5  -6    0.47    4.34
  -6  11  -6   -0.49    4.29
  -5  11  -6    0.49    4.45
  -6  11  -5   -0.86    3.01
  -5  11  -5   -0.95    2.56
 -11   5  -5   -0.49    3.74
 -11   5  -5    1.37    3.87
 -11   6  -5    2.97    4.27
 -11   5  -5    1.76    2.91
   5 -11  -5    0.80    3.37
  -6  -5  -5   -0.89    2.08
  -6  11  -5   -0.45    3.98
  -5  11  -5    1.37    4.35
   6   5  -4    0.24    2.54
  -5  11  -4   -0.60    2.25
 -11   5  -4    9.51    4.06
 -11   6  -4    8.45    4.16
   6 -11  -4    1.00    2.74
  -6  11  -4    1.96    2.68
 -11   5  -4   -1.95    2.47
   5 -11  -4   -0.23    2.75
  -6  11  -4    1.21    3.31
  -6  -5  -4    3.83    2.49
  -5  11  -4    5.70    3.90
 -11   5  -4   -1.50    3.88
 -11   5  -3    4.24    3.70
  -5  11  -3    0.86    2.04
  -5  -6  -3    0.51    1.97
 -11   6  -3   -2.04    2.36
   6 -11  -3    3.47    2.31
  -6  11  -3    2.13    2.32
  -6  11  -3   -3.60    3.14
  -6  -5  -3    4.17    2.34
  -5  11  -3   -1.08    3.26
 -11   5  -3    2.76    2.27
   5 -11  -3    1.42    2.42
  -6  11  -2    8.74    3.23
  -5  11  -2    4.12    2.87
 -11   6  -2    7.10    2.06
 -11   5  -2    9.61    3.75
   6 -11  -2   10.96    2.20
  -5  11  -2   13.71    2.43
  -5  -6  -2   11.97    2.10
 -11   5  -2    8.07    2.19
   5 -11  -2   12.02    2.63
  -6  11  -2   11.92    2.71
  -6  -5  -2    9.18    2.43
 -11   5  -1   -2.81    3.34
  -6  11  -1   -1.47    2.47
  -5  11  -1    1.96    2.57
 -11   6  -1    2.91    1.53
   6 -11  -1    1.98    1.69
  -6  11   0    3.98    2.53
  -5  11   0    3.00    2.49
 -11   5   0    3.91    3.12
  -5  11   1   -0.89    2.09
 -11   5   1    2.72    3.14
   6 -11   3   -1.50    2.10
   4 -11  -7   -3.94    4.53
 -11   4  -6    2.62    3.37
 -11   4  -6   -2.16    4.30
   4 -11  -6   -0.33    3.97
  -7  11  -6    7.22    4.66
  -4  11  -6   -0.48    4.49
 -11   7  -5   -1.21    4.78
 -11   4  -5    1.33    3.47
  -4  11  -5    0.19    2.26
 -11   4  -5   -3.30    3.73
 -11   7  -5    7.84    4.74
  -7  11  -5   -3.09    3.33
 -11   4  -5   -3.08    3.03
  -7  11  -5    2.21    3.84
   4 -11  -5   -0.87    3.32
  -4  11  -5   -1.31    3.91
  -7  -4  -5    2.19    2.20
  -4  11  -4    0.47    2.01
   7   4  -4   -0.27    2.83
  -7  11  -4    2.35    2.91
 -11   4  -4    5.42    3.77
 -11   7  -4   -0.49    4.06
  -7  -4  -4   -0.54    2.63
  -7  11  -4    4.00    3.44
 -11   7  -4    4.53    4.46
 -11   4  -4   -1.86    3.67
  -4  11  -4   -2.39    3.80
 -11   4  -4    0.68    2.35
   4 -11  -4   -0.26    3.00
  -7  11  -3    0.36    3.13
  -7  11  -3    7.66    2.74
  -7  -4  -3    2.36    2.45
  -4  11  -3   -1.75    3.36
 -11   4  -3    2.76    2.29
   4 -11  -3    6.70    2.95
 -11   7  -3    5.49    4.27
  -4  11  -3   -1.30    1.71
 -11   4  -3    2.74    3.65
  -7  11  -2   10.52    2.86
  -7  -4  -2    4.62    2.45
  -7  11  -2    6.69    3.11
 -11   7  -2    7.45    3.68
 -11   4  -2   11.20    3.83
  -4  11  -2    4.52    2.88
 -11   7  -1    2.39    3.45
 -11   4  -1   -2.02    3.27
  -7  11  -1    2.76    2.87
  -7  11  -1    5.79    2.75
  -4  11  -1    1.05    2.78
  -7  -4  -1    1.49    2.49
  -4  11   0   -0.45    2.22
 -11   7   0    5.85    3.43
 -11   4   0    3.18    3.29
  -4  11   1   -0.39    2.12
 -11   7   1    6.20    3.44
 -11   4   1    0.79    3.23
  -4  11   2    6.44    2.13
   7 -11   2    8.38    1.33
  -7  -4   2    2.43    3.37
   7 -11   3    1.91    1.82
  -7  -4   3    3.91    3.38
 -11   3  -7   -0.33    4.00
   3 -11  -7    7.45    4.52
  -8  -3  -6    0.92    2.13
 -11   3  -6   -1.98    3.77
 -11   3  -6    0.30    3.40
   3 -11  -6    3.05    4.14
  -3  11  -6    0.92    4.38
  -8  11  -6   -2.32    4.62
  -8  11  -5   -4.49    3.87
 -11   3  -5    1.62    3.21
  -8  -3  -5    3.16    2.48
 -11   8  -5    1.60    4.54
 -11   3  -5    1.48    3.86
  -8  11  -5    2.20    3.76
 -11   3  -5   -0.81    3.15
   3 -11  -5    2.78    3.74
  -3  11  -5   -3.32    4.05
 -11   8  -5    9.08    5.64
  -8  11  -4   -1.39    3.27
  -8  -3  -4    1.80    2.66
 -11   3  -4    0.34    3.12
 -11   8  -4    7.55    4.47
 -11   8  -4   -1.18    4.93
 -11   3  -4   -0.88    3.63
  -8  11  -4    3.25    3.79
  -3  11  -4    3.26    3.44
 -11   3  -4    5.43    3.00
   3 -11  -4    4.24    3.55
 -11   3  -3    2.68    2.49
  -8  11  -3    3.37    3.17
  -8  11  -3    9.00    3.10
  -8  -3  -3    0.60    2.67
  -3  11  -3   -0.95    3.12
 -11   8  -3    6.08    4.43
 -11   3  -3    4.43    3.65
  -8  11  -2    2.21    2.62
  -8  -3  -2    4.85    2.98
  -8  -3  -2    5.83    2.10
 -11   8  -2    3.52    3.47
  -8  11  -2    2.12    3.05
 -11   3  -2    5.57    3.74
  -3  11  -2    2.47    2.72
 -11   8  -1    7.19    3.64
 -11   3  -1    4.89    3.68
  -8  11  -1   -2.62    2.93
  -3  11  -1    1.15    2.41
  -8  11  -1    0.29    2.86
  -8  -3  -1   -0.58    2.77
  -3  11   0    3.13    2.14
 -11   8   0    1.98    3.33
 -11   3   0    3.26    3.29
 -11   8   1    3.88    3.28
 -11   3   1    4.78    3.55
  -3  11   1   -0.42    1.81
  -8  -3   1    4.36    2.69
  -3  11   2    2.70    1.53
  -8  -3   2    1.59    3.01
  -3  11   3    1.17    1.26
 -11   2  -6    2.64    3.66
 -11   2  -6   -0.97    3.72
  -9  11  -6   -6.42    5.46
   2 -11  -6    4.29    4.40
  -2  11  -6    1.70    4.36
  -9  -2  -6    2.72    2.44
 -11   2  -5    3.07    3.23
  -9  11  -5   -1.83    3.95
  -9  11  -5    1.44    4.51
 -11   9  -5    4.07    6.12
 -11   2  -5   -3.39    3.26
 -11   2  -5    5.08    3.75
  -9  -2  -5    0.58    2.56
   2 -11  -5    4.32    4.05
  -2  11  -5   -0.76    3.80
  -9  11  -4    9.30    4.33
  -9  -2  -4   -0.97    2.93
 -11   9  -4    8.92    5.65
 -11   2  -4   -0.41    3.46
 -11   2  -4    4.92    3.08
 -11   9  -4   -0.51    4.15
  -9  11  -4    3.00    3.67
  -2  11  -4    3.32    3.52
 -11   2  -4   -0.28    3.05
   2 -11  -4    2.17    3.37
  -9  11  -3   -4.05    3.67
  -9  11  -3   -0.35    2.96
  -9  -2  -3   -0.34    2.85
 -11   9  -3    0.51    4.18
 -11   2  -3    6.46    3.52
  -2  11  -3    0.85    2.98
  -9  11  -2   -0.32    3.17
  -9  -2  -2    4.91    2.99
 -11   9  -2    6.13    3.81
 -11   2  -2   -0.43    3.30
  -9  11  -2    6.44    3.19
  -2  11  -2    0.23    2.58
 -11   9  -1    2.78    3.47
 -11   2  -1   -2.45    3.46
  -9  11  -1    0.32    2.93
  -9  -2  -1    7.30    3.36
  -2  11  -1    1.07    2.07
 -11   9   0    7.67    3.92
 -11   2   0    4.60    3.72
  -2  11   0    4.19    1.79
  -1  11  -6   -2.68    4.22
  -1 -10  -5    4.01    4.38
  -1  11  -5   -3.72    3.70
 -10  11  -5    1.66    4.90
 -11  10  -5    2.02    6.04
 -10  -1  -5   -0.31    2.84
 -11   1  -5    4.83    4.03
   1 -11  -5   -1.09    4.29
  -1  11  -4    2.93    3.23
 -11   1  -4   -1.68    3.87
 -11   1  -4    1.16    2.90
 -10  11  -4   10.49    4.26
 -10  11  -4   -4.22    4.18
 -10  -1  -4    1.05    3.10
 -11  10  -4    0.58    5.13
 -11   1  -4   -0.39    3.46
  -1  11  -3   -0.24    2.68
 -11  10  -3   -0.95    3.97
 -10  11  -3   -3.49    3.68
 -10  11  -3   -2.81    3.85
 -10  -1  -3    2.96    3.36
 -11  10  -3    2.46    4.25
 -11   1  -3   -2.09    3.57
  -1  11  -2    0.18    2.11
 -10  11  -2    0.36    3.48
 -10  -1  -2    4.43    3.53
 -11  10  -2    5.12    3.88
 -11   1  -2    1.67    3.46
 -10  11  -2   -3.71    3.64
 -10  11  -1   -2.53    3.52
 -10  -1  -1    0.37    3.54
 -11  10  -1    0.80    3.86
 -11   1  -1    4.56    3.72
 -10  11   0   11.19    3.96
 -10  -1   0    8.92    3.40
 -11  10   0    9.15    3.63
 -11   1   0    3.72    3.77
 -11  11  -4    2.68    4.89
 -11   0  -4    4.90    3.45
 -11  11  -3   -2.31    4.37
 -11   0  -3    1.61    3.67
 -11  11  -2   -0.41    3.87
 -11   0  -2   -2.04    3.75
 -11  11  -1   -1.22    3.66
 -11   0  -1   -0.42    3.86
 -11  11   0    1.19    3.77
 -11   0   0    5.76    4.20
  -6  12  -5    3.25    4.27
 -12   6  -4    1.10    4.35
 -12   6  -4    3.89    4.29
   6 -12  -4    0.43    3.06
  -6  12  -4    0.22    2.55
  -6  12  -4    5.01    3.87
   6 -12  -3   -0.36    2.57
  -6  12  -3   -3.42    3.49
 -12   6  -3    4.67    4.09
  -6  12  -3   -2.00    2.64
 -12   6  -2    9.12    4.20
  -6  12  -2    5.81    3.34
   6 -12  -2    3.85    2.34
 -12   6  -1    5.77    3.81
  -6  12  -1    0.62    2.90
   6 -12  -1   -1.10    2.03
  -6  12   0    0.28    2.92
 -12   6   0   -0.44    3.75
  -6  12   1    3.66    2.70
 -12   6   1    2.15    3.64
  -7  12  -5    3.57    3.28
 -12   5  -5    2.27    4.29
   5 -12  -5    1.42    3.87
  -7  12  -5    0.46    4.35
  -5  12  -5    0.91    4.36
 -12   5  -4    5.65    4.26
 -12   5  -4    3.48    4.00
 -12   7  -4   -0.52    4.31
  -7  12  -4    1.26    3.71
   5 -12  -4    0.75    3.12
  -7  12  -4   -0.77    2.85
  -5  12  -4    0.42    3.79
  -7  12  -3   -1.67    2.61
  -7  12  -3    2.30    3.66
  -5  12  -3    2.98    3.53
 -12   5  -3    5.02    4.28
   5 -12  -3    0.89    2.93
 -12   5  -2    3.80    4.03
  -7  12  -2    2.47    3.47
  -5  12  -2    3.61    3.40
  -7  12  -2    3.77    2.95
   5 -12  -2   -0.40    2.50
 -12   5  -1   -1.78    3.67
  -7  12  -1    5.27    3.21
  -5  12  -1   -0.58    2.95
  -7  12   0   -1.23    2.86
  -5  12   0   -1.53    2.60
 -12   5   0    1.79    3.57
  -5  12   1    1.37    2.61
 -12   5   1   -0.43    3.53
  -5  12   2    2.70    2.55
  -5  12   3    1.13    2.30
   4 -12  -6    3.70    4.28
  -4  12  -6    0.47    5.08
  -8  12  -6   -1.99    4.13
  -8  12  -5    3.52    3.68
 -12   4  -5   -2.41    3.80
   4 -12  -5    1.55    3.82
  -4  12  -5   -2.13    4.11
 -12   8  -4   -4.94    5.25
 -12   4  -4   -2.28    3.41
  -8  12  -4    0.85    3.86
  -8  12  -4   -0.61    3.17
   4 -12  -4    0.56    3.57
  -4  12  -4    0.77    3.75
  -8  12  -3    4.98    2.91
  -8  -4  -3    1.43    2.85
  -8  12  -3   -2.37    3.52
 -12   8  -3    2.20    4.75
 -12   4  -3    3.88    3.93
  -4  12  -3    3.46    3.51
 -12   4  -3   -1.40    2.47
   4 -12  -3    1.02    3.08
 -12   8  -2    0.98    3.69
 -12   4  -2    0.47    3.61
  -8  12  -2   -0.37    3.33
  -4  12  -2    3.98    3.15
  -8  12  -2    0.56    2.98
  -8  -4  -2    1.12    2.82
 -12   8  -1    4.92    3.69
 -12   4  -1   -0.91    3.96
  -8  12  -1    2.44    3.08
  -4  12  -1   -1.29    2.68
  -4  12   0    1.08    2.51
 -12   8   0    9.37    4.13
 -12   4   0    5.95    4.00
  -4  12   1    2.33    2.27
   3 -12  -6   -2.83    4.29
  -9  12  -6    4.66    4.85
  -3  12  -6    3.49    4.76
  -9  12  -5   -0.41    4.17
 -12   3  -5    0.35    3.45
   3 -12  -5    2.96    4.22
  -3  12  -5    0.79    4.51
 -12   3  -4    1.00    3.30
  -9  12  -4    2.19    4.33
  -9  12  -4    2.14    3.55
  -9  -3  -4   -0.32    3.01
 -12   3  -4    2.26    3.06
  -3  12  -4    2.48    4.02
   3 -12  -4    1.22    3.69
   3 -12  -3    3.77    3.33
  -9  12  -3   -0.32    3.12
  -9  -3  -3    5.84    3.23
  -9  12  -3    4.12    3.55
 -12   9  -3    6.63    4.80
 -12   3  -3   -1.86    3.97
  -3  12  -3   -2.15    3.42
 -12   3  -3    0.93    2.78
 -12   9  -2    9.23    4.48
 -12   3  -2    0.93    3.88
  -9  12  -2   -1.99    3.33
  -3  12  -2    4.14    2.86
  -9  12  -2    3.76    3.50
  -9  -3  -2    0.32    2.98
  -9  12  -1   -0.38    3.16
  -9  12  -1    3.54    3.29
  -9  -3  -1    2.58    3.20
  -3  12  -1    0.82    2.37
 -12   9  -1    1.35    4.11
 -12   3  -1    5.49    3.92
 -12   9   0    5.42    4.07
 -12   3   0    2.80    4.06
 -10  -2  -5    1.85    2.87
 -12   2  -5    1.53    3.84
   2 -12  -5    2.48    4.25
 -10  12  -5    4.28    4.96
 -12   2  -4   -0.60    2.95
 -10  12  -4    5.00    4.17
 -10  -2  -4   -0.34    3.24
 -12   2  -4    0.58    3.38
   2 -12  -4    0.67    4.38
 -10  12  -3    1.11    3.64
 -10  -2  -3   -3.21    3.34
 -12  10  -3    8.21    4.97
 -12   2  -3    3.15    3.90
 -10  12  -3   -0.45    4.23
 -12  10  -2    3.85    4.22
 -12   2  -2    0.46    3.98
 -10  12  -2    2.56    4.04
 -10  12  -2    3.89    3.63
 -10  -2  -2    2.18    3.44
 -10  12  -1    3.59    3.65
 -10  -2  -1   -2.96    3.49
 -12  10  -1    2.27    4.09
 -12   2  -1    1.85    4.07
 -12  10   0   -0.87    3.93
 -12   2   0    4.06    4.00
   1 -12  -4    5.94    4.63
 -11  12  -4   -2.40    4.87
 -11  -1  -4    2.18    3.50
 -12   1  -4   -2.84    4.21
 -11  12  -3   -0.43    4.35
 -11  -1  -3    3.11    3.97
 -12  11  -2   -3.77    4.48
 -12   1  -2   -3.60    4.00
 -11  12  -2   -0.80    3.84
 -11  -1  -2    1.21    3.99
 -11  12  -1    3.57    3.85
 -11  -1  -1    0.41    3.97
 -12  11  -1   -1.82    4.31
 -12   1  -1   -2.34    4.17
 -12  11   0   -1.31    4.00
 -12   1   0    0.46    3.91
 -12  12  -2    4.58    4.75
 -12   0  -2    5.78    4.32
 -12  12  -1   -0.88    4.42
 -12   0  -1   -0.46    4.22
  -7  13  -4    1.31    4.34
  -6  13  -4   -3.48    4.43
  -7  13  -3    2.02    3.97
  -6  13  -3   -0.78    3.97
  -7  13  -2   -0.74    3.64
  -6  13  -2   -1.42    3.51
  -7  13  -1    1.37    3.46
  -6  13  -1    2.55    3.24
 -13   6  -1    2.49    4.11
  -7  13   0   -1.93    3.28
  -6  13   0    4.34    3.22
 -13   6   0    3.01    4.23
  -7  13   1   -2.74    3.08
  -6  13   1    2.89    2.89
  -7  13   2    2.86    3.19
  -5  13  -5    1.76    4.57
  -5  13  -4    2.86    4.36
  -8  13  -3   -3.30    3.99
  -5  13  -3    3.36    4.14
  -8  13  -2   -1.94    3.61
  -5  13  -2   -2.31    3.50
  -8  13  -1    1.84    3.71
  -5  13  -1   -1.73    3.26
  -8  13   0    3.85    3.55
  -5  13   0    5.26    2.97
 -13   8   0    1.93    3.95
 -13   5   0   -2.46    4.04
  -8  13   1    3.70    3.46
  -9  13  -3   -4.30    4.03
   4 -13  -3    1.13    3.47
  -9  13  -3   -1.83    3.29
  -9  13  -2    2.05    3.89
  -9  13  -2    2.84    3.22
  -9  13  -1    0.80    3.84
  -9  13   0   -3.45    3.51
 -10  13  -4   -0.74    3.86
   3 -13  -3    4.44    4.18
 -10  13  -3   -1.38    3.75
 -10  13  -2   -4.66    3.89
 -10  13  -1    1.28    4.16
 -11  13  -3   -4.35    4.16
 -11  13  -2   -3.19    4.13
  -7  14  -3   -4.12    4.38
  -7  14  -2    4.59    4.22
  -7  14  -1   -3.50    3.97
  -8  14  -2   -1.61    4.03
  -8  14  -1   -0.38    4.13
  -8  14   0    1.43    3.85
  -8  14   1   -1.74    3.96
  -9  14  -1    0.41    4.14
  -9  14   0    0.40    4.20
  -9  14   1    0.77    3.99
   0   0   0    0.00    0.00
;
_shelx_hkl_checksum              90799
loop_
_space_group_symop_operation_xyz
'x, y, z'
'-y, x-y, z'
'-x+y, -x, z'
'-x, -y, z+1/2'
'y, -x+y, z+1/2'
'x-y, x, z+1/2'
'y, x, -z'
'x-y, -y, -z'
'-x, -x+y, -z'
'-y, -x, -z+1/2'
'-x+y, y, -z+1/2'
'x, x-y, -z+1/2'
'-x, -y, -z'
'y, -x+y, -z'
'x-y, x, -z'
'x, y, -z-1/2'
'-y, x-y, -z-1/2'
'-x+y, -x, -z-1/2'
'-y, -x, z'
'-x+y, y, z'
'x, x-y, z'
'y, x, z-1/2'
'x-y, -y, z-1/2'
'-x, -x+y, z-1/2'
loop_
_atom_site_label
_atom_site_type_symbol
_atom_site_fract_x
_atom_site_fract_y
_atom_site_fract_z
_atom_site_U_iso_or_equiv
_atom_site_adp_type
_atom_site_occupancy
_atom_site_site_symmetry_order
_atom_site_calc_flag
_atom_site_refinement_flags_posn
_atom_site_refinement_flags_adp
_atom_site_refinement_flags_occupancy
N1 N 0.6667 0.3333 0.7500 0.183(18) Uani 1 12 d DS TU P
C1 C 0.818(3) 0.4088(13) 0.874(3) 0.209(18) Uani 0.6667 2 d DS TU P
H1A H 0.8988 0.5052 0.8368 0.251 Uiso 0.6667 1 d R U P
H1B H 0.8561 0.3395 0.8956 0.251 Uiso 0.25 1 d R U P
Br1 Br 0.7126(16) 0.425(3) 1.045(3) 0.241(13) Uani 0.1667 2 d DS TU P
Pb1 Pb 1.0000 1.0000 0.0000 0.0989(9) Uani 1 12 d S T P
I1 I 0.85598(13) 0.7120(3) 0.2500 0.1445(12) Uani 1 4 d S T P
loop_
_atom_site_aniso_label
_atom_site_aniso_U_11
_atom_site_aniso_U_22
_atom_site_aniso_U_33
_atom_site_aniso_U_23
_atom_site_aniso_U_13
_atom_site_aniso_U_12
N1 0.18(3) 0.18(3) 0.18(5) 0.000 0.000 0.092(14)
C1 0.21(4) 0.23(3) 0.17(4) -0.007(10) -0.01(2) 0.107(18)
Br1 0.25(2) 0.182(19) 0.27(3) -0.022(19) -0.011(9) 0.091(10)
Pb1 0.1146(11) 0.1146(11) 0.0677(11) 0.000 0.000 0.0573(5)
I1 0.179(2) 0.1088(15) 0.1223(18) 0.000 0.000 0.0544(8)
loop_
_atom_type_symbol
_atom_type_description
_atom_type_scat_dispersion_real
_atom_type_scat_dispersion_imag
_atom_type_scat_source
C C 0.0033 0.0016 'International Tables Vol C Tables 4.2.6.8 and 6.1.1.4'
H H 0.0000 0.0000 'International Tables Vol C Tables 4.2.6.8 and 6.1.1.4'
N N 0.0061 0.0033 'International Tables Vol C Tables 4.2.6.8 and 6.1.1.4'
Br Br -0.2901 2.4595 'International Tables Vol C Tables 4.2.6.8 and 6.1.1.4'
I I -0.4742 1.8119 'International Tables Vol C Tables 4.2.6.8 and 6.1.1.4'
Pb Pb -3.3944 10.1111 'International Tables Vol C Tables 4.2.6.8 and 6.1.1.4'
loop_
_geom_angle_atom_site_label_1
_geom_angle_atom_site_label_2
_geom_angle_atom_site_label_3
_geom_angle
_geom_angle_site_symmetry_1
_geom_angle_site_symmetry_3
C1 N1 C1 74.5(19) 17_657 2_655
C1 N1 C1 133.1(6) 17_657 .
C1 N1 C1 87.2(14) 2_655 .
C1 N1 C1 87.2(14) 17_657 18_667
C1 N1 C1 133.1(6) 2_655 18_667
C1 N1 C1 133.1(6) . 18_667
C1 N1 C1 87.2(14) 17_657 16_557
C1 N1 C1 133.1(6) 2_655 16_557
C1 N1 C1 74.5(19) . 16_557
C1 N1 C1 87.2(14) 18_667 16_557
C1 N1 C1 133.1(6) 17_657 3_665
C1 N1 C1 87.2(14) 2_655 3_665
C1 N1 C1 87.2(14) . 3_665
C1 N1 C1 74.5(19) 18_667 3_665
C1 N1 C1 133.1(6) 16_557 3_665
N1 C1 Br1 93.4(13) . 3_665
N1 C1 Br1 93.4(13) . .
Br1 C1 Br1 45.5(18) 3_665 .
N1 C1 C1 52.8(9) . 16_557
Br1 C1 C1 140.2(7) 3_665 16_557
Br1 C1 C1 140.2(7) . 16_557
Br1 Br1 Br1 60.000(7) 2_655 3_665
Br1 Br1 C1 67.2(9) 2_655 2_655
Br1 Br1 C1 104.4(10) 3_665 2_655
Br1 Br1 C1 104.4(10) 2_655 .
Br1 Br1 C1 67.2(9) 3_665 .
C1 Br1 C1 78.9(14) 2_655 .
I1 Pb1 I1 95.02(4) . 14_565
I1 Pb1 I1 84.98(4) . 2_765
I1 Pb1 I1 180.00(5) 14_565 2_765
I1 Pb1 I1 95.02(4) . 15_655
I1 Pb1 I1 84.98(4) 14_565 15_655
I1 Pb1 I1 95.02(4) 2_765 15_655
I1 Pb1 I1 84.98(4) . 3_675
I1 Pb1 I1 95.02(4) 14_565 3_675
I1 Pb1 I1 84.98(4) 2_765 3_675
I1 Pb1 I1 180.0 15_655 3_675
I1 Pb1 I1 180.00(7) . 13_775
I1 Pb1 I1 84.98(4) 14_565 13_775
I1 Pb1 I1 95.02(4) 2_765 13_775
I1 Pb1 I1 84.98(4) 15_655 13_775
I1 Pb1 I1 95.02(4) 3_675 13_775
Pb1 I1 Pb1 77.48(5) 4_775 .
loop_
_geom_bond_atom_site_label_1
_geom_bond_atom_site_label_2
_geom_bond_distance
_geom_bond_site_symmetry_2
N1 C1 1.65(2) 17_657
N1 C1 1.65(2) 2_655
N1 C1 1.65(2) .
N1 C1 1.65(2) 18_667
N1 C1 1.65(2) 16_557
N1 C1 1.65(2) 3_665
C1 Br1 1.795(19) 3_665
C1 Br1 1.795(19) .
C1 C1 2.00(5) 16_557
Br1 Br1 1.39(5) 2_655
Br1 Br1 1.39(5) 3_665
Br1 C1 1.795(19) 2_655
Pb1 I1 3.2238(17) .
Pb1 I1 3.2238(17) 14_565
Pb1 I1 3.2238(18) 2_765
Pb1 I1 3.2238(17) 15_655
Pb1 I1 3.2238(17) 3_675
Pb1 I1 3.2238(17) 13_775
I1 Pb1 3.2238(17) 4_775
